data_PCOD9105724
_publ_section_title
;
Structure prediction by ZEFSAII (Michael W. Deem and Ramdas Pophale) SiO2 
 PCOD9105724
Probable space group: P -1
;
_chemical_formula_sum "Si O2"
_cell_formula_units_Z 16
_cell_length_a 27.168585
_cell_length_b 7.069969
_cell_length_c 5.530392
_cell_angle_alpha 105.974149
_cell_angle_beta 53.943475
_cell_angle_gamma 133.245094
_cell_volume 610.600151
_symmetry_space_group_name_H-M "P -1"
_symmetry_group_IT_number 2
_symmetry_cell_setting 'triclinic'
loop_
_space_group_symop_operation_xyz
x,y,z
-x,-y,-z
loop_
_atom_site_type_symbol
_atom_site_label
_atom_site_fract_x
_atom_site_fract_y
_atom_site_fract_z
Si Si1 0.903358 0.275445 0.253803
Si Si2 0.671786 0.910737 0.119591
Si Si3 0.402287 0.260133 0.232755
Si Si4 0.336338 0.636719 0.782908
Si Si5 0.978401 0.127106 0.295250
Si Si6 0.594978 0.194558 0.860161
Si Si7 0.850188 0.414650 0.845134
Si Si8 0.840588 0.817620 0.940157
O O1 0.909113 0.125432 0.395473
O O2 0.870911 0.409726 0.500143
O O3 0.000000 0.500000 0.000000
O O4 0.852661 0.050278 0.119649
O O5 0.656678 0.111817 0.187868
O O6 0.622795 0.718907 0.422049
O O7 0.767149 0.109857 0.995792
O O8 0.645378 0.774629 0.884117
O O9 0.382557 0.985718 0.231583
O O10 0.500000 0.500000 0.000000
O O11 0.358314 0.615530 0.441097
O O12 0.391128 0.695175 0.872357
O O13 0.243531 0.374963 0.031795
O O14 0.062580 0.426903 0.218653
O O15 0.928722 0.955260 0.615672
O O16 0.000000 0.000000 0.000000
O O17 0.500000 0.000000 0.000000
O O18 0.828534 0.590007 0.049578
#
# Coordination Sequence:
#
# PCOD9105724 Si02
#       8
#     2   2   2   2   2   2   2   2
#     4  12  25  42  65  93 136 173 228 280 331 400
#     4   9  21  39  64  93 126 175 219 271 333 400
#     4  10  20  40  65  93 129 169 217 270 333 406
#     4   9  21  38  66  91 131 170 220 274 329 400
#     4  12  24  41  68  94 130 179 222 275 338 397
#     4  10  20  39  65  96 126 170 217 270 334 402
#     4  11  23  44  65  96 130 176 226 279 336 396
#     4  11  24  44  65  95 130 179 224 276 338 398
#
# _framework density 26.203728000000002
#
# number of rings (size 3 to 8) (size 9 to 14) (size 15 to 20)
#    0.000    1.500    2.500    2.250    1.750    4.000 
#    2.250    0.000    0.000    0.000    0.000    0.000 
#    0.000    0.000    0.000    0.000    0.000    0.000 
#
# Total GULP energy -89334.917621 kJ/mol
# GULP energy per Si atom -5583.432351 kJ/mol
# Density = 2.614409 g / cm^3
# Si number density = 26.203728 Si / 1000 Ang^3
#
#
#
# Elastic Constant Matrix: (Units=GPa)
#
#
# Indices 1 2 3 4 5 6 
#
# 1 105.6658 56.5399 47.7400 0.2809 30.2862 33.3831
# 2 56.5399 154.6340 74.9502 28.6249 10.2148 16.1488
# 3 47.7400 74.9502 143.9814 -1.2434 14.9727 22.0655
# 4 0.2809 28.6249 -1.2434 52.4348 1.5489 -16.1669
# 5 30.2862 10.2148 14.9727 1.5489 32.0487 5.5081
# 6 33.3831 16.1488 22.0655 -16.1669 5.5081 53.6546
#
#
#
# Elastic Compliance Matrix: (Units=1/GPa)
#
#
# Indices 1 2 3 4 5 6 
#
# 1 0.019527 -0.004750 -0.001120 0.000234 -0.014940 -0.008655
# 2 -0.004750 0.011659 -0.004761 -0.006872 0.003505 -0.001027
# 3 -0.001120 -0.004761 0.010203 0.002580 -0.002131 -0.001070
# 4 0.000234 -0.006872 0.002580 0.025653 -0.001988 0.008795
# 5 -0.014940 0.003505 -0.002131 -0.001988 0.044619 0.003938
# 6 -0.008655 -0.001027 -0.001070 0.008795 0.003938 0.027018
#
#
# Mechanical properties :
#
#
# Convention : Reuss Voigt Hill
#
# Bulk Modulus (GPa) = 49.68232 84.74905 67.21568
# Shear Modulus (GPa) = 30.00320 42.63104 36.31712
#
# Velocity S-wave (km/s) = 3.38745 4.03787 3.72688
# Velocity P-wave (km/s) = 5.85670 7.35879 6.65029
#
# Compressibility (1/GPa) = 0.02012788
#
# Stress axis : x y z
#
# Youngs Moduli (GPa) = 51.21076 85.77202 98.01130
#
# Poissons Ratio (x) = 0.40738 0.10979
# Poissons Ratio (y) = 0.24323 0.46661
# Poissons Ratio (z) = 0.05737 0.40834
#
# Static dielectric constant tensor:
#      x y z
#    x 2.143200 -0.080760 0.107020 
#    y -0.080760 2.041500 0.006010 
#    z 0.107020 0.006010 2.206260 
# 
# From -- ./inp_files/128277.got.cif
#   From: 2010.05.17/outbox.cif.g08.bks.cpg/sg2_65_cif.got.tgz:128277.got - 2010.06.03 11:33:40.
