data_PCOD9105340
_publ_section_title
;
Structure prediction by ZEFSAII (Michael W. Deem and Ramdas Pophale) SiO2 
 PCOD9105340
Probable space group: P -1
;
_chemical_formula_sum "Si O2"
_cell_formula_units_Z 14
_cell_length_a 9.009733
_cell_length_b 7.591394
_cell_length_c 12.164628
_cell_angle_alpha 120.767348
_cell_angle_beta 95.554138
_cell_angle_gamma 112.637751
_cell_volume 612.921009
_symmetry_space_group_name_H-M "P -1"
_symmetry_group_IT_number 2
_symmetry_cell_setting 'triclinic'
loop_
_space_group_symop_operation_xyz
x,y,z
-x,-y,-z
loop_
_atom_site_type_symbol
_atom_site_label
_atom_site_fract_x
_atom_site_fract_y
_atom_site_fract_z
Si Si1 0.819144 0.431695 0.406045
Si Si2 0.649906 0.642717 0.972086
Si Si3 0.209509 0.238047 0.337547
Si Si4 0.706507 0.136623 0.087893
Si Si5 0.466822 0.101405 0.381115
Si Si6 0.619066 0.375105 0.691114
Si Si7 0.017062 0.832811 0.040422
O O1 0.802794 0.658175 0.513996
O O2 0.785800 0.352401 0.250676
O O3 0.659522 0.203168 0.381989
O O4 0.000000 0.500000 0.500000
O O5 0.570067 0.532731 0.812738
O O6 0.500000 0.500000 0.000000
O O7 0.822006 0.622151 0.977930
O O8 0.712942 0.918168 0.076098
O O9 0.380486 0.217371 0.339448
O O10 0.222852 0.428760 0.308559
O O11 0.069080 0.980040 0.204155
O O12 0.833118 0.206270 0.012594
O O13 0.500000 0.000000 0.000000
O O14 0.481546 0.210258 0.537717
O O15 0.364841 0.818717 0.296893
O O16 0.000000 0.000000 0.000000
#
# Coordination Sequence:
#
# PCOD9105340 Si02
#       7
#     2   2   2   2   2   2   2
#     4  11  22  35  63  96 129 168 215 264 331 392
#     4  11  23  40  66  89 130 173 217 264 340 383
#     4  11  21  41  70  93 125 175 220 265 329 394
#     4  11  23  38  63 100 128 164 221 268 320 402
#     4  10  23  38  65  96 124 167 228 262 320 403
#     4  10  20  39  64  90 130 165 212 274 332 374
#     4  10  20  40  67  91 128 173 219 266 327 399
#
# _framework density 22.841443999999999
#
# number of rings (size 3 to 8) (size 9 to 14) (size 15 to 20)
#    0.000    1.429    2.857    5.143    4.000    0.000 
#    0.000    2.857    0.000   14.571    0.000    0.000 
#    0.000    0.000    0.000    0.000    0.000    0.000 
#
# Total GULP energy -77974.980070 kJ/mol
# GULP energy per Si atom -5569.641434 kJ/mol
# Density = 2.278946 g / cm^3
# Si number density = 22.841444 Si / 1000 Ang^3
#
#
#
# Elastic Constant Matrix: (Units=GPa)
#
#
# Indices 1 2 3 4 5 6 
#
# 1 145.6306 34.9748 39.9884 1.3623 10.7906 24.9979
# 2 34.9748 51.1137 23.5480 5.9028 -4.9687 11.2788
# 3 39.9884 23.5480 192.8048 8.6121 -12.7409 13.6804
# 4 1.3623 5.9028 8.6121 21.2303 8.7032 -1.7170
# 5 10.7906 -4.9687 -12.7409 8.7032 30.9929 -1.1601
# 6 24.9979 11.2788 13.6804 -1.7170 -1.1601 28.8817
#
#
#
# Elastic Compliance Matrix: (Units=1/GPa)
#
#
# Indices 1 2 3 4 5 6 
#
# 1 0.010174 -0.006047 -0.001562 0.003841 -0.006447 -0.005735
# 2 -0.006047 0.027367 -0.000594 -0.011188 0.009186 -0.005469
# 3 -0.001562 -0.000594 0.006127 -0.003987 0.004035 -0.001393
# 4 0.003841 -0.011188 -0.003987 0.060925 -0.021666 0.005684
# 5 -0.006447 0.009186 0.004035 -0.021666 0.043746 0.000551
# 6 -0.005735 -0.005469 -0.001393 0.005684 0.000551 0.042743
#
#
# Mechanical properties :
#
#
# Convention : Reuss Voigt Hill
#
# Bulk Modulus (GPa) = 36.68043 65.17460 50.92751
# Shear Modulus (GPa) = 23.08663 35.62351 29.35507
#
# Velocity S-wave (km/s) = 3.18265 3.95346 3.58881
# Velocity P-wave (km/s) = 5.44052 7.03102 6.28628
#
# Compressibility (1/GPa) = 0.02726250
#
# Stress axis : x y z
#
# Youngs Moduli (GPa) = 98.28840 36.54046 163.22126
#
# Poissons Ratio (x) = 0.22095 0.25501
# Poissons Ratio (y) = 0.59433 0.09687
# Poissons Ratio (z) = 0.15356 0.02169
#
# Static dielectric constant tensor:
#      x y z
#    x 2.003210 0.047100 0.066550 
#    y 0.047100 1.975660 0.053100 
#    z 0.066550 0.053100 2.004180 
# 
# From -- ./inp_files/491610.got.cif
#   From: 2010.05.17/outbox.cif.g08.bks.cpg/sg2_246_cif.got.tgz:491610.got - 2010.06.03 11:33:40.
