data_PCOD9105750
_publ_section_title
;
Structure prediction by ZEFSAII (Michael W. Deem and Ramdas Pophale) SiO2 
 PCOD9105750
Probable space group: P -1
;
_chemical_formula_sum "Si O2"
_cell_formula_units_Z 13
_cell_length_a 13.273845
_cell_length_b 8.690246
_cell_length_c 7.557438
_cell_angle_alpha 108.241555
_cell_angle_beta 123.453334
_cell_angle_gamma 44.468254
_cell_volume 504.678489
_symmetry_space_group_name_H-M "P -1"
_symmetry_group_IT_number 2
_symmetry_cell_setting 'triclinic'
loop_
_space_group_symop_operation_xyz
x,y,z
-x,-y,-z
loop_
_atom_site_type_symbol
_atom_site_label
_atom_site_fract_x
_atom_site_fract_y
_atom_site_fract_z
Si Si1 0.230994 0.117782 0.535487
Si Si2 0.500000 0.500000 0.000000
Si Si3 0.602394 0.666990 0.636628
Si Si4 0.811934 0.180573 0.650554
Si Si5 0.623323 0.737738 0.072276
Si Si6 0.820579 0.062123 0.030555
Si Si7 0.153421 0.295920 0.180379
O O1 0.240914 0.276231 0.705160
O O2 0.104401 0.262611 0.306023
O O3 0.413410 0.898918 0.551322
O O4 0.185232 0.985667 0.523575
O O5 0.457189 0.338453 0.929277
O O6 0.304819 0.716952 0.902194
O O7 0.655307 0.438821 0.543649
O O8 0.710158 0.695035 0.642944
O O9 0.671482 0.619363 0.886402
O O10 0.799301 0.143849 0.834559
O O11 0.989364 0.102365 0.785300
O O12 0.500000 0.000000 0.000000
O O13 0.770513 0.920225 0.934400
O O14 0.000000 0.500000 0.000000
#
# Coordination Sequence:
#
# PCOD9105750 Si02
#       7
#     2   1   2   2   2   2   2
#     4  10  23  40  66 104 134 177 232 286 341 415
#     4  12  22  42  70  98 140 188 230 280 346 428
#     4  11  20  41  69  97 135 181 232 279 350 415
#     4  10  20  39  65  97 133 173 232 284 335 407
#     4  10  23  43  66 101 140 181 227 286 351 411
#     4  10  21  38  65  98 130 182 228 277 349 406
#     4  11  22  41  68  99 139 179 234 290 342 411
#
# _framework density 25.758975
#
# number of rings (size 3 to 8) (size 9 to 14) (size 15 to 20)
#    0.000    1.538    3.077    2.769    0.000    1.231 
#    5.538    3.077    0.000    5.538    0.000    0.000 
#    0.000    0.000    0.000    0.000    0.000    0.000 
#
# Total GULP energy -72367.914085 kJ/mol
# GULP energy per Si atom -5566.762622 kJ/mol
# Density = 2.570035 g / cm^3
# Si number density = 25.758975 Si / 1000 Ang^3
#
#
#
# Elastic Constant Matrix: (Units=GPa)
#
#
# Indices 1 2 3 4 5 6 
#
# 1 59.5216 40.0874 13.5451 9.5120 16.0075 21.1103
# 2 40.0874 149.1334 28.5237 3.9282 -0.7173 20.4771
# 3 13.5451 28.5237 74.3760 10.3469 5.9227 9.3802
# 4 9.5120 3.9282 10.3469 40.1459 11.1415 15.2572
# 5 16.0075 -0.7173 5.9227 11.1415 28.3040 7.7190
# 6 21.1103 20.4771 9.3802 15.2572 7.7190 46.7493
#
#
#
# Elastic Compliance Matrix: (Units=1/GPa)
#
#
# Indices 1 2 3 4 5 6 
#
# 1 0.027446 -0.006310 -0.000662 0.001000 -0.013883 -0.007531
# 2 -0.006310 0.009120 -0.002596 0.000612 0.004531 -0.001572
# 3 -0.000662 -0.002596 0.015142 -0.002895 -0.001613 -0.000391
# 4 0.001000 0.000612 -0.002895 0.031445 -0.009933 -0.008761
# 5 -0.013883 0.004531 -0.001613 -0.009933 0.047545 0.000000
# 6 -0.007531 -0.001572 -0.000391 -0.008761 0.000000 0.028418
#
#
# Mechanical properties :
#
#
# Convention : Reuss Voigt Hill
#
# Bulk Modulus (GPa) = 30.70202 49.70483 40.20342
# Shear Modulus (GPa) = 26.43991 36.43151 31.43571
#
# Velocity S-wave (km/s) = 3.20728 3.76483 3.49718
# Velocity P-wave (km/s) = 5.06560 6.18357 5.65230
#
# Compressibility (1/GPa) = 0.03257115
#
# Stress axis : x y z
#
# Youngs Moduli (GPa) = 36.43531 109.65418 66.04189
#
# Poissons Ratio (x) = 0.69191 0.04374
# Poissons Ratio (y) = 0.22990 0.17144
# Poissons Ratio (z) = 0.02413 0.28465
#
# Static dielectric constant tensor:
#      x y z
#    x 2.006820 0.060180 -0.059830 
#    y 0.060180 1.998140 0.069290 
#    z -0.059830 0.069290 2.123420 
# 
# From -- ./inp_files/156216.got.cif
#   From: 2010.05.17/outbox.cif.g08.bks.cpg/sg2_79_cif.got.tgz:156216.got - 2010.06.03 11:33:40.
