data_PCOD9105085
_publ_section_title
;
Structure prediction by ZEFSAII (Michael W. Deem and Ramdas Pophale) SiO2 
 PCOD9105085
Probable space group: P -1
;
_chemical_formula_sum "Si O2"
_cell_formula_units_Z 12
_cell_length_a 12.467110
_cell_length_b 17.245598
_cell_length_c 6.529305
_cell_angle_alpha 126.152639
_cell_angle_beta 125.026862
_cell_angle_gamma 21.820686
_cell_volume 419.709899
_symmetry_space_group_name_H-M "P -1"
_symmetry_group_IT_number 2
_symmetry_cell_setting 'triclinic'
loop_
_space_group_symop_operation_xyz
x,y,z
-x,-y,-z
loop_
_atom_site_type_symbol
_atom_site_label
_atom_site_fract_x
_atom_site_fract_y
_atom_site_fract_z
Si Si1 0.212049 0.824609 0.741398
Si Si2 0.203820 0.752333 0.060951
Si Si3 0.136345 0.310572 0.428828
Si Si4 0.832893 0.412176 0.607470
Si Si5 0.397571 0.258089 0.971358
Si Si6 0.226530 0.087439 0.875904
O O1 0.490133 0.610463 0.573848
O O2 0.177816 0.778380 0.825116
O O3 0.357432 0.830390 0.985683
O O4 0.898013 0.071112 0.711317
O O5 0.500000 0.500000 0.000000
O O6 0.009678 0.816456 0.100180
O O7 0.355099 0.201771 0.676477
O O8 0.263666 0.163528 0.156763
O O9 0.000000 0.500000 0.500000
O O10 0.911463 0.389027 0.427221
O O11 0.856153 0.500380 0.891069
O O12 0.077523 0.193819 0.658674
O O13 0.496300 0.157220 0.144935
#
# Coordination Sequence:
#
# PCOD9105085 Si02
#       6
#     2   2   2   2   2   2
#     4   8  18  31  58  85 110 149 189 228 281 340
#     4  10  16  33  60  84 110 149 191 229 281 337
#     4  12  23  39  60  84 119 153 190 240 287 338
#     4  10  21  40  57  85 118 152 189 236 288 335
#     4   9  20  39  58  84 115 153 189 231 287 338
#     4  11  22  37  60  88 114 151 193 237 282 341
#
# _framework density 28.591175
#
# number of rings (size 3 to 8) (size 9 to 14) (size 15 to 20)
#    1.000    1.000    3.333    1.000    0.000    0.667 
#    3.000    0.833    0.000    1.000    0.000    0.000 
#    0.000    0.000    0.000    0.000    0.000    0.000 
#
# Total GULP energy -66973.107095 kJ/mol
# GULP energy per Si atom -5581.092258 kJ/mol
# Density = 2.852610 g / cm^3
# Si number density = 28.591175 Si / 1000 Ang^3
#
#
#
# Elastic Constant Matrix: (Units=GPa)
#
#
# Indices 1 2 3 4 5 6 
#
# 1 127.6773 18.5809 9.0166 -18.7809 -20.0389 17.1355
# 2 18.5809 183.2459 42.8432 -20.0429 -9.5147 34.1883
# 3 9.0166 42.8432 116.9199 5.6263 -2.2962 9.6173
# 4 -18.7809 -20.0429 5.6263 30.8589 -5.9924 -12.2463
# 5 -20.0389 -9.5147 -2.2962 -5.9924 38.1816 4.2423
# 6 17.1355 34.1883 9.6173 -12.2463 4.2423 54.4873
#
#
#
# Elastic Compliance Matrix: (Units=1/GPa)
#
#
# Indices 1 2 3 4 5 6 
#
# 1 0.010304 0.000849 -0.001123 0.007410 0.006987 -0.002453
# 2 0.000849 0.007376 -0.002652 0.005022 0.003307 -0.003555
# 3 -0.001123 -0.002652 0.009870 -0.004735 -0.001324 -0.000686
# 4 0.007410 0.005022 -0.004735 0.045083 0.011421 0.004598
# 5 0.006987 0.003307 -0.001324 0.011421 0.032842 -0.004029
# 6 -0.002453 -0.003555 -0.000686 0.004598 -0.004029 0.022823
#
#
# Mechanical properties :
#
#
# Convention : Reuss Voigt Hill
#
# Bulk Modulus (GPa) = 46.09193 63.19160 54.64177
# Shear Modulus (GPa) = 35.36482 48.53238 41.94860
#
# Velocity S-wave (km/s) = 3.52079 4.12449 3.83454
# Velocity P-wave (km/s) = 5.71699 6.69565 6.22558
#
# Compressibility (1/GPa) = 0.02169577
#
# Stress axis : x y z
#
# Youngs Moduli (GPa) = 97.04936 135.58351 101.32071
#
# Poissons Ratio (x) = -0.11509 0.11381
# Poissons Ratio (y) = -0.08238 0.26874
# Poissons Ratio (z) = 0.10901 0.35961
#
# Static dielectric constant tensor:
#      x y z
#    x 2.285170 -0.086490 0.071070 
#    y -0.086490 2.378300 -0.045970 
#    z 0.071070 -0.045970 2.415000 
# 
# From -- ./inp_files/98833.got.cif
#   From: 2010.05.17/outbox.cif.g08.bks.cpg/sg2_50_cif.got.tgz:98833.got - 2010.06.03 11:33:40.
