data_PCOD9105069
_publ_section_title
;
Structure prediction by ZEFSAII (Michael W. Deem and Ramdas Pophale) SiO2 
 PCOD9105069
Probable space group: P -1
;
_chemical_formula_sum "Si O2"
_cell_formula_units_Z 16
_cell_length_a 10.090056
_cell_length_b 9.952459
_cell_length_c 14.172267
_cell_angle_alpha 125.503827
_cell_angle_beta 39.321368
_cell_angle_gamma 131.415752
_cell_volume 669.142606
_symmetry_space_group_name_H-M "P -1"
_symmetry_group_IT_number 2
_symmetry_cell_setting 'triclinic'
loop_
_space_group_symop_operation_xyz
x,y,z
-x,-y,-z
loop_
_atom_site_type_symbol
_atom_site_label
_atom_site_fract_x
_atom_site_fract_y
_atom_site_fract_z
Si Si1 0.855474 0.670548 0.283034
Si Si2 0.605742 0.137750 0.585656
Si Si3 0.736480 0.906467 0.572928
Si Si4 0.497675 0.604028 0.949302
Si Si5 0.391040 0.929022 0.131006
Si Si6 0.011843 0.634458 0.872922
Si Si7 0.011280 0.283801 0.299237
Si Si8 0.141252 0.137472 0.835538
O O1 0.704921 0.723571 0.462846
O O2 0.822031 0.740333 0.228059
O O3 0.121213 0.799618 0.215076
O O4 0.835077 0.467286 0.217891
O O5 0.395822 0.181983 0.754225
O O6 0.829823 0.291506 0.478020
O O7 0.500000 0.000000 0.500000
O O8 0.687536 0.036411 0.578216
O O9 0.588673 0.908600 0.745512
O O10 0.000000 0.000000 0.500000
O O11 0.724489 0.625296 0.777448
O O12 0.500000 0.500000 0.000000
O O13 0.506229 0.799179 0.050798
O O14 0.246618 0.493207 0.000951
O O15 0.500000 0.000000 0.000000
O O16 0.018618 0.645596 0.759677
O O17 0.030917 0.822442 0.983305
O O18 0.959603 0.071994 0.225363
#
# Coordination Sequence:
#
# PCOD9105069 Si02
#       8
#     2   2   2   2   2   2   2   2
#     4  10  20  41  59  87 131 171 205 263 331 381
#     4  10  21  39  64  92 129 169 219 264 313 379
#     4  10  21  38  64  89 128 173 211 260 327 373
#     4   9  20  37  60  88 130 159 201 272 325 368
#     4  10  21  36  63  94 122 161 221 264 312 381
#     4  10  22  38  62  93 131 168 206 271 333 372
#     4  10  20  39  63  90 124 170 223 262 309 394
#     4  11  21  39  66  91 126 172 221 260 316 385
#
# _framework density 23.911194999999999
#
# number of rings (size 3 to 8) (size 9 to 14) (size 15 to 20)
#    0.000    2.000    2.500    1.500    5.250    0.000 
#    4.500    3.750    0.000    0.000    0.000    0.000 
#    0.000    0.000    0.000    0.000    0.000    0.000 
#
# Total GULP energy -89419.814546 kJ/mol
# GULP energy per Si atom -5588.738409 kJ/mol
# Density = 2.385677 g / cm^3
# Si number density = 23.911195 Si / 1000 Ang^3
#
#
#
# Elastic Constant Matrix: (Units=GPa)
#
#
# Indices 1 2 3 4 5 6 
#
# 1 93.7089 35.7619 30.6715 4.3490 -13.7508 -28.1312
# 2 35.7619 90.7753 42.7363 9.7708 -13.7483 -16.4697
# 3 30.6715 42.7363 131.0568 -4.5272 -7.6303 -14.5285
# 4 4.3490 9.7708 -4.5272 28.3319 -3.2378 -11.4737
# 5 -13.7508 -13.7483 -7.6303 -3.2378 34.8622 1.7515
# 6 -28.1312 -16.4697 -14.5285 -11.4737 1.7515 44.4842
#
#
#
# Elastic Compliance Matrix: (Units=1/GPa)
#
#
# Indices 1 2 3 4 5 6 
#
# 1 0.015527 -0.003659 -0.001147 0.002668 0.004246 0.008611
# 2 -0.003659 0.015537 -0.004101 -0.004775 0.003306 0.000737
# 3 -0.001147 -0.004101 0.009599 0.003925 0.000301 0.001892
# 4 0.002668 -0.004775 0.003925 0.042407 0.003363 0.012006
# 5 0.004246 0.003306 0.000301 0.003363 0.031859 0.003620
# 6 0.008611 0.000737 0.001892 0.012006 0.003620 0.031770
#
#
# Mechanical properties :
#
#
# Convention : Reuss Voigt Hill
#
# Bulk Modulus (GPa) = 43.76477 59.32003 51.54240
# Shear Modulus (GPa) = 29.04802 35.29375 32.17089
#
# Velocity S-wave (km/s) = 3.48922 3.84609 3.67199
# Velocity P-wave (km/s) = 5.88011 6.67724 6.29131
#
# Compressibility (1/GPa) = 0.02284943
#
# Stress axis : x y z
#
# Youngs Moduli (GPa) = 64.40297 64.36331 104.18062
#
# Poissons Ratio (x) = 0.23551 0.11947
# Poissons Ratio (y) = 0.23565 0.42723
# Poissons Ratio (z) = 0.07386 0.26394
#
# Static dielectric constant tensor:
#      x y z
#    x 1.897260 0.091160 -0.047560 
#    y 0.091160 1.869240 0.049220 
#    z -0.047560 0.049220 1.943410 
# 
# From -- ./inp_files/350251.got.cif
#   From: 2010.05.17/outbox.cif.g08.bks.cpg/sg2_176_cif.got.tgz:350251.got - 2010.06.03 11:33:40.
