data_PCOD9105623
_publ_section_title
;
Structure prediction by ZEFSAII (Michael W. Deem and Ramdas Pophale) SiO2 
 PCOD9105623
Probable space group: P -1
;
_chemical_formula_sum "Si O2"
_cell_formula_units_Z 15
_cell_length_a 9.000416
_cell_length_b 8.425323
_cell_length_c 13.879332
_cell_angle_alpha 96.736845
_cell_angle_beta 44.624998
_cell_angle_gamma 105.998674
_cell_volume 705.837495
_symmetry_space_group_name_H-M "P -1"
_symmetry_group_IT_number 2
_symmetry_cell_setting 'triclinic'
loop_
_space_group_symop_operation_xyz
x,y,z
-x,-y,-z
loop_
_atom_site_type_symbol
_atom_site_label
_atom_site_fract_x
_atom_site_fract_y
_atom_site_fract_z
Si Si1 0.146651 0.687479 0.240865
Si Si2 0.233001 0.991687 0.935718
Si Si3 0.543837 0.231868 0.659689
Si Si4 0.684386 0.577421 0.343051
Si Si5 0.753802 0.384912 0.115086
Si Si6 0.343113 0.449068 0.240432
Si Si7 0.028409 0.825554 0.508661
Si Si8 0.500000 0.000000 0.000000
O O1 0.255557 0.536575 0.199167
O O2 0.061534 0.734138 0.387504
O O3 0.930290 0.627115 0.272268
O O4 0.318906 0.846710 0.127149
O O5 0.251308 0.805363 0.899125
O O6 0.302861 0.026835 0.017201
O O7 0.412866 0.118538 0.796804
O O8 0.000000 0.000000 0.000000
O O9 0.375630 0.260638 0.660141
O O10 0.640769 0.416722 0.671695
O O11 0.748837 0.163720 0.533281
O O12 0.500000 0.500000 0.500000
O O13 0.670747 0.439227 0.257700
O O14 0.583249 0.419970 0.117641
O O15 0.000000 0.500000 0.000000
O O16 0.175306 0.279319 0.342089
O O17 0.000000 0.000000 0.500000
#
# Coordination Sequence:
#
# PCOD9105623 Si02
#       8
#     2   2   2   2   2   2   2   1
#     4  11  22  41  65  99 134 181 227 294 347 423
#     4  12  24  45  69  98 145 190 230 296 359 425
#     4  10  20  40  64  90 130 181 223 276 360 407
#     4  11  23  45  70 101 137 186 241 294 357 430
#     4  11  24  43  68 100 137 185 231 285 362 428
#     4  10  20  39  65  92 129 176 226 279 344 417
#     4  11  21  38  65  95 129 173 229 285 348 416
#     4  12  24  42  68 100 142 178 246 272 360 434
#
# _framework density 21.251351
#
# number of rings (size 3 to 8) (size 9 to 14) (size 15 to 20)
#    0.000    1.067    2.667    8.000    0.000    0.000 
#    2.400    6.667    0.000    0.000    0.000    0.000 
#    0.000    0.000    0.000    0.000    0.000    0.000 
#
# Total GULP energy -83527.937973 kJ/mol
# GULP energy per Si atom -5568.529198 kJ/mol
# Density = 2.120298 g / cm^3
# Si number density = 21.251351 Si / 1000 Ang^3
#
#
#
# Elastic Constant Matrix: (Units=GPa)
#
#
# Indices 1 2 3 4 5 6 
#
# 1 180.1424 40.3013 35.5540 -6.1912 -38.9235 -44.1591
# 2 40.3013 90.3750 29.4817 -13.7784 -13.7496 -40.0428
# 3 35.5540 29.4817 76.9660 -30.4795 -17.3854 -17.0403
# 4 -6.1912 -13.7784 -30.4795 47.4729 -5.2439 1.1390
# 5 -38.9235 -13.7496 -17.3854 -5.2439 42.0185 5.8008
# 6 -44.1591 -40.0428 -17.0403 1.1390 5.8008 42.1760
#
#
#
# Elastic Compliance Matrix: (Units=1/GPa)
#
#
# Indices 1 2 3 4 5 6 
#
# 1 0.009680 0.002267 0.000100 0.002663 0.008553 0.011080
# 2 0.002267 0.021976 -0.000411 0.006648 0.006922 0.021941
# 3 0.000100 -0.000411 0.023432 0.015938 0.010636 0.007288
# 4 0.002663 0.006648 0.015938 0.034797 0.013826 0.012698
# 5 0.008553 0.006922 0.010636 0.013826 0.038152 0.014203
# 6 0.011080 0.021941 0.007288 0.012698 0.014203 0.056790
#
#
# Mechanical properties :
#
#
# Convention : Reuss Voigt Hill
#
# Bulk Modulus (GPa) = 16.94940 62.01748 39.48344
# Shear Modulus (GPa) = 24.92750 42.47658 33.70204
#
# Velocity S-wave (km/s) = 3.42860 4.47561 3.98663
# Velocity P-wave (km/s) = 4.86485 7.48026 6.30956
#
# Compressibility (1/GPa) = 0.05899913
#
# Stress axis : x y z
#
# Youngs Moduli (GPa) = 103.30817 45.50364 42.67725
#
# Poissons Ratio (x) = -0.10317 -0.00425
# Poissons Ratio (y) = -0.23423 0.01755
# Poissons Ratio (z) = -0.01030 0.01871
#
# Static dielectric constant tensor:
#      x y z
#    x 1.848890 0.000770 -0.003020 
#    y 0.000770 1.749690 0.031440 
#    z -0.003020 0.031440 1.789310 
# 
# From -- ./inp_files/465830.got.cif
#   From: 2010.05.17/outbox.cif.g08.bks.cpg/sg2_233_cif.got.tgz:465830.got - 2010.06.03 11:33:40.
