data_PCOD9105795
_publ_section_title
;
Structure prediction by ZEFSAII (Michael W. Deem and Ramdas Pophale) SiO2 
 PCOD9105795
Probable space group: P -1
;
_chemical_formula_sum "Si O2"
_cell_formula_units_Z 16
_cell_length_a 19.115121
_cell_length_b 9.015184
_cell_length_c 14.271082
_cell_angle_alpha 113.688520
_cell_angle_beta 19.520468
_cell_angle_gamma 116.088994
_cell_volume 737.363082
_symmetry_space_group_name_H-M "P -1"
_symmetry_group_IT_number 2
_symmetry_cell_setting 'triclinic'
loop_
_space_group_symop_operation_xyz
x,y,z
-x,-y,-z
loop_
_atom_site_type_symbol
_atom_site_label
_atom_site_fract_x
_atom_site_fract_y
_atom_site_fract_z
Si Si1 0.387045 0.405962 0.917432
Si Si2 0.339381 0.612548 0.192523
Si Si3 0.068912 0.422692 0.167544
Si Si4 0.272131 0.400646 0.585823
Si Si5 0.143415 0.867810 0.762212
Si Si6 0.478214 0.108256 0.850407
Si Si7 0.218223 0.733549 0.825732
Si Si8 0.352120 0.770653 0.863473
O O1 0.623247 0.503591 0.615040
O O2 0.390725 0.243995 0.932542
O O3 0.289676 0.541156 0.133742
O O4 0.252495 0.363821 0.982241
O O5 0.456058 0.801870 0.111075
O O6 0.134023 0.588545 0.511694
O O7 0.500000 0.500000 0.000000
O O8 0.005010 0.303300 0.129745
O O9 0.162327 0.611752 0.072393
O O10 0.261609 0.549798 0.708374
O O11 0.437266 0.293470 0.387336
O O12 0.037079 0.293290 0.841858
O O13 0.310999 0.917767 0.479205
O O14 0.260832 0.830315 0.699095
O O15 0.000000 0.000000 0.000000
O O16 0.329181 0.929107 0.993439
O O17 0.350839 0.816356 0.767244
#
# Coordination Sequence:
#
# PCOD9105795 Si02
#       8
#     2   2   2   2   2   2   2   2
#     4  10  20  39  66  87 118 161 209 252 307 363
#     4   9  20  39  68  85 118 159 200 255 311 366
#     4  10  22  40  63  91 122 156 209 247 306 374
#     4  10  21  39  59  92 119 165 209 252 295 376
#     4  11  23  39  61  91 125 164 208 255 299 364
#     4  10  22  40  57  92 123 154 206 257 307 355
#     4  11  22  37  63  83 129 167 206 241 318 354
#     4  11  24  38  62  91 129 159 207 253 306 367
#
# _framework density 21.698944000000001
#
# number of rings (size 3 to 8) (size 9 to 14) (size 15 to 20)
#    0.000    1.750    1.250    3.000    5.250    3.500 
#    0.000    5.000    0.000    0.000    0.000    0.000 
#    0.000    0.000    0.000    0.000    0.000    0.000 
#
# Total GULP energy -89410.216057 kJ/mol
# GULP energy per Si atom -5588.138504 kJ/mol
# Density = 2.164956 g / cm^3
# Si number density = 21.698944 Si / 1000 Ang^3
#
#
#
# Elastic Constant Matrix: (Units=GPa)
#
#
# Indices 1 2 3 4 5 6 
#
# 1 67.8948 25.1588 -6.3198 11.1288 -6.3486 10.5524
# 2 25.1588 124.9583 18.9348 8.5659 0.2201 26.5621
# 3 -6.3198 18.9348 51.9179 6.3098 5.3653 6.5416
# 4 11.1288 8.5659 6.3098 26.4737 2.7375 5.9141
# 5 -6.3486 0.2201 5.3653 2.7375 18.9294 3.6074
# 6 10.5524 26.5621 6.5416 5.9141 3.6074 21.0523
#
#
#
# Elastic Compliance Matrix: (Units=1/GPa)
#
#
# Indices 1 2 3 4 5 6 
#
# 1 0.019060 -0.002512 0.004225 -0.007451 0.007619 -0.006910
# 2 -0.002512 0.011744 -0.003263 0.000729 0.002347 -0.013152
# 3 0.004225 -0.003263 0.022313 -0.005017 -0.003589 -0.002910
# 4 -0.007451 0.000729 -0.005017 0.044052 -0.006131 -0.006951
# 5 0.007619 0.002347 -0.003589 -0.006131 0.059970 -0.014218
# 6 -0.006910 -0.013152 -0.002910 -0.006951 -0.014218 0.072852
#
#
# Mechanical properties :
#
#
# Convention : Reuss Voigt Hill
#
# Bulk Modulus (GPa) = 19.99256 35.59097 27.79177
# Shear Modulus (GPa) = 20.01895 27.09088 23.55491
#
# Velocity S-wave (km/s) = 3.04069 3.53723 3.29832
# Velocity P-wave (km/s) = 4.64342 5.75503 5.22885
#
# Compressibility (1/GPa) = 0.05001861
#
# Stress axis : x y z
#
# Youngs Moduli (GPa) = 52.46514 85.14669 44.81732
#
# Poissons Ratio (x) = 0.21385 -0.18935
# Poissons Ratio (y) = 0.13177 0.14624
# Poissons Ratio (z) = -0.22167 0.27783
#
# Static dielectric constant tensor:
#      x y z
#    x 1.827470 0.003560 0.020310 
#    y 0.003560 1.814570 -0.023270 
#    z 0.020310 -0.023270 1.816630 
# 
# From -- ./inp_files/306944.got.cif
#   From: 2010.05.17/outbox.cif.g08.bks.cpg/sg2_154_cif.got.tgz:306944.got - 2010.06.03 11:33:40.
