data_PCOD9105972
_publ_section_title
;
Structure prediction by ZEFSAII (Michael W. Deem and Ramdas Pophale) SiO2 
 PCOD9105972
Probable space group: P -1
;
_chemical_formula_sum "Si O2"
_cell_formula_units_Z 14
_cell_length_a 15.802035
_cell_length_b 5.330253
_cell_length_c 7.256756
_cell_angle_alpha 104.122962
_cell_angle_beta 114.199896
_cell_angle_gamma 105.181268
_cell_volume 493.341953
_symmetry_space_group_name_H-M "P -1"
_symmetry_group_IT_number 2
_symmetry_cell_setting 'triclinic'
loop_
_space_group_symop_operation_xyz
x,y,z
-x,-y,-z
loop_
_atom_site_type_symbol
_atom_site_label
_atom_site_fract_x
_atom_site_fract_y
_atom_site_fract_z
Si Si1 0.755776 0.798402 0.227760
Si Si2 0.653393 0.405098 0.372394
Si Si3 0.152087 0.088760 0.322823
Si Si4 0.995477 0.689685 0.819268
Si Si5 0.636999 0.137367 0.675571
Si Si6 0.431966 0.361549 0.196928
Si Si7 0.861459 0.533234 0.038489
O O1 0.711334 0.492663 0.244064
O O2 0.812575 0.019964 0.479910
O O3 0.831362 0.775850 0.138499
O O4 0.657944 0.820573 0.056430
O O5 0.740151 0.671727 0.606320
O O6 0.633434 0.149530 0.451365
O O7 0.544766 0.415987 0.242523
O O8 0.069207 0.200061 0.347981
O O9 0.088437 0.912173 0.063673
O O10 0.912750 0.568395 0.889076
O O11 0.051599 0.500502 0.764952
O O12 0.414955 0.164707 0.327054
O O13 0.589106 0.358059 0.737885
O O14 0.753221 0.271832 0.869647
#
# Coordination Sequence:
#
# PCOD9105972 Si02
#       7
#     2   2   2   2   2   2   2
#     4   9  22  42  68 103 145 178 231 297 357 426
#     4  10  21  44  67 106 137 188 232 295 346 432
#     4   9  21  39  69  96 136 184 239 285 356 412
#     4  10  20  39  66  96 136 190 229 298 337 430
#     4  11  24  43  71 105 141 187 241 292 343 439
#     4  11  24  45  72 104 145 188 233 293 363 419
#     4  10  21  39  63  99 141 178 236 285 363 403
#
# _framework density 28.377884000000002
#
# number of rings (size 3 to 8) (size 9 to 14) (size 15 to 20)
#    0.857    1.143    1.429    1.286    2.000    2.286 
#    0.000   17.857    0.000    0.000    0.000    0.000 
#    0.000    0.000    0.000    0.000    0.000    0.000 
#
# Total GULP energy -78164.890129 kJ/mol
# GULP energy per Si atom -5583.206438 kJ/mol
# Density = 2.831330 g / cm^3
# Si number density = 28.377884 Si / 1000 Ang^3
#
#
#
# Elastic Constant Matrix: (Units=GPa)
#
#
# Indices 1 2 3 4 5 6 
#
# 1 179.8647 29.4703 72.8587 3.4015 40.9679 -8.4921
# 2 29.4703 85.7319 15.4279 -13.5968 0.7887 -1.3537
# 3 72.8587 15.4279 148.5354 -16.8525 26.0615 -1.8103
# 4 3.4015 -13.5968 -16.8525 31.5951 1.8127 3.2875
# 5 40.9679 0.7887 26.0615 1.8127 70.3756 -7.7885
# 6 -8.4921 -1.3537 -1.8103 3.2875 -7.7885 39.1168
#
#
#
# Elastic Compliance Matrix: (Units=1/GPa)
#
#
# Indices 1 2 3 4 5 6 
#
# 1 0.008391 -0.002808 -0.003697 -0.004028 -0.003242 0.001246
# 2 -0.002808 0.013534 0.000499 0.006376 0.001086 -0.000438
# 3 -0.003697 0.000499 0.009429 0.005857 -0.001625 -0.001165
# 4 -0.004028 0.006376 0.005857 0.038431 -0.001314 -0.003874
# 5 -0.003242 0.001086 -0.001625 -0.001314 0.017026 0.002759
# 6 0.001246 -0.000438 -0.001165 -0.003874 0.002759 0.026641
#
#
# Mechanical properties :
#
#
# Convention : Reuss Voigt Hill
#
# Bulk Modulus (GPa) = 51.69928 72.18289 61.94108
# Shear Modulus (GPa) = 37.90420 47.97584 42.94002
#
# Velocity S-wave (km/s) = 3.65868 4.11616 3.89414
# Velocity P-wave (km/s) = 6.00880 6.93411 6.48797
#
# Compressibility (1/GPa) = 0.01934263
#
# Stress axis : x y z
#
# Youngs Moduli (GPa) = 119.17515 73.88725 106.05079
#
# Poissons Ratio (x) = 0.20750 0.39208
# Poissons Ratio (y) = 0.33469 -0.05297
# Poissons Ratio (z) = 0.44060 -0.03690
#
# Static dielectric constant tensor:
#      x y z
#    x 2.181130 -0.132860 -0.046200 
#    y -0.132860 2.722700 0.004610 
#    z -0.046200 0.004610 2.205860 
# 
# From -- ./inp_files/209945.got.cif
#   From: 2010.05.17/outbox.cif.g08.bks.cpg/sg2_105_cif.got.tgz:209945.got - 2010.06.03 11:33:40.
