data_PCOD9105512
_publ_section_title
;
Structure prediction by ZEFSAII (Michael W. Deem and Ramdas Pophale) SiO2 
 PCOD9105512
Probable space group: P -1
;
_chemical_formula_sum "Si O2"
_cell_formula_units_Z 16
_cell_length_a 12.237414
_cell_length_b 10.199153
_cell_length_c 15.501478
_cell_angle_alpha 82.114411
_cell_angle_beta 156.488738
_cell_angle_gamma 89.742238
_cell_volume 721.770997
_symmetry_space_group_name_H-M "P -1"
_symmetry_group_IT_number 2
_symmetry_cell_setting 'triclinic'
loop_
_space_group_symop_operation_xyz
x,y,z
-x,-y,-z
loop_
_atom_site_type_symbol
_atom_site_label
_atom_site_fract_x
_atom_site_fract_y
_atom_site_fract_z
Si Si1 0.281173 0.360946 0.725125
Si Si2 0.873947 0.573994 0.813476
Si Si3 0.343641 0.213699 0.969210
Si Si4 0.060833 0.137967 0.181629
Si Si5 0.453129 0.028726 0.330145
Si Si6 0.666425 0.294731 0.492207
Si Si7 0.605159 0.561234 0.890855
Si Si8 0.499287 0.079060 0.820514
O O1 0.317548 0.280927 0.849741
O O2 0.534216 0.429692 0.890732
O O3 0.289625 0.236313 0.675208
O O4 0.000000 0.500000 0.500000
O O5 0.005622 0.699498 0.892864
O O6 0.528154 0.632413 0.572075
O O7 0.000000 0.500000 0.000000
O O8 0.049200 0.475717 0.873211
O O9 0.011317 0.238100 0.756346
O O10 0.480158 0.304198 0.121264
O O11 0.516444 0.047769 0.118722
O O12 0.147101 0.072473 0.155048
O O13 0.340535 0.089607 0.448907
O O14 0.815228 0.095439 0.054924
O O15 0.555203 0.164637 0.400859
O O16 0.497043 0.974460 0.269919
O O17 0.568796 0.396814 0.329237
#
# Coordination Sequence:
#
# PCOD9105512 Si02
#       8
#     2   2   2   2   2   2   2   2
#     4  12  27  48  67  94 136 177 233 288 321 392
#     4   9  20  38  66  96 136 175 206 270 332 400
#     4  12  25  43  71  97 130 181 227 279 335 386
#     4  10  20  39  65 100 138 166 214 267 328 404
#     4  10  21  39  67 101 135 171 209 268 336 404
#     4  10  20  41  65 101 139 163 219 276 329 401
#     4  11  22  45  68  93 134 181 222 273 338 393
#     4  12  24  44  69  98 132 179 223 274 340 391
#
# _framework density 22.167695999999999
#
# number of rings (size 3 to 8) (size 9 to 14) (size 15 to 20)
#    0.000    1.250    5.000    1.125    0.000    1.500 
#    2.250    1.250    0.000    0.000    0.000    0.000 
#    0.000    0.000    0.000    0.000    0.000    0.000 
#
# Total GULP energy -89263.003418 kJ/mol
# GULP energy per Si atom -5578.937714 kJ/mol
# Density = 2.211724 g / cm^3
# Si number density = 22.167696 Si / 1000 Ang^3
#
#
#
# Elastic Constant Matrix: (Units=GPa)
#
#
# Indices 1 2 3 4 5 6 
#
# 1 67.5902 23.3825 1.1382 -21.6161 -0.2805 7.9253
# 2 23.3825 113.1594 8.8302 -38.5763 -5.9032 6.9988
# 3 1.1382 8.8302 21.4528 -18.4897 7.1997 -0.5102
# 4 -21.6161 -38.5763 -18.4897 29.4607 5.8188 -1.8044
# 5 -0.2805 -5.9032 7.1997 5.8188 29.0468 -5.2680
# 6 7.9253 6.9988 -0.5102 -1.8044 -5.2680 42.1638
#
#
#
# Elastic Compliance Matrix: (Units=1/GPa)
#
#
# Indices 1 2 3 4 5 6 
#
# 1 -0.008456 -0.024403 -0.090837 -0.102549 0.038927 0.005016
# 2 -0.024403 -0.007875 -0.083356 -0.087567 0.037421 0.005813
# 3 -0.090837 -0.083356 -0.286996 -0.380805 0.134676 0.027967
# 4 -0.102549 -0.087567 -0.380805 -0.425932 0.166694 0.031802
# 5 0.038927 0.037421 0.134676 0.166694 -0.025815 -0.007990
# 6 0.005016 0.005813 0.027967 0.031802 -0.007990 0.022510
#
#
# Mechanical properties :
#
#
# Convention : Reuss Voigt Hill
#
# Bulk Modulus (GPa) = -1.42751 29.87823 14.22536
# Shear Modulus (GPa) = -8.78922 31.39105 11.30092
#
# Velocity S-wave (km/s) = -1.99336 3.76716 2.26031
# Velocity P-wave (km/s) = 2.43790 5.69469 3.63910
#
# Compressibility (1/GPa) = -0.70051981
#
# Stress axis : x y z
#
# Youngs Moduli (GPa) = -118.25630 -126.98423 -3.48437
#
# Poissons Ratio (x) = -3.09883 -0.31651
# Poissons Ratio (y) = -2.88584 -0.29044
# Poissons Ratio (z) = -10.74200 -10.58493
#
# Static dielectric constant tensor:
#      x y z
#    x 1.841450 -0.041760 0.070920 
#    y -0.041760 1.806850 -0.020030 
#    z 0.070920 -0.020030 1.831190 
# 
# From -- ./inp_files/515560.got.cif
#   From: 2010.05.17/outbox.cif.g08.bks.cpg/sg2_258_cif.got.tgz:515560.got - 2010.06.03 11:33:40.
