data_PCOD9105155
_publ_section_title
;
Structure prediction by ZEFSAII (Michael W. Deem and Ramdas Pophale) SiO2 
 PCOD9105155
Probable space group: P -1
;
_chemical_formula_sum "Si O2"
_cell_formula_units_Z 14
_cell_length_a 9.672712
_cell_length_b 16.622223
_cell_length_c 5.664856
_cell_angle_alpha 117.322714
_cell_angle_beta 68.345779
_cell_angle_gamma 129.181908
_cell_volume 623.098821
_symmetry_space_group_name_H-M "P -1"
_symmetry_group_IT_number 2
_symmetry_cell_setting 'triclinic'
loop_
_space_group_symop_operation_xyz
x,y,z
-x,-y,-z
loop_
_atom_site_type_symbol
_atom_site_label
_atom_site_fract_x
_atom_site_fract_y
_atom_site_fract_z
Si Si1 0.433898 0.047721 0.408260
Si Si2 0.791831 0.394433 0.466987
Si Si3 0.895045 0.036508 0.265901
Si Si4 0.120706 0.631507 0.124072
Si Si5 0.075618 0.256255 0.713689
Si Si6 0.780833 0.142784 0.096088
Si Si7 0.512136 0.557741 0.319099
O O1 0.612515 0.143693 0.299508
O O2 0.500000 0.000000 0.500000
O O3 0.284975 0.063510 0.631539
O O4 0.316954 0.946675 0.169166
O O5 0.764567 0.344706 0.680622
O O6 0.650330 0.426364 0.562357
O O7 0.000000 0.500000 0.500000
O O8 0.782487 0.333595 0.145930
O O9 0.827620 0.089125 0.198624
O O10 0.016557 0.136728 0.501747
O O11 0.000000 0.000000 0.000000
O O12 0.007815 0.685993 0.299441
O O13 0.000000 0.500000 0.000000
O O14 0.287898 0.333251 0.672479
O O15 0.974328 0.238638 0.003781
O O16 0.500000 0.500000 0.500000
O O17 0.500000 0.500000 0.000000
#
# Coordination Sequence:
#
# PCOD9105155 Si02
#       7
#     2   2   2   2   2   2   2
#     4   8  16  36  64  95 124 175 218 280 348 416
#     4  10  20  39  63  93 130 178 233 286 344 411
#     4  10  22  41  68  99 141 177 226 288 363 435
#     4  10  21  40  65  94 131 179 233 287 340 407
#     4  11  25  40  70 102 134 190 237 295 362 425
#     4   9  19  38  67  92 131 170 234 279 350 418
#     4  12  25  43  71 102 146 194 240 298 365 427
#
# _framework density 22.468346
#
# number of rings (size 3 to 8) (size 9 to 14) (size 15 to 20)
#    0.000    2.000    0.000    4.286    4.000    2.286 
#    0.000   10.000    0.000    0.000    0.000    0.000 
#    0.000    0.000    0.000    0.000    0.000    0.000 
#
# Total GULP energy -78000.068298 kJ/mol
# GULP energy per Si atom -5571.433450 kJ/mol
# Density = 2.241721 g / cm^3
# Si number density = 22.468346 Si / 1000 Ang^3
#
#
#
# Elastic Constant Matrix: (Units=GPa)
#
#
# Indices 1 2 3 4 5 6 
#
# 1 121.8836 40.7863 55.3131 -17.4889 -18.8289 29.6627
# 2 40.7863 107.1791 54.6225 -31.7303 -14.8345 26.5936
# 3 55.3131 54.6225 160.7968 -18.6355 -18.2397 21.0499
# 4 -17.4889 -31.7303 -18.6355 44.5850 1.0862 -9.2913
# 5 -18.8289 -14.8345 -18.2397 1.0862 65.5546 -12.6987
# 6 29.6627 26.5936 21.0499 -9.2913 -12.6987 27.8177
#
#
#
# Elastic Compliance Matrix: (Units=1/GPa)
#
#
# Indices 1 2 3 4 5 6 
#
# 1 0.012212 -0.000382 -0.002524 0.001374 0.000772 -0.009936
# 2 -0.000382 0.015764 -0.003002 0.007823 0.000657 -0.009479
# 3 -0.002524 -0.003002 0.008262 0.000261 0.000848 -0.000217
# 4 0.001374 0.007823 0.000261 0.028895 0.002038 0.001440
# 5 0.000772 0.000657 0.000848 0.002038 0.017062 0.006377
# 6 -0.009936 -0.009479 -0.000217 0.001440 0.006377 0.059161
#
#
# Mechanical properties :
#
#
# Convention : Reuss Voigt Hill
#
# Bulk Modulus (GPa) = 40.94464 76.81148 58.87806
# Shear Modulus (GPa) = 30.99579 43.53396 37.26488
#
# Velocity S-wave (km/s) = 3.71823 4.40656 4.07695
# Velocity P-wave (km/s) = 6.05776 7.75571 6.95872
#
# Compressibility (1/GPa) = 0.02442322
#
# Stress axis : x y z
#
# Youngs Moduli (GPa) = 81.88564 63.43488 121.04137
#
# Poissons Ratio (x) = 0.02425 0.30546
# Poissons Ratio (y) = 0.03130 0.36331
# Poissons Ratio (z) = 0.20665 0.19040
#
# Static dielectric constant tensor:
#      x y z
#    x 1.816120 -0.004260 0.040830 
#    y -0.004260 2.127300 0.105780 
#    z 0.040830 0.105780 2.052440 
# 
# From -- ./inp_files/48847.got.cif
#   From: 2010.05.17/outbox.cif.g08.bks.cpg/sg2_25_cif.got.tgz:48847.got - 2010.06.03 11:33:40.
