data_PCOD9105738
_publ_section_title
;
Structure prediction by ZEFSAII (Michael W. Deem and Ramdas Pophale) SiO2 
 PCOD9105738
Probable space group: P -1
;
_chemical_formula_sum "Si O2"
_cell_formula_units_Z 16
_cell_length_a 13.416516
_cell_length_b 9.115322
_cell_length_c 17.297934
_cell_angle_alpha 142.276159
_cell_angle_beta 136.213169
_cell_angle_gamma 32.733588
_cell_volume 689.600830
_symmetry_space_group_name_H-M "P -1"
_symmetry_group_IT_number 2
_symmetry_cell_setting 'triclinic'
loop_
_space_group_symop_operation_xyz
x,y,z
-x,-y,-z
loop_
_atom_site_type_symbol
_atom_site_label
_atom_site_fract_x
_atom_site_fract_y
_atom_site_fract_z
Si Si1 0.916825 0.440213 0.113678
Si Si2 0.493030 0.944618 0.319470
Si Si3 0.123276 0.242841 0.528897
Si Si4 0.883136 0.788555 0.728649
Si Si5 0.611943 0.274790 0.152283
Si Si6 0.220402 0.602583 0.141001
Si Si7 0.505622 0.768887 0.086094
Si Si8 0.011981 0.826048 0.269767
O O1 0.712444 0.610149 0.105017
O O2 0.067860 0.155474 0.136101
O O3 0.984813 0.642749 0.238515
O O4 0.894118 0.399997 0.994015
O O5 0.657241 0.945329 0.437481
O O6 0.557914 0.604133 0.235516
O O7 0.462249 0.976225 0.222745
O O8 0.297851 0.185275 0.353862
O O9 0.000000 0.500000 0.500000
O O10 0.059622 0.459298 0.658542
O O11 0.075350 0.016027 0.415190
O O12 0.835703 0.057591 0.758041
O O13 0.440672 0.357045 0.142421
O O14 0.808224 0.070893 0.219032
O O15 0.621589 0.105414 0.009316
O O16 0.155002 0.600229 0.187818
O O17 0.500000 0.500000 0.000000
#
# Coordination Sequence:
#
# PCOD9105738 Si02
#       8
#     2   2   2   2   2   2   2   2
#     4  11  24  42  63 101 133 164 212 267 329 378
#     4  10  20  39  65  97 118 164 223 269 304 364
#     4  12  23  42  67  91 129 176 219 258 311 383
#     4  11  23  41  68  96 122 168 225 265 307 382
#     4   9  20  37  63  94 125 166 213 261 320 374
#     4  10  22  40  65  95 127 165 214 266 321 382
#     4   9  19  37  64  92 125 159 210 260 314 376
#     4  12  25  41  64  94 138 174 204 265 325 380
#
# _framework density 23.201829
#
# number of rings (size 3 to 8) (size 9 to 14) (size 15 to 20)
#    0.000    1.500    3.750    1.500    3.500    4.000 
#    2.250    0.625    0.000    0.000    0.000    0.000 
#    0.000    0.000    0.000    0.000    0.000    0.000 
#
# Total GULP energy -89517.906227 kJ/mol
# GULP energy per Si atom -5594.869139 kJ/mol
# Density = 2.314902 g / cm^3
# Si number density = 23.201829 Si / 1000 Ang^3
#
#
#
# Elastic Constant Matrix: (Units=GPa)
#
#
# Indices 1 2 3 4 5 6 
#
# 1 86.9188 0.8472 18.0329 4.7203 27.4263 0.3981
# 2 0.8472 33.2585 9.1779 -9.3959 12.5277 -9.8679
# 3 18.0329 9.1779 87.0204 -8.1763 27.5619 -0.3653
# 4 4.7203 -9.3959 -8.1763 36.0467 -4.3845 2.9030
# 5 27.4263 12.5277 27.5619 -4.3845 38.5996 -7.0049
# 6 0.3981 -9.8679 -0.3653 2.9030 -7.0049 24.1454
#
#
#
# Elastic Compliance Matrix: (Units=1/GPa)
#
#
# Indices 1 2 3 4 5 6 
#
# 1 0.015695 0.002959 0.000331 -0.002599 -0.013103 -0.002534
# 2 0.002959 0.040290 -0.000329 0.007623 -0.011892 0.012046
# 3 0.000331 -0.000329 0.015266 0.002227 -0.011409 -0.003487
# 4 -0.002599 0.007623 0.002227 0.030737 0.001248 -0.000141
# 5 -0.013103 -0.011892 -0.011409 0.001248 0.049046 0.009262
# 6 -0.002534 0.012046 -0.003487 -0.000141 0.009262 0.049032
#
#
# Mechanical properties :
#
#
# Convention : Reuss Voigt Hill
#
# Bulk Modulus (GPa) = 12.95819 29.25708 21.10764
# Shear Modulus (GPa) = 22.74089 31.70097 27.22093
#
# Velocity S-wave (km/s) = 3.13411 3.70038 3.42895
# Velocity P-wave (km/s) = 4.32365 5.55826 4.97937
#
# Compressibility (1/GPa) = 0.07717124
#
# Stress axis : x y z
#
# Youngs Moduli (GPa) = 63.71540 24.82009 65.50639
#
# Poissons Ratio (x) = -0.07343 -0.02168
# Poissons Ratio (y) = -0.18851 0.02156
# Poissons Ratio (z) = -0.02109 0.00817
#
# Static dielectric constant tensor:
#      x y z
#    x 1.908560 0.051760 -0.013890 
#    y 0.051760 1.878840 0.028670 
#    z -0.013890 0.028670 1.888510 
# 
# From -- ./inp_files/273863.got.cif
#   From: 2010.05.17/outbox.cif.g08.bks.cpg/sg2_137_cif.got.tgz:273863.got - 2010.06.03 11:33:40.
