data_PCOD9105349
_publ_section_title
;
Structure prediction by ZEFSAII (Michael W. Deem and Ramdas Pophale) SiO2 
 PCOD9105349
Probable space group: P -1
;
_chemical_formula_sum "Si O2"
_cell_formula_units_Z 12
_cell_length_a 7.101805
_cell_length_b 7.831160
_cell_length_c 9.739016
_cell_angle_alpha 89.300154
_cell_angle_beta 107.079216
_cell_angle_gamma 59.449099
_cell_volume 437.212210
_symmetry_space_group_name_H-M "P -1"
_symmetry_group_IT_number 2
_symmetry_cell_setting 'triclinic'
loop_
_space_group_symop_operation_xyz
x,y,z
-x,-y,-z
loop_
_atom_site_type_symbol
_atom_site_label
_atom_site_fract_x
_atom_site_fract_y
_atom_site_fract_z
Si Si1 0.819244 0.394804 0.889395
Si Si2 0.319724 0.508201 0.671535
Si Si3 0.534735 0.832487 0.903396
Si Si4 0.621191 0.911189 0.385182
Si Si5 0.055543 0.837087 0.817608
Si Si6 0.898531 0.219114 0.627878
O O1 0.563191 0.431853 0.801289
O O2 0.748447 0.601546 0.950875
O O3 0.922571 0.343718 0.757918
O O4 0.964743 0.213690 0.029458
O O5 0.320568 0.312903 0.627455
O O6 0.111834 0.654655 0.729301
O O7 0.288822 0.640742 0.527909
O O8 0.299551 0.830232 0.865895
O O9 0.548502 0.922978 0.761993
O O10 0.500000 0.000000 0.000000
O O11 0.864162 0.894366 0.407049
O O12 0.500000 0.000000 0.500000
O O13 0.875046 0.052556 0.707748
#
# Coordination Sequence:
#
# PCOD9105349 Si02
#       6
#     2   2   2   2   2   2
#     4  11  22  41  67  95 126 168 211 258 313 373
#     4  11  22  41  66  92 126 168 210 259 312 374
#     4  10  20  39  64  91 124 167 209 253 310 375
#     4  11  24  42  62  91 128 168 209 260 318 373
#     4  10  22  40  63  93 127 165 208 258 314 374
#     4  11  24  41  62  96 129 162 212 264 313 373
#
# _framework density 27.446628
#
# number of rings (size 3 to 8) (size 9 to 14) (size 15 to 20)
#    0.000    1.333    0.000    7.000    0.000    4.000 
#    0.000   12.500    0.000    0.000    0.000    0.000 
#    0.000    0.000    0.000    0.000    0.000    0.000 
#
# Total GULP energy -67314.814631 kJ/mol
# GULP energy per Si atom -5609.567886 kJ/mol
# Density = 2.738416 g / cm^3
# Si number density = 27.446628 Si / 1000 Ang^3
#
#
#
# Elastic Constant Matrix: (Units=GPa)
#
#
# Indices 1 2 3 4 5 6 
#
# 1 60.7523 16.8074 17.6753 0.2922 -3.0755 6.4757
# 2 16.8074 154.7420 39.8104 15.6999 0.4417 16.9719
# 3 17.6753 39.8104 192.0089 -8.0430 -23.6736 6.3809
# 4 0.2922 15.6999 -8.0430 74.7763 -10.4928 -5.1414
# 5 -3.0755 0.4417 -23.6736 -10.4928 38.3774 2.9115
# 6 6.4757 16.9719 6.3809 -5.1414 2.9115 43.6060
#
#
#
# Elastic Compliance Matrix: (Units=1/GPa)
#
#
# Indices 1 2 3 4 5 6 
#
# 1 0.017428 -0.001402 -0.001137 0.000096 0.000884 -0.001924
# 2 -0.001402 0.007549 -0.001636 -0.002161 -0.001599 -0.002639
# 3 -0.001137 -0.001636 0.006248 0.001600 0.004235 -0.000203
# 4 0.000096 -0.002161 0.001600 0.014828 0.004921 0.002012
# 5 0.000884 -0.001599 0.004235 0.004921 0.030223 -0.001566
# 6 -0.001924 -0.002639 -0.000203 0.002012 -0.001566 0.024617
#
#
# Mechanical properties :
#
#
# Convention : Reuss Voigt Hill
#
# Bulk Modulus (GPa) = 43.71491 61.78770 52.75130
# Shear Modulus (GPa) = 42.78386 53.56596 48.17491
#
# Velocity S-wave (km/s) = 3.95245 4.42253 4.19408
# Velocity P-wave (km/s) = 6.06556 6.97418 6.53568
#
# Compressibility (1/GPa) = 0.02287549
#
# Stress axis : x y z
#
# Youngs Moduli (GPa) = 57.37837 132.47183 160.05486
#
# Poissons Ratio (x) = 0.18569 0.18196
# Poissons Ratio (y) = 0.08043 0.26187
# Poissons Ratio (z) = 0.06523 0.21674
#
# Static dielectric constant tensor:
#      x y z
#    x 2.192290 0.021510 0.064780 
#    y 0.021510 2.109790 0.015370 
#    z 0.064780 0.015370 2.091650 
# 
# From -- ./inp_files/158766.got.cif
#   From: 2010.05.17/outbox.cif.g08.bks.cpg/sg2_80_cif.got.tgz:158766.got - 2010.06.03 11:33:40.
