data_PCOD9105005
_publ_section_title
;
Structure prediction by ZEFSAII (Michael W. Deem and Ramdas Pophale) SiO2 
 PCOD9105005
Probable space group: P -1
;
_chemical_formula_sum "Si O2"
_cell_formula_units_Z 16
_cell_length_a 10.123771
_cell_length_b 13.618720
_cell_length_c 9.326209
_cell_angle_alpha 82.532658
_cell_angle_beta 141.205773
_cell_angle_gamma 80.850114
_cell_volume 725.262061
_symmetry_space_group_name_H-M "P -1"
_symmetry_group_IT_number 2
_symmetry_cell_setting 'triclinic'
loop_
_space_group_symop_operation_xyz
x,y,z
-x,-y,-z
loop_
_atom_site_type_symbol
_atom_site_label
_atom_site_fract_x
_atom_site_fract_y
_atom_site_fract_z
Si Si1 0.567059 0.265288 0.956188
Si Si2 0.366954 0.611797 0.779139
Si Si3 0.098699 0.141110 0.010702
Si Si4 0.960341 0.595442 0.559729
Si Si5 0.151136 0.616590 0.988210
Si Si6 0.788523 0.079706 0.980011
Si Si7 0.658078 0.365464 0.566974
Si Si8 0.367869 0.227392 0.395889
O O1 0.305443 0.322721 0.665433
O O2 0.700541 0.326907 0.973032
O O3 0.710347 0.140767 0.054086
O O4 0.551296 0.299992 0.103101
O O5 0.391962 0.580548 0.640715
O O6 0.099864 0.657054 0.592121
O O7 0.500000 0.500000 0.000000
O O8 0.991708 0.102702 0.066568
O O9 0.894487 0.254929 0.769598
O O10 0.323779 0.161581 0.238239
O O11 0.145114 0.047627 0.950758
O O12 0.000000 0.500000 0.500000
O O13 0.087334 0.547182 0.827980
O O14 0.277185 0.575984 0.255309
O O15 0.894737 0.709846 0.783241
O O16 0.558443 0.141272 0.676231
O O17 0.464177 0.319419 0.436835
#
# Coordination Sequence:
#
# PCOD9105005 Si02
#       8
#     2   2   2   2   2   2   2   2
#     4  11  20  38  62  90 120 160 200 246 298 364
#     4  11  25  43  63  84 118 161 209 255 308 366
#     4   9  19  32  57  93 128 155 196 244 298 359
#     4  11  22  40  64  86 115 157 209 247 303 367
#     4  10  19  36  63  88 120 155 197 253 302 350
#     4  10  17  32  58  94 125 158 199 238 296 365
#     4  10  21  39  60  89 125 158 200 256 304 354
#     4  10  16  33  59  91 123 159 194 241 306 352
#
# _framework density 22.060991000000001
#
# number of rings (size 3 to 8) (size 9 to 14) (size 15 to 20)
#    0.000    1.750    6.250    0.375    0.000    2.000 
#    0.000    3.750    0.000    1.500    0.000    0.000 
#    0.000    0.000    0.000    0.000    0.000    0.000 
#
# Total GULP energy -89244.355682 kJ/mol
# GULP energy per Si atom -5577.772230 kJ/mol
# Density = 2.201078 g / cm^3
# Si number density = 22.060991 Si / 1000 Ang^3
#
#
#
# Elastic Constant Matrix: (Units=GPa)
#
#
# Indices 1 2 3 4 5 6 
#
# 1 63.1890 17.8685 46.0593 7.5888 -5.4481 -21.3023
# 2 17.8685 104.9969 26.9553 29.3852 -17.4049 -34.8898
# 3 46.0593 26.9553 113.2612 33.5467 0.0498 -4.8913
# 4 7.5888 29.3852 33.5467 34.3710 -13.0099 -8.0640
# 5 -5.4481 -17.4049 0.0498 -13.0099 46.1388 8.6673
# 6 -21.3023 -34.8898 -4.8913 -8.0640 8.6673 35.1158
#
#
#
# Elastic Compliance Matrix: (Units=1/GPa)
#
#
# Indices 1 2 3 4 5 6 
#
# 1 0.035270 0.003578 -0.018578 0.014993 0.005153 0.024534
# 2 0.003578 0.018155 -0.002177 -0.009619 0.001297 0.017376
# 3 -0.018578 -0.002177 0.022858 -0.022090 -0.006701 -0.013668
# 4 0.014993 -0.009619 -0.022090 0.062766 0.014493 0.007297
# 5 0.005153 0.001297 -0.006701 0.014493 0.026830 0.000187
# 6 0.024534 0.017376 -0.013668 0.007297 0.000187 0.060351
#
#
# Mechanical properties :
#
#
# Convention : Reuss Voigt Hill
#
# Bulk Modulus (GPa) = 23.84993 51.46813 37.65903
# Shear Modulus (GPa) = 18.21092 35.82939 27.02015
#
# Velocity S-wave (km/s) = 2.87623 4.03439 3.50350
# Velocity P-wave (km/s) = 4.67597 6.71434 5.78563
#
# Compressibility (1/GPa) = 0.04192884
#
# Stress axis : x y z
#
# Youngs Moduli (GPa) = 28.35239 55.08045 43.74897
#
# Poissons Ratio (x) = -0.19707 0.81278
# Poissons Ratio (y) = -0.10144 0.09523
# Poissons Ratio (z) = 0.52674 0.11990
#
# Static dielectric constant tensor:
#      x y z
#    x 1.868590 -0.058090 -0.022240 
#    y -0.058090 1.883450 0.073840 
#    z -0.022240 0.073840 1.861520 
# 
# From -- ./inp_files/207454.got.cif
#   From: 2010.05.17/outbox.cif.g08.bks.cpg/sg2_104_cif.got.tgz:207454.got - 2010.06.03 11:33:40.
