data_PCOD9105703
_publ_section_title
;
Structure prediction by ZEFSAII (Michael W. Deem and Ramdas Pophale) SiO2 
 PCOD9105703
Probable space group: P -1
;
_chemical_formula_sum "Si O2"
_cell_formula_units_Z 16
_cell_length_a 9.489785
_cell_length_b 11.699197
_cell_length_c 11.770802
_cell_angle_alpha 50.094249
_cell_angle_beta 112.148761
_cell_angle_gamma 82.560978
_cell_volume 791.590251
_symmetry_space_group_name_H-M "P -1"
_symmetry_group_IT_number 2
_symmetry_cell_setting 'triclinic'
loop_
_space_group_symop_operation_xyz
x,y,z
-x,-y,-z
loop_
_atom_site_type_symbol
_atom_site_label
_atom_site_fract_x
_atom_site_fract_y
_atom_site_fract_z
Si Si1 0.304205 0.223036 0.394456
Si Si2 0.718369 0.294615 0.179113
Si Si3 0.742291 0.292769 0.452165
Si Si4 0.628748 0.667000 0.890173
Si Si5 0.483638 0.702938 0.439805
Si Si6 0.197413 0.644448 0.344207
Si Si7 0.078437 0.101153 0.298514
Si Si8 0.987976 0.624780 0.092278
O O1 0.449952 0.173855 0.569038
O O2 0.211069 0.112491 0.420617
O O3 0.141519 0.423422 0.240888
O O4 0.386975 0.224612 0.296307
O O5 0.738319 0.330975 0.294905
O O6 0.675250 0.473257 0.992250
O O7 0.900459 0.141385 0.282005
O O8 0.555811 0.262563 0.145123
O O9 0.550142 0.375514 0.403643
O O10 0.847781 0.338851 0.546252
O O11 0.825396 0.085353 0.611946
O O12 0.795929 0.643944 0.025690
O O13 0.295777 0.756851 0.288495
O O14 0.642607 0.552105 0.511414
O O15 0.043987 0.684195 0.184494
O O16 0.026749 0.252489 0.094406
#
# Coordination Sequence:
#
# PCOD9105703 Si02
#       8
#     2   2   2   2   2   2   2   2
#     4  10  16  34  54  77 100 123 178 217 246 284
#     4  11  20  33  49  77 107 135 163 203 258 308
#     4  10  20  34  49  76 108 137 162 197 261 314
#     4  10  18  31  54  74  99 130 174 213 246 288
#     4   8  16  33  54  75  97 131 169 217 241 291
#     4   8  17  33  55  72 100 130 174 210 242 290
#     4  11  21  31  53  77 108 133 159 212 260 300
#     4  10  18  34  55  75  98 129 176 219 240 285
#
# _framework density 20.212478000000001
#
# number of rings (size 3 to 8) (size 9 to 14) (size 15 to 20)
#    0.750    1.500    3.750    1.125    0.000    1.000 
#    0.000    0.625    0.000    0.750    0.000    0.000 
#    0.000    0.000    0.000    0.000    0.000    0.000 
#
# Total GULP energy -89079.191206 kJ/mol
# GULP energy per Si atom -5567.449450 kJ/mol
# Density = 2.016647 g / cm^3
# Si number density = 20.212478 Si / 1000 Ang^3
#
#
#
# Elastic Constant Matrix: (Units=GPa)
#
#
# Indices 1 2 3 4 5 6 
#
# 1 132.6267 38.0509 26.0437 15.2372 30.1428 10.6410
# 2 38.0509 97.0834 19.5904 19.8384 18.2039 3.3945
# 3 26.0437 19.5904 42.9048 5.9627 12.5944 4.9858
# 4 15.2372 19.8384 5.9627 30.4149 13.9068 11.8931
# 5 30.1428 18.2039 12.5944 13.9068 26.3410 15.0720
# 6 10.6410 3.3945 4.9858 11.8931 15.0720 24.7541
#
#
#
# Elastic Compliance Matrix: (Units=1/GPa)
#
#
# Indices 1 2 3 4 5 6 
#
# 1 0.011038 -0.001666 -0.002782 0.000415 -0.012263 0.003311
# 2 -0.001666 0.014089 -0.003363 -0.007560 -0.006141 0.006833
# 3 -0.002782 -0.003363 0.029075 0.002124 -0.010019 0.000881
# 4 0.000415 -0.007560 0.002124 0.049302 -0.013792 -0.014859
# 5 -0.012263 -0.006141 -0.010019 -0.013792 0.091877 -0.041183
# 6 0.003311 0.006833 0.000881 -0.014859 -0.041183 0.070073
#
#
# Mechanical properties :
#
#
# Convention : Reuss Voigt Hill
#
# Bulk Modulus (GPa) = 25.91947 48.88724 37.40335
# Shear Modulus (GPa) = 17.01043 28.89732 22.95388
#
# Velocity S-wave (km/s) = 2.90415 3.78521 3.37357
# Velocity P-wave (km/s) = 4.90885 6.58353 5.80688
#
# Compressibility (1/GPa) = 0.03858104
#
# Stress axis : x y z
#
# Youngs Moduli (GPa) = 90.59547 70.97572 34.39353
#
# Poissons Ratio (x) = 0.11824 0.09569
# Poissons Ratio (y) = 0.15092 0.11565
# Poissons Ratio (z) = 0.25206 0.23867
#
# Static dielectric constant tensor:
#      x y z
#    x 1.750870 0.021630 0.030590 
#    y 0.021630 1.738890 0.005370 
#    z 0.030590 0.005370 1.770110 
# 
# From -- ./inp_files/386921.got.cif
#   From: 2010.05.17/outbox.cif.g08.bks.cpg/sg2_194_cif.got.tgz:386921.got - 2010.06.03 11:33:40.
