data_PCOD9105885
_publ_section_title
;
Structure prediction by ZEFSAII (Michael W. Deem and Ramdas Pophale) SiO2 
 PCOD9105885
Probable space group: P -1
;
_chemical_formula_sum "Si O2"
_cell_formula_units_Z 14
_cell_length_a 18.577299
_cell_length_b 7.660086
_cell_length_c 9.327860
_cell_angle_alpha 133.766666
_cell_angle_beta 138.679260
_cell_angle_gamma 53.894614
_cell_volume 626.119889
_symmetry_space_group_name_H-M "P -1"
_symmetry_group_IT_number 2
_symmetry_cell_setting 'triclinic'
loop_
_space_group_symop_operation_xyz
x,y,z
-x,-y,-z
loop_
_atom_site_type_symbol
_atom_site_label
_atom_site_fract_x
_atom_site_fract_y
_atom_site_fract_z
Si Si1 0.398131 0.867371 0.992391
Si Si2 0.551738 0.500624 0.888379
Si Si3 0.658598 0.747650 0.639014
Si Si4 0.115245 0.503872 0.751640
Si Si5 0.105695 0.556014 0.105248
Si Si6 0.707983 0.184852 0.762674
Si Si7 0.773634 0.021919 0.453636
O O1 0.514955 0.778571 0.038584
O O2 0.302636 0.897196 0.749849
O O3 0.389566 0.658294 0.982056
O O4 0.386397 0.115160 0.205239
O O5 0.435059 0.404553 0.637336
O O6 0.622128 0.425056 0.810244
O O7 0.778249 0.592909 0.752060
O O8 0.671491 0.959413 0.664721
O O9 0.000000 0.500000 0.500000
O O10 0.193002 0.267722 0.670914
O O11 0.098611 0.487793 0.888803
O O12 0.176287 0.743025 0.965136
O O13 0.119234 0.839533 0.308803
O O14 0.000000 0.500000 0.000000
O O15 0.717199 0.119912 0.573345
#
# Coordination Sequence:
#
# PCOD9105885 Si02
#       7
#     2   2   2   2   2   2   2
#     4  10  20  39  66  92 132 167 213 259 319 381
#     4  10  22  42  66  99 132 172 215 267 318 387
#     4  11  22  44  66  98 131 169 223 266 319 385
#     4  11  27  47  64  96 134 170 218 267 327 393
#     4  11  26  43  70  96 125 171 222 276 320 382
#     4  10  25  41  67  98 131 175 211 266 329 378
#     4  11  24  45  65  97 135 167 212 274 326 384
#
# _framework density 22.359936000000001
#
# number of rings (size 3 to 8) (size 9 to 14) (size 15 to 20)
#    0.000    1.429    2.857    1.714    4.000    9.143 
#    0.000    3.571    0.000    0.000    0.000    0.000 
#    0.000    0.000    0.000    0.000    0.000    0.000 
#
# Total GULP energy -78285.585507 kJ/mol
# GULP energy per Si atom -5591.827536 kJ/mol
# Density = 2.230904 g / cm^3
# Si number density = 22.359936 Si / 1000 Ang^3
#
#
#
# Elastic Constant Matrix: (Units=GPa)
#
#
# Indices 1 2 3 4 5 6 
#
# 1 87.2765 18.0342 56.6570 1.1719 -5.1608 -9.8492
# 2 18.0342 58.8581 30.4689 -0.9079 -3.2424 -14.8732
# 3 56.6570 30.4689 145.5312 -4.9274 -11.5375 -3.7366
# 4 1.1719 -0.9079 -4.9274 39.3095 -2.5325 -0.0094
# 5 -5.1608 -3.2424 -11.5375 -2.5325 41.2334 5.1997
# 6 -9.8492 -14.8732 -3.7366 -0.0094 5.1997 27.2096
#
#
#
# Elastic Compliance Matrix: (Units=1/GPa)
#
#
# Indices 1 2 3 4 5 6 
#
# 1 0.016055 -0.000626 -0.006074 -0.001280 -0.000412 0.004714
# 2 -0.000626 0.022207 -0.004188 -0.000052 -0.000960 0.011520
# 3 -0.006074 -0.004188 0.010258 0.001519 0.002318 -0.003522
# 4 -0.001280 -0.000052 0.001519 0.025790 0.001926 -0.000643
# 5 -0.000412 -0.000960 0.002318 0.001926 0.025552 -0.005238
# 6 0.004714 0.011520 -0.003522 -0.000643 -0.005238 0.045272
#
#
# Mechanical properties :
#
#
# Convention : Reuss Voigt Hill
#
# Bulk Modulus (GPa) = 37.39207 55.77621 46.58414
# Shear Modulus (GPa) = 28.43714 33.98422 31.21068
#
# Velocity S-wave (km/s) = 3.57008 3.90278 3.74013
# Velocity P-wave (km/s) = 5.80974 6.73111 6.28733
#
# Compressibility (1/GPa) = 0.02674364
#
# Stress axis : x y z
#
# Youngs Moduli (GPa) = 62.28491 45.03046 97.48746
#
# Poissons Ratio (x) = 0.02820 0.59218
# Poissons Ratio (y) = 0.03900 0.40824
# Poissons Ratio (z) = 0.37834 0.18857
#
# Static dielectric constant tensor:
#      x y z
#    x 1.847540 -0.009360 -0.001510 
#    y -0.009360 1.858110 0.027090 
#    z -0.001510 0.027090 1.800530 
# 
# From -- ./inp_files/212579.got.cif
#   From: 2010.05.17/outbox.cif.g08.bks.cpg/sg2_107_cif.got.tgz:212579.got - 2010.06.03 11:33:40.
