data_PCOD9105177
_publ_section_title
;
Structure prediction by ZEFSAII (Michael W. Deem and Ramdas Pophale) SiO2 
 PCOD9105177
Probable space group: P -1
;
_chemical_formula_sum "Si O2"
_cell_formula_units_Z 14
_cell_length_a 5.431130
_cell_length_b 16.431551
_cell_length_c 10.591205
_cell_angle_alpha 134.017057
_cell_angle_beta 123.768661
_cell_angle_gamma 71.937733
_cell_volume 560.427176
_symmetry_space_group_name_H-M "P -1"
_symmetry_group_IT_number 2
_symmetry_cell_setting 'triclinic'
loop_
_space_group_symop_operation_xyz
x,y,z
-x,-y,-z
loop_
_atom_site_type_symbol
_atom_site_label
_atom_site_fract_x
_atom_site_fract_y
_atom_site_fract_z
Si Si1 0.255294 0.650822 0.622823
Si Si2 0.322863 0.971218 0.093366
Si Si3 0.230277 0.858585 0.689938
Si Si4 0.916111 0.417927 0.242660
Si Si5 0.152025 0.267369 0.961412
Si Si6 0.806121 0.041363 0.697341
Si Si7 0.679383 0.548481 0.976923
O O1 0.165280 0.727019 0.562425
O O2 0.054227 0.650232 0.692384
O O3 0.578706 0.696527 0.822874
O O4 0.179686 0.520988 0.416457
O O5 0.534086 0.090756 0.293076
O O6 0.289021 0.903040 0.138903
O O7 0.394285 0.901374 0.915692
O O8 0.000000 0.000000 0.000000
O O9 0.962335 0.930821 0.660989
O O10 0.606308 0.475095 0.225405
O O11 0.904017 0.335959 0.030184
O O12 0.226635 0.318749 0.898769
O O13 0.032579 0.133716 0.787641
O O14 0.500000 0.000000 0.500000
O O15 0.500000 0.500000 0.000000
O O16 0.000000 0.500000 0.000000
#
# Coordination Sequence:
#
# PCOD9105177 Si02
#       7
#     2   2   2   2   2   2   2
#     4  10  21  38  66 101 132 177 235 301 353 421
#     4   9  18  36  62  86 123 166 225 276 332 411
#     4  10  20  39  63  94 128 176 231 282 349 410
#     4  10  22  40  66 103 136 179 234 293 351 427
#     4  11  22  41  69  94 141 187 229 299 357 419
#     4  11  25  42  62 100 138 185 234 286 356 430
#     4  11  23  45  69 100 140 190 238 282 355 433
#
# _framework density 24.980947
#
# number of rings (size 3 to 8) (size 9 to 14) (size 15 to 20)
#    0.000    1.714    1.429    3.857    0.000    4.000 
#    2.571    0.000    0.000    0.000    0.000    0.000 
#    0.000    0.000    0.000    0.000    0.000    0.000 
#
# Total GULP energy -77969.560082 kJ/mol
# GULP energy per Si atom -5569.254292 kJ/mol
# Density = 2.492409 g / cm^3
# Si number density = 24.980947 Si / 1000 Ang^3
#
#
#
# Elastic Constant Matrix: (Units=GPa)
#
#
# Indices 1 2 3 4 5 6 
#
# 1 116.7938 64.4020 17.9256 8.4077 28.9736 11.8674
# 2 64.4020 172.1179 37.3718 16.4483 29.7246 11.2368
# 3 17.9256 37.3718 57.2651 6.6139 28.4683 -8.2825
# 4 8.4077 16.4483 6.6139 36.4877 4.0666 8.3939
# 5 28.9736 29.7246 28.4683 4.0666 36.9413 -6.4971
# 6 11.8674 11.2368 -8.2825 8.3939 -6.4971 44.2195
#
#
#
# Elastic Compliance Matrix: (Units=1/GPa)
#
#
# Indices 1 2 3 4 5 6 
#
# 1 0.012903 -0.003446 0.002685 0.000034 -0.010047 -0.003567
# 2 -0.003446 0.008437 -0.003877 -0.001759 -0.001220 -0.001791
# 3 0.002685 -0.003877 0.030816 -0.002796 -0.021836 0.003359
# 4 0.000034 -0.001759 -0.002796 0.030154 -0.000819 -0.005930
# 5 -0.010047 -0.001220 -0.021836 -0.000819 0.054083 0.007018
# 6 -0.003567 -0.001791 0.003359 -0.005930 0.007018 0.026813
#
#
# Mechanical properties :
#
#
# Convention : Reuss Voigt Hill
#
# Bulk Modulus (GPa) = 23.32097 65.06394 44.19246
# Shear Modulus (GPa) = 26.77021 38.62820 32.69921
#
# Velocity S-wave (km/s) = 3.27712 3.93658 3.62189
# Velocity P-wave (km/s) = 4.86571 6.83843 5.93461
#
# Compressibility (1/GPa) = 0.04287985
#
# Stress axis : x y z
#
# Youngs Moduli (GPa) = 77.50365 118.52941 32.45031
#
# Poissons Ratio (x) = 0.40846 -0.08713
# Poissons Ratio (y) = 0.26708 0.12580
# Poissons Ratio (z) = -0.20809 0.45951
#
# Static dielectric constant tensor:
#      x y z
#    x 3.194010 0.026580 -0.814490 
#    y 0.026580 2.136760 0.026950 
#    z -0.814490 0.026950 2.610290 
# 
# From -- ./inp_files/367211.got.cif
#   From: 2010.05.17/outbox.cif.g08.bks.cpg/sg2_184_cif.got.tgz:367211.got - 2010.06.03 11:33:40.
