data_PCOD9105527
_publ_section_title
;
Structure prediction by ZEFSAII (Michael W. Deem and Ramdas Pophale) SiO2 
 PCOD9105527
Probable space group: P -1
;
_chemical_formula_sum "Si O2"
_cell_formula_units_Z 14
_cell_length_a 16.575113
_cell_length_b 9.659454
_cell_length_c 10.325227
_cell_angle_alpha 53.735627
_cell_angle_beta 53.580483
_cell_angle_gamma 27.058724
_cell_volume 596.169165
_symmetry_space_group_name_H-M "P -1"
_symmetry_group_IT_number 2
_symmetry_cell_setting 'triclinic'
loop_
_space_group_symop_operation_xyz
x,y,z
-x,-y,-z
loop_
_atom_site_type_symbol
_atom_site_label
_atom_site_fract_x
_atom_site_fract_y
_atom_site_fract_z
Si Si1 0.119454 0.546862 0.471238
Si Si2 0.749379 0.906043 0.613823
Si Si3 0.100001 0.597399 0.752736
Si Si4 0.260711 0.727556 0.204955
Si Si5 0.596250 0.435991 0.117915
Si Si6 0.348953 0.481543 0.724140
Si Si7 0.683111 0.858854 0.982834
O O1 0.211267 0.283487 0.432318
O O2 0.158678 0.454322 0.635182
O O3 0.193146 0.630129 0.327284
O O4 0.904180 0.828622 0.503415
O O5 0.763524 0.793640 0.803023
O O6 0.542809 0.259060 0.607735
O O7 0.202801 0.630746 0.675518
O O8 0.890228 0.941159 0.767222
O O9 0.164128 0.373775 0.923969
O O10 0.453474 0.483820 0.224231
O O11 0.280920 0.750996 0.021956
O O12 0.696135 0.330035 0.216631
O O13 0.463821 0.790330 0.030210
O O14 0.385053 0.241381 0.888672
#
# Coordination Sequence:
#
# PCOD9105527 Si02
#       7
#     2   2   2   2   2   2   2
#     4  11  23  39  58  87 121 159 189 241 290 360
#     4  10  20  39  65  83 114 159 202 227 297 349
#     4  10  23  36  63  88 126 142 196 248 293 324
#     4  11  23  39  58  87 121 159 189 241 290 360
#     4  10  20  39  65  83 114 159 202 227 297 349
#     4   9  19  37  61  87 113 151 196 245 277 341
#     4   9  19  38  65  87 109 157 195 249 269 347
#
# _framework density 23.483267999999999
#
# number of rings (size 3 to 8) (size 9 to 14) (size 15 to 20)
#    0.857    1.143    0.000    5.571    0.000    3.429 
#    0.000    2.857    0.000    0.000    0.000    0.000 
#    0.000    0.000    0.000    0.000    0.000    0.000 
#
# Total GULP energy -78239.824550 kJ/mol
# GULP energy per Si atom -5588.558896 kJ/mol
# Density = 2.342982 g / cm^3
# Si number density = 23.483268 Si / 1000 Ang^3
#
#
#
# Elastic Constant Matrix: (Units=GPa)
#
#
# Indices 1 2 3 4 5 6 
#
# 1 132.2728 24.0280 62.8558 -3.0467 4.5906 9.9290
# 2 24.0280 30.0644 43.3210 3.9537 9.7873 11.3044
# 3 62.8558 43.3210 115.4160 13.5186 3.2766 7.7184
# 4 -3.0467 3.9537 13.5186 24.5489 9.1260 -0.2242
# 5 4.5906 9.7873 3.2766 9.1260 62.0668 6.5451
# 6 9.9290 11.3044 7.7184 -0.2242 6.5451 32.9018
#
#
#
# Elastic Compliance Matrix: (Units=1/GPa)
#
#
# Indices 1 2 3 4 5 6 
#
# 1 0.010930 0.002189 -0.007240 0.005479 -0.001361 -0.002044
# 2 0.002189 0.094106 -0.035757 0.009110 -0.012119 -0.022132
# 3 -0.007240 -0.035757 0.026804 -0.011989 0.005789 0.006949
# 4 0.005479 0.009110 -0.011989 0.049720 -0.008526 0.000064
# 5 -0.001361 -0.012119 0.005789 -0.008526 0.019140 -0.000649
# 6 -0.002044 -0.022132 0.006949 0.000064 -0.000649 0.037114
#
#
# Mechanical properties :
#
#
# Convention : Reuss Voigt Hill
#
# Bulk Modulus (GPa) = 19.91150 59.79585 39.85368
# Shear Modulus (GPa) = 14.87333 33.74005 24.30669
#
# Velocity S-wave (km/s) = 2.51939 3.79459 3.22073
# Velocity P-wave (km/s) = 4.11832 6.68708 5.55327
#
# Compressibility (1/GPa) = 0.05022223
#
# Stress axis : x y z
#
# Youngs Moduli (GPa) = 91.49108 10.62631 37.30785
#
# Poissons Ratio (x) = -0.02326 0.27013
# Poissons Ratio (y) = -0.20025 1.33403
# Poissons Ratio (z) = 0.66244 0.37997
#
# Static dielectric constant tensor:
#      x y z
#    x 1.948630 -0.044260 -0.040820 
#    y -0.044260 1.865480 -0.046390 
#    z -0.040820 -0.046390 1.892200 
# 
# From -- ./inp_files/417077.got.cif
#   From: 2010.05.17/outbox.cif.g08.bks.cpg/sg2_209_cif.got.tgz:417077.got - 2010.06.03 11:33:40.
