data_PCOD9105684
_publ_section_title
;
Structure prediction by ZEFSAII (Michael W. Deem and Ramdas Pophale) SiO2 
 PCOD9105684
Probable space group: P -1
;
_chemical_formula_sum "Si O2"
_cell_formula_units_Z 16
_cell_length_a 15.756590
_cell_length_b 17.779233
_cell_length_c 5.461408
_cell_angle_alpha 78.981076
_cell_angle_beta 91.403099
_cell_angle_gamma 152.170799
_cell_volume 665.283201
_symmetry_space_group_name_H-M "P -1"
_symmetry_group_IT_number 2
_symmetry_cell_setting 'triclinic'
loop_
_space_group_symop_operation_xyz
x,y,z
-x,-y,-z
loop_
_atom_site_type_symbol
_atom_site_label
_atom_site_fract_x
_atom_site_fract_y
_atom_site_fract_z
Si Si1 0.127827 0.871107 0.318981
Si Si2 0.312910 0.800780 0.679935
Si Si3 0.699295 0.384010 0.269246
Si Si4 0.245437 0.440310 0.229542
Si Si5 0.663161 0.838720 0.529188
Si Si6 0.969516 0.861607 0.932647
Si Si7 0.860549 0.277532 0.773300
Si Si8 0.396504 0.343724 0.965758
O O1 0.217439 0.872537 0.179791
O O2 0.929642 0.680023 0.535989
O O3 0.259315 0.019326 0.432757
O O4 0.057616 0.883805 0.140849
O O5 0.358465 0.748143 0.725062
O O6 0.177388 0.708222 0.491892
O O7 0.500000 0.000000 0.500000
O O8 0.229408 0.759628 0.962487
O O9 0.545080 0.300199 0.489751
O O10 0.914479 0.548347 0.272948
O O11 0.706163 0.447265 0.000878
O O12 0.145407 0.292811 0.147166
O O13 0.442259 0.560206 0.264986
O O14 0.634204 0.747590 0.779432
O O15 0.840738 0.955370 0.304544
O O16 0.810742 0.794282 0.045521
O O17 0.500000 0.500000 0.000000
#
# Coordination Sequence:
#
# PCOD9105684 Si02
#       8
#     2   2   2   2   2   2   2   2
#     4  11  23  40  68  95 137 183 229 296 351 423
#     4  12  28  48  74 107 143 188 234 297 355 425
#     4  11  23  45  70  99 139 183 234 286 353 425
#     4   9  20  41  62  96 134 180 231 287 352 416
#     4  10  23  42  65 101 135 181 231 288 354 417
#     4  10  20  39  65  94 133 177 230 285 354 416
#     4  12  26  48  73 105 145 187 238 291 357 422
#     4   9  19  39  67  94 136 181 231 294 346 422
#
# _framework density 24.049910000000001
#
# number of rings (size 3 to 8) (size 9 to 14) (size 15 to 20)
#    0.000    1.500    1.250    3.000    3.500    2.000 
#    6.750    0.000    0.000    0.000    0.000    0.000 
#    0.000    0.000    0.000    0.000    0.000    0.000 
#
# Total GULP energy -89428.089735 kJ/mol
# GULP energy per Si atom -5589.255608 kJ/mol
# Density = 2.399517 g / cm^3
# Si number density = 24.049910 Si / 1000 Ang^3
#
#
#
# Elastic Constant Matrix: (Units=GPa)
#
#
# Indices 1 2 3 4 5 6 
#
# 1 1333.9803 1309.5566 418.6596 146.1246 370.4823 542.4347
# 2 1309.5566 1418.9709 418.0223 140.5702 405.8382 581.2150
# 3 418.6596 418.0223 198.0907 46.6135 108.9081 162.4285
# 4 146.1246 140.5702 46.6135 45.5180 37.7319 79.3065
# 5 370.4823 405.8382 108.9081 37.7319 171.0876 190.5945
# 6 542.4347 581.2150 162.4285 79.3065 190.5945 301.5684
#
#
#
# Elastic Compliance Matrix: (Units=1/GPa)
#
#
# Indices 1 2 3 4 5 6 
#
# 1 0.009565 -0.007222 -0.003906 -0.004503 -0.000352 0.000226
# 2 -0.007222 0.011161 -0.002362 0.005486 -0.002908 -0.006852
# 3 -0.003906 -0.002362 0.015756 -0.002416 0.001393 0.002846
# 4 -0.004503 0.005486 -0.002416 0.049696 0.010748 -0.021035
# 5 -0.000352 -0.002908 0.001393 0.010748 0.024614 -0.012894
# 6 0.000226 -0.006852 0.002846 -0.021035 -0.012894 0.028265
#
#
# Mechanical properties :
#
#
# Convention : Reuss Voigt Hill
#
# Bulk Modulus (GPa) = 105.23863 804.83543 455.03703
# Shear Modulus (GPa) = 29.55036 157.28837 93.41937
#
# Velocity S-wave (km/s) = 3.50910 8.09585 6.23925
# Velocity P-wave (km/s) = 7.76349 20.56135 15.54093
#
# Compressibility (1/GPa) = 0.00950221
#
# Stress axis : x y z
#
# Youngs Moduli (GPa) = 104.55189 89.60023 63.46695
#
# Poissons Ratio (x) = 0.64710 0.24791
# Poissons Ratio (y) = 0.75508 0.14988
# Poissons Ratio (z) = 0.40839 0.21159
#
# Static dielectric constant tensor:
#      x y z
#    x 1.895900 0.002820 -0.087800 
#    y 0.002820 2.033030 -0.031380 
#    z -0.087800 -0.031380 2.158640 
# 
# From -- ./inp_files/99693.got.cif
#   From: 2010.05.17/outbox.cif.g08.bks.cpg/sg2_50_cif.got.tgz:99693.got - 2010.06.03 11:33:40.
