data_PCOD9105889
_publ_section_title
;
Structure prediction by ZEFSAII (Michael W. Deem and Ramdas Pophale) SiO2 
 PCOD9105889
Probable space group: P -1
;
_chemical_formula_sum "Si O2"
_cell_formula_units_Z 12
_cell_length_a 16.093427
_cell_length_b 8.010086
_cell_length_c 7.326112
_cell_angle_alpha 124.550396
_cell_angle_beta 45.616624
_cell_angle_gamma 129.666126
_cell_volume 506.906885
_symmetry_space_group_name_H-M "P -1"
_symmetry_group_IT_number 2
_symmetry_cell_setting 'triclinic'
loop_
_space_group_symop_operation_xyz
x,y,z
-x,-y,-z
loop_
_atom_site_type_symbol
_atom_site_label
_atom_site_fract_x
_atom_site_fract_y
_atom_site_fract_z
Si Si1 0.373099 0.475339 0.571598
Si Si2 0.638299 0.196876 0.926876
Si Si3 0.682505 0.530199 0.732563
Si Si4 0.103988 0.590362 0.742636
Si Si5 0.934768 0.827110 0.653014
Si Si6 0.166748 0.984664 0.642078
O O1 0.500000 0.500000 0.500000
O O2 0.404009 0.462183 0.298286
O O3 0.254755 0.246257 0.669388
O O4 0.348152 0.677297 0.825088
O O5 0.642412 0.358231 0.851949
O O6 0.750195 0.113294 0.670275
O O7 0.500000 0.000000 0.000000
O O8 0.772949 0.450618 0.417423
O O9 0.783079 0.756259 0.812681
O O10 0.057110 0.411343 0.538619
O O11 0.143676 0.839908 0.771927
O O12 0.000000 0.500000 0.000000
O O13 0.027564 0.929852 0.741542
O O14 0.000000 0.000000 0.500000
#
# Coordination Sequence:
#
# PCOD9105889 Si02
#       6
#     2   2   2   2   2   2
#     4  12  25  44  68  96 133 177 226 270 328 393
#     4  11  25  46  68  95 135 180 218 278 326 385
#     4   9  24  42  65 101 132 167 226 267 331 398
#     4   9  21  38  63  97 129 170 211 263 333 391
#     4  10  20  39  66  92 137 163 208 273 326 387
#     4  11  22  44  66  98 134 171 222 270 327 398
#
# _framework density 23.672985000000001
#
# number of rings (size 3 to 8) (size 9 to 14) (size 15 to 20)
#    1.000    0.667    3.333    0.500    2.333    2.667 
#    0.000    2.500    0.000    0.000    0.000    0.000 
#    0.000    0.000    0.000    0.000    0.000    0.000 
#
# Total GULP energy -66889.545478 kJ/mol
# GULP energy per Si atom -5574.128790 kJ/mol
# Density = 2.361910 g / cm^3
# Si number density = 23.672985 Si / 1000 Ang^3
#
#
#
# Elastic Constant Matrix: (Units=GPa)
#
#
# Indices 1 2 3 4 5 6 
#
# 1 67.5507 0.1072 10.8542 28.6503 18.3693 25.8256
# 2 0.1072 151.7555 12.8281 12.8383 27.9566 18.5005
# 3 10.8542 12.8281 86.0265 20.3533 9.5251 12.2122
# 4 28.6503 12.8383 20.3533 34.4405 -4.4153 7.5271
# 5 18.3693 27.9566 9.5251 -4.4153 40.6569 9.4635
# 6 25.8256 18.5005 12.2122 7.5271 9.4635 35.4270
#
#
#
# Elastic Compliance Matrix: (Units=1/GPa)
#
#
# Indices 1 2 3 4 5 6 
#
# 1 0.070244 0.018003 0.016195 -0.072351 -0.046852 -0.038303
# 2 0.018003 0.012763 0.004725 -0.022164 -0.017631 -0.011999
# 3 0.016195 0.004725 0.018134 -0.025443 -0.014991 -0.011114
# 4 -0.072351 -0.022164 -0.025443 0.112658 0.058310 0.033575
# 5 -0.046852 -0.017631 -0.014991 0.058310 0.063253 0.019244
# 6 -0.038303 -0.011999 -0.011114 0.033575 0.019244 0.053972
#
#
# Mechanical properties :
#
#
# Convention : Reuss Voigt Hill
#
# Bulk Modulus (GPa) = 5.58702 39.21240 22.39971
# Shear Modulus (GPa) = 15.98259 40.87442 28.42850
#
# Velocity S-wave (km/s) = 2.60117 4.15978 3.46914
# Velocity P-wave (km/s) = 3.37441 6.29856 5.05265
#
# Compressibility (1/GPa) = 0.17898641
#
# Stress axis : x y z
#
# Youngs Moduli (GPa) = 14.23618 78.34959 55.14633
#
# Poissons Ratio (x) = -1.41051 -0.89312
# Poissons Ratio (y) = -0.25629 -0.26055
# Poissons Ratio (z) = -0.23056 -0.37018
#
# Static dielectric constant tensor:
#      x y z
#    x 2.068000 0.040970 0.103790 
#    y 0.040970 1.801120 -0.046440 
#    z 0.103790 -0.046440 2.026720 
# 
# From -- ./inp_files/91084.got.cif
#   From: 2010.05.17/outbox.cif.g08.bks.cpg/sg2_46_cif.got.tgz:91084.got - 2010.06.03 11:33:40.
