data_PCOD9105166
_publ_section_title
;
Structure prediction by ZEFSAII (Michael W. Deem and Ramdas Pophale) SiO2 
 PCOD9105166
Probable space group: P -1
;
_chemical_formula_sum "Si O2"
_cell_formula_units_Z 14
_cell_length_a 9.448614
_cell_length_b 8.662555
_cell_length_c 8.789190
_cell_angle_alpha 79.207737
_cell_angle_beta 88.871110
_cell_angle_gamma 85.438244
_cell_volume 704.416420
_symmetry_space_group_name_H-M "P -1"
_symmetry_group_IT_number 2
_symmetry_cell_setting 'triclinic'
loop_
_space_group_symop_operation_xyz
x,y,z
-x,-y,-z
loop_
_atom_site_type_symbol
_atom_site_label
_atom_site_fract_x
_atom_site_fract_y
_atom_site_fract_z
Si Si1 0.905067 0.154221 0.902588
Si Si2 0.949743 0.592568 0.331476
Si Si3 0.694746 0.809356 0.264419
Si Si4 0.845406 0.061246 0.427487
Si Si5 0.417597 0.952023 0.361509
Si Si6 0.261883 0.119712 0.102121
Si Si7 0.967514 0.307562 0.168557
O O1 0.973473 0.249014 0.746766
O O2 0.769640 0.065110 0.877349
O O3 0.889888 0.277345 0.017452
O O4 0.000000 0.000000 0.000000
O O5 0.784585 0.650492 0.340912
O O6 0.971940 0.479206 0.206040
O O7 0.000000 0.500000 0.500000
O O8 0.528979 0.825748 0.303900
O O9 0.773582 0.944825 0.330428
O O10 0.712698 0.825399 0.079287
O O11 0.732959 0.089653 0.559771
O O12 0.880165 0.215830 0.309655
O O13 0.000000 0.000000 0.500000
O O14 0.500000 0.000000 0.500000
O O15 0.389517 0.102694 0.222085
O O16 0.126500 0.222649 0.156744
#
# Coordination Sequence:
#
# PCOD9105166 Si02
#       7
#     2   2   2   2   2   2   2
#     4  10  20  39  63  94 122 163 219 263 305 371
#     4  12  25  36  61  99 137 165 206 269 322 373
#     4  11  22  42  59  95 129 171 214 258 318 390
#     4  11  20  37  64  92 123 161 219 264 309 367
#     4  10  24  37  63  95 128 166 215 270 319 367
#     4  11  20  39  69  89 124 168 222 261 309 383
#     4  11  21  35  62  95 124 163 213 264 317 368
#
# _framework density 19.874607000000001
#
# number of rings (size 3 to 8) (size 9 to 14) (size 15 to 20)
#    0.000    1.143    5.714    2.571    4.000    0.000 
#    0.000    0.714    0.000    0.857    0.000    0.000 
#    0.000    0.000    0.000    0.000    0.000    0.000 
#
# Total GULP energy -78010.953812 kJ/mol
# GULP energy per Si atom -5572.210987 kJ/mol
# Density = 1.982937 g / cm^3
# Si number density = 19.874607 Si / 1000 Ang^3
#
#
#
# Elastic Constant Matrix: (Units=GPa)
#
#
# Indices 1 2 3 4 5 6 
#
# 1 106.9317 29.1489 38.1195 -2.2163 -15.2365 -31.8547
# 2 29.1489 86.1850 21.9328 6.0678 -12.1389 -11.2119
# 3 38.1195 21.9328 108.2149 -14.0439 -11.4776 -12.1694
# 4 -2.2163 6.0678 -14.0439 32.8060 1.4674 -1.4567
# 5 -15.2365 -12.1389 -11.4776 1.4674 37.0950 5.5676
# 6 -31.8547 -11.2119 -12.1694 -1.4567 5.5676 34.2928
#
#
#
# Elastic Compliance Matrix: (Units=1/GPa)
#
#
# Indices 1 2 3 4 5 6 
#
# 1 0.014968 -0.002423 -0.003132 0.000516 0.002625 0.011596
# 2 -0.002423 0.013709 -0.001990 -0.003640 0.002884 0.000902
# 3 -0.003132 -0.001990 0.011616 0.005093 0.001372 0.000556
# 4 0.000516 -0.003640 0.005093 0.033541 -0.001136 0.002706
# 5 0.002625 0.002884 0.001372 -0.001136 0.029597 -0.000986
# 6 0.011596 0.000902 0.000556 0.002706 -0.000986 0.040699
#
#
# Mechanical properties :
#
#
# Convention : Reuss Voigt Hill
#
# Bulk Modulus (GPa) = 39.67872 53.30375 46.49124
# Shear Modulus (GPa) = 29.82900 34.98078 32.40489
#
# Velocity S-wave (km/s) = 3.87830 4.19987 4.04228
# Velocity P-wave (km/s) = 6.32952 7.09907 6.72531
#
# Compressibility (1/GPa) = 0.02520242
#
# Stress axis : x y z
#
# Youngs Moduli (GPa) = 66.80937 72.94619 86.08541
#
# Poissons Ratio (x) = 0.17678 0.26962
# Poissons Ratio (y) = 0.16191 0.17130
# Poissons Ratio (z) = 0.20925 0.14516
#
# Static dielectric constant tensor:
#      x y z
#    x 1.801970 -0.003190 0.060280 
#    y -0.003190 1.735190 -0.012950 
#    z 0.060280 -0.012950 1.806330 
# 
# From -- ./inp_files/153972.got.cif
#   From: 2010.05.17/outbox.cif.g08.bks.cpg/sg2_77_cif.got.tgz:153972.got - 2010.06.03 11:33:40.
