data_PCOD9105404
_publ_section_title
;
Structure prediction by ZEFSAII (Michael W. Deem and Ramdas Pophale) SiO2 
 PCOD9105404
Probable space group: P -1
;
_chemical_formula_sum "Si O2"
_cell_formula_units_Z 14
_cell_length_a 12.969083
_cell_length_b 8.644784
_cell_length_c 8.644782
_cell_angle_alpha 102.554456
_cell_angle_beta 118.583002
_cell_angle_gamma 124.397050
_cell_volume 519.423740
_symmetry_space_group_name_H-M "P -1"
_symmetry_group_IT_number 2
_symmetry_cell_setting 'triclinic'
loop_
_space_group_symop_operation_xyz
x,y,z
-x,-y,-z
loop_
_atom_site_type_symbol
_atom_site_label
_atom_site_fract_x
_atom_site_fract_y
_atom_site_fract_z
Si Si1 0.365601 0.090769 0.928923
Si Si2 0.012987 0.636172 0.896061
Si Si3 0.365602 0.802278 0.640434
Si Si4 0.207258 0.066919 0.347596
Si Si5 0.987012 0.870086 0.610197
Si Si6 0.545912 0.302987 0.788837
Si Si7 0.913563 0.590377 0.236750
O O1 0.516995 0.708498 0.086201
O O2 0.312144 0.868799 0.755489
O O3 0.500000 0.188001 0.188001
O O4 0.191791 0.019774 0.830126
O O5 0.808208 0.446543 0.636192
O O6 0.112913 0.624523 0.843935
O O7 0.000000 0.500000 0.000000
O O8 0.125450 0.903555 0.098782
O O9 0.483007 0.052212 0.674509
O O10 0.116738 0.858478 0.374998
O O11 0.125451 0.152119 0.347346
O O12 0.429430 0.281211 0.577647
O O13 0.887086 0.618110 0.398697
O O14 0.000000 0.000000 0.500000
O O15 0.769511 0.531206 0.007816
#
# Coordination Sequence:
#
# PCOD9105404 Si02
#       7
#     2   2   2   2   2   2   2
#     4   9  16  31  51  72 103 124 156 207 246 276
#     4  10  16  34  50  69 101 132 158 200 240 291
#     4   9  16  31  51  72 103 124 156 207 246 276
#     4  10  20  33  49  71 108 127 159 200 244 285
#     4  10  16  34  50  69 101 132 158 200 240 291
#     4  10  17  31  50  80  97 124 158 212 241 279
#     4  10  18  28  55  77  93 126 171 193 247 284
#
# _framework density 26.952947999999999
#
# number of rings (size 3 to 8) (size 9 to 14) (size 15 to 20)
#    0.857    1.429    7.143    0.000    0.000    1.143 
#    0.000    3.571    0.000    0.000    0.000    2.000 
#    0.000    0.000    0.000    0.000    0.000    0.000 
#
# Total GULP energy -78309.114594 kJ/mol
# GULP energy per Si atom -5593.508185 kJ/mol
# Density = 2.689160 g / cm^3
# Si number density = 26.952948 Si / 1000 Ang^3
#
#
#
# Elastic Constant Matrix: (Units=GPa)
#
#
# Indices 1 2 3 4 5 6 
#
# 1 99.0041 21.5239 62.1555 -3.9271 -1.9506 -33.9137
# 2 21.5239 63.8001 16.4687 -16.0145 -3.7012 -15.4723
# 3 62.1555 16.4687 206.3382 -28.9133 31.2908 -23.5882
# 4 -3.9271 -16.0145 -28.9133 34.9173 -10.3074 3.1054
# 5 -1.9506 -3.7012 31.2908 -10.3074 61.4084 -3.8009
# 6 -33.9137 -15.4723 -23.5882 3.1054 -3.8009 38.0542
#
#
#
# Elastic Compliance Matrix: (Units=1/GPa)
#
#
# Indices 1 2 3 4 5 6 
#
# 1 0.017751 -0.002363 -0.004622 -0.003138 0.003027 0.012552
# 2 -0.002363 0.020447 0.000758 0.010030 0.002835 0.006142
# 3 -0.004622 0.000758 0.007339 0.005018 -0.002997 0.000029
# 4 -0.003138 0.010030 0.005018 0.038207 0.004468 0.001720
# 5 0.003027 0.002835 -0.002997 0.004468 0.019047 0.003530
# 6 0.012552 0.006142 0.000029 0.001720 0.003530 0.040192
#
#
# Mechanical properties :
#
#
# Convention : Reuss Voigt Hill
#
# Bulk Modulus (GPa) = 30.22856 63.27096 46.74976
# Shear Modulus (GPa) = 30.03590 44.80893 37.42241
#
# Velocity S-wave (km/s) = 3.34186 4.08178 3.73021
# Velocity P-wave (km/s) = 5.11179 6.76315 5.99460
#
# Compressibility (1/GPa) = 0.03308130
#
# Stress axis : x y z
#
# Youngs Moduli (GPa) = 56.33407 48.90617 136.25372
#
# Poissons Ratio (x) = 0.11559 0.62982
# Poissons Ratio (y) = 0.13315 -0.10323
# Poissons Ratio (z) = 0.26040 -0.03705
#
# Static dielectric constant tensor:
#      x y z
#    x 2.159510 0.013570 -0.037980 
#    y 0.013570 2.154550 0.040070 
#    z -0.037980 0.040070 2.076590 
# 
# From -- ./inp_files/450540.got.cif
#   From: 2010.05.17/outbox.cif.g08.bks.cpg/sg2_226_cif.got.tgz:450540.got - 2010.06.03 11:33:40.
