data_PCOD9105935
_publ_section_title
;
Structure prediction by ZEFSAII (Michael W. Deem and Ramdas Pophale) SiO2 
 PCOD9105935
Probable space group: P -1
;
_chemical_formula_sum "Si O2"
_cell_formula_units_Z 16
_cell_length_a 17.848758
_cell_length_b 8.708001
_cell_length_c 9.635109
_cell_angle_alpha 117.867203
_cell_angle_beta 148.744441
_cell_angle_gamma 57.905257
_cell_volume 657.967707
_symmetry_space_group_name_H-M "P -1"
_symmetry_group_IT_number 2
_symmetry_cell_setting 'triclinic'
loop_
_space_group_symop_operation_xyz
x,y,z
-x,-y,-z
loop_
_atom_site_type_symbol
_atom_site_label
_atom_site_fract_x
_atom_site_fract_y
_atom_site_fract_z
Si Si1 0.626715 0.289695 0.999768
Si Si2 0.154905 0.847886 0.462454
Si Si3 0.678422 0.163736 0.553479
Si Si4 0.806019 0.449501 0.993040
Si Si5 0.616321 0.677561 0.019935
Si Si6 0.064737 0.782821 0.665151
Si Si7 0.680857 0.791311 0.460585
Si Si8 0.963340 0.444716 0.744977
O O1 0.594376 0.498338 0.986922
O O2 0.471952 0.236142 0.727423
O O3 0.698725 0.250111 0.252461
O O4 0.770813 0.187699 0.090238
O O5 0.193582 0.875288 0.378016
O O6 0.047253 0.718330 0.244075
O O7 0.069721 0.035981 0.479796
O O8 0.525263 0.210775 0.244082
O O9 0.697688 0.987952 0.604157
O O10 0.684713 0.346277 0.717596
O O11 0.934257 0.299347 0.215334
O O12 0.877448 0.516910 0.002740
O O13 0.741986 0.603202 0.070325
O O14 0.657565 0.792514 0.256665
O O15 0.059080 0.634795 0.477216
O O16 0.826776 0.620288 0.639279
#
# Coordination Sequence:
#
# PCOD9105935 Si02
#       8
#     2   2   2   2   2   2   2   2
#     4  10  20  39  66  95 120 157 213 267 304 356
#     4  11  22  39  63  97 127 157 213 263 312 363
#     4  12  27  39  61  98 131 165 207 258 311 374
#     4  11  25  44  62  89 136 168 203 255 316 374
#     4  11  22  43  67  91 124 168 211 257 310 372
#     4  10  22  39  66  95 126 160 211 262 310 369
#     4  12  22  39  68  97 122 164 211 260 309 366
#     4  11  22  40  68  93 118 173 210 256 313 371
#
# _framework density 24.317302999999999
#
# number of rings (size 3 to 8) (size 9 to 14) (size 15 to 20)
#    0.000    1.000    5.000    4.500    1.750    3.500 
#    0.000    3.750    0.000    0.000    0.000    0.000 
#    0.000    0.000    0.000    0.000    0.000    0.000 
#
# Total GULP energy -89527.957005 kJ/mol
# GULP energy per Si atom -5595.497313 kJ/mol
# Density = 2.426196 g / cm^3
# Si number density = 24.317303 Si / 1000 Ang^3
#
#
#
# Elastic Constant Matrix: (Units=GPa)
#
#
# Indices 1 2 3 4 5 6 
#
# 1 78.9684 17.4061 18.7522 4.1981 21.1018 3.9594
# 2 17.4061 112.5675 23.2152 -13.1997 20.1309 3.2333
# 3 18.7522 23.2152 40.5070 18.4930 3.8041 -5.6507
# 4 4.1981 -13.1997 18.4930 25.0720 6.0046 10.4156
# 5 21.1018 20.1309 3.8041 6.0046 42.9201 3.5095
# 6 3.9594 3.2333 -5.6507 10.4156 3.5095 30.6110
#
#
#
# Elastic Compliance Matrix: (Units=1/GPa)
#
#
# Indices 1 2 3 4 5 6 
#
# 1 0.037015 0.042924 -0.110924 0.138175 -0.041943 -0.072004
# 2 0.042924 0.099024 -0.220337 0.286063 -0.076161 -0.145288
# 3 -0.110924 -0.220337 0.552919 -0.695587 0.177074 0.356065
# 4 0.138175 0.286063 -0.695587 0.929748 -0.232409 -0.466199
# 5 -0.041943 -0.076161 0.177074 -0.232409 0.087038 0.115257
# 6 -0.072004 -0.145288 0.356065 -0.466199 0.115257 0.268469
#
#
# Mechanical properties :
#
#
# Convention : Reuss Voigt Hill
#
# Bulk Modulus (GPa) = 8.90593 38.97665 23.94129
# Shear Modulus (GPa) = 1.93176 31.23191 16.58183
#
# Velocity S-wave (km/s) = 0.89226 3.58767 2.61414
# Velocity P-wave (km/s) = 2.17528 5.76411 4.35642
#
# Compressibility (1/GPa) = 0.11228468
#
# Stress axis : x y z
#
# Youngs Moduli (GPa) = 27.01596 10.09853 1.80858
#
# Poissons Ratio (x) = -0.43347 0.20062
# Poissons Ratio (y) = -1.15964 0.39850
# Poissons Ratio (z) = 2.99672 2.22508
#
# Static dielectric constant tensor:
#      x y z
#    x 1.947470 0.011900 0.013660 
#    y 0.011900 1.897140 0.029050 
#    z 0.013660 0.029050 1.990020 
# 
# From -- ./inp_files/470170.got.cif
#   From: 2010.05.17/outbox.cif.g08.bks.cpg/sg2_236_cif.got.tgz:470170.got - 2010.06.03 11:33:40.
