data_PCOD9105611
_publ_section_title
;
Structure prediction by ZEFSAII (Michael W. Deem and Ramdas Pophale) SiO2 
 PCOD9105611
Probable space group: P -1
;
_chemical_formula_sum "Si O2"
_cell_formula_units_Z 16
_cell_length_a 9.876269
_cell_length_b 19.633709
_cell_length_c 12.018030
_cell_angle_alpha 127.681463
_cell_angle_beta 57.483383
_cell_angle_gamma 158.583130
_cell_volume 669.437982
_symmetry_space_group_name_H-M "P -1"
_symmetry_group_IT_number 2
_symmetry_cell_setting 'triclinic'
loop_
_space_group_symop_operation_xyz
x,y,z
-x,-y,-z
loop_
_atom_site_type_symbol
_atom_site_label
_atom_site_fract_x
_atom_site_fract_y
_atom_site_fract_z
Si Si1 0.534964 0.943450 0.838209
Si Si2 0.446030 0.712238 0.399899
Si Si3 0.822608 0.510236 0.071805
Si Si4 0.350416 0.514845 0.638056
Si Si5 0.550924 0.049334 0.722406
Si Si6 0.398819 0.689174 0.638306
Si Si7 0.563452 0.917828 0.404442
Si Si8 0.592390 0.643555 0.117858
O O1 0.382171 0.909566 0.756061
O O2 0.973640 0.138375 0.831004
O O3 0.381227 0.777353 0.778734
O O4 0.500000 0.000000 0.000000
O O5 0.606969 0.795322 0.534577
O O6 0.629398 0.855706 0.363045
O O7 0.415927 0.600474 0.261569
O O8 0.027312 0.545615 0.430531
O O9 0.599134 0.437383 0.206066
O O10 0.151355 0.741064 0.145692
O O11 0.566594 0.387341 0.952987
O O12 0.000000 0.500000 0.000000
O O13 0.500000 0.500000 0.500000
O O14 0.530177 0.680875 0.656230
O O15 0.893394 0.294814 0.611612
O O16 0.316799 0.995648 0.685937
O O17 0.706519 0.052999 0.570440
O O18 0.500000 0.500000 0.000000
#
# Coordination Sequence:
#
# PCOD9105611 Si02
#       8
#     2   2   2   2   2   2   2   2
#     4  12  26  42  64  99 140 175 216 282 341 395
#     4  10  21  41  69  92 128 172 224 269 330 403
#     4  11  24  45  69  93 132 180 230 275 334 406
#     4  10  23  40  65  93 129 174 217 275 335 403
#     4  10  20  39  65  92 124 166 220 271 325 390
#     4  10  22  42  65  97 132 170 213 281 341 393
#     4   9  19  40  66  93 123 170 222 268 334 389
#     4  12  25  42  67  98 128 182 229 269 331 411
#
# _framework density 23.900645999999998
#
# number of rings (size 3 to 8) (size 9 to 14) (size 15 to 20)
#    0.000    1.500    2.500    3.000    3.500    1.500 
#    9.000    0.625    0.000    0.000    0.000    0.000 
#    0.000    0.000    0.000    0.000    0.000    0.000 
#
# Total GULP energy -89307.057373 kJ/mol
# GULP energy per Si atom -5581.691086 kJ/mol
# Density = 2.384625 g / cm^3
# Si number density = 23.900646 Si / 1000 Ang^3
#
#
#
# Elastic Constant Matrix: (Units=GPa)
#
#
# Indices 1 2 3 4 5 6 
#
# 1 127.3335 29.5444 37.8607 -5.4960 -6.9600 -23.7870
# 2 29.5444 35.1023 -1.3450 8.6690 -2.2427 1.2574
# 3 37.8607 -1.3450 134.2031 -4.6032 -9.5503 -9.5615
# 4 -5.4960 8.6690 -4.6032 36.1480 -7.4706 -6.9433
# 5 -6.9600 -2.2427 -9.5503 -7.4706 34.5329 10.1497
# 6 -23.7870 1.2574 -9.5615 -6.9433 10.1497 47.8844
#
#
#
# Elastic Compliance Matrix: (Units=1/GPa)
#
#
# Indices 1 2 3 4 5 6 
#
# 1 0.013547 -0.013328 -0.003205 0.006292 0.000191 0.007311
# 2 -0.013328 0.043593 0.003120 -0.013709 0.000774 -0.009294
# 3 -0.003205 0.003120 0.008514 0.000202 0.002067 -0.000383
# 4 0.006292 -0.013709 0.000202 0.034528 0.005754 0.007313
# 5 0.000191 0.000774 0.002067 0.005754 0.032499 -0.005567
# 6 0.007311 -0.009294 -0.000383 0.007313 -0.005567 0.026924
#
#
# Mechanical properties :
#
#
# Convention : Reuss Voigt Hill
#
# Bulk Modulus (GPa) = 25.75545 47.63989 36.69767
# Shear Modulus (GPa) = 25.07858 39.08498 32.08178
#
# Velocity S-wave (km/s) = 3.24278 4.04828 3.66771
# Velocity P-wave (km/s) = 4.98200 6.46740 5.77267
#
# Compressibility (1/GPa) = 0.03882673
#
# Stress axis : x y z
#
# Youngs Moduli (GPa) = 73.81965 22.93926 117.45881
#
# Poissons Ratio (x) = 0.30573 0.37645
# Poissons Ratio (y) = 0.98387 -0.36642
# Poissons Ratio (z) = 0.23659 -0.07156
#
# Static dielectric constant tensor:
#      x y z
#    x 2.161270 0.469510 -0.035090 
#    y 0.469510 3.356220 -0.091410 
#    z -0.035090 -0.091410 1.908140 
# 
# From -- ./inp_files/403220.got.cif
#   From: 2010.05.17/outbox.cif.g08.bks.cpg/sg2_202_cif.got.tgz:403220.got - 2010.06.03 11:33:40.
