data_PCOD9105751
_publ_section_title
;
Structure prediction by ZEFSAII (Michael W. Deem and Ramdas Pophale) SiO2 
 PCOD9105751
Probable space group: P -1
;
_chemical_formula_sum "Si O2"
_cell_formula_units_Z 16
_cell_length_a 25.667268
_cell_length_b 10.907642
_cell_length_c 5.367448
_cell_angle_alpha 59.946505
_cell_angle_beta 116.317102
_cell_angle_gamma 148.418577
_cell_volume 680.722792
_symmetry_space_group_name_H-M "P -1"
_symmetry_group_IT_number 2
_symmetry_cell_setting 'triclinic'
loop_
_space_group_symop_operation_xyz
x,y,z
-x,-y,-z
loop_
_atom_site_type_symbol
_atom_site_label
_atom_site_fract_x
_atom_site_fract_y
_atom_site_fract_z
Si Si1 0.356184 0.095663 0.628678
Si Si2 0.110919 0.278930 0.495673
Si Si3 0.994748 0.246104 0.607279
Si Si4 0.157265 0.902500 0.918683
Si Si5 0.655197 0.616972 0.493047
Si Si6 0.850135 0.385143 0.078722
Si Si7 0.464268 0.266322 0.179883
Si Si8 0.810948 0.803732 0.946182
O O1 0.374693 0.302564 0.489747
O O2 0.386032 0.107111 0.404107
O O3 0.419215 0.146503 0.935000
O O4 0.242679 0.838431 0.718816
O O5 0.087016 0.338612 0.608217
O O6 0.150062 0.454304 0.179787
O O7 0.180911 0.290071 0.717058
O O8 0.000000 0.000000 0.500000
O O9 0.938353 0.220629 0.298680
O O10 0.045942 0.435338 0.742572
O O11 0.907555 0.971846 0.807600
O O12 0.255903 0.150920 0.730043
O O13 0.154721 0.730915 0.048698
O O14 0.169549 0.997710 0.115150
O O15 0.562999 0.384171 0.368835
O O16 0.707308 0.603186 0.789129
O O17 0.500000 0.500000 0.000000
#
# Coordination Sequence:
#
# PCOD9105751 Si02
#       8
#     2   2   2   2   2   2   2   2
#     4  10  23  38  63  99 134 167 216 266 338 393
#     4  12  24  42  61  85 124 181 223 266 314 392
#     4  11  22  40  62  84 126 168 225 261 331 376
#     4  10  22  38  59  96 127 161 212 271 335 384
#     4   9  21  34  62  91 125 165 206 271 323 388
#     4  11  25  38  63  92 132 173 210 275 326 389
#     4  10  20  39  65  97 134 168 211 270 335 394
#     4  11  23  39  63  91 128 167 221 268 322 390
#
# _framework density 23.504428000000001
#
# number of rings (size 3 to 8) (size 9 to 14) (size 15 to 20)
#    0.000    1.500    2.500    2.250    8.750    4.000 
#    0.000    0.000    0.000    1.500    0.000    0.000 
#    0.000    0.000    0.000    0.000    0.000    0.000 
#
# Total GULP energy -89491.522618 kJ/mol
# GULP energy per Si atom -5593.220164 kJ/mol
# Density = 2.345093 g / cm^3
# Si number density = 23.504428 Si / 1000 Ang^3
#
#
#
# Elastic Constant Matrix: (Units=GPa)
#
#
# Indices 1 2 3 4 5 6 
#
# 1 48.6772 22.0969 21.7931 -0.1438 -3.5061 7.0521
# 2 22.0969 50.0980 37.9701 9.2661 15.7620 15.3891
# 3 21.7931 37.9701 121.2417 12.6482 12.3932 11.0890
# 4 -0.1438 9.2661 12.6482 44.7433 11.3179 5.6032
# 5 -3.5061 15.7620 12.3932 11.3179 35.9281 2.8347
# 6 7.0521 15.3891 11.0890 5.6032 2.8347 27.6958
#
#
#
# Elastic Compliance Matrix: (Units=1/GPa)
#
#
# Indices 1 2 3 4 5 6 
#
# 1 0.028545 -0.014581 -0.001673 0.001177 0.009364 0.000307
# 2 -0.014581 0.041572 -0.007370 -0.000758 -0.015722 -0.014673
# 3 -0.001673 -0.007370 0.011007 -0.001581 -0.000265 0.000461
# 4 0.001177 -0.000758 -0.001581 0.025089 -0.006623 -0.003643
# 5 0.009364 -0.015722 -0.000265 -0.006623 0.037510 0.003958
# 6 0.000307 -0.014673 0.000461 -0.003643 0.003958 0.044329
#
#
# Mechanical properties :
#
#
# Convention : Reuss Voigt Hill
#
# Bulk Modulus (GPa) = 29.51910 42.63746 36.07828
# Shear Modulus (GPa) = 20.27648 30.88390 25.58019
#
# Velocity S-wave (km/s) = 2.94030 3.62879 3.30254
# Velocity P-wave (km/s) = 4.91054 5.97805 5.47040
#
# Compressibility (1/GPa) = 0.03387637
#
# Stress axis : x y z
#
# Youngs Moduli (GPa) = 35.03270 24.05449 90.85385
#
# Poissons Ratio (x) = 0.35073 0.15196
# Poissons Ratio (y) = 0.51080 0.66963
# Poissons Ratio (z) = 0.05859 0.17729
#
# Static dielectric constant tensor:
#      x y z
#    x 1.980780 -0.016900 -0.037630 
#    y -0.016900 1.883720 0.038810 
#    z -0.037630 0.038810 1.912890 
# 
# From -- ./inp_files/126680.got.cif
#   From: 2010.05.17/outbox.cif.g08.bks.cpg/sg2_64_cif.got.tgz:126680.got - 2010.06.03 11:33:40.
