data_PCOD9105466
_publ_section_title
;
Structure prediction by ZEFSAII (Michael W. Deem and Ramdas Pophale) SiO2 
 PCOD9105466
Probable space group: P -1
;
_chemical_formula_sum "Si O2"
_cell_formula_units_Z 16
_cell_length_a 16.192337
_cell_length_b 10.091034
_cell_length_c 11.780390
_cell_angle_alpha 36.580907
_cell_angle_beta 98.533289
_cell_angle_gamma 127.980647
_cell_volume 612.012166
_symmetry_space_group_name_H-M "P -1"
_symmetry_group_IT_number 2
_symmetry_cell_setting 'triclinic'
loop_
_space_group_symop_operation_xyz
x,y,z
-x,-y,-z
loop_
_atom_site_type_symbol
_atom_site_label
_atom_site_fract_x
_atom_site_fract_y
_atom_site_fract_z
Si Si1 0.360958 0.985990 0.304492
Si Si2 0.818132 0.216301 0.956702
Si Si3 0.778647 0.427358 0.213420
Si Si4 0.887706 0.906240 0.230404
Si Si5 0.499797 0.307564 0.726112
Si Si6 0.165021 0.923791 0.190521
Si Si7 0.621939 0.426806 0.889265
Si Si8 0.887357 0.728389 0.796016
O O1 0.343350 0.943157 0.467461
O O2 0.244064 0.526555 0.560002
O O3 0.287941 0.039625 0.196102
O O4 0.524096 0.302435 0.059953
O O5 0.822735 0.003249 0.182466
O O6 0.662614 0.994068 0.042075
O O7 0.859902 0.196867 0.861452
O O8 0.902471 0.592414 0.789161
O O9 0.766357 0.360887 0.120836
O O10 0.787267 0.713110 0.033953
O O11 0.953187 0.727825 0.062821
O O12 0.953297 0.916641 0.345586
O O13 0.500000 0.500000 0.500000
O O14 0.617912 0.558070 0.681891
O O15 0.471726 0.008030 0.866524
O O16 0.000000 0.500000 0.500000
O O17 0.797982 0.752916 0.729087
#
# Coordination Sequence:
#
# PCOD9105466 Si02
#       8
#     2   2   2   2   2   2   2   2
#     4  12  21  38  69  95 122 175 226 263 312 390
#     4  11  20  39  68  96 123 170 224 264 323 388
#     4  10  23  41  62  92 135 170 213 267 325 381
#     4  10  20  39  64  96 128 171 209 268 326 378
#     4  10  21  39  65  93 128 165 222 269 309 384
#     4  12  22  38  65  97 124 167 227 272 311 380
#     4  10  22  40  64  94 127 171 216 263 324 386
#     4   9  23  42  62  94 142 166 206 275 330 385
#
# _framework density 26.143270999999999
#
# number of rings (size 3 to 8) (size 9 to 14) (size 15 to 20)
#    0.750    0.750    3.750    2.250    0.000    0.500 
#    0.000    5.625    5.500    0.000    0.000    0.000 
#    0.000    0.000    0.000    0.000    0.000    0.000 
#
# Total GULP energy -89476.963498 kJ/mol
# GULP energy per Si atom -5592.310219 kJ/mol
# Density = 2.608377 g / cm^3
# Si number density = 26.143271 Si / 1000 Ang^3
#
#
#
# Elastic Constant Matrix: (Units=GPa)
#
#
# Indices 1 2 3 4 5 6 
#
# 1 142.8088 17.3427 35.8583 -4.3675 -0.7321 18.3501
# 2 17.3427 85.6606 25.2501 13.6628 -4.3676 8.2438
# 3 35.8583 25.2501 93.2309 20.9163 2.0714 -6.5760
# 4 -4.3675 13.6628 20.9163 33.3234 -7.4353 3.1907
# 5 -0.7321 -4.3676 2.0714 -7.4353 47.0197 5.4773
# 6 18.3501 8.2438 -6.5760 3.1907 5.4773 43.6662
#
#
#
# Elastic Compliance Matrix: (Units=1/GPa)
#
#
# Indices 1 2 3 4 5 6 
#
# 1 0.009163 -0.000686 -0.004966 0.005478 0.001757 -0.005090
# 2 -0.000686 0.013492 -0.002851 -0.003329 0.001143 -0.002588
# 3 -0.004966 -0.002851 0.016454 -0.011219 -0.003583 0.006372
# 4 0.005478 -0.003329 -0.011219 0.041557 0.007700 -0.007366
# 5 0.001757 0.001143 -0.003583 0.007700 0.023358 -0.004986
# 6 -0.005090 -0.002588 0.006372 -0.007366 -0.004986 0.027652
#
#
# Mechanical properties :
#
#
# Convention : Reuss Voigt Hill
#
# Bulk Modulus (GPa) = 45.24177 53.17804 49.20991
# Shear Modulus (GPa) = 32.04122 41.01849 36.52985
#
# Velocity S-wave (km/s) = 3.50466 3.96534 3.74210
# Velocity P-wave (km/s) = 5.80687 6.43043 6.12659
#
# Compressibility (1/GPa) = 0.02210347
#
# Stress axis : x y z
#
# Youngs Moduli (GPa) = 109.13440 74.11977 60.77427
#
# Poissons Ratio (x) = 0.05083 0.30178
# Poissons Ratio (y) = 0.07484 0.17329
# Poissons Ratio (z) = 0.54192 0.21134
#
# Static dielectric constant tensor:
#      x y z
#    x 2.064380 0.038950 -0.030900 
#    y 0.038950 2.203490 0.002170 
#    z -0.030900 0.002170 2.235960 
# 
# From -- ./inp_files/463500.got.cif
#   From: 2010.05.17/outbox.cif.g08.bks.cpg/sg2_232_cif.got.tgz:463500.got - 2010.06.03 11:33:40.
