data_PCOD9105037
_publ_section_title
;
Structure prediction by ZEFSAII (Michael W. Deem and Ramdas Pophale) SiO2 
 PCOD9105037
Probable space group: P -1
;
_chemical_formula_sum "Si O2"
_cell_formula_units_Z 16
_cell_length_a 8.916268
_cell_length_b 14.925782
_cell_length_c 13.441910
_cell_angle_alpha 29.339867
_cell_angle_beta 77.123371
_cell_angle_gamma 59.107302
_cell_volume 635.743428
_symmetry_space_group_name_H-M "P -1"
_symmetry_group_IT_number 2
_symmetry_cell_setting 'triclinic'
loop_
_space_group_symop_operation_xyz
x,y,z
-x,-y,-z
loop_
_atom_site_type_symbol
_atom_site_label
_atom_site_fract_x
_atom_site_fract_y
_atom_site_fract_z
Si Si1 0.926310 0.591539 0.083819
Si Si2 0.520473 0.550972 0.722091
Si Si3 0.484445 0.018508 0.728929
Si Si4 0.966919 0.175995 0.918426
Si Si5 0.045653 0.411858 0.453031
Si Si6 0.076736 0.146536 0.351201
Si Si7 0.123371 0.799100 0.410776
Si Si8 0.336737 0.844906 0.768655
O O1 0.946467 0.748428 0.856171
O O2 0.695112 0.785437 0.972632
O O3 0.069289 0.466752 0.279853
O O4 0.964612 0.386486 0.205505
O O5 0.496474 0.786760 0.492674
O O6 0.318189 0.636578 0.611921
O O7 0.731016 0.344523 0.829022
O O8 0.555451 0.424878 0.945645
O O9 0.457837 0.908223 0.745384
O O10 0.276798 0.161000 0.685469
O O11 0.120342 0.987843 0.165375
O O12 0.000000 0.000000 0.000000
O O13 0.003657 0.358394 0.707385
O O14 0.893547 0.361930 0.505710
O O15 0.299770 0.939163 0.570692
O O16 0.000000 0.000000 0.500000
O O17 0.900062 0.976220 0.327385
#
# Coordination Sequence:
#
# PCOD9105037 Si02
#       8
#     2   2   2   2   2   2   2   2
#     4  11  23  41  61  86 123 164 212 251 309 361
#     4  10  22  37  67  92 119 164 208 247 302 373
#     4  10  21  37  63  86 115 162 209 249 303 360
#     4  10  23  40  63  96 128 158 198 251 307 371
#     4  10  21  41  65  86 125 164 201 252 305 362
#     4  11  26  39  60  88 127 164 205 263 309 352
#     4  10  20  39  63  89 120 161 204 248 305 366
#     4  10  22  40  57  88 123 157 209 253 305 361
#
# _framework density 25.167386
#
# number of rings (size 3 to 8) (size 9 to 14) (size 15 to 20)
#    0.000    1.750    2.500    1.500    7.000    1.500 
#    0.000    1.875    0.000    0.000    0.000    0.000 
#    0.000    0.000    0.000    0.000    0.000    0.000 
#
# Total GULP energy -89454.411452 kJ/mol
# GULP energy per Si atom -5590.900716 kJ/mol
# Density = 2.511010 g / cm^3
# Si number density = 25.167386 Si / 1000 Ang^3
#
#
#
# Elastic Constant Matrix: (Units=GPa)
#
#
# Indices 1 2 3 4 5 6 
#
# 1 116.3748 8.4840 44.7365 -12.2096 -9.5125 15.1173
# 2 8.4840 50.3206 4.2102 -30.5592 9.5651 0.3449
# 3 44.7365 4.2102 155.7159 -12.8477 -8.2881 -8.4442
# 4 -12.2096 -30.5592 -12.8477 33.9136 5.4517 -8.2611
# 5 -9.5125 9.5651 -8.2881 5.4517 59.8990 -1.9370
# 6 15.1173 0.3449 -8.4442 -8.2611 -1.9370 28.6316
#
#
#
# Elastic Compliance Matrix: (Units=1/GPa)
#
#
# Indices 1 2 3 4 5 6 
#
# 1 0.011083 -0.003424 -0.003615 -0.002581 0.001799 -0.007500
# 2 -0.003424 0.060319 0.004743 0.061973 -0.014533 0.019378
# 3 -0.003615 0.004743 0.008293 0.007809 -0.000684 0.006504
# 4 -0.002581 0.061973 0.007809 0.097385 -0.017124 0.029859
# 5 0.001799 -0.014533 -0.000684 -0.017124 0.020619 -0.004522
# 6 -0.007500 0.019378 0.006504 0.029859 -0.004522 0.048880
#
#
# Mechanical properties :
#
#
# Convention : Reuss Voigt Hill
#
# Bulk Modulus (GPa) = 13.31517 48.58583 30.95050
# Shear Modulus (GPa) = 18.10251 42.15422 30.12837
#
# Velocity S-wave (km/s) = 2.68486 4.09706 3.46369
# Velocity P-wave (km/s) = 3.86179 6.45974 5.32173
#
# Compressibility (1/GPa) = 0.07510230
#
# Stress axis : x y z
#
# Youngs Moduli (GPa) = 90.22962 16.57865 120.58452
#
# Poissons Ratio (x) = 0.05677 0.43596
# Poissons Ratio (y) = 0.30895 -0.57198
# Poissons Ratio (z) = 0.32621 -0.07864
#
# Static dielectric constant tensor:
#      x y z
#    x 1.994600 -0.022240 -0.034740 
#    y -0.022240 2.134660 0.036550 
#    z -0.034740 0.036550 1.985700 
# 
# From -- ./inp_files/348458.got.cif
#   From: 2010.05.17/outbox.cif.g08.bks.cpg/sg2_175_cif.got.tgz:348458.got - 2010.06.03 11:33:40.
