data_PCOD9105242
_publ_section_title
;
Structure prediction by ZEFSAII (Michael W. Deem and Ramdas Pophale) SiO2 
 PCOD9105242
Probable space group: P -1
;
_chemical_formula_sum "Si O2"
_cell_formula_units_Z 16
_cell_length_a 9.097590
_cell_length_b 8.847012
_cell_length_c 11.888430
_cell_angle_alpha 55.446570
_cell_angle_beta 113.264596
_cell_angle_gamma 79.982511
_cell_volume 615.751942
_symmetry_space_group_name_H-M "P -1"
_symmetry_group_IT_number 2
_symmetry_cell_setting 'triclinic'
loop_
_space_group_symop_operation_xyz
x,y,z
-x,-y,-z
loop_
_atom_site_type_symbol
_atom_site_label
_atom_site_fract_x
_atom_site_fract_y
_atom_site_fract_z
Si Si1 0.077781 0.156101 0.501282
Si Si2 0.785575 0.964548 0.126010
Si Si3 0.236636 0.249211 0.129254
Si Si4 0.300446 0.594787 0.584851
Si Si5 0.925974 0.421349 0.770288
Si Si6 0.327216 0.577831 0.119346
Si Si7 0.536104 0.869507 0.235555
Si Si8 0.681772 0.014042 0.546439
O O1 0.914723 0.286822 0.491124
O O2 0.084268 0.367546 0.370288
O O3 0.000000 0.000000 0.500000
O O4 0.276496 0.987568 0.571294
O O5 0.973948 0.770017 0.210858
O O6 0.707590 0.902608 0.237539
O O7 0.792813 0.175865 0.062223
O O8 0.617624 0.046199 0.948343
O O9 0.299090 0.418030 0.101922
O O10 0.075342 0.338146 0.952021
O O11 0.407567 0.025318 0.227998
O O12 0.171573 0.193419 0.248975
O O13 0.454794 0.490739 0.777546
O O14 0.367585 0.387490 0.614179
O O15 0.330313 0.785660 0.478593
O O16 0.745917 0.438204 0.770655
O O17 0.500000 0.000000 0.500000
#
# Coordination Sequence:
#
# PCOD9105242 Si02
#       8
#     2   2   2   2   2   2   2   2
#     4  10  21  36  64  87 112 158 198 234 289 354
#     4   9  19  35  57  82 121 157 195 234 290 358
#     4  11  23  35  59  91 122 152 191 255 299 338
#     4  10  20  39  64  83 113 163 203 230 289 361
#     4  11  20  39  60  88 123 151 196 248 291 346
#     4  11  21  35  59  91 116 156 195 242 294 345
#     4   9  19  36  55  85 118 156 193 238 296 348
#     4  11  21  40  61  89 116 154 202 245 291 354
#
# _framework density 25.984493000000001
#
# number of rings (size 3 to 8) (size 9 to 14) (size 15 to 20)
#    0.000    1.750    3.750    0.750    1.750    1.000 
#    0.000    0.000    0.000    0.750    0.000    0.000 
#    0.000    0.000    0.000    0.000    0.000    0.000 
#
# Total GULP energy -89207.103494 kJ/mol
# GULP energy per Si atom -5575.443968 kJ/mol
# Density = 2.592535 g / cm^3
# Si number density = 25.984493 Si / 1000 Ang^3
#
#
#
# Elastic Constant Matrix: (Units=GPa)
#
#
# Indices 1 2 3 4 5 6 
#
# 1 147.5687 47.8474 14.9365 -15.9311 4.5101 -11.6341
# 2 47.8474 160.2570 50.6668 -44.1014 -11.2333 -24.1393
# 3 14.9365 50.6668 64.0218 -32.0021 -12.1898 -0.5649
# 4 -15.9311 -44.1014 -32.0021 59.3355 4.1621 -4.2681
# 5 4.5101 -11.2333 -12.1898 4.1621 35.7780 -12.8616
# 6 -11.6341 -24.1393 -0.5649 -4.2681 -12.8616 40.3797
#
#
#
# Elastic Compliance Matrix: (Units=1/GPa)
#
#
# Indices 1 2 3 4 5 6 
#
# 1 0.007622 -0.002124 -0.000114 0.000551 -0.001555 0.000488
# 2 -0.002124 0.011529 -0.004868 0.005649 0.004540 0.008255
# 3 -0.000114 -0.004868 0.025545 0.009723 0.006209 0.000420
# 4 0.000551 0.005649 0.009723 0.026684 0.004796 0.008020
# 5 -0.001555 0.004540 0.006209 0.004796 0.036315 0.014426
# 6 0.000488 0.008255 0.000420 0.008020 0.014426 0.035289
#
#
# Mechanical properties :
#
#
# Convention : Reuss Voigt Hill
#
# Bulk Modulus (GPa) = 32.80299 66.52765 49.66532
# Shear Modulus (GPa) = 29.87601 44.32511 37.10056
#
# Velocity S-wave (km/s) = 3.39449 4.13465 3.78272
# Velocity P-wave (km/s) = 5.29291 6.96076 6.18333
#
# Compressibility (1/GPa) = 0.03048502
#
# Stress axis : x y z
#
# Youngs Moduli (GPa) = 131.19843 86.73561 39.14642
#
# Poissons Ratio (x) = 0.18419 0.00447
# Poissons Ratio (y) = 0.27861 0.19056
# Poissons Ratio (z) = 0.01498 0.42223
#
# Static dielectric constant tensor:
#      x y z
#    x 1.965270 -0.052960 -0.037420 
#    y -0.052960 2.126120 0.037610 
#    z -0.037420 0.037610 2.088740 
# 
# From -- ./inp_files/348164.got.cif
#   From: 2010.05.17/outbox.cif.g08.bks.cpg/sg2_175_cif.got.tgz:348164.got - 2010.06.03 11:33:40.
