data_PCOD9105204
_publ_section_title
;
Structure prediction by ZEFSAII (Michael W. Deem and Ramdas Pophale) SiO2 
 PCOD9105204
Probable space group: P -1
;
_chemical_formula_sum "Si O2"
_cell_formula_units_Z 16
_cell_length_a 17.604331
_cell_length_b 27.351096
_cell_length_c 15.285443
_cell_angle_alpha 18.717382
_cell_angle_beta 151.344392
_cell_angle_gamma 161.739685
_cell_volume 722.265070
_symmetry_space_group_name_H-M "P -1"
_symmetry_group_IT_number 2
_symmetry_cell_setting 'triclinic'
loop_
_space_group_symop_operation_xyz
x,y,z
-x,-y,-z
loop_
_atom_site_type_symbol
_atom_site_label
_atom_site_fract_x
_atom_site_fract_y
_atom_site_fract_z
Si Si1 0.493474 0.747910 0.064457
Si Si2 0.974125 0.697255 0.888949
Si Si3 0.344556 0.465673 0.653141
Si Si4 0.440228 0.209655 0.242140
Si Si5 0.585730 0.070511 0.179011
Si Si6 0.346191 0.012091 0.877205
Si Si7 0.871279 0.074097 0.749290
Si Si8 0.728301 0.688642 0.514362
O O1 0.717420 0.826648 0.208628
O O2 0.298048 0.476106 0.296207
O O3 0.385580 0.791717 0.945773
O O4 0.623623 0.903460 0.845809
O O5 0.925105 0.803696 0.593812
O O6 0.174931 0.751990 0.943033
O O7 0.711906 0.421297 0.111779
O O8 0.091330 0.833740 0.868512
O O9 0.505188 0.719456 0.426269
O O10 0.478207 0.516685 0.610761
O O11 0.076335 0.317946 0.597902
O O12 0.353290 0.322156 0.965868
O O13 0.456972 0.127175 0.487627
O O14 0.231230 0.973730 0.370197
O O15 0.355425 0.958072 0.077417
O O16 0.500000 0.000000 0.000000
O O17 0.000000 0.000000 0.000000
#
# Coordination Sequence:
#
# PCOD9105204 Si02
#       8
#     2   2   2   2   2   2   2   2
#     4  11  21  38  62 100 136 165 223 258 344 404
#     4  10  23  45  69  89 141 172 228 278 317 392
#     4  10  20  43  67  92 132 179 215 271 330 390
#     4  10  23  43  64 106 129 172 227 263 344 399
#     4  11  25  42  65  99 138 174 218 278 335 390
#     4  10  23  46  67  93 129 184 227 267 336 385
#     4  10  20  39  63  95 141 169 206 280 325 402
#     4  10  21  38  65  99 120 177 225 260 330 405
#
# _framework density 22.152532999999998
#
# number of rings (size 3 to 8) (size 9 to 14) (size 15 to 20)
#    0.000    1.750    5.000    0.000    3.500    5.500 
#    4.500    3.750    0.000    0.000    0.000    0.000 
#    0.000    0.000    0.000    0.000    0.000    0.000 
#
# Total GULP energy -89230.383255 kJ/mol
# GULP energy per Si atom -5576.898953 kJ/mol
# Density = 2.210211 g / cm^3
# Si number density = 22.152533 Si / 1000 Ang^3
#
#
#
# Elastic Constant Matrix: (Units=GPa)
#
#
# Indices 1 2 3 4 5 6 
#
# 1 67.4325 24.8775 26.9925 -18.0982 6.7580 -6.6930
# 2 24.8775 131.6532 39.0584 4.4719 -0.6001 -18.9426
# 3 26.9925 39.0584 107.4924 12.9339 0.0245 -19.4627
# 4 -18.0982 4.4719 12.9339 30.5911 -11.0728 -12.2025
# 5 6.7580 -0.6001 0.0245 -11.0728 20.5839 -2.4984
# 6 -6.6930 -18.9426 -19.4627 -12.2025 -2.4984 30.5959
#
#
#
# Elastic Compliance Matrix: (Units=1/GPa)
#
#
# Indices 1 2 3 4 5 6 
#
# 1 0.025162 -0.002131 -0.006626 0.024162 0.005906 0.010089
# 2 -0.002131 0.009236 -0.002120 0.000689 0.001868 0.004330
# 3 -0.006626 -0.002120 0.013175 -0.009603 -0.002879 0.001554
# 4 0.024162 0.000689 -0.009603 0.078413 0.038408 0.034013
# 5 0.005906 0.001868 -0.002879 0.038408 0.069989 0.021650
# 6 0.010089 0.004330 0.001554 0.034013 0.021650 0.053893
#
#
# Mechanical properties :
#
#
# Convention : Reuss Voigt Hill
#
# Bulk Modulus (GPa) = 38.73237 54.27052 46.50145
# Shear Modulus (GPa) = 17.84261 30.73083 24.28672
#
# Velocity S-wave (km/s) = 2.84111 3.72860 3.31470
# Velocity P-wave (km/s) = 5.31836 6.56418 5.97383
#
# Compressibility (1/GPa) = 0.02581820
#
# Stress axis : x y z
#
# Youngs Moduli (GPa) = 39.74185 108.27753 75.90388
#
# Poissons Ratio (x) = 0.23076 0.50295
# Poissons Ratio (y) = 0.08470 0.16091
# Poissons Ratio (z) = 0.26333 0.22954
#
# Static dielectric constant tensor:
#      x y z
#    x 1.809470 0.016280 -0.004550 
#    y 0.016280 1.891940 0.023740 
#    z -0.004550 0.023740 1.875540 
# 
# From -- ./inp_files/539378.got.cif
#   From: 2010.05.17/outbox.cif.g08.bks.cpg/sg2_270_cif.got.tgz:539378.got - 2010.06.03 11:33:40.
