data_PCOD9105157
_publ_section_title
;
Structure prediction by ZEFSAII (Michael W. Deem and Ramdas Pophale) SiO2 
 PCOD9105157
Probable space group: P -1
;
_chemical_formula_sum "Si O2"
_cell_formula_units_Z 16
_cell_length_a 8.611048
_cell_length_b 8.649209
_cell_length_c 11.625769
_cell_angle_alpha 89.928422
_cell_angle_beta 54.874115
_cell_angle_gamma 83.326358
_cell_volume 701.091627
_symmetry_space_group_name_H-M "P -1"
_symmetry_group_IT_number 2
_symmetry_cell_setting 'triclinic'
loop_
_space_group_symop_operation_xyz
x,y,z
-x,-y,-z
loop_
_atom_site_type_symbol
_atom_site_label
_atom_site_fract_x
_atom_site_fract_y
_atom_site_fract_z
Si Si1 0.967519 0.723938 0.198902
Si Si2 0.325725 0.642609 0.513954
Si Si3 0.670700 0.856663 0.930684
Si Si4 0.616948 0.283665 0.086233
Si Si5 0.213512 0.035662 0.884975
Si Si6 0.316301 0.487797 0.749588
Si Si7 0.949063 0.871449 0.610299
Si Si8 0.139315 0.369563 0.508754
O O1 0.821051 0.876093 0.221482
O O2 0.884996 0.579869 0.170492
O O3 0.956897 0.693365 0.338519
O O4 0.185105 0.734017 0.070834
O O5 0.305599 0.626156 0.658877
O O6 0.526591 0.652363 0.367205
O O7 0.298593 0.467388 0.484720
O O8 0.151889 0.765644 0.546286
O O9 0.568801 0.719565 0.916056
O O10 0.841643 0.902827 0.777332
O O11 0.736262 0.846107 0.035403
O O12 0.500000 0.000000 0.000000
O O13 0.620095 0.438678 0.160350
O O14 0.647028 0.126854 0.154616
O O15 0.000000 0.000000 0.000000
O O16 0.810405 0.771013 0.599305
O O17 0.000000 0.000000 0.500000
O O18 0.000000 0.500000 0.500000
#
# Coordination Sequence:
#
# PCOD9105157 Si02
#       8
#     2   2   2   2   2   2   2   2
#     4  10  21  38  66  97 128 174 222 278 321 397
#     4   9  21  39  62  88 129 175 208 271 331 393
#     4  10  23  42  62  96 137 170 215 270 339 389
#     4  10  21  38  64  93 134 174 216 271 337 387
#     4   9  21  38  63  91 129 169 212 275 325 384
#     4  10  20  39  63  93 131 168 224 267 325 396
#     4  11  24  37  69  94 127 175 222 273 330 399
#     4   9  20  41  60  87 132 168 213 258 339 387
#
# _framework density 22.821552000000001
#
# number of rings (size 3 to 8) (size 9 to 14) (size 15 to 20)
#    0.000    2.250    0.000    1.125    8.750    2.000 
#    4.500    0.625    0.000    8.250    0.000    0.000 
#    0.000    0.000    0.000    0.000    0.000    0.000 
#
# Total GULP energy -89217.014741 kJ/mol
# GULP energy per Si atom -5576.063421 kJ/mol
# Density = 2.276961 g / cm^3
# Si number density = 22.821552 Si / 1000 Ang^3
#
#
#
# Elastic Constant Matrix: (Units=GPa)
#
#
# Indices 1 2 3 4 5 6 
#
# 1 103.6750 21.2152 20.6317 -6.4609 4.4321 0.7616
# 2 21.2152 50.0057 21.0159 -6.4533 -0.6597 -5.4670
# 3 20.6317 21.0159 79.7378 -13.3846 -6.3301 -19.1501
# 4 -6.4609 -6.4533 -13.3846 26.9960 1.5328 7.8729
# 5 4.4321 -0.6597 -6.3301 1.5328 35.6187 -0.7296
# 6 0.7616 -5.4670 -19.1501 7.8729 -0.7296 46.7557
#
#
#
# Elastic Compliance Matrix: (Units=1/GPa)
#
#
# Indices 1 2 3 4 5 6 
#
# 1 0.011041 -0.003808 -0.002222 0.001258 -0.001930 -0.001777
# 2 -0.003808 0.023995 -0.004838 0.002281 -0.000029 0.000502
# 3 -0.002222 -0.004838 0.016787 0.004832 0.003077 0.005580
# 4 0.001258 0.002281 0.004832 0.041757 -0.001151 -0.004824
# 5 -0.001930 -0.000029 0.003077 -0.001151 0.028951 0.001934
# 6 -0.001777 0.000502 0.005580 -0.004824 0.001934 0.024603
#
#
# Mechanical properties :
#
#
# Convention : Reuss Voigt Hill
#
# Bulk Modulus (GPa) = 33.23626 39.90490 36.57058
# Shear Modulus (GPa) = 27.94884 33.24446 30.59665
#
# Velocity S-wave (km/s) = 3.50332 3.82083 3.66552
# Velocity P-wave (km/s) = 5.56413 6.08182 5.82873
#
# Compressibility (1/GPa) = 0.03008762
#
# Stress axis : x y z
#
# Youngs Moduli (GPa) = 90.57274 41.67484 59.57098
#
# Poissons Ratio (x) = 0.15868 0.13236
# Poissons Ratio (y) = 0.34487 0.28820
# Poissons Ratio (z) = 0.20125 0.20162
#
# Static dielectric constant tensor:
#      x y z
#    x 2.025060 0.104580 0.145560 
#    y 0.104580 1.936450 0.034550 
#    z 0.145560 0.034550 2.025170 
# 
# From -- ./inp_files/345318.got.cif
#   From: 2010.05.17/outbox.cif.g08.bks.cpg/sg2_173_cif.got.tgz:345318.got - 2010.06.03 11:33:40.
