data_PCOD9105469
_publ_section_title
;
Structure prediction by ZEFSAII (Michael W. Deem and Ramdas Pophale) SiO2 
 PCOD9105469
Probable space group: P -1
;
_chemical_formula_sum "Si O2"
_cell_formula_units_Z 12
_cell_length_a 6.997347
_cell_length_b 8.365089
_cell_length_c 10.808379
_cell_angle_alpha 93.604094
_cell_angle_beta 135.757107
_cell_angle_gamma 92.494742
_cell_volume 436.951488
_symmetry_space_group_name_H-M "P -1"
_symmetry_group_IT_number 2
_symmetry_cell_setting 'triclinic'
loop_
_space_group_symop_operation_xyz
x,y,z
-x,-y,-z
loop_
_atom_site_type_symbol
_atom_site_label
_atom_site_fract_x
_atom_site_fract_y
_atom_site_fract_z
Si Si1 0.191230 0.832174 0.858862
Si Si2 0.673675 0.529455 0.452645
Si Si3 0.831452 0.528046 0.183413
Si Si4 0.818031 0.644195 0.942115
Si Si5 0.414187 0.062613 0.176525
Si Si6 0.207244 0.082662 0.494795
O O1 0.084893 0.646843 0.825441
O O2 0.380514 0.832275 0.822083
O O3 0.959011 0.936604 0.710489
O O4 0.355838 0.905214 0.056023
O O5 0.500000 0.500000 0.500000
O O6 0.479280 0.440963 0.251810
O O7 0.720855 0.721764 0.453893
O O8 0.957893 0.448132 0.602448
O O9 0.500000 0.500000 0.000000
O O10 0.895910 0.673028 0.124927
O O11 0.822554 0.825227 0.903864
O O12 0.000000 0.500000 0.000000
O O13 0.536364 0.009714 0.358675
O O14 0.000000 0.000000 0.500000
#
# Coordination Sequence:
#
# PCOD9105469 Si02
#       6
#     2   2   2   2   2   2
#     4   9  19  38  64  97 131 173 228 290 354 406
#     4  11  24  45  71  99 147 194 232 295 364 429
#     4  11  22  43  70 103 134 184 246 297 349 424
#     4  12  25  43  68 102 145 188 241 287 361 434
#     4  10  20  39  64  96 133 179 226 293 349 413
#     4   9  20  41  67 100 136 178 238 292 350 421
#
# _framework density 27.463004999999999
#
# number of rings (size 3 to 8) (size 9 to 14) (size 15 to 20)
#    0.000    1.667    3.333    1.000    0.000    2.000 
#    6.000    4.167    0.000    0.000    0.000    0.000 
#    0.000    0.000    0.000    0.000    0.000    0.000 
#
# Total GULP energy -66894.728861 kJ/mol
# GULP energy per Si atom -5574.560738 kJ/mol
# Density = 2.740050 g / cm^3
# Si number density = 27.463005 Si / 1000 Ang^3
#
#
#
# Elastic Constant Matrix: (Units=GPa)
#
#
# Indices 1 2 3 4 5 6 
#
# 1 95.4899 23.3035 31.8852 -19.4584 11.6803 6.3860
# 2 23.3035 122.3390 24.4422 -29.1907 9.8397 14.8846
# 3 31.8852 24.4422 187.1436 -59.6047 12.3550 -1.9351
# 4 -19.4584 -29.1907 -59.6047 74.0713 3.5301 3.9192
# 5 11.6803 9.8397 12.3550 3.5301 32.2426 -18.5152
# 6 6.3860 14.8846 -1.9351 3.9192 -18.5152 47.8657
#
#
#
# Elastic Compliance Matrix: (Units=1/GPa)
#
#
# Indices 1 2 3 4 5 6 
#
# 1 0.012638 -0.000345 -0.000635 0.003268 -0.007280 -0.004688
# 2 -0.000345 0.010920 0.000918 0.005708 -0.008170 -0.006940
# 3 -0.000635 0.000918 0.007845 0.006888 -0.005229 -0.002470
# 4 0.003268 0.005708 0.006888 0.023258 -0.013260 -0.008966
# 5 -0.007280 -0.008170 -0.005229 -0.013260 0.054147 0.025331
# 6 -0.004688 -0.006940 -0.002470 -0.008966 0.025331 0.034108
#
#
# Mechanical properties :
#
#
# Convention : Reuss Voigt Hill
#
# Bulk Modulus (GPa) = 31.96984 62.69269 47.33127
# Shear Modulus (GPa) = 32.58044 52.52536 42.55290
#
# Velocity S-wave (km/s) = 3.44806 4.37806 3.94059
# Velocity P-wave (km/s) = 5.24581 6.95946 6.16249
#
# Compressibility (1/GPa) = 0.03127948
#
# Stress axis : x y z
#
# Youngs Moduli (GPa) = 79.12333 91.57759 127.46568
#
# Poissons Ratio (x) = 0.03158 0.08098
# Poissons Ratio (y) = 0.02729 -0.11704
# Poissons Ratio (z) = 0.05027 -0.08409
#
# Static dielectric constant tensor:
#      x y z
#    x -1.548250 -1.346780 -1.787730 
#    y -1.346780 1.663880 -0.367320 
#    z -1.787730 -0.367320 1.726810 
# 
# From -- ./inp_files/382473.got.cif
#   From: 2010.05.17/outbox.cif.g08.bks.cpg/sg2_192_cif.got.tgz:382473.got - 2010.06.03 11:33:40.
