data_PCOD9105858
_publ_section_title
;
Structure prediction by ZEFSAII (Michael W. Deem and Ramdas Pophale) SiO2 
 PCOD9105858
Probable space group: P -1
;
_chemical_formula_sum "Si O2"
_cell_formula_units_Z 15
_cell_length_a 7.677211
_cell_length_b 14.013999
_cell_length_c 14.085250
_cell_angle_alpha 45.163893
_cell_angle_beta 85.361366
_cell_angle_gamma 49.803176
_cell_volume 593.459275
_symmetry_space_group_name_H-M "P -1"
_symmetry_group_IT_number 2
_symmetry_cell_setting 'triclinic'
loop_
_space_group_symop_operation_xyz
x,y,z
-x,-y,-z
loop_
_atom_site_type_symbol
_atom_site_label
_atom_site_fract_x
_atom_site_fract_y
_atom_site_fract_z
Si Si1 0.653845 0.974196 0.602690
Si Si2 0.529091 0.817714 0.244219
Si Si3 0.052776 0.098541 0.613556
Si Si4 0.121156 0.810604 0.055447
Si Si5 0.764385 0.539707 0.236110
Si Si6 0.000000 0.000000 0.500000
Si Si7 0.629401 0.598457 0.569215
Si Si8 0.400458 0.165589 0.111381
O O1 0.443192 0.233108 0.473757
O O2 0.712312 0.835502 0.786101
O O3 0.500000 0.000000 0.500000
O O4 0.954967 0.869882 0.630952
O O5 0.640175 0.712027 0.207939
O O6 0.712018 0.605916 0.459036
O O7 0.535854 0.964962 0.175986
O O8 0.153492 0.023663 0.125695
O O9 0.008695 0.281983 0.455250
O O10 0.699181 0.271354 0.522838
O O11 0.296098 0.941010 0.797868
O O12 0.174465 0.931693 0.638264
O O13 0.479437 0.625198 0.152546
O O14 0.137662 0.655824 0.215227
O O15 0.000000 0.000000 0.000000
O O16 0.839396 0.588382 0.110212
#
# Coordination Sequence:
#
# PCOD9105858 Si02
#       8
#     2   2   2   2   2   1   2   2
#     4  10  20  39  66  91 118 162 207 260 316 363
#     4  10  21  36  57  89 129 165 205 252 307 366
#     4  10  21  38  62  87 122 162 211 256 311 364
#     4   9  19  36  59  86 125 167 208 257 301 362
#     4  10  22  37  58  91 124 164 209 248 305 377
#     4  10  20  42  68  86 122 160 206 270 306 366
#     4   9  20  36  62  90 119 169 213 251 310 375
#     4  11  22  37  60  90 125 162 200 255 315 373
#
# _framework density 25.275532999999999
#
# number of rings (size 3 to 8) (size 9 to 14) (size 15 to 20)
#    0.000    2.133    1.333    1.200    0.000    9.600 
#    0.000    1.333    5.867    0.000    0.000    0.000 
#    0.000    0.000    0.000    0.000    0.000    0.000 
#
# Total GULP energy -83601.089852 kJ/mol
# GULP energy per Si atom -5573.405990 kJ/mol
# Density = 2.521800 g / cm^3
# Si number density = 25.275533 Si / 1000 Ang^3
#
#
#
# Elastic Constant Matrix: (Units=GPa)
#
#
# Indices 1 2 3 4 5 6 
#
# 1 107.9573 41.9935 14.1281 8.3745 -8.2496 20.9860
# 2 41.9935 91.1929 30.9326 17.7118 -0.3195 16.7759
# 3 14.1281 30.9326 163.7312 22.8900 -31.4543 -0.1655
# 4 8.3745 17.7118 22.8900 22.3394 -4.7505 0.5286
# 5 -8.2496 -0.3195 -31.4543 -4.7505 39.9674 9.8813
# 6 20.9860 16.7759 -0.1655 0.5286 9.8813 45.5200
#
#
#
# Elastic Compliance Matrix: (Units=1/GPa)
#
#
# Indices 1 2 3 4 5 6 
#
# 1 0.012390 -0.004974 0.000741 -0.000447 0.004232 -0.004790
# 2 -0.004974 0.016305 -0.001824 -0.009705 -0.002740 -0.003015
# 3 0.000741 -0.001824 0.008454 -0.006134 0.006293 -0.000934
# 4 -0.000447 -0.009705 -0.006134 0.059131 0.001343 0.002783
# 5 0.004232 -0.002740 0.006293 0.001343 0.032986 -0.008094
# 6 -0.004790 -0.003015 -0.000934 0.002783 -0.008094 0.027009
#
#
# Mechanical properties :
#
#
# Convention : Reuss Voigt Hill
#
# Bulk Modulus (GPa) = 39.94312 59.66553 49.80433
# Shear Modulus (GPa) = 28.29129 39.95384 34.12257
#
# Velocity S-wave (km/s) = 3.34925 3.98016 3.67825
# Velocity P-wave (km/s) = 5.54923 6.69175 6.14709
#
# Compressibility (1/GPa) = 0.02503560
#
# Stress axis : x y z
#
# Youngs Moduli (GPa) = 80.71078 61.33105 118.29130
#
# Poissons Ratio (x) = 0.30507 -0.08769
# Poissons Ratio (y) = 0.40146 0.21573
# Poissons Ratio (z) = -0.05983 0.11185
#
# Static dielectric constant tensor:
#      x y z
#    x 2.128830 -0.148740 -0.056220 
#    y -0.148740 2.055630 0.019420 
#    z -0.056220 0.019420 1.977970 
# 
# From -- ./inp_files/444823.got.cif
#   From: 2010.05.17/outbox.cif.g08.bks.cpg/sg2_223_cif.got.tgz:444823.got - 2010.06.03 11:33:40.
