data_PCOD9105407
_publ_section_title
;
Structure prediction by ZEFSAII (Michael W. Deem and Ramdas Pophale) SiO2 
 PCOD9105407
Probable space group: P -1
;
_chemical_formula_sum "Si O2"
_cell_formula_units_Z 14
_cell_length_a 22.491840
_cell_length_b 9.312379
_cell_length_c 5.188125
_cell_angle_alpha 101.004570
_cell_angle_beta 81.472447
_cell_angle_gamma 142.236357
_cell_volume 653.237167
_symmetry_space_group_name_H-M "P -1"
_symmetry_group_IT_number 2
_symmetry_cell_setting 'triclinic'
loop_
_space_group_symop_operation_xyz
x,y,z
-x,-y,-z
loop_
_atom_site_type_symbol
_atom_site_label
_atom_site_fract_x
_atom_site_fract_y
_atom_site_fract_z
Si Si1 0.805860 0.918447 0.850884
Si Si2 0.542931 0.699087 0.239824
Si Si3 0.345002 0.290769 0.499634
Si Si4 0.056844 0.980029 0.599630
Si Si5 0.742106 0.587343 0.146226
Si Si6 0.031488 0.654697 0.781857
Si Si7 0.558993 0.058307 0.227724
O O1 0.727509 0.871813 0.747714
O O2 0.892449 0.032059 0.645555
O O3 0.751413 0.661438 0.870837
O O4 0.856880 0.094996 0.121733
O O5 0.452733 0.546472 0.438643
O O6 0.634725 0.808247 0.367149
O O7 0.563091 0.891791 0.168296
O O8 0.500000 0.500000 0.000000
O O9 0.299352 0.342303 0.683579
O O10 0.999679 0.761097 0.757322
O O11 0.147688 0.226188 0.773744
O O12 0.000000 0.000000 0.500000
O O13 0.667393 0.325249 0.201865
O O14 0.000000 0.500000 0.500000
O O15 0.000000 0.500000 0.000000
O O16 0.500000 0.000000 0.500000
O O17 0.500000 0.000000 0.000000
#
# Coordination Sequence:
#
# PCOD9105407 Si02
#       7
#     2   2   2   2   2   2   2
#     4  10  21  41  72  96 138 180 234 279 359 412
#     4  11  23  39  65  98 138 182 230 284 344 408
#     4  10  20  39  64  93 132 179 229 277 345 414
#     4  10  23  44  72 100 137 185 234 292 357 423
#     4  10  22  41  66  96 134 185 231 284 351 417
#     4  11  22  43  69 100 131 175 230 284 354 418
#     4  12  25  43  69 100 141 182 233 287 345 414
#
# _framework density 21.431725
#
# number of rings (size 3 to 8) (size 9 to 14) (size 15 to 20)
#    0.000    1.429    2.857    2.571    4.000    2.286 
#    2.571    0.000    0.000    0.000    0.000    0.000 
#    0.000    0.000    0.000    0.000    0.000    0.000 
#
# Total GULP energy -78028.437092 kJ/mol
# GULP energy per Si atom -5573.459792 kJ/mol
# Density = 2.138295 g / cm^3
# Si number density = 21.431725 Si / 1000 Ang^3
#
#
#
# Elastic Constant Matrix: (Units=GPa)
#
#
# Indices 1 2 3 4 5 6 
#
# 1 153.2873 62.7231 48.1025 2.8825 60.0583 -13.6057
# 2 62.7231 144.5331 43.4222 -14.6662 21.4004 -38.2935
# 3 48.1025 43.4222 108.4944 -4.0238 34.0572 -9.7826
# 4 2.8825 -14.6662 -4.0238 41.7967 3.5185 10.2162
# 5 60.0583 21.4004 34.0572 3.5185 45.0924 -7.2865
# 6 -13.6057 -38.2935 -9.7826 10.2162 -7.2865 35.9031
#
#
#
# Elastic Compliance Matrix: (Units=1/GPa)
#
#
# Indices 1 2 3 4 5 6 
#
# 1 0.015795 -0.005054 0.000954 -0.000352 -0.019828 -0.003069
# 2 -0.005054 0.012418 -0.003247 0.001261 0.004985 0.011097
# 3 0.000954 -0.003247 0.013129 0.001386 -0.010072 -0.001962
# 4 -0.000352 0.001261 0.001386 0.026568 -0.004358 -0.006855
# 5 -0.019828 0.004985 -0.010072 -0.004358 0.055385 0.007540
# 6 -0.003069 0.011097 -0.001962 -0.006855 0.007540 0.041472
#
#
# Mechanical properties :
#
#
# Convention : Reuss Voigt Hill
#
# Bulk Modulus (GPa) = 37.52465 79.42338 58.47401
# Shear Modulus (GPa) = 26.54721 41.36291 33.95506
#
# Velocity S-wave (km/s) = 3.52332 4.39793 3.98469
# Velocity P-wave (km/s) = 5.83940 7.93273 6.96516
#
# Compressibility (1/GPa) = 0.02664915
#
# Stress axis : x y z
#
# Youngs Moduli (GPa) = 63.30971 80.53061 76.16471
#
# Poissons Ratio (x) = 0.40703 -0.07268
# Poissons Ratio (y) = 0.31999 0.24727
# Poissons Ratio (z) = -0.06041 0.26144
#
# Static dielectric constant tensor:
#      x y z
#    x 1.769950 0.018580 -0.014050 
#    y 0.018580 1.866730 -0.099240 
#    z -0.014050 -0.099240 2.025620 
# 
# From -- ./inp_files/116152.got.cif
#   From: 2010.05.17/outbox.cif.g08.bks.cpg/sg2_59_cif.got.tgz:116152.got - 2010.06.03 11:33:40.
