data_PCOD9105762
_publ_section_title
;
Structure prediction by ZEFSAII (Michael W. Deem and Ramdas Pophale) SiO2 
 PCOD9105762
Probable space group: P -1
;
_chemical_formula_sum "Si O2"
_cell_formula_units_Z 14
_cell_length_a 12.995625
_cell_length_b 7.216280
_cell_length_c 12.577806
_cell_angle_alpha 91.766711
_cell_angle_beta 44.883372
_cell_angle_gamma 122.852664
_cell_volume 561.282653
_symmetry_space_group_name_H-M "P -1"
_symmetry_group_IT_number 2
_symmetry_cell_setting 'triclinic'
loop_
_space_group_symop_operation_xyz
x,y,z
-x,-y,-z
loop_
_atom_site_type_symbol
_atom_site_label
_atom_site_fract_x
_atom_site_fract_y
_atom_site_fract_z
Si Si1 0.762870 0.582186 0.607397
Si Si2 0.543409 0.969258 0.244338
Si Si3 0.291229 0.310863 0.577289
Si Si4 0.771926 0.978477 0.697402
Si Si5 0.155854 0.798451 0.590835
Si Si6 0.884595 0.976917 0.981635
Si Si7 0.701228 0.435397 0.998808
O O1 0.601006 0.265391 0.746921
O O2 0.667035 0.587528 0.571791
O O3 0.780868 0.761495 0.683504
O O4 0.007669 0.750929 0.403367
O O5 0.347897 0.829977 0.466715
O O6 0.729809 0.997738 0.130620
O O7 0.652106 0.262078 0.134511
O O8 0.500000 0.500000 0.500000
O O9 0.210592 0.024283 0.627958
O O10 0.088452 0.236246 0.767781
O O11 0.810698 0.097399 0.552613
O O12 0.524699 0.784721 0.903794
O O13 0.903367 0.533917 0.792444
O O14 0.758546 0.697992 0.001533
O O15 0.000000 0.000000 0.000000
#
# Coordination Sequence:
#
# PCOD9105762 Si02
#       7
#     2   2   2   2   2   2   2
#     4  10  20  39  65  99 123 172 217 260 323 381
#     4  11  23  40  68  93 132 166 215 266 321 379
#     4  10  22  42  67  91 130 172 214 267 322 380
#     4   9  19  41  67  89 135 167 211 266 317 382
#     4   9  22  41  63  96 128 167 213 264 321 380
#     4  11  24  43  65  92 130 173 214 265 322 384
#     4  10  22  43  62  96 131 167 214 263 320 384
#
# _framework density 24.942871
#
# number of rings (size 3 to 8) (size 9 to 14) (size 15 to 20)
#    0.000    2.000    1.429    0.857    6.000    2.857 
#    2.571    6.429    0.000    0.000    0.000    0.000 
#    0.000    0.000    0.000    0.000    0.000    0.000 
#
# Total GULP energy -78175.373921 kJ/mol
# GULP energy per Si atom -5583.955280 kJ/mol
# Density = 2.488610 g / cm^3
# Si number density = 24.942871 Si / 1000 Ang^3
#
#
#
# Elastic Constant Matrix: (Units=GPa)
#
#
# Indices 1 2 3 4 5 6 
#
# 1 56.2299 17.9019 42.9154 -1.1138 -32.5646 6.5640
# 2 17.9019 20.7443 16.9143 -8.6142 -15.3549 -1.6690
# 3 42.9154 16.9143 210.2257 -2.7067 -47.5445 -3.5883
# 4 -1.1138 -8.6142 -2.7067 44.2554 -5.4066 -10.5946
# 5 -32.5646 -15.3549 -47.5445 -5.4066 54.2043 2.3256
# 6 6.5640 -1.6690 -3.5883 -10.5946 2.3256 36.5035
#
#
#
# Elastic Compliance Matrix: (Units=1/GPa)
#
#
# Indices 1 2 3 4 5 6 
#
# 1 0.034929 -0.021040 -0.002815 -0.004134 0.012552 -0.009519
# 2 -0.021040 0.085747 0.001090 0.021075 0.014149 0.013026
# 3 -0.002815 0.001090 0.006222 0.001338 0.004154 0.001291
# 4 -0.004134 0.021075 0.001338 0.029970 0.007217 0.010077
# 5 0.012552 0.014149 0.004154 0.007217 0.034416 -0.001300
# 6 -0.009519 0.013026 0.001291 0.010077 -0.001300 0.032836
#
#
# Mechanical properties :
#
#
# Convention : Reuss Voigt Hill
#
# Bulk Modulus (GPa) = 12.28978 49.18479 30.73729
# Shear Modulus (GPa) = 16.84781 40.95720 28.90251
#
# Velocity S-wave (km/s) = 2.60177 4.05661 3.40773
# Velocity P-wave (km/s) = 3.73678 6.45780 5.27573
#
# Compressibility (1/GPa) = 0.08136841
#
# Stress axis : x y z
#
# Youngs Moduli (GPa) = 28.62930 11.66223 160.71064
#
# Poissons Ratio (x) = 0.24537 0.45234
# Poissons Ratio (y) = 0.60236 -0.17512
# Poissons Ratio (z) = 0.08058 -0.01271
#
# Static dielectric constant tensor:
#      x y z
#    x 2.025790 -0.032070 0.006920 
#    y -0.032070 2.033670 0.029060 
#    z 0.006920 0.029060 2.076350 
# 
# From -- ./inp_files/529884.got.cif
#   From: 2010.05.17/outbox.cif.g08.bks.cpg/sg2_265_cif.got.tgz:529884.got - 2010.06.03 11:33:40.
