data_PCOD9105457
_publ_section_title
;
Structure prediction by ZEFSAII (Michael W. Deem and Ramdas Pophale) SiO2 
 PCOD9105457
Probable space group: P -1
;
_chemical_formula_sum "Si O2"
_cell_formula_units_Z 16
_cell_length_a 13.727369
_cell_length_b 9.533395
_cell_length_c 8.411808
_cell_angle_alpha 111.382949
_cell_angle_beta 135.000759
_cell_angle_gamma 62.087887
_cell_volume 686.852765
_symmetry_space_group_name_H-M "P -1"
_symmetry_group_IT_number 2
_symmetry_cell_setting 'triclinic'
loop_
_space_group_symop_operation_xyz
x,y,z
-x,-y,-z
loop_
_atom_site_type_symbol
_atom_site_label
_atom_site_fract_x
_atom_site_fract_y
_atom_site_fract_z
Si Si1 0.506187 0.815474 0.439016
Si Si2 0.906581 0.224548 0.453802
Si Si3 0.555737 0.661543 0.776428
Si Si4 0.948946 0.767827 0.065702
Si Si5 0.855886 0.404762 0.036977
Si Si6 0.188884 0.277469 0.799120
Si Si7 0.379931 0.506226 0.726964
Si Si8 0.810527 0.107758 0.013793
O O1 0.509249 0.759944 0.602528
O O2 0.617442 0.665370 0.410491
O O3 0.357267 0.823411 0.185415
O O4 0.500000 0.000000 0.500000
O O5 0.780208 0.392796 0.357102
O O6 0.931174 0.207423 0.663695
O O7 0.069408 0.203919 0.566246
O O8 0.844686 0.103800 0.239288
O O9 0.430140 0.608858 0.692230
O O10 0.688615 0.496252 0.830366
O O11 0.638465 0.754023 0.028577
O O12 0.831429 0.739303 0.038995
O O13 0.029800 0.627917 0.985852
O O14 0.874615 0.929734 0.953380
O O15 0.119906 0.464601 0.764653
O O16 0.872914 0.236335 0.062613
O O17 0.500000 0.500000 0.000000
#
# Coordination Sequence:
#
# PCOD9105457 Si02
#       8
#     2   2   2   2   2   2   2   2
#     4  12  25  40  67  96 136 171 218 271 333 386
#     4  10  23  40  70  88 127 171 222 256 326 387
#     4  10  22  43  70  93 133 177 216 267 331 392
#     4  10  21  38  64  88 129 165 211 267 323 374
#     4  10  20  39  64  96 119 165 219 264 316 389
#     4   8  21  38  66  88 122 160 218 253 321 375
#     4  12  23  46  71  97 131 177 224 266 323 405
#     4  12  23  40  60  97 129 167 213 273 324 384
#
# _framework density 23.294656
#
# number of rings (size 3 to 8) (size 9 to 14) (size 15 to 20)
#    1.500    0.000    2.500    3.000    1.750    1.500 
#    0.000    0.625    0.000    0.000    0.000    0.000 
#    0.000    0.000    0.000    0.000    0.000    0.000 
#
# Total GULP energy -89077.658953 kJ/mol
# GULP energy per Si atom -5567.353685 kJ/mol
# Density = 2.324164 g / cm^3
# Si number density = 23.294656 Si / 1000 Ang^3
#
#
#
# Elastic Constant Matrix: (Units=GPa)
#
#
# Indices 1 2 3 4 5 6 
#
# 1 43.5717 22.7131 4.0620 3.0730 4.7669 14.0069
# 2 22.7131 115.8429 -3.3599 -2.0960 -4.1664 14.7172
# 3 4.0620 -3.3599 58.9939 0.7779 14.0732 -4.9056
# 4 3.0730 -2.0960 0.7779 23.1300 1.5715 -1.8266
# 5 4.7669 -4.1664 14.0732 1.5715 23.8502 -2.2230
# 6 14.0069 14.7172 -4.9056 -1.8266 -2.2230 33.5253
#
#
#
# Elastic Compliance Matrix: (Units=1/GPa)
#
#
# Indices 1 2 3 4 5 6 
#
# 1 0.030434 -0.004880 -0.001669 -0.004884 -0.006703 -0.011528
# 2 -0.004880 0.009966 0.000153 0.001222 0.002351 -0.002091
# 3 -0.001669 0.000153 0.019975 0.000549 -0.011198 0.002840
# 4 -0.004884 0.001222 0.000549 0.044398 -0.001697 0.003891
# 5 -0.006703 0.002351 -0.011198 -0.001697 0.050715 0.003401
# 6 -0.011528 -0.002091 0.002840 0.003891 0.003401 0.036416
#
#
# Mechanical properties :
#
#
# Convention : Reuss Voigt Hill
#
# Bulk Modulus (GPa) = 21.01622 29.47100 25.24361
# Shear Modulus (GPa) = 22.66999 29.10064 25.88532
#
# Velocity S-wave (km/s) = 3.12297 3.53829 3.33710
# Velocity P-wave (km/s) = 4.69526 5.41955 5.07036
#
# Compressibility (1/GPa) = 0.04758229
#
# Stress axis : x y z
#
# Youngs Moduli (GPa) = 32.85803 100.34078 50.06343
#
# Poissons Ratio (x) = 0.48971 0.08353
# Poissons Ratio (y) = 0.16036 -0.00765
# Poissons Ratio (z) = 0.05483 -0.01534
#
# Static dielectric constant tensor:
#      x y z
#    x 1.943930 0.043390 -0.028320 
#    y 0.043390 1.926940 0.030300 
#    z -0.028320 0.030300 1.944110 
# 
# From -- ./inp_files/299321.got.cif
#   From: 2010.05.17/outbox.cif.g08.bks.cpg/sg2_150_cif.got.tgz:299321.got - 2010.06.03 11:33:40.
