data_PCOD9105546
_publ_section_title
;
Structure prediction by ZEFSAII (Michael W. Deem and Ramdas Pophale) SiO2 
 PCOD9105546
Probable space group: P -1
;
_chemical_formula_sum "Si O2"
_cell_formula_units_Z 14
_cell_length_a 16.456249
_cell_length_b 5.485450
_cell_length_c 19.745848
_cell_angle_alpha 68.234240
_cell_angle_beta 159.608740
_cell_angle_gamma 109.626645
_cell_volume 576.406501
_symmetry_space_group_name_H-M "P -1"
_symmetry_group_IT_number 2
_symmetry_cell_setting 'triclinic'
loop_
_space_group_symop_operation_xyz
x,y,z
-x,-y,-z
loop_
_atom_site_type_symbol
_atom_site_label
_atom_site_fract_x
_atom_site_fract_y
_atom_site_fract_z
Si Si1 0.644138 0.765359 0.025620
Si Si2 0.867423 0.179574 0.248370
Si Si3 0.161585 0.738793 0.582713
Si Si4 0.115727 0.106868 0.938529
Si Si5 0.754333 0.572882 0.572573
Si Si6 0.436725 0.712537 0.657623
Si Si7 0.675400 0.893437 0.591284
O O1 0.698104 0.962033 0.108123
O O2 0.754813 0.895460 0.032155
O O3 0.753925 0.467153 0.147421
O O4 0.373881 0.749073 0.799433
O O5 0.018708 0.015531 0.438100
O O6 0.053553 0.240966 0.328720
O O7 0.281162 0.690604 0.606092
O O8 0.000000 0.500000 0.500000
O O9 0.929541 0.349065 0.763661
O O10 0.938315 0.868991 0.829287
O O11 0.314865 0.176522 0.140125
O O12 0.578243 0.547856 0.373207
O O13 0.609754 0.653224 0.517667
O O14 0.324291 0.898758 0.492703
O O15 0.500000 0.000000 0.500000
#
# Coordination Sequence:
#
# PCOD9105546 Si02
#       7
#     2   2   2   2   2   2   2
#     4  10  23  41  68  98 131 185 229 276 341 410
#     4  11  21  43  68  94 139 181 226 282 340 398
#     4  11  24  43  69 101 136 178 231 280 339 407
#     4   9  20  38  60  90 126 167 220 262 330 399
#     4  10  20  39  65  87 126 171 214 266 333 396
#     4  10  22  42  62  91 127 171 215 272 331 394
#     4  11  22  39  64  92 123 165 213 269 336 402
#
# _framework density 24.288412999999998
#
# number of rings (size 3 to 8) (size 9 to 14) (size 15 to 20)
#    0.000    1.714    2.857    1.714    0.000    9.714 
#    0.000    6.429    0.000    0.000    0.000    0.000 
#    0.000    0.000    0.000    0.000    0.000    0.000 
#
# Total GULP energy -78085.071527 kJ/mol
# GULP energy per Si atom -5577.505109 kJ/mol
# Density = 2.423313 g / cm^3
# Si number density = 24.288413 Si / 1000 Ang^3
#
#
#
# Elastic Constant Matrix: (Units=GPa)
#
#
# Indices 1 2 3 4 5 6 
#
# 1 117.3567 9.0818 31.8334 21.3255 0.6676 -22.2210
# 2 9.0818 50.3711 24.2972 13.7928 -9.1616 -4.2736
# 3 31.8334 24.2972 145.2247 36.7061 -13.4295 -18.5770
# 4 21.3255 13.7928 36.7061 35.9588 -5.1577 -8.7206
# 5 0.6676 -9.1616 -13.4295 -5.1577 26.7233 3.8122
# 6 -22.2210 -4.2736 -18.5770 -8.7206 3.8122 32.4989
#
#
#
# Elastic Compliance Matrix: (Units=1/GPa)
#
#
# Indices 1 2 3 4 5 6 
#
# 1 0.010672 -0.000335 -0.000610 -0.004471 -0.002405 0.005987
# 2 -0.000335 0.023548 -0.001793 -0.006269 0.006049 -0.000549
# 3 -0.000610 -0.001793 0.009923 -0.008108 0.002458 0.002556
# 4 -0.004471 -0.006269 -0.008108 0.041997 0.001628 0.002562
# 5 -0.002405 0.006049 0.002458 0.001628 0.041659 -0.003894
# 6 0.005987 -0.000549 0.002556 0.002562 -0.003894 0.037397
#
#
# Mechanical properties :
#
#
# Convention : Reuss Voigt Hill
#
# Bulk Modulus (GPa) = 25.86119 49.26413 37.56266
# Shear Modulus (GPa) = 27.23903 35.55222 31.39562
#
# Velocity S-wave (km/s) = 3.35249 3.83005 3.59920
# Velocity P-wave (km/s) = 5.06520 6.31554 5.72461
#
# Compressibility (1/GPa) = 0.03866798
#
# Stress axis : x y z
#
# Youngs Moduli (GPa) = 93.70238 42.46636 100.77731
#
# Poissons Ratio (x) = 0.01424 0.06144
# Poissons Ratio (y) = 0.03141 0.18065
# Poissons Ratio (z) = 0.05713 0.07612
#
# Static dielectric constant tensor:
#      x y z
#    x 2.062340 -0.363730 -0.030430 
#    y -0.363730 3.249360 0.210170 
#    z -0.030430 0.210170 1.924270 
# 
# From -- ./inp_files/112439.got.cif
#   From: 2010.05.17/outbox.cif.g08.bks.cpg/sg2_57_cif.got.tgz:112439.got - 2010.06.03 11:33:40.
