data_PCOD9105492
_publ_section_title
;
Structure prediction by ZEFSAII (Michael W. Deem and Ramdas Pophale) SiO2 
 PCOD9105492
Probable space group: P -1
;
_chemical_formula_sum "Si O2"
_cell_formula_units_Z 13
_cell_length_a 12.938187
_cell_length_b 8.675952
_cell_length_c 12.760158
_cell_angle_alpha 107.125893
_cell_angle_beta 137.688183
_cell_angle_gamma 107.663920
_cell_volume 540.155173
_symmetry_space_group_name_H-M "P -1"
_symmetry_group_IT_number 2
_symmetry_cell_setting 'triclinic'
loop_
_space_group_symop_operation_xyz
x,y,z
-x,-y,-z
loop_
_atom_site_type_symbol
_atom_site_label
_atom_site_fract_x
_atom_site_fract_y
_atom_site_fract_z
Si Si1 0.196364 0.221853 0.398729
Si Si2 0.971237 0.816560 0.516064
Si Si3 0.984329 0.278964 0.860468
Si Si4 0.160447 0.905921 0.052030
Si Si5 0.492552 0.690506 0.027893
Si Si6 0.481336 0.884887 0.264199
Si Si7 0.500000 0.500000 0.500000
O O1 0.461611 0.401085 0.575014
O O2 0.197237 0.293536 0.528655
O O3 0.015085 0.910365 0.205707
O O4 0.084848 0.253425 0.235470
O O5 0.274520 0.047600 0.819406
O O6 0.000000 0.000000 0.500000
O O7 0.809194 0.541801 0.278450
O O8 0.944524 0.257241 0.950720
O O9 0.725651 0.118924 0.571614
O O10 0.238657 0.586645 0.075051
O O11 0.310963 0.194481 0.255583
O O12 0.359609 0.953656 0.156064
O O13 0.554234 0.833851 0.210904
O O14 0.500000 0.500000 0.000000
#
# Coordination Sequence:
#
# PCOD9105492 Si02
#       7
#     2   2   2   2   2   2   1
#     4  11  25  43  73 100 143 186 236 287 352 431
#     4  10  21  40  66  99 127 176 234 289 329 402
#     4  11  24  42  70 102 139 187 236 286 352 416
#     4  11  27  43  67 103 145 187 233 286 360 421
#     4  10  20  39  64  98 131 171 233 280 345 394
#     4  12  25  44  71 104 144 184 233 301 342 411
#     4  10  24  44  70  96 144 184 230 264 368 422
#
# _framework density 24.067157999999999
#
# number of rings (size 3 to 8) (size 9 to 14) (size 15 to 20)
#    0.000    1.231    0.000    7.385   12.923    0.000 
#    0.000    1.538    0.000    0.000    0.000    0.000 
#    0.000    0.000    0.000    0.000    0.000    0.000 
#
# Total GULP energy -72433.625462 kJ/mol
# GULP energy per Si atom -5571.817343 kJ/mol
# Density = 2.401238 g / cm^3
# Si number density = 24.067158 Si / 1000 Ang^3
#
#
#
# Elastic Constant Matrix: (Units=GPa)
#
#
# Indices 1 2 3 4 5 6 
#
# 1 69.7594 6.7434 -2.7580 1.1134 -22.8661 0.0675
# 2 6.7434 17.9752 -1.7990 19.7529 -14.8713 3.0991
# 3 -2.7580 -1.7990 83.8167 28.3464 0.2299 0.5290
# 4 1.1134 19.7529 28.3464 24.7621 18.8065 24.0617
# 5 -22.8661 -14.8713 0.2299 18.8065 19.1055 -12.6274
# 6 0.0675 3.0991 0.5290 24.0617 -12.6274 29.6364
#
#
#
# Elastic Compliance Matrix: (Units=1/GPa)
#
#
# Indices 1 2 3 4 5 6 
#
# 1 0.016754 -0.008919 -0.001853 0.006541 0.005284 -0.002131
# 2 -0.008919 0.031516 -0.004711 0.015627 -0.016654 -0.022975
# 3 -0.001853 -0.004711 0.011760 0.000160 -0.008464 -0.003449
# 4 0.006541 0.015627 0.000160 0.000803 0.024607 0.008181
# 5 0.005284 -0.016654 -0.008464 0.024607 0.013392 -0.012392
# 6 -0.002131 -0.022975 -0.003449 0.008181 -0.012392 0.024290
#
#
# Mechanical properties :
#
#
# Convention : Reuss Voigt Hill
#
# Bulk Modulus (GPa) = 34.40915 19.54711 26.97813
# Shear Modulus (GPa) = 35.92761 25.99180 30.95971
#
# Velocity S-wave (km/s) = 3.86788 3.28985 3.59052
# Velocity P-wave (km/s) = 5.85453 4.75083 5.33132
#
# Compressibility (1/GPa) = 0.02906203
#
# Stress axis : x y z
#
# Youngs Moduli (GPa) = 59.68844 31.72961 85.03718
#
# Poissons Ratio (x) = 0.28300 0.15759
# Poissons Ratio (y) = 0.53236 0.40065
# Poissons Ratio (z) = 0.11062 0.14949
#
# Static dielectric constant tensor:
#      x y z
#    x 1.343670 -0.006710 -0.172190 
#    y -0.006710 1.938120 -0.095730 
#    z -0.172190 -0.095730 1.920220 
# 
# From -- ./inp_files/25191.got.cif
#   From: 2010.05.17/outbox.cif.g08.bks.cpg/sg2_13_cif.got.tgz:25191.got - 2010.06.03 11:33:40.
