data_PCOD9105548
_publ_section_title
;
Structure prediction by ZEFSAII (Michael W. Deem and Ramdas Pophale) SiO2 
 PCOD9105548
Probable space group: P -1
;
_chemical_formula_sum "Si O2"
_cell_formula_units_Z 16
_cell_length_a 11.994610
_cell_length_b 12.936043
_cell_length_c 7.951678
_cell_angle_alpha 136.379797
_cell_angle_beta 105.606781
_cell_angle_gamma 51.866241
_cell_volume 632.464784
_symmetry_space_group_name_H-M "P -1"
_symmetry_group_IT_number 2
_symmetry_cell_setting 'triclinic'
loop_
_space_group_symop_operation_xyz
x,y,z
-x,-y,-z
loop_
_atom_site_type_symbol
_atom_site_label
_atom_site_fract_x
_atom_site_fract_y
_atom_site_fract_z
Si Si1 0.633347 0.037162 0.544991
Si Si2 0.097194 0.014886 0.428051
Si Si3 0.885545 0.424068 0.617425
Si Si4 0.394911 0.677508 0.538617
Si Si5 0.832109 0.185004 0.118122
Si Si6 0.446399 0.152326 0.299357
Si Si7 0.178358 0.358326 0.631113
Si Si8 0.659697 0.571599 0.969529
O O1 0.528900 0.038560 0.372014
O O2 0.762035 0.018059 0.469355
O O3 0.737899 0.845368 0.474363
O O4 0.510055 0.238832 0.831629
O O5 0.983297 0.227535 0.544267
O O6 0.000000 0.000000 0.500000
O O7 0.184391 0.849245 0.121799
O O8 0.831099 0.361307 0.370568
O O9 0.739133 0.584671 0.855997
O O10 0.003861 0.459441 0.672174
O O11 0.500000 0.500000 0.500000
O O12 0.262216 0.825461 0.789924
O O13 0.492465 0.732269 0.573627
O O14 0.345255 0.598834 0.284203
O O15 0.000000 0.000000 0.000000
O O16 0.268566 0.286307 0.409374
O O17 0.500000 0.000000 0.000000
O O18 0.231495 0.463945 0.876410
#
# Coordination Sequence:
#
# PCOD9105548 Si02
#       8
#     2   2   2   2   2   2   2   2
#     4  10  23  40  66  93 129 170 216 264 315 383
#     4  10  21  36  60  90 125 164 214 259 312 379
#     4   9  20  37  63  90 124 168 203 258 326 373
#     4  11  25  40  65  97 126 167 211 273 324 364
#     4   9  20  38  63  87 126 169 208 254 320 380
#     4  11  26  39  67  96 128 170 219 259 318 390
#     4  10  22  42  65  94 128 175 210 260 320 384
#     4  10  20  39  65  87 128 160 215 252 326 366
#
# _framework density 25.297851000000001
#
# number of rings (size 3 to 8) (size 9 to 14) (size 15 to 20)
#    0.000    2.000    0.000    2.625   14.000    2.000 
#    4.500    0.000    0.000    1.500    0.000    0.000 
#    0.000    0.000    0.000    0.000    0.000    0.000 
#
# Total GULP energy -89441.505133 kJ/mol
# GULP energy per Si atom -5590.094071 kJ/mol
# Density = 2.524027 g / cm^3
# Si number density = 25.297851 Si / 1000 Ang^3
#
#
#
# Elastic Constant Matrix: (Units=GPa)
#
#
# Indices 1 2 3 4 5 6 
#
# 1 198.8128 9.2684 37.3655 6.5684 -19.1315 -6.2346
# 2 9.2684 51.9519 -3.6450 15.5981 -4.2080 -1.5403
# 3 37.3655 -3.6450 124.1223 -11.4696 -22.1126 1.1623
# 4 6.5684 15.5981 -11.4696 25.2879 -4.2224 2.3901
# 5 -19.1315 -4.2080 -22.1126 -4.2224 43.7675 1.9945
# 6 -6.2346 -1.5403 1.1623 2.3901 1.9945 38.2213
#
#
#
# Elastic Compliance Matrix: (Units=1/GPa)
#
#
# Indices 1 2 3 4 5 6 
#
# 1 0.005576 -0.000434 -0.001623 -0.001782 0.001359 0.000982
# 2 -0.000434 0.023860 -0.000511 -0.014955 0.000320 0.001825
# 3 -0.001623 -0.000511 0.009998 0.006214 0.004948 -0.001236
# 4 -0.001782 -0.014955 0.006214 0.053554 0.006306 -0.004760
# 5 0.001359 0.000320 0.004948 0.006306 0.026659 -0.001701
# 6 0.000982 0.001825 -0.001236 -0.004760 -0.001701 0.026821
#
#
# Mechanical properties :
#
#
# Convention : Reuss Voigt Hill
#
# Bulk Modulus (GPa) = 29.15635 51.20722 40.18179
# Shear Modulus (GPa) = 30.66817 43.58188 37.12503
#
# Velocity S-wave (km/s) = 3.48556 4.15511 3.83497
# Velocity P-wave (km/s) = 5.26774 6.58069 5.96048
#
# Compressibility (1/GPa) = 0.03429784
#
# Stress axis : x y z
#
# Youngs Moduli (GPa) = 179.35380 41.91029 100.02479
#
# Poissons Ratio (x) = 0.01820 0.16235
# Poissons Ratio (y) = 0.07788 0.05107
# Poissons Ratio (z) = 0.29110 0.02140
#
# Static dielectric constant tensor:
#      x y z
#    x 2.032630 0.029820 0.036140 
#    y 0.029820 2.042540 0.018590 
#    z 0.036140 0.018590 2.088110 
# 
# From -- ./inp_files/274674.got.cif
#   From: 2010.05.17/outbox.cif.g08.bks.cpg/sg2_138_cif.got.tgz:274674.got - 2010.06.03 11:33:40.
