data_PCOD9105992
_publ_section_title
;
Structure prediction by ZEFSAII (Michael W. Deem and Ramdas Pophale) SiO2 
 PCOD9105992
Probable space group: P -1
;
_chemical_formula_sum "Si O2"
_cell_formula_units_Z 13
_cell_length_a 9.413626
_cell_length_b 7.266981
_cell_length_c 7.817435
_cell_angle_alpha 94.629193
_cell_angle_beta 95.853461
_cell_angle_gamma 58.984570
_cell_volume 455.683405
_symmetry_space_group_name_H-M "P -1"
_symmetry_group_IT_number 2
_symmetry_cell_setting 'triclinic'
loop_
_space_group_symop_operation_xyz
x,y,z
-x,-y,-z
loop_
_atom_site_type_symbol
_atom_site_label
_atom_site_fract_x
_atom_site_fract_y
_atom_site_fract_z
Si Si1 0.949297 0.612345 0.728197
Si Si2 0.748636 0.778751 0.067591
Si Si3 0.000000 0.000000 0.500000
Si Si4 0.903254 0.042540 0.812757
Si Si5 0.485591 0.675152 0.141532
Si Si6 0.663993 0.671356 0.487608
Si Si7 0.346048 0.910517 0.651093
O O1 0.849757 0.561008 0.573175
O O2 0.115324 0.419660 0.813699
O O3 0.969550 0.817112 0.693331
O O4 0.825691 0.723554 0.884663
O O5 0.578923 0.780927 0.068109
O O6 0.709310 0.004218 0.158080
O O7 0.204719 0.883188 0.546393
O O8 0.963928 0.145768 0.687706
O O9 0.706439 0.171537 0.821296
O O10 0.000000 0.000000 0.000000
O O11 0.596186 0.587282 0.321508
O O12 0.500000 0.500000 0.000000
O O13 0.650188 0.890674 0.428060
O O14 0.534335 0.722907 0.629358
#
# Coordination Sequence:
#
# PCOD9105992 Si02
#       7
#     2   2   1   2   2   2   2
#     4  11  22  44  67 105 132 191 238 283 352 423
#     4  10  24  41  71  96 144 182 238 292 346 426
#     4  12  22  42  70 108 138 176 238 288 344 432
#     4  12  25  43  73 104 146 187 234 290 364 419
#     4  11  24  46  68 100 141 185 232 301 354 424
#     4  10  20  42  68  95 135 180 230 288 343 427
#     4  10  20  39  66  98 131 179 223 291 346 414
#
# _framework density 28.528580000000002
#
# number of rings (size 3 to 8) (size 9 to 14) (size 15 to 20)
#    0.000    1.231    3.077    3.692    0.000    7.385 
#    2.769    0.769    0.000    0.000    0.000    0.000 
#    0.000    0.000    0.000    0.000    0.000    0.000 
#
# Total GULP energy -72685.196057 kJ/mol
# GULP energy per Si atom -5591.168927 kJ/mol
# Density = 2.846365 g / cm^3
# Si number density = 28.528580 Si / 1000 Ang^3
#
#
#
# Elastic Constant Matrix: (Units=GPa)
#
#
# Indices 1 2 3 4 5 6 
#
# 1 204.4583 47.0820 60.9112 17.0271 23.3837 -51.5142
# 2 47.0820 105.2085 45.5091 -8.3935 18.2602 -18.4294
# 3 60.9112 45.5091 160.3310 16.2645 39.8529 -32.3542
# 4 17.0271 -8.3935 16.2645 44.4734 -10.4720 -5.1906
# 5 23.3837 18.2602 39.8529 -10.4720 77.3635 7.4844
# 6 -51.5142 -18.4294 -32.3542 -5.1906 7.4844 59.0058
#
#
#
# Elastic Compliance Matrix: (Units=1/GPa)
#
#
# Indices 1 2 3 4 5 6 
#
# 1 0.007442 -0.002053 -0.000052 -0.003174 -0.002738 0.005895
# 2 -0.002053 0.012193 -0.002854 0.004159 -0.000307 0.000856
# 3 -0.000052 -0.002854 0.009899 -0.004885 -0.005532 0.004763
# 4 -0.003174 0.004159 -0.004885 0.027496 0.006463 -0.002552
# 5 -0.002738 -0.000307 -0.005532 0.006463 0.018254 -0.007266
# 6 0.005895 0.000856 0.004763 -0.002552 -0.007266 0.025670
#
#
# Mechanical properties :
#
#
# Convention : Reuss Voigt Hill
#
# Bulk Modulus (GPa) = 50.98001 86.33363 68.65682
# Shear Modulus (GPa) = 42.58541 57.26824 49.92683
#
# Velocity S-wave (km/s) = 3.86778 4.48526 4.18791
# Velocity P-wave (km/s) = 6.15263 7.55985 6.89225
#
# Compressibility (1/GPa) = 0.01961553
#
# Stress axis : x y z
#
# Youngs Moduli (GPa) = 134.36843 82.01309 101.02350
#
# Poissons Ratio (x) = 0.16839 0.00529
# Poissons Ratio (y) = 0.27588 0.28829
# Poissons Ratio (z) = 0.00703 0.23404
#
# Static dielectric constant tensor:
#      x y z
#    x 1.963970 -0.156010 0.148310 
#    y -0.156010 2.086590 0.123190 
#    z 0.148310 0.123190 2.148130 
# 
# From -- ./inp_files/155648.got.cif
#   From: 2010.05.17/outbox.cif.g08.bks.cpg/sg2_78_cif.got.tgz:155648.got - 2010.06.03 11:33:40.
