data_PCOD9105827
_publ_section_title
;
Structure prediction by ZEFSAII (Michael W. Deem and Ramdas Pophale) SiO2 
 PCOD9105827
Probable space group: P -1
;
_chemical_formula_sum "Si O2"
_cell_formula_units_Z 14
_cell_length_a 9.308348
_cell_length_b 11.222102
_cell_length_c 8.481679
_cell_angle_alpha 105.453948
_cell_angle_beta 133.370675
_cell_angle_gamma 67.460876
_cell_volume 594.848467
_symmetry_space_group_name_H-M "P -1"
_symmetry_group_IT_number 2
_symmetry_cell_setting 'triclinic'
loop_
_space_group_symop_operation_xyz
x,y,z
-x,-y,-z
loop_
_atom_site_type_symbol
_atom_site_label
_atom_site_fract_x
_atom_site_fract_y
_atom_site_fract_z
Si Si1 0.353701 0.568933 0.062037
Si Si2 0.263147 0.369373 0.535578
Si Si3 0.828951 0.144852 0.931445
Si Si4 0.408526 0.106420 0.594359
Si Si5 0.899903 0.604290 0.228047
Si Si6 0.102023 0.825041 0.363477
Si Si7 0.295542 0.979312 0.758187
O O1 0.524239 0.596557 0.313527
O O2 0.187238 0.710615 0.954029
O O3 0.500000 0.500000 0.000000
O O4 0.245195 0.463060 0.002871
O O5 0.284579 0.227823 0.440939
O O6 0.221397 0.348289 0.683015
O O7 0.085251 0.483449 0.376550
O O8 0.614615 0.129274 0.832592
O O9 0.805735 0.180210 0.741454
O O10 0.000000 0.000000 0.000000
O O11 0.500000 0.000000 0.500000
O O12 0.279709 0.058860 0.610726
O O13 0.998161 0.710007 0.270795
O O14 0.264246 0.843744 0.625894
O O15 0.904786 0.951708 0.268372
O O16 0.500000 0.000000 0.000000
#
# Coordination Sequence:
#
# PCOD9105827 Si02
#       7
#     2   2   2   2   2   2   2
#     4   9  21  41  64  94 135 175 228 272 330 422
#     4   9  20  39  61  94 122 176 218 269 332 401
#     4  11  24  42  69 104 136 180 230 287 349 405
#     4  11  21  41  68  93 136 172 225 280 338 415
#     4  10  20  39  66  89 129 176 220 272 337 397
#     4  11  24  43  65 101 139 171 233 291 335 413
#     4  11  24  44  66  97 138 185 225 279 355 406
#
# _framework density 23.535405999999998
#
# number of rings (size 3 to 8) (size 9 to 14) (size 15 to 20)
#    0.000    1.714    2.857    0.857    2.000    1.714 
#   18.000    2.857    0.000    0.000    0.000    0.000 
#    0.000    0.000    0.000    0.000    0.000    0.000 
#
# Total GULP energy -77953.352562 kJ/mol
# GULP energy per Si atom -5568.096612 kJ/mol
# Density = 2.348184 g / cm^3
# Si number density = 23.535406 Si / 1000 Ang^3
#
#
#
# Elastic Constant Matrix: (Units=GPa)
#
#
# Indices 1 2 3 4 5 6 
#
# 1 104.0320 32.0628 31.5789 9.0347 18.6802 3.7712
# 2 32.0628 138.6327 27.5475 30.0961 8.4111 -10.5808
# 3 31.5789 27.5475 63.3530 16.7975 24.6818 4.8953
# 4 9.0347 30.0961 16.7975 27.9628 1.8120 12.8490
# 5 18.6802 8.4111 24.6818 1.8120 38.1744 7.8464
# 6 3.7712 -10.5808 4.8953 12.8490 7.8464 50.9437
#
#
#
# Elastic Compliance Matrix: (Units=1/GPa)
#
#
# Indices 1 2 3 4 5 6 
#
# 1 0.011954 -0.002203 -0.004497 0.001826 -0.002336 -0.001011
# 2 -0.002203 0.011502 0.000454 -0.014826 -0.002406 0.006618
# 3 -0.004497 0.000454 0.028399 -0.017119 -0.016381 0.004539
# 4 0.001826 -0.014826 -0.017119 0.070377 0.014532 -0.021558
# 5 -0.002336 -0.002406 -0.016381 0.014532 0.039518 -0.008505
# 6 -0.001011 0.006618 0.004539 -0.021558 -0.008505 0.027390
#
#
# Mechanical properties :
#
#
# Convention : Reuss Voigt Hill
#
# Bulk Modulus (GPa) = 25.40453 54.26624 39.83538
# Shear Modulus (GPa) = 23.28250 37.73808 30.51029
#
# Velocity S-wave (km/s) = 3.14865 4.00867 3.60440
# Velocity P-wave (km/s) = 4.90268 6.67332 5.85532
#
# Compressibility (1/GPa) = 0.03936306
#
# Stress axis : x y z
#
# Youngs Moduli (GPa) = 83.65535 86.93832 35.21243
#
# Poissons Ratio (x) = 0.19153 0.15834
# Poissons Ratio (y) = 0.18430 -0.01597
# Poissons Ratio (z) = 0.37617 -0.03943
#
# Static dielectric constant tensor:
#      x y z
#    x 1.838820 0.020510 0.016920 
#    y 0.020510 1.912500 0.117790 
#    z 0.016920 0.117790 1.996270 
# 
# From -- ./inp_files/182018.got.cif
#   From: 2010.05.17/outbox.cif.g08.bks.cpg/sg2_92_cif.got.tgz:182018.got - 2010.06.03 11:33:40.
