data_PCOD9105864
_publ_section_title
;
Structure prediction by ZEFSAII (Michael W. Deem and Ramdas Pophale) SiO2 
 PCOD9105864
Probable space group: P -1
;
_chemical_formula_sum "Si O2"
_cell_formula_units_Z 14
_cell_length_a 8.032131
_cell_length_b 14.223460
_cell_length_c 8.078911
_cell_angle_alpha 139.655369
_cell_angle_beta 70.196670
_cell_angle_gamma 108.147392
_cell_volume 560.028676
_symmetry_space_group_name_H-M "P -1"
_symmetry_group_IT_number 2
_symmetry_cell_setting 'triclinic'
loop_
_space_group_symop_operation_xyz
x,y,z
-x,-y,-z
loop_
_atom_site_type_symbol
_atom_site_label
_atom_site_fract_x
_atom_site_fract_y
_atom_site_fract_z
Si Si1 0.152609 0.209101 0.994394
Si Si2 0.172880 0.681493 0.866006
Si Si3 0.054968 0.879339 0.483508
Si Si4 0.547420 0.813224 0.889739
Si Si5 0.366430 0.362421 0.834970
Si Si6 0.642577 0.923372 0.646220
Si Si7 0.091711 0.400969 0.702401
O O1 0.287809 0.239024 0.138528
O O2 0.226478 0.320745 0.972770
O O3 0.950627 0.247720 0.131843
O O4 0.149584 0.034186 0.720975
O O5 0.378987 0.697144 0.767265
O O6 0.134430 0.781187 0.177953
O O7 0.118899 0.511651 0.690629
O O8 0.856126 0.920406 0.548783
O O9 0.016282 0.757533 0.477461
O O10 0.451156 0.936934 0.186693
O O11 0.616189 0.893153 0.808236
O O12 0.458813 0.213103 0.595026
O O13 0.273050 0.377551 0.708947
O O14 0.500000 0.500000 0.000000
O O15 0.000000 0.500000 0.000000
#
# Coordination Sequence:
#
# PCOD9105864 Si02
#       7
#     2   2   2   2   2   2   2
#     4  12  22  38  68  97 120 165 228 261 300 386
#     4  11  20  41  64  94 128 170 212 272 311 378
#     4  10  20  39  66  91 125 171 215 265 314 370
#     4  11  25  39  66  95 133 171 207 262 329 384
#     4  11  22  39  66  97 124 166 220 267 309 382
#     4  10  22  45  60  94 138 168 203 269 332 370
#     4   9  18  34  60  88 125 162 195 263 330 350
#
# _framework density 24.998721
#
# number of rings (size 3 to 8) (size 9 to 14) (size 15 to 20)
#    0.000    1.429    5.714    2.143    0.000    5.143 
#    0.000    6.429    0.000    4.286    0.000    0.000 
#    0.000    0.000    0.000    0.000    0.000    0.000 
#
# Total GULP energy -78122.547443 kJ/mol
# GULP energy per Si atom -5580.181960 kJ/mol
# Density = 2.494182 g / cm^3
# Si number density = 24.998721 Si / 1000 Ang^3
#
#
#
# Elastic Constant Matrix: (Units=GPa)
#
#
# Indices 1 2 3 4 5 6 
#
# 1 115.9853 51.6347 21.6300 -2.6768 4.6132 2.9122
# 2 51.6347 105.4039 20.0666 26.2492 6.1503 3.7651
# 3 21.6300 20.0666 57.3022 26.3094 -7.4826 10.1725
# 4 -2.6768 26.2492 26.3094 47.3176 2.3449 4.3498
# 5 4.6132 6.1503 -7.4826 2.3449 30.2831 6.0285
# 6 2.9122 3.7651 10.1725 4.3498 6.0285 39.9279
#
#
#
# Elastic Compliance Matrix: (Units=1/GPa)
#
#
# Indices 1 2 3 4 5 6 
#
# 1 0.013549 -0.007326 -0.007271 0.008937 -0.003279 0.001077
# 2 -0.007326 0.015217 0.001912 -0.009865 -0.000697 -0.000208
# 3 -0.007271 0.001912 0.030726 -0.018452 0.011164 -0.007154
# 4 0.008937 -0.009865 -0.018452 0.037547 -0.007218 0.001979
# 5 -0.003279 -0.000697 0.011164 -0.007218 0.038486 -0.007564
# 6 0.001077 -0.000208 -0.007154 0.001979 -0.007564 0.027735
#
#
# Mechanical properties :
#
#
# Convention : Reuss Voigt Hill
#
# Bulk Modulus (GPa) = 29.30727 51.70600 40.50663
# Shear Modulus (GPa) = 24.99941 35.86306 30.43124
#
# Velocity S-wave (km/s) = 3.16575 3.79171 3.49278
# Velocity P-wave (km/s) = 5.01115 6.31647 5.70129
#
# Compressibility (1/GPa) = 0.03412123
#
# Stress axis : x y z
#
# Youngs Moduli (GPa) = 73.80787 65.71678 32.54542
#
# Poissons Ratio (x) = 0.48141 0.23665
# Poissons Ratio (y) = 0.54068 -0.06222
# Poissons Ratio (z) = 0.53669 -0.12563
#
# Static dielectric constant tensor:
#      x y z
#    x 2.099780 0.004750 -0.159220 
#    y 0.004750 2.080450 0.007800 
#    z -0.159220 0.007800 2.211700 
# 
# From -- ./inp_files/183335.got.cif
#   From: 2010.05.17/outbox.cif.g08.bks.cpg/sg2_92_cif.got.tgz:183335.got - 2010.06.03 11:33:40.
