data_PCOD9105868
_publ_section_title
;
Structure prediction by ZEFSAII (Michael W. Deem and Ramdas Pophale) SiO2 
 PCOD9105868
Probable space group: P -1
;
_chemical_formula_sum "Si O2"
_cell_formula_units_Z 14
_cell_length_a 8.874909
_cell_length_b 7.851517
_cell_length_c 15.027539
_cell_angle_alpha 71.955162
_cell_angle_beta 112.971804
_cell_angle_gamma 55.438039
_cell_volume 566.561092
_symmetry_space_group_name_H-M "P -1"
_symmetry_group_IT_number 2
_symmetry_cell_setting 'triclinic'
loop_
_space_group_symop_operation_xyz
x,y,z
-x,-y,-z
loop_
_atom_site_type_symbol
_atom_site_label
_atom_site_fract_x
_atom_site_fract_y
_atom_site_fract_z
Si Si1 0.207135 0.891095 0.790948
Si Si2 0.799009 0.656734 0.510479
Si Si3 0.513874 0.741735 0.049427
Si Si4 0.261750 0.923951 0.323264
Si Si5 0.745208 0.155354 0.859247
Si Si6 0.020990 0.494186 0.228158
Si Si7 0.503905 0.736967 0.707808
O O1 0.340273 0.577998 0.875041
O O2 0.359993 0.855076 0.751017
O O3 0.279151 0.926603 0.894106
O O4 0.894802 0.116725 0.671843
O O5 0.571866 0.704094 0.431699
O O6 0.938297 0.486897 0.662817
O O7 0.000000 0.500000 0.500000
O O8 0.659610 0.974487 0.432186
O O9 0.417795 0.827209 0.114586
O O10 0.728957 0.709751 0.090526
O O11 0.173188 0.008434 0.186022
O O12 0.143877 0.189885 0.306425
O O13 0.551204 0.488515 0.733236
O O14 0.000000 0.000000 0.000000
O O15 0.196832 0.449922 0.204941
#
# Coordination Sequence:
#
# PCOD9105868 Si02
#       7
#     2   2   2   2   2   2   2
#     4   9  18  35  59  93 126 163 207 261 313 376
#     4  11  24  47  67  88 127 171 220 267 316 374
#     4   9  18  36  60  88 132 166 203 257 320 368
#     4  10  20  39  66  91 128 172 204 263 324 371
#     4  11  21  39  63  98 135 165 207 260 322 388
#     4  10  22  43  65  91 129 172 212 264 318 377
#     4  10  23  40  65  96 130 164 221 260 315 385
#
# _framework density 24.710486
#
# number of rings (size 3 to 8) (size 9 to 14) (size 15 to 20)
#    0.000    2.000    1.429    2.571    2.000    1.714 
#    2.571   22.143    0.000    0.000    0.000    0.000 
#    0.000    0.000    0.000    0.000    0.000    0.000 
#
# Total GULP energy -78200.727654 kJ/mol
# GULP energy per Si atom -5585.766261 kJ/mol
# Density = 2.465424 g / cm^3
# Si number density = 24.710486 Si / 1000 Ang^3
#
#
#
# Elastic Constant Matrix: (Units=GPa)
#
#
# Indices 1 2 3 4 5 6 
#
# 1 201.7174 35.3523 69.6900 2.4324 20.0457 -25.8689
# 2 35.3523 64.8337 46.8960 -0.6985 -5.7201 -9.7159
# 3 69.6900 46.8960 118.8608 0.6424 8.1545 3.0651
# 4 2.4324 -0.6985 0.6424 50.9194 5.1868 -7.5156
# 5 20.0457 -5.7201 8.1545 5.1868 34.7118 -12.0830
# 6 -25.8689 -9.7159 3.0651 -7.5156 -12.0830 44.5605
#
#
#
# Elastic Compliance Matrix: (Units=1/GPa)
#
#
# Indices 1 2 3 4 5 6 
#
# 1 0.007085 -0.000712 -0.003830 0.000463 -0.002078 0.003736
# 2 -0.000712 0.025748 -0.010666 0.000792 0.010108 0.008809
# 3 -0.003830 -0.010666 0.015441 -0.000657 -0.005595 -0.007239
# 4 0.000463 0.000792 -0.000657 0.020327 -0.001830 0.003419
# 5 -0.002078 0.010108 -0.005595 -0.001830 0.037142 0.011145
# 6 0.003736 0.008809 -0.007239 0.003419 0.011145 0.030628
#
#
# Mechanical properties :
#
#
# Convention : Reuss Voigt Hill
#
# Bulk Modulus (GPa) = 55.99511 76.58761 66.29136
# Shear Modulus (GPa) = 28.94548 41.60325 35.27436
#
# Velocity S-wave (km/s) = 3.42626 4.10765 3.78233
# Velocity P-wave (km/s) = 6.19371 7.31836 6.77939
#
# Compressibility (1/GPa) = 0.01785870
#
# Stress axis : x y z
#
# Youngs Moduli (GPa) = 141.13675 38.83841 64.76265
#
# Poissons Ratio (x) = 0.02764 0.24802
# Poissons Ratio (y) = 0.10046 0.69077
# Poissons Ratio (z) = 0.54051 0.41426
#
# Static dielectric constant tensor:
#      x y z
#    x 1.970870 0.018120 0.012380 
#    y 0.018120 2.032770 -0.100400 
#    z 0.012380 -0.100400 1.914420 
# 
# From -- ./inp_files/285706.got.cif
#   From: 2010.05.17/outbox.cif.g08.bks.cpg/sg2_143_cif.got.tgz:285706.got - 2010.06.03 11:33:40.
