data_PCOD9105073
_publ_section_title
;
Structure prediction by ZEFSAII (Michael W. Deem and Ramdas Pophale) SiO2 
 PCOD9105073
Probable space group: P -1
;
_chemical_formula_sum "Si O2"
_cell_formula_units_Z 16
_cell_length_a 8.965569
_cell_length_b 14.294315
_cell_length_c 15.003775
_cell_angle_alpha 137.362172
_cell_angle_beta 34.488733
_cell_angle_gamma 117.550371
_cell_volume 683.695078
_symmetry_space_group_name_H-M "P -1"
_symmetry_group_IT_number 2
_symmetry_cell_setting 'triclinic'
loop_
_space_group_symop_operation_xyz
x,y,z
-x,-y,-z
loop_
_atom_site_type_symbol
_atom_site_label
_atom_site_fract_x
_atom_site_fract_y
_atom_site_fract_z
Si Si1 0.774620 0.258734 0.459051
Si Si2 0.272765 0.844216 0.763570
Si Si3 0.597704 0.099091 0.591035
Si Si4 0.097117 0.332764 0.114353
Si Si5 0.689829 0.017105 0.996738
Si Si6 0.551421 0.577309 0.847370
Si Si7 0.900526 0.558486 0.990518
Si Si8 0.066925 0.824169 0.149929
O O1 0.599251 0.213218 0.436187
O O2 0.698163 0.209314 0.558112
O O3 0.720340 0.431319 0.602603
O O4 0.094697 0.149512 0.204818
O O5 0.145284 0.724299 0.774968
O O6 0.454198 0.887823 0.779129
O O7 0.000000 0.000000 0.000000
O O8 0.366089 0.193845 0.842771
O O9 0.500000 0.000000 0.500000
O O10 0.877199 0.968133 0.401237
O O11 0.972646 0.452224 0.179068
O O12 0.237409 0.390741 0.166098
O O13 0.861595 0.107502 0.928300
O O14 0.500000 0.000000 0.000000
O O15 0.335533 0.513696 0.958686
O O16 0.351445 0.717770 0.985918
O O17 0.894127 0.723677 0.132908
O O18 0.000000 0.500000 0.000000
#
# Coordination Sequence:
#
# PCOD9105073 Si02
#       8
#     2   2   2   2   2   2   2   2
#     4  10  22  41  63  91 129 171 209 259 323 389
#     4  10  22  40  65  96 125 168 215 260 319 383
#     4  11  19  38  68  91 121 170 219 258 322 374
#     4  12  22  39  69  95 128 170 215 263 325 387
#     4  10  21  41  66  87 127 167 218 268 314 367
#     4  11  24  38  65  96 132 165 212 262 328 382
#     4  10  20  39  63  90 125 167 205 261 321 380
#     4  10  21  39  62  94 127 166 208 272 321 374
#
# _framework density 23.402245000000001
#
# number of rings (size 3 to 8) (size 9 to 14) (size 15 to 20)
#    0.000    1.500    3.750    1.875    3.500    1.000 
#    0.000    3.125    2.750    0.000    0.000    0.000 
#    0.000    0.000    0.000    0.000    0.000    0.000 
#
# Total GULP energy -89110.654063 kJ/mol
# GULP energy per Si atom -5569.415879 kJ/mol
# Density = 2.334898 g / cm^3
# Si number density = 23.402245 Si / 1000 Ang^3
#
#
#
# Elastic Constant Matrix: (Units=GPa)
#
#
# Indices 1 2 3 4 5 6 
#
# 1 121.3114 11.2621 32.9432 17.5002 15.5526 4.2354
# 2 11.2621 81.6496 9.6230 5.4269 -4.6758 -11.6493
# 3 32.9432 9.6230 83.8301 22.3182 15.8193 -6.0263
# 4 17.5002 5.4269 22.3182 32.7499 -2.8214 -3.5726
# 5 15.5526 -4.6758 15.8193 -2.8214 25.1433 9.0579
# 6 4.2354 -11.6493 -6.0263 -3.5726 9.0579 38.8932
#
#
#
# Elastic Compliance Matrix: (Units=1/GPa)
#
#
# Indices 1 2 3 4 5 6 
#
# 1 0.010265 -0.001370 -0.001555 -0.004796 -0.005860 -0.000845
# 2 -0.001370 0.013219 -0.001326 0.000053 0.002989 0.003212
# 3 -0.001555 -0.001326 0.019194 -0.012743 -0.014582 0.004972
# 4 -0.004796 0.000053 -0.012743 0.043036 0.016283 -0.001275
# 5 -0.005860 0.002989 -0.014582 0.016283 0.059685 -0.013130
# 6 -0.000845 0.003212 0.004972 -0.001275 -0.013130 0.030477
#
#
# Mechanical properties :
#
#
# Convention : Reuss Voigt Hill
#
# Bulk Modulus (GPa) = 29.26109 43.82753 36.54431
# Shear Modulus (GPa) = 25.54025 34.88815 30.21420
#
# Velocity S-wave (km/s) = 3.30716 3.86528 3.59706
# Velocity P-wave (km/s) = 5.20708 6.22006 5.73598
#
# Compressibility (1/GPa) = 0.03417508
#
# Stress axis : x y z
#
# Youngs Moduli (GPa) = 97.41583 75.65096 52.09961
#
# Poissons Ratio (x) = 0.10365 0.08101
# Poissons Ratio (y) = 0.13346 0.06911
# Poissons Ratio (z) = 0.15147 0.10035
#
# Static dielectric constant tensor:
#      x y z
#    x 2.075590 -0.054910 -0.001560 
#    y -0.054910 1.967460 -0.055040 
#    z -0.001560 -0.055040 2.168720 
# 
# From -- ./inp_files/320947.got.cif
#   From: 2010.05.17/outbox.cif.g08.bks.cpg/sg2_161_cif.got.tgz:320947.got - 2010.06.03 11:33:40.
