data_PCOD9105336
_publ_section_title
;
Structure prediction by ZEFSAII (Michael W. Deem and Ramdas Pophale) SiO2 
 PCOD9105336
Probable space group: P -1
;
_chemical_formula_sum "Si O2"
_cell_formula_units_Z 16
_cell_length_a 8.428324
_cell_length_b 8.316976
_cell_length_c 13.847013
_cell_angle_alpha 111.509116
_cell_angle_beta 98.063621
_cell_angle_gamma 117.102490
_cell_volume 746.500981
_symmetry_space_group_name_H-M "P -1"
_symmetry_group_IT_number 2
_symmetry_cell_setting 'triclinic'
loop_
_space_group_symop_operation_xyz
x,y,z
-x,-y,-z
loop_
_atom_site_type_symbol
_atom_site_label
_atom_site_fract_x
_atom_site_fract_y
_atom_site_fract_z
Si Si1 0.540951 0.826694 0.444471
Si Si2 0.797967 0.943459 0.676639
Si Si3 0.333675 0.541297 0.992906
Si Si4 0.146644 0.161369 0.626472
Si Si5 0.995448 0.201378 0.020825
Si Si6 0.386151 0.611666 0.790829
Si Si7 0.619624 0.063381 0.845160
Si Si8 0.254953 0.390260 0.249555
O O1 0.658456 0.826674 0.547701
O O2 0.677510 0.868187 0.373101
O O3 0.350261 0.607087 0.358982
O O4 0.500000 0.000000 0.500000
O O5 0.796597 0.783647 0.714495
O O6 0.711700 0.055825 0.750832
O O7 0.015782 0.096581 0.695087
O O8 0.315644 0.582638 0.888109
O O9 0.500000 0.500000 0.000000
O O10 0.140049 0.350334 0.981659
O O11 0.406250 0.748935 0.106295
O O12 0.237340 0.405046 0.672332
O O13 0.000000 0.000000 0.500000
O O14 0.078938 0.336029 0.154608
O O15 0.782298 0.119298 0.951938
O O16 0.000000 0.000000 0.000000
O O17 0.582239 0.611938 0.801614
O O18 0.441782 0.830858 0.800963
#
# Coordination Sequence:
#
# PCOD9105336 Si02
#       8
#     2   2   2   2   2   2   2   2
#     4  10  22  39  65  94 125 163 216 263 316 385
#     4  10  20  40  67  88 124 166 215 261 323 374
#     4  12  24  40  64  92 132 176 212 262 324 383
#     4   9  20  39  65  91 122 161 209 262 324 373
#     4  12  22  41  61  94 132 164 220 262 321 384
#     4  10  20  39  64  90 127 163 216 262 320 377
#     4  11  24  40  64  99 127 170 219 264 323 392
#     4  10  21  39  64  89 127 170 208 259 324 378
#
# _framework density 21.433327999999999
#
# number of rings (size 3 to 8) (size 9 to 14) (size 15 to 20)
#    0.000    1.500    3.750    1.875    1.750    1.000 
#    2.250    0.625    5.500    0.000    0.000    0.000 
#    0.000    0.000    0.000    0.000    0.000    0.000 
#
# Total GULP energy -89364.219395 kJ/mol
# GULP energy per Si atom -5585.263712 kJ/mol
# Density = 2.138455 g / cm^3
# Si number density = 21.433328 Si / 1000 Ang^3
#
#
#
# Elastic Constant Matrix: (Units=GPa)
#
#
# Indices 1 2 3 4 5 6 
#
# 1 51.1453 49.4138 34.0707 15.4472 -14.5353 1.7021
# 2 49.4138 127.1529 46.4184 21.7786 -28.0223 21.0376
# 3 34.0707 46.4184 123.1717 20.8696 -10.0505 7.2054
# 4 15.4472 21.7786 20.8696 47.4451 -6.2573 -1.7060
# 5 -14.5353 -28.0223 -10.0505 -6.2573 42.1639 6.0379
# 6 1.7021 21.0376 7.2054 -1.7060 6.0379 21.5996
#
#
#
# Elastic Compliance Matrix: (Units=1/GPa)
#
#
# Indices 1 2 3 4 5 6 
#
# 1 0.037021 -0.014014 -0.005180 -0.002898 0.000033 0.012222
# 2 -0.014014 0.020317 -0.000992 -0.003657 0.011003 -0.021718
# 3 -0.005180 -0.000992 0.010496 -0.002557 0.000011 -0.002332
# 4 -0.002898 -0.003657 -0.002557 0.024898 -0.001344 0.006985
# 5 0.000033 0.011003 0.000011 -0.001344 0.033745 -0.020262
# 6 0.012222 -0.021718 -0.002332 0.006985 -0.020262 0.073480
#
#
# Mechanical properties :
#
#
# Convention : Reuss Voigt Hill
#
# Bulk Modulus (GPa) = 36.41609 62.36398 49.39003
# Shear Modulus (GPa) = 20.04121 33.67951 26.86036
#
# Velocity S-wave (km/s) = 3.06117 3.96834 3.54390
# Velocity P-wave (km/s) = 5.43339 7.08215 6.31184
#
# Compressibility (1/GPa) = 0.02746039
#
# Stress axis : x y z
#
# Youngs Moduli (GPa) = 27.01176 49.21878 95.27218
#
# Poissons Ratio (x) = 0.68977 0.49353
# Poissons Ratio (y) = 0.37855 0.09455
# Poissons Ratio (z) = 0.13993 0.04885
#
# Static dielectric constant tensor:
#      x y z
#    x 1.804430 0.007450 0.001120 
#    y 0.007450 1.789850 -0.019260 
#    z 0.001120 -0.019260 1.816380 
# 
# From -- ./inp_files/297593.got.cif
#   From: 2010.05.17/outbox.cif.g08.bks.cpg/sg2_149_cif.got.tgz:297593.got - 2010.06.03 11:33:40.
