data_PCOD9105574
_publ_section_title
;
Structure prediction by ZEFSAII (Michael W. Deem and Ramdas Pophale) SiO2 
 PCOD9105574
Probable space group: P -1
;
_chemical_formula_sum "Si O2"
_cell_formula_units_Z 16
_cell_length_a 8.460440
_cell_length_b 24.507355
_cell_length_c 10.353671
_cell_angle_alpha 41.619977
_cell_angle_beta 102.570118
_cell_angle_gamma 135.004299
_cell_volume 755.369639
_symmetry_space_group_name_H-M "P -1"
_symmetry_group_IT_number 2
_symmetry_cell_setting 'triclinic'
loop_
_space_group_symop_operation_xyz
x,y,z
-x,-y,-z
loop_
_atom_site_type_symbol
_atom_site_label
_atom_site_fract_x
_atom_site_fract_y
_atom_site_fract_z
Si Si1 0.652729 0.334522 0.225259
Si Si2 0.310541 0.363096 0.811655
Si Si3 0.278317 0.200138 0.625735
Si Si4 0.909259 0.204660 0.596920
Si Si5 0.693084 0.117149 0.005260
Si Si6 0.325932 0.172037 0.204799
Si Si7 0.561159 0.477952 0.920159
Si Si8 0.639072 0.861738 0.019358
O O1 0.524337 0.258997 0.476212
O O2 0.547198 0.245249 0.233905
O O3 0.484453 0.351001 0.153482
O O4 0.000000 0.500000 0.000000
O O5 0.500000 0.500000 0.500000
O O6 0.387158 0.432356 0.843229
O O7 0.964019 0.219943 0.967701
O O8 0.363275 0.286176 0.973083
O O9 0.396168 0.234845 0.730857
O O10 0.152313 0.239450 0.539553
O O11 0.977434 0.028865 0.822398
O O12 0.821223 0.156053 0.816178
O O13 0.086421 0.363868 0.327166
O O14 0.603555 0.064768 0.711134
O O15 0.571587 0.157353 0.928348
O O16 0.392367 0.158266 0.103672
O O17 0.000000 0.000000 0.500000
O O18 0.500000 0.500000 0.000000
#
# Coordination Sequence:
#
# PCOD9105574 Si02
#       8
#     2   2   2   2   2   2   2   2
#     4  11  25  40  62  94 131 166 212 266 326 386
#     4  11  24  42  66  93 131 172 216 263 329 385
#     4  10  20  40  64  93 124 170 215 262 322 386
#     4  10  20  39  65  89 127 163 219 259 322 375
#     4  10  22  39  65  99 122 163 224 275 304 379
#     4  11  24  45  66  92 133 177 211 263 333 391
#     4  11  23  40  64  89 128 173 207 260 333 389
#     4  10  22  38  68  94 124 164 223 270 312 378
#
# _framework density 21.181683
#
# number of rings (size 3 to 8) (size 9 to 14) (size 15 to 20)
#    0.000    1.500    3.750    0.750    1.750    3.000 
#    0.000    2.500    0.000    0.000    0.000    0.000 
#    0.000    0.000    0.000    0.000    0.000    0.000 
#
# Total GULP energy -89073.481594 kJ/mol
# GULP energy per Si atom -5567.092600 kJ/mol
# Density = 2.113347 g / cm^3
# Si number density = 21.181683 Si / 1000 Ang^3
#
#
#
# Elastic Constant Matrix: (Units=GPa)
#
#
# Indices 1 2 3 4 5 6 
#
# 1 40.9443 24.5262 20.4610 5.3167 -19.8621 -2.8317
# 2 24.5262 160.1224 39.9458 7.4961 -21.2715 -8.6494
# 3 20.4610 39.9458 52.9355 6.2222 -3.6825 1.5907
# 4 5.3167 7.4961 6.2222 34.2753 -5.4792 -9.1345
# 5 -19.8621 -21.2715 -3.6825 -5.4792 30.7793 -3.6663
# 6 -2.8317 -8.6494 1.5907 -9.1345 -3.6663 23.1544
#
#
#
# Elastic Compliance Matrix: (Units=1/GPa)
#
#
# Indices 1 2 3 4 5 6 
#
# 1 0.049982 0.002488 -0.019872 0.005025 0.034377 0.015833
# 2 0.002488 0.009104 -0.007693 0.001990 0.008081 0.006298
# 3 -0.019872 -0.007693 0.032447 -0.007370 -0.017137 -0.013154
# 4 0.005025 0.001990 -0.007370 0.036075 0.012308 0.018045
# 5 0.034377 0.008081 -0.017137 0.012308 0.063169 0.023258
# 6 0.015833 0.006298 -0.013154 0.018045 0.023258 0.059182
#
#
# Mechanical properties :
#
#
# Convention : Reuss Voigt Hill
#
# Bulk Modulus (GPa) = 24.16661 47.09649 35.63155
# Shear Modulus (GPa) = 15.92839 28.91308 22.42074
#
# Velocity S-wave (km/s) = 2.74522 3.69860 3.25698
# Velocity P-wave (km/s) = 4.63490 6.36572 5.56797
#
# Compressibility (1/GPa) = 0.04137941
#
# Stress axis : x y z
#
# Youngs Moduli (GPa) = 20.00717 109.84435 30.81994
#
# Poissons Ratio (x) = -0.27334 0.61246
# Poissons Ratio (y) = -0.04979 0.23709
# Poissons Ratio (z) = 0.39759 0.84499
#
# Static dielectric constant tensor:
#      x y z
#    x 1.863670 -0.000250 0.045570 
#    y -0.000250 1.850440 0.006480 
#    z 0.045570 0.006480 1.921650 
# 
# From -- ./inp_files/218349.got.cif
#   From: 2010.05.17/outbox.cif.g08.bks.cpg/sg2_110_cif.got.tgz:218349.got - 2010.06.03 11:33:40.
