data_PCOD9105987
_publ_section_title
;
Structure prediction by ZEFSAII (Michael W. Deem and Ramdas Pophale) SiO2 
 PCOD9105987
Probable space group: P -1
;
_chemical_formula_sum "Si O2"
_cell_formula_units_Z 14
_cell_length_a 22.754534
_cell_length_b 5.019097
_cell_length_c 5.694391
_cell_angle_alpha 87.229409
_cell_angle_beta 117.186325
_cell_angle_gamma 76.246285
_cell_volume 552.557334
_symmetry_space_group_name_H-M "P -1"
_symmetry_group_IT_number 2
_symmetry_cell_setting 'triclinic'
loop_
_space_group_symop_operation_xyz
x,y,z
-x,-y,-z
loop_
_atom_site_type_symbol
_atom_site_label
_atom_site_fract_x
_atom_site_fract_y
_atom_site_fract_z
Si Si1 0.986445 0.301880 0.188278
Si Si2 0.113871 0.872164 0.316980
Si Si3 0.605295 0.910759 0.003839
Si Si4 0.142131 0.430119 0.763317
Si Si5 0.535406 0.655103 0.250547
Si Si6 0.643088 0.366424 0.808036
Si Si7 0.211541 0.847340 0.117755
O O1 0.936277 0.479355 0.285617
O O2 0.937681 0.132372 0.992185
O O3 0.061288 0.087303 0.385872
O O4 0.000000 0.500000 0.000000
O O5 0.138490 0.572554 0.497340
O O6 0.178716 0.936065 0.310753
O O7 0.525503 0.076551 0.790777
O O8 0.642602 0.147690 0.023596
O O9 0.641424 0.658899 0.908784
O O10 0.594596 0.771489 0.235866
O O11 0.185605 0.588750 0.994377
O O12 0.179227 0.106510 0.875751
O O13 0.572919 0.440316 0.526266
O O14 0.500000 0.500000 0.000000
O O15 0.707022 0.241748 0.759908
#
# Coordination Sequence:
#
# PCOD9105987 Si02
#       7
#     2   2   2   2   2   2   2
#     4  10  20  39  66  98 128 164 225 277 333 384
#     4  10  23  41  64  95 132 170 218 282 325 385
#     4  11  25  44  69 102 131 171 220 274 337 398
#     4  11  24  43  67  93 131 178 220 274 330 386
#     4  11  25  44  73 106 132 168 226 280 335 394
#     4  12  26  43  69  95 140 180 216 278 334 395
#     4  11  26  44  61  95 132 177 227 259 323 406
#
# _framework density 25.336738
#
# number of rings (size 3 to 8) (size 9 to 14) (size 15 to 20)
#    0.000    1.143    2.857    2.143    6.000    2.857 
#    0.000    0.000    0.000    0.000    0.000    0.000 
#    0.000    0.000    0.000    0.000    0.000    0.000 
#
# Total GULP energy -78356.261128 kJ/mol
# GULP energy per Si atom -5596.875795 kJ/mol
# Density = 2.527907 g / cm^3
# Si number density = 25.336738 Si / 1000 Ang^3
#
#
#
# Elastic Constant Matrix: (Units=GPa)
#
#
# Indices 1 2 3 4 5 6 
#
# 1 139.6428 23.9719 12.0831 -31.2293 -10.0273 -23.2627
# 2 23.9719 108.8193 13.1935 -17.9762 0.0994 -11.0738
# 3 12.0831 13.1935 48.5822 -28.9001 -12.2442 -2.0235
# 4 -31.2293 -17.9762 -28.9001 37.6131 7.0047 -1.6874
# 5 -10.0273 0.0994 -12.2442 7.0047 30.2247 -7.2528
# 6 -23.2627 -11.0738 -2.0235 -1.6874 -7.2528 43.7935
#
#
#
# Elastic Compliance Matrix: (Units=1/GPa)
#
#
# Indices 1 2 3 4 5 6 
#
# 1 0.011513 -0.000246 0.007585 0.014618 0.005391 0.007860
# 2 -0.000246 0.010329 0.000310 0.005193 -0.000569 0.002601
# 3 0.007585 0.000310 0.046407 0.039855 0.014524 0.010193
# 4 0.014618 0.005193 0.039855 0.070988 0.008126 0.015000
# 5 0.005391 -0.000569 0.014524 0.008126 0.041411 0.010562
# 6 0.007860 0.002601 0.010193 0.015000 0.010562 0.030465
#
#
# Mechanical properties :
#
#
# Convention : Reuss Voigt Hill
#
# Bulk Modulus (GPa) = 11.96922 43.94903 27.95912
# Shear Modulus (GPa) = 22.35505 38.84599 30.60052
#
# Velocity S-wave (km/s) = 2.97361 3.91984 3.47904
# Velocity P-wave (km/s) = 4.06498 6.15390 5.21510
#
# Compressibility (1/GPa) = 0.08354765
#
# Stress axis : x y z
#
# Youngs Moduli (GPa) = 86.86174 96.81203 21.54864
#
# Poissons Ratio (x) = 0.02383 -0.16345
# Poissons Ratio (y) = 0.02138 -0.00669
# Poissons Ratio (z) = -0.65887 -0.03005
#
# Static dielectric constant tensor:
#      x y z
#    x 2.013800 -0.003310 -0.025490 
#    y -0.003310 2.041290 0.081420 
#    z -0.025490 0.081420 1.985260 
# 
# From -- ./inp_files/13998.got.cif
#   From: 2010.05.17/outbox.cif.g08.bks.cpg/sg2_7_cif.got.tgz:13998.got - 2010.06.03 11:33:40.
