data_PCOD9105427
_publ_section_title
;
Structure prediction by ZEFSAII (Michael W. Deem and Ramdas Pophale) SiO2 
 PCOD9105427
Probable space group: P -1
;
_chemical_formula_sum "Si O2"
_cell_formula_units_Z 14
_cell_length_a 7.984264
_cell_length_b 10.441994
_cell_length_c 13.765531
_cell_angle_alpha 46.764859
_cell_angle_beta 47.613384
_cell_angle_gamma 42.402036
_cell_volume 529.701319
_symmetry_space_group_name_H-M "P -1"
_symmetry_group_IT_number 2
_symmetry_cell_setting 'triclinic'
loop_
_space_group_symop_operation_xyz
x,y,z
-x,-y,-z
loop_
_atom_site_type_symbol
_atom_site_label
_atom_site_fract_x
_atom_site_fract_y
_atom_site_fract_z
Si Si1 0.383337 0.779951 0.828072
Si Si2 0.785967 0.822525 0.391390
Si Si3 0.496370 0.390795 0.451816
Si Si4 0.086930 0.167528 0.147285
Si Si5 0.738416 0.334270 0.869703
Si Si6 0.128002 0.811217 0.438387
Si Si7 0.711604 0.602133 0.130175
O O1 0.644840 0.559745 0.830960
O O2 0.177501 0.799969 0.815608
O O3 0.419605 0.967624 0.691897
O O4 0.234159 0.797461 0.977647
O O5 0.651872 0.686310 0.520281
O O6 0.032554 0.735777 0.263416
O O7 0.885091 0.850956 0.442248
O O8 0.263240 0.558109 0.524137
O O9 0.755845 0.192300 0.496494
O O10 0.558876 0.552440 0.295589
O O11 0.984624 0.380330 0.135432
O O12 0.202612 0.965261 0.271442
O O13 0.245078 0.207073 0.980183
O O14 0.484163 0.350887 0.907893
#
# Coordination Sequence:
#
# PCOD9105427 Si02
#       7
#     2   2   2   2   2   2   2
#     4   9  21  39  63 101 122 168 224 257 328 389
#     4  11  22  43  66  92 134 174 208 272 325 381
#     4  11  24  41  63  96 130 168 217 261 325 395
#     4   9  21  42  63  89 128 163 215 273 316 380
#     4  10  20  39  64  94 133 163 215 271 318 382
#     4  10  23  42  62  93 129 166 218 262 319 390
#     4  10  21  40  64  91 125 170 210 266 331 375
#
# _framework density 26.429988999999999
#
# number of rings (size 3 to 8) (size 9 to 14) (size 15 to 20)
#    0.000    2.000    1.429    0.857    2.000    3.429 
#    2.571    2.143    0.000    0.000    0.000    0.000 
#    0.000    0.000    0.000    0.000    0.000    0.000 
#
# Total GULP energy -77935.915227 kJ/mol
# GULP energy per Si atom -5566.851088 kJ/mol
# Density = 2.636983 g / cm^3
# Si number density = 26.429989 Si / 1000 Ang^3
#
#
#
# Elastic Constant Matrix: (Units=GPa)
#
#
# Indices 1 2 3 4 5 6 
#
# 1 38.1680 6.8419 52.0476 9.6180 3.5216 -15.7861
# 2 6.8419 80.8904 49.7567 -3.0222 -8.5035 -18.1942
# 3 52.0476 49.7567 110.7131 -30.1798 -2.1689 -0.7198
# 4 9.6180 -3.0222 -30.1798 46.9511 -2.6765 10.0438
# 5 3.5216 -8.5035 -2.1689 -2.6765 37.9281 -10.9144
# 6 -15.7861 -18.1942 -0.7198 10.0438 -10.9144 12.0646
#
#
#
# Elastic Compliance Matrix: (Units=1/GPa)
#
#
# Indices 1 2 3 4 5 6 
#
# 1 0.002890 -0.013565 0.006983 0.009993 -0.012543 -0.035926
# 2 -0.013565 0.009278 0.004417 0.008202 0.001623 -0.008853
# 3 0.006983 0.004417 0.002825 -0.004662 0.007958 0.027047
# 4 0.009993 0.008202 -0.004662 0.012575 0.007789 0.021744
# 5 -0.012543 0.001623 0.007958 0.007789 0.031299 0.008341
# 6 -0.035926 -0.008853 0.027047 0.021744 0.008341 0.013586
#
#
# Mechanical properties :
#
#
# Convention : Reuss Voigt Hill
#
# Bulk Modulus (GPa) = 93.77896 49.67376 71.72636
# Shear Modulus (GPa) = 62.23558 27.46376 44.84967
#
# Velocity S-wave (km/s) = 4.85782 3.22703 4.12384
# Velocity P-wave (km/s) = 8.18680 5.72016 7.06201
#
# Compressibility (1/GPa) = 0.01066337
#
# Stress axis : x y z
#
# Youngs Moduli (GPa) = 345.97056 107.77747 353.93693
#
# Poissons Ratio (x) = 1.46204 -2.47137
# Poissons Ratio (y) = 4.69320 -1.56349
# Poissons Ratio (z) = -2.41574 -0.47610
#
# Static dielectric constant tensor:
#      x y z
#    x 2.138950 0.042820 0.008290 
#    y 0.042820 2.603660 0.359930 
#    z 0.008290 0.359930 2.370870 
# 
# From -- ./inp_files/499835.got.cif
#   From: 2010.05.17/outbox.cif.g08.bks.cpg/sg2_250_cif.got.tgz:499835.got - 2010.06.03 11:33:40.
