data_PCOD9105927
_publ_section_title
;
Structure prediction by ZEFSAII (Michael W. Deem and Ramdas Pophale) SiO2 
 PCOD9105927
Probable space group: P -1
;
_chemical_formula_sum "Si O2"
_cell_formula_units_Z 16
_cell_length_a 14.981010
_cell_length_b 9.306296
_cell_length_c 12.923504
_cell_angle_alpha 145.436338
_cell_angle_beta 66.077863
_cell_angle_gamma 132.670065
_cell_volume 699.443256
_symmetry_space_group_name_H-M "P -1"
_symmetry_group_IT_number 2
_symmetry_cell_setting 'triclinic'
loop_
_space_group_symop_operation_xyz
x,y,z
-x,-y,-z
loop_
_atom_site_type_symbol
_atom_site_label
_atom_site_fract_x
_atom_site_fract_y
_atom_site_fract_z
Si Si1 0.867671 0.133540 0.880986
Si Si2 0.583402 0.584917 0.177319
Si Si3 0.388346 0.004815 0.776281
Si Si4 0.421239 0.986530 0.432788
Si Si5 0.847810 0.691741 0.919239
Si Si6 0.003474 0.076266 0.422231
Si Si7 0.145561 0.762695 0.812129
Si Si8 0.230027 0.560112 0.971714
O O1 0.888753 0.894294 0.679339
O O2 0.864495 0.149950 0.015552
O O3 0.753663 0.123602 0.887362
O O4 0.000000 0.500000 0.000000
O O5 0.643233 0.906062 0.264348
O O6 0.652464 0.433795 0.067090
O O7 0.572092 0.704514 0.363336
O O8 0.453381 0.305181 0.007425
O O9 0.492755 0.967902 0.677018
O O10 0.251606 0.720908 0.728008
O O11 0.270156 0.634964 0.285953
O O12 0.500000 0.000000 0.500000
O O13 0.838612 0.540065 0.943411
O O14 0.808107 0.915771 0.082372
O O15 0.000000 0.000000 0.000000
O O16 0.020521 0.409739 0.613316
O O17 0.000000 0.000000 0.500000
O O18 0.868610 0.753541 0.244669
#
# Coordination Sequence:
#
# PCOD9105927 Si02
#       8
#     2   2   2   2   2   2   2   2
#     4  10  22  43  63  89 128 182 218 262 333 405
#     4  10  20  39  66  94 130 175 216 261 337 393
#     4  10  20  41  63  95 134 172 217 272 335 385
#     4  10  22  40  66  94 139 186 214 257 342 417
#     4  12  25  39  65 109 139 160 216 301 335 375
#     4  11  24  42  67  89 131 184 219 259 340 410
#     4  12  23  42  68  96 132 174 223 270 332 410
#     4  11  22  41  66  95 130 171 217 274 334 390
#
# _framework density 22.875336999999998
#
# number of rings (size 3 to 8) (size 9 to 14) (size 15 to 20)
#    0.000    1.250    5.000    3.000    1.750    5.500 
#    0.000    0.625    0.000    1.500    0.000    0.000 
#    0.000    0.000    0.000    0.000    0.000    0.000 
#
# Total GULP energy -89070.038446 kJ/mol
# GULP energy per Si atom -5566.877403 kJ/mol
# Density = 2.282327 g / cm^3
# Si number density = 22.875337 Si / 1000 Ang^3
#
#
#
# Elastic Constant Matrix: (Units=GPa)
#
#
# Indices 1 2 3 4 5 6 
#
# 1 95.6983 7.9212 18.6417 -9.3447 0.9983 10.3719
# 2 7.9212 24.9687 19.2914 -14.9619 -0.5938 18.3410
# 3 18.6417 19.2914 135.4881 -19.5664 6.1527 7.0063
# 4 -9.3447 -14.9619 -19.5664 17.5248 5.5913 -11.0624
# 5 0.9983 -0.5938 6.1527 5.5913 45.2911 -5.8616
# 6 10.3719 18.3410 7.0063 -11.0624 -5.8616 39.0133
#
#
#
# Elastic Compliance Matrix: (Units=1/GPa)
#
#
# Indices 1 2 3 4 5 6 
#
# 1 0.011276 0.002440 -0.000861 0.005937 -0.001153 -0.002480
# 2 0.002440 0.110202 -0.002926 0.075471 -0.011707 -0.032290
# 3 -0.000861 -0.002926 0.009273 0.009551 -0.002158 0.002323
# 4 0.005937 0.075471 0.009551 0.139916 -0.017944 -0.001796
# 5 -0.001153 -0.011707 -0.002158 -0.017944 0.025091 0.004880
# 6 -0.002480 -0.032290 0.002323 -0.001796 0.004880 0.041278
#
#
# Mechanical properties :
#
#
# Convention : Reuss Voigt Hill
#
# Bulk Modulus (GPa) = 7.80911 38.65155 23.23033
# Shear Modulus (GPa) = 13.07477 34.38589 23.73033
#
# Velocity S-wave (km/s) = 2.39334 3.88130 3.22433
# Velocity P-wave (km/s) = 3.32545 6.08435 4.90295
#
# Compressibility (1/GPa) = 0.12805564
#
# Stress axis : x y z
#
# Youngs Moduli (GPa) = 88.68562 9.07427 107.84104
#
# Poissons Ratio (x) = -0.02214 0.09283
# Poissons Ratio (y) = -0.21636 0.31556
# Poissons Ratio (z) = 0.07634 0.02655
#
# Static dielectric constant tensor:
#      x y z
#    x 2.014690 0.087950 -0.065970 
#    y 0.087950 1.932560 -0.022980 
#    z -0.065970 -0.022980 1.895180 
# 
# From -- ./inp_files/448339.got.cif
#   From: 2010.05.17/outbox.cif.g08.bks.cpg/sg2_225_cif.got.tgz:448339.got - 2010.06.03 11:33:40.
