data_PCOD9105648
_publ_section_title
;
Structure prediction by ZEFSAII (Michael W. Deem and Ramdas Pophale) SiO2 
 PCOD9105648
Probable space group: P -1
;
_chemical_formula_sum "Si O2"
_cell_formula_units_Z 16
_cell_length_a 14.288199
_cell_length_b 8.288221
_cell_length_c 8.557003
_cell_angle_alpha 130.188695
_cell_angle_beta 74.852558
_cell_angle_gamma 90.188184
_cell_volume 728.202159
_symmetry_space_group_name_H-M "P -1"
_symmetry_group_IT_number 2
_symmetry_cell_setting 'triclinic'
loop_
_space_group_symop_operation_xyz
x,y,z
-x,-y,-z
loop_
_atom_site_type_symbol
_atom_site_label
_atom_site_fract_x
_atom_site_fract_y
_atom_site_fract_z
Si Si1 0.930122 0.387097 0.068225
Si Si2 0.102698 0.825076 0.344316
Si Si3 0.308060 0.906440 0.382207
Si Si4 0.382039 0.737251 0.896099
Si Si5 0.071075 0.394557 0.262208
Si Si6 0.719778 0.635021 0.413449
Si Si7 0.428573 0.490986 0.172291
Si Si8 0.292572 0.203920 0.125481
O O1 0.838117 0.560326 0.287092
O O2 0.003900 0.283496 0.108607
O O3 0.882766 0.233350 0.881932
O O4 0.000000 0.500000 0.000000
O O5 0.191268 0.911757 0.437360
O O6 0.096492 0.603432 0.295170
O O7 0.000000 0.000000 0.500000
O O8 0.367738 0.737278 0.374870
O O9 0.322344 0.149024 0.533822
O O10 0.342350 0.811650 0.134925
O O11 0.330275 0.556805 0.736179
O O12 0.498729 0.628371 0.798600
O O13 0.353017 0.956678 0.946353
O O14 0.176108 0.238158 0.159564
O O15 0.000000 0.500000 0.500000
O O16 0.703669 0.699091 0.641227
O O17 0.347613 0.349244 0.084825
O O18 0.500000 0.500000 0.000000
#
# Coordination Sequence:
#
# PCOD9105648 Si02
#       8
#     2   2   2   2   2   2   2   2
#     4  10  21  37  61  94 135 174 218 261 322 397
#     4  11  22  39  64  92 136 176 217 266 329 390
#     4  10  20  39  65  93 126 170 216 275 316 389
#     4  10  23  41  66  88 131 171 211 271 332 386
#     4  11  22  39  63  96 133 172 219 269 328 397
#     4  11  22  40  64  95 131 173 220 264 334 388
#     4  10  22  43  68  95 124 171 223 271 333 382
#     4  11  23  43  65  95 134 171 216 272 329 393
#
# _framework density 21.971919
#
# number of rings (size 3 to 8) (size 9 to 14) (size 15 to 20)
#    0.000    1.500    3.750    1.875    1.750    1.000 
#    2.250    5.000    0.000    0.000    0.000    0.000 
#    0.000    0.000    0.000    0.000    0.000    0.000 
#
# Total GULP energy -89384.092834 kJ/mol
# GULP energy per Si atom -5586.505802 kJ/mol
# Density = 2.192191 g / cm^3
# Si number density = 21.971919 Si / 1000 Ang^3
#
#
#
# Elastic Constant Matrix: (Units=GPa)
#
#
# Indices 1 2 3 4 5 6 
#
# 1 102.4424 31.4056 31.8077 6.7911 -25.2487 -14.2450
# 2 31.4056 89.7923 32.5841 26.9403 -10.3821 -10.3672
# 3 31.8077 32.5841 63.1684 14.6259 0.5321 0.6667
# 4 6.7911 26.9403 14.6259 31.9858 -3.9229 -4.3621
# 5 -25.2487 -10.3821 0.5321 -3.9229 30.8986 9.8666
# 6 -14.2450 -10.3672 0.6667 -4.3621 9.8666 36.8221
#
#
#
# Elastic Compliance Matrix: (Units=1/GPa)
#
#
# Indices 1 2 3 4 5 6 
#
# 1 0.016036 -0.002147 -0.008016 0.003956 0.012072 0.002978
# 2 -0.002147 0.017850 -0.005512 -0.011474 0.002126 0.002366
# 3 -0.008016 -0.005512 0.024274 -0.006281 -0.008480 -0.003565
# 4 0.003956 -0.011474 -0.006281 0.043819 0.004262 0.002462
# 5 0.012072 0.002126 -0.008480 0.004262 0.045642 -0.006303
# 6 0.002978 0.002366 -0.003565 0.002462 -0.006303 0.031021
#
#
# Mechanical properties :
#
#
# Convention : Reuss Voigt Hill
#
# Bulk Modulus (GPa) = 37.30210 49.66644 43.48427
# Shear Modulus (GPa) = 22.83844 30.58169 26.71007
#
# Velocity S-wave (km/s) = 3.22753 3.73480 3.49039
# Velocity P-wave (km/s) = 5.55907 6.42277 6.00646
#
# Compressibility (1/GPa) = 0.02680814
#
# Stress axis : x y z
#
# Youngs Moduli (GPa) = 62.35985 56.02353 41.19637
#
# Poissons Ratio (x) = 0.12028 0.33024
# Poissons Ratio (y) = 0.13388 0.22709
# Poissons Ratio (z) = 0.49990 0.30883
#
# Static dielectric constant tensor:
#      x y z
#    x 1.820120 -0.007980 -0.011270 
#    y -0.007980 1.840920 -0.029500 
#    z -0.011270 -0.029500 1.806800 
# 
# From -- ./inp_files/296759.got.cif
#   From: 2010.05.17/outbox.cif.g08.bks.cpg/sg2_149_cif.got.tgz:296759.got - 2010.06.03 11:33:40.
