data_PCOD9105357
_publ_section_title
;
Structure prediction by ZEFSAII (Michael W. Deem and Ramdas Pophale) SiO2 
 PCOD9105357
Probable space group: P -1
;
_chemical_formula_sum "Si O2"
_cell_formula_units_Z 16
_cell_length_a 11.131431
_cell_length_b 8.476889
_cell_length_c 13.674707
_cell_angle_alpha 86.985361
_cell_angle_beta 138.056625
_cell_angle_gamma 117.069878
_cell_volume 673.573486
_symmetry_space_group_name_H-M "P -1"
_symmetry_group_IT_number 2
_symmetry_cell_setting 'triclinic'
loop_
_space_group_symop_operation_xyz
x,y,z
-x,-y,-z
loop_
_atom_site_type_symbol
_atom_site_label
_atom_site_fract_x
_atom_site_fract_y
_atom_site_fract_z
Si Si1 0.755176 0.296655 0.474975
Si Si2 0.580601 0.686144 0.610412
Si Si3 0.933309 0.994047 0.110969
Si Si4 0.986908 0.647962 0.183201
Si Si5 0.552467 0.335863 0.190038
Si Si6 0.642104 0.918501 0.099314
Si Si7 0.507400 0.334185 0.810470
Si Si8 0.465692 0.830454 0.364675
O O1 0.616058 0.369939 0.432970
O O2 0.962162 0.374505 0.672740
O O3 0.754366 0.342776 0.358870
O O4 0.592689 0.055205 0.396838
O O5 0.500000 0.500000 0.500000
O O6 0.597803 0.841188 0.539774
O O7 0.837860 0.808960 0.803397
O O8 0.881608 0.052682 0.181160
O O9 0.952094 0.817123 0.146948
O O10 0.690356 0.875649 0.911855
O O11 0.208406 0.720874 0.250458
O O12 0.760340 0.447520 0.006203
O O13 0.564720 0.525487 0.218076
O O14 0.504005 0.288832 0.046872
O O15 0.658787 0.869967 0.221101
O O16 0.500000 0.000000 0.000000
O O17 0.520698 0.292276 0.707749
#
# Coordination Sequence:
#
# PCOD9105357 Si02
#       8
#     2   2   2   2   2   2   2   2
#     4  11  20  39  61  90 128 164 191 255 311 366
#     4  11  21  37  61  91 131 161 198 253 308 366
#     4   9  20  40  62  87 123 159 206 244 313 355
#     4  10  20  39  64  91 127 163 198 251 313 359
#     4   9  22  38  62  88 122 158 211 248 305 356
#     4  10  22  41  64  86 120 164 210 258 298 357
#     4  11  22  40  64  91 120 167 208 253 295 367
#     4  11  21  37  62  93 128 158 205 246 312 367
#
# _framework density 23.753906000000001
#
# number of rings (size 3 to 8) (size 9 to 14) (size 15 to 20)
#    0.750    1.000    2.500    3.000    0.000    2.500 
#    2.250    1.250    0.000    0.000    0.000    0.000 
#    0.000    0.000    0.000    0.000    0.000    0.000 
#
# Total GULP energy -89347.479126 kJ/mol
# GULP energy per Si atom -5584.217445 kJ/mol
# Density = 2.369984 g / cm^3
# Si number density = 23.753906 Si / 1000 Ang^3
#
#
#
# Elastic Constant Matrix: (Units=GPa)
#
#
# Indices 1 2 3 4 5 6 
#
# 1 63.6980 -3.4471 -16.1457 2.4706 -10.8734 -11.7851
# 2 -3.4471 41.3923 -8.4047 -9.4408 2.6460 -12.8202
# 3 -16.1457 -8.4047 68.4433 -5.7978 -2.1105 14.1435
# 4 2.4706 -9.4408 -5.7978 33.0053 11.5361 -6.1319
# 5 -10.8734 2.6460 -2.1105 11.5361 34.3579 -1.2565
# 6 -11.7851 -12.8202 14.1435 -6.1319 -1.2565 32.3848
#
#
#
# Elastic Compliance Matrix: (Units=1/GPa)
#
#
# Indices 1 2 3 4 5 6 
#
# 1 0.019312 0.004029 0.003726 -0.000580 0.006486 0.007137
# 2 0.004029 0.033825 0.002839 0.014819 -0.005539 0.016207
# 3 0.003726 0.002839 0.016989 0.002318 0.001063 -0.004460
# 4 -0.000580 0.014819 0.002318 0.042480 -0.015003 0.012105
# 5 0.006486 -0.005539 0.001063 -0.015003 0.036625 -0.001716
# 6 0.007137 0.016207 -0.004460 0.012105 -0.001716 0.044065
#
#
# Mechanical properties :
#
#
# Convention : Reuss Voigt Hill
#
# Bulk Modulus (GPa) = 10.95117 13.05983 12.00550
# Shear Modulus (GPa) = 24.68584 33.38499 29.03541
#
# Velocity S-wave (km/s) = 3.22721 3.75300 3.49999
# Velocity P-wave (km/s) = 4.30195 4.92848 4.62584
#
# Compressibility (1/GPa) = 0.09131448
#
# Stress axis : x y z
#
# Youngs Moduli (GPa) = 51.78204 29.56386 58.86168
#
# Poissons Ratio (x) = -0.11910 -0.21934
# Poissons Ratio (y) = -0.20861 -0.16713
# Poissons Ratio (z) = -0.19296 -0.08394
#
# Static dielectric constant tensor:
#      x y z
#    x 1.965400 0.039820 0.006940 
#    y 0.039820 1.889820 0.000240 
#    z 0.006940 0.000240 1.913130 
# 
# From -- ./inp_files/447764.got.cif
#   From: 2010.05.17/outbox.cif.g08.bks.cpg/sg2_224_cif.got.tgz:447764.got - 2010.06.03 11:33:40.
