data_PCOD9105252
_publ_section_title
;
Structure prediction by ZEFSAII (Michael W. Deem and Ramdas Pophale) SiO2 
 PCOD9105252
Probable space group: P -1
;
_chemical_formula_sum "Si O2"
_cell_formula_units_Z 16
_cell_length_a 16.230877
_cell_length_b 5.132039
_cell_length_c 24.709003
_cell_angle_alpha 71.098047
_cell_angle_beta 21.364259
_cell_angle_gamma 83.316327
_cell_volume 598.110350
_symmetry_space_group_name_H-M "P -1"
_symmetry_group_IT_number 2
_symmetry_cell_setting 'triclinic'
loop_
_space_group_symop_operation_xyz
x,y,z
-x,-y,-z
loop_
_atom_site_type_symbol
_atom_site_label
_atom_site_fract_x
_atom_site_fract_y
_atom_site_fract_z
Si Si1 0.236306 0.635102 0.683126
Si Si2 0.755946 0.752410 0.968098
Si Si3 0.388985 0.535774 0.707606
Si Si4 0.729581 0.310905 0.459828
Si Si5 0.026772 0.211704 0.552392
Si Si6 0.216851 0.205695 0.171973
Si Si7 0.644291 0.812458 0.150534
Si Si8 0.330281 0.056224 0.304617
O O1 0.229601 0.451687 0.754153
O O2 0.255504 0.522781 0.618737
O O3 0.500000 0.000000 0.500000
O O4 0.988067 0.678180 0.830827
O O5 0.772743 0.906323 0.006030
O O6 0.471132 0.410770 0.167750
O O7 0.772381 0.898606 0.889200
O O8 0.626732 0.473431 0.553026
O O9 0.240506 0.307430 0.865688
O O10 0.509913 0.917234 0.619456
O O11 0.003529 0.319095 0.298259
O O12 0.808094 0.184543 0.645631
O O13 0.331435 0.509722 0.355401
O O14 0.883774 0.086561 0.704867
O O15 0.097138 0.968515 0.495459
O O16 0.500000 0.500000 0.000000
O O17 0.573821 0.081571 0.188061
#
# Coordination Sequence:
#
# PCOD9105252 Si02
#       8
#     2   2   2   2   2   2   2   2
#     4   9  21  44  68  94 132 170 218 275 341 393
#     4  10  23  42  61  95 132 163 218 279 337 384
#     4  11  22  42  71  95 125 178 226 270 327 403
#     4  10  22  42  67 100 131 169 223 275 329 395
#     4  10  20  39  64  86 126 174 223 259 332 397
#     4  11  20  41  64  96 132 173 221 277 329 399
#     4  11  23  39  63  92 131 170 220 269 332 396
#     4  10  21  40  62  89 126 172 214 276 326 397
#
# _framework density 26.750914999999999
#
# number of rings (size 3 to 8) (size 9 to 14) (size 15 to 20)
#    0.000    1.750    2.500    1.500    1.750    0.500 
#   20.250    1.875    0.000    0.000    0.000    0.000 
#    0.000    0.000    0.000    0.000    0.000    0.000 
#
# Total GULP energy -89442.605454 kJ/mol
# GULP energy per Si atom -5590.162841 kJ/mol
# Density = 2.669003 g / cm^3
# Si number density = 26.750915 Si / 1000 Ang^3
#
#
#
# Elastic Constant Matrix: (Units=GPa)
#
#
# Indices 1 2 3 4 5 6 
#
# 1 189.5372 19.5476 25.0669 3.3624 36.7284 -3.3834
# 2 19.5476 49.2496 3.0864 0.5044 11.2626 -2.5403
# 3 25.0669 3.0864 80.7449 -4.2811 17.8201 12.6099
# 4 3.3624 0.5044 -4.2811 31.4575 2.8702 -0.9694
# 5 36.7284 11.2626 17.8201 2.8702 58.2086 -5.6679
# 6 -3.3834 -2.5403 12.6099 -0.9694 -5.6679 27.9590
#
#
#
# Elastic Compliance Matrix: (Units=1/GPa)
#
#
# Indices 1 2 3 4 5 6 
#
# 1 0.006245 -0.001645 -0.001291 -0.000513 -0.003150 0.000532
# 2 -0.001645 0.021713 0.000219 0.000176 -0.003137 0.001045
# 3 -0.001291 0.000219 0.015183 0.002393 -0.004760 -0.007866
# 4 -0.000513 0.000176 0.002393 0.032343 -0.002079 -0.000425
# 5 -0.003150 -0.003137 -0.004760 -0.002079 0.021903 0.005849
# 6 0.000532 0.001045 -0.007866 -0.000425 0.005849 0.040645
#
#
# Mechanical properties :
#
#
# Convention : Reuss Voigt Hill
#
# Bulk Modulus (GPa) = 26.51941 46.10369 36.31155
# Shear Modulus (GPa) = 32.04392 41.64707 36.84549
#
# Velocity S-wave (km/s) = 3.46477 3.94997 3.71530
# Velocity P-wave (km/s) = 5.09325 6.17048 5.65756
#
# Compressibility (1/GPa) = 0.03770823
#
# Stress axis : x y z
#
# Youngs Moduli (GPa) = 160.11714 46.05442 65.86367
#
# Poissons Ratio (x) = 0.07575 0.08504
# Poissons Ratio (y) = 0.26337 -0.01444
# Poissons Ratio (z) = 0.20673 -0.01010
#
# Static dielectric constant tensor:
#      x y z
#    x 2.134440 -0.008770 0.003510 
#    y -0.008770 2.321250 0.002440 
#    z 0.003510 0.002440 2.124150 
# 
# From -- ./inp_files/620078.got.cif
#   From: 2010.05.17/outbox.cif.g08.bks.cpg/sg2_311_cif.got.tgz:620078.got - 2010.06.03 11:33:40.
