data_PCOD9105198
_publ_section_title
;
Structure prediction by ZEFSAII (Michael W. Deem and Ramdas Pophale) SiO2 
 PCOD9105198
Probable space group: P -1
;
_chemical_formula_sum "Si O2"
_cell_formula_units_Z 16
_cell_length_a 10.762036
_cell_length_b 12.456569
_cell_length_c 11.063298
_cell_angle_alpha 132.812359
_cell_angle_beta 133.645042
_cell_angle_gamma 59.980908
_cell_volume 785.941089
_symmetry_space_group_name_H-M "P -1"
_symmetry_group_IT_number 2
_symmetry_cell_setting 'triclinic'
loop_
_space_group_symop_operation_xyz
x,y,z
-x,-y,-z
loop_
_atom_site_type_symbol
_atom_site_label
_atom_site_fract_x
_atom_site_fract_y
_atom_site_fract_z
Si Si1 0.664200 0.409032 0.492031
Si Si2 0.967251 0.979953 0.605250
Si Si3 0.667432 0.974891 0.003957
Si Si4 0.201829 0.304285 0.762304
Si Si5 0.887015 0.423567 0.265318
Si Si6 0.409591 0.735898 0.921379
Si Si7 0.076550 0.704182 0.218407
Si Si8 0.126518 0.321935 0.166304
O O1 0.500000 0.500000 0.500000
O O2 0.617328 0.306714 0.270938
O O3 0.761660 0.338383 0.620303
O O4 0.781994 0.534790 0.619815
O O5 0.854015 0.844686 0.455407
O O6 0.158446 0.966983 0.777017
O O7 0.886686 0.141182 0.702925
O O8 0.000000 0.000000 0.500000
O O9 0.623987 0.088810 0.954834
O O10 0.500000 0.000000 0.000000
O O11 0.735193 0.809549 0.882419
O O12 0.166699 0.446370 0.765259
O O13 0.080196 0.296140 0.791764
O O14 0.395994 0.299951 0.935115
O O15 0.723392 0.354100 0.161650
O O16 0.000000 0.500000 0.500000
O O17 0.999167 0.295605 0.171123
O O18 0.992827 0.626106 0.988472
#
# Coordination Sequence:
#
# PCOD9105198 Si02
#       8
#     2   2   2   2   2   2   2   2
#     4  12  23  37  64 100 130 165 215 277 330 382
#     4   9  18  34  62  92 125 171 205 259 334 384
#     4  11  22  41  67 100 132 162 217 276 331 384
#     4  11  22  40  67  92 131 174 219 268 328 381
#     4  12  24  45  66  89 131 178 226 262 323 397
#     4  12  25  41  64  96 131 176 217 269 321 395
#     4  10  20  39  63  95 130 162 216 272 333 380
#     4  11  24  40  67  96 129 176 213 271 333 385
#
# _framework density 20.357759999999999
#
# number of rings (size 3 to 8) (size 9 to 14) (size 15 to 20)
#    0.000    1.000    2.500    6.750    1.750    1.500 
#    0.000    0.000    0.000    3.750    0.000    0.000 
#    0.000    0.000    0.000    0.000    0.000    0.000 
#
# Total GULP energy -89160.455621 kJ/mol
# GULP energy per Si atom -5572.528476 kJ/mol
# Density = 2.031142 g / cm^3
# Si number density = 20.357760 Si / 1000 Ang^3
#
#
#
# Elastic Constant Matrix: (Units=GPa)
#
#
# Indices 1 2 3 4 5 6 
#
# 1 100.5988 56.7634 40.9647 -8.3947 14.0667 -8.9512
# 2 56.7634 132.0269 47.2672 -1.6402 12.2700 -10.7593
# 3 40.9647 47.2672 98.8026 -8.3496 16.5932 -12.5542
# 4 -8.3947 -1.6402 -8.3496 41.3001 0.5859 10.5471
# 5 14.0667 12.2700 16.5932 0.5859 32.8014 0.0170
# 6 -8.9512 -10.7593 -12.5542 10.5471 0.0170 30.2307
#
#
#
# Elastic Compliance Matrix: (Units=1/GPa)
#
#
# Indices 1 2 3 4 5 6 
#
# 1 0.014508 -0.004827 -0.002956 0.002038 -0.002958 0.000641
# 2 -0.004827 0.010907 -0.003057 -0.001605 -0.000435 0.001743
# 3 -0.002956 -0.003057 0.014163 0.001326 -0.004779 0.003459
# 4 0.002038 -0.001605 0.001326 0.027119 -0.001424 -0.008878
# 5 -0.002958 -0.000435 -0.004779 -0.001424 0.034362 -0.002538
# 6 0.000641 0.001743 0.003459 -0.008878 -0.002538 0.038424
#
#
# Mechanical properties :
#
#
# Convention : Reuss Voigt Hill
#
# Bulk Modulus (GPa) = 55.87166 69.04655 62.45911
# Shear Modulus (GPa) = 29.91672 33.29530 31.60601
#
# Velocity S-wave (km/s) = 3.83763 4.04853 3.94449
# Velocity P-wave (km/s) = 6.86593 7.47291 7.17584
#
# Compressibility (1/GPa) = 0.01789816
#
# Stress axis : x y z
#
# Youngs Moduli (GPa) = 68.92525 91.68620 70.60430
#
# Poissons Ratio (x) = 0.44258 0.20868
# Poissons Ratio (y) = 0.33271 0.21587
# Poissons Ratio (z) = 0.20372 0.28033
#
# Static dielectric constant tensor:
#      x y z
#    x 1.731610 0.058780 0.107250 
#    y 0.058780 1.640750 -0.201300 
#    z 0.107250 -0.201300 1.673080 
# 
# From -- ./inp_files/425308.got.cif
#   From: 2010.05.17/outbox.cif.g08.bks.cpg/sg2_213_cif.got.tgz:425308.got - 2010.06.03 11:33:40.
