data_PCOD9105788
_publ_section_title
;
Structure prediction by ZEFSAII (Michael W. Deem and Ramdas Pophale) SiO2 
 PCOD9105788
Probable space group: P -1
;
_chemical_formula_sum "Si O2"
_cell_formula_units_Z 14
_cell_length_a 9.183169
_cell_length_b 20.577206
_cell_length_c 6.690939
_cell_angle_alpha 143.628157
_cell_angle_beta 117.528110
_cell_angle_gamma 50.843648
_cell_volume 578.456912
_symmetry_space_group_name_H-M "P -1"
_symmetry_group_IT_number 2
_symmetry_cell_setting 'triclinic'
loop_
_space_group_symop_operation_xyz
x,y,z
-x,-y,-z
loop_
_atom_site_type_symbol
_atom_site_label
_atom_site_fract_x
_atom_site_fract_y
_atom_site_fract_z
Si Si1 0.201299 0.009858 0.346828
Si Si2 0.821278 0.667364 0.038026
Si Si3 0.758177 0.424913 0.900064
Si Si4 0.015552 0.717178 0.971611
Si Si5 0.537780 0.601991 0.884297
Si Si6 0.437974 0.043410 0.288909
Si Si7 0.814453 0.225225 0.126012
O O1 0.369289 0.995471 0.565005
O O2 0.040636 0.153963 0.624628
O O3 0.312867 0.983588 0.144727
O O4 0.127253 0.914438 0.115887
O O5 0.857801 0.681798 0.859661
O O6 0.698485 0.807809 0.394785
O O7 0.034299 0.597021 0.078061
O O8 0.711733 0.597697 0.864195
O O9 0.602427 0.557767 0.042999
O O10 0.742358 0.317846 0.499007
O O11 0.791934 0.390492 0.070257
O O12 0.037360 0.748516 0.837209
O O13 0.500000 0.500000 0.500000
O O14 0.355050 0.733626 0.040667
O O15 0.500000 0.000000 0.000000
#
# Coordination Sequence:
#
# PCOD9105788 Si02
#       7
#     2   2   2   2   2   2   2
#     4  10  21  37  59  89 128 152 201 249 294 366
#     4   9  19  42  58  87 122 155 200 247 291 366
#     4   9  22  38  60  84 120 159 203 241 301 352
#     4   9  22  36  60  86 123 159 198 240 306 361
#     4  10  20  39  66  85 118 161 204 255 298 339
#     4  10  21  37  61  92 122 162 197 241 308 358
#     4  11  21  38  61  90 120 159 196 253 301 345
#
# _framework density 24.202321000000001
#
# number of rings (size 3 to 8) (size 9 to 14) (size 15 to 20)
#    0.857    1.429    1.429    0.857    2.000    2.286 
#    0.000    2.857    3.143    0.000    0.000    0.000 
#    0.000    0.000    0.000    0.000    0.000    0.000 
#
# Total GULP energy -78131.733131 kJ/mol
# GULP energy per Si atom -5580.838081 kJ/mol
# Density = 2.414724 g / cm^3
# Si number density = 24.202321 Si / 1000 Ang^3
#
#
#
# Elastic Constant Matrix: (Units=GPa)
#
#
# Indices 1 2 3 4 5 6 
#
# 1 87.6296 26.9590 20.9549 2.3780 0.4806 12.0176
# 2 26.9590 82.7977 25.6314 10.4334 1.3468 16.1237
# 3 20.9549 25.6314 35.7032 -10.7479 -12.8674 15.3959
# 4 2.3780 10.4334 -10.7479 21.3206 13.4578 -5.4683
# 5 0.4806 1.3468 -12.8674 13.4578 35.5505 1.5328
# 6 12.0176 16.1237 15.3959 -5.4683 1.5328 56.4074
#
#
#
# Elastic Compliance Matrix: (Units=1/GPa)
#
#
# Indices 1 2 3 4 5 6 
#
# 1 0.014202 -0.000871 -0.009583 -0.005087 -0.001675 -0.000609
# 2 -0.000871 0.022041 -0.020767 -0.021839 0.000038 -0.002565
# 3 -0.009583 -0.020767 0.066550 0.035465 0.011883 -0.007071
# 4 -0.005087 -0.021839 0.035465 0.091149 -0.021076 0.007056
# 5 -0.001675 0.000038 0.011883 -0.021076 0.040691 -0.006046
# 6 -0.000609 -0.002565 -0.007071 0.007056 -0.006046 0.021369
#
#
# Mechanical properties :
#
#
# Convention : Reuss Voigt Hill
#
# Bulk Modulus (GPa) = 24.78213 39.24682 32.01447
# Shear Modulus (GPa) = 15.06510 31.49470 23.27990
#
# Velocity S-wave (km/s) = 2.49763 3.61128 3.10480
# Velocity P-wave (km/s) = 4.31038 5.79998 5.10975
#
# Compressibility (1/GPa) = 0.04035166
#
# Stress axis : x y z
#
# Youngs Moduli (GPa) = 70.41321 45.37084 15.02631
#
# Poissons Ratio (x) = 0.03950 0.14400
# Poissons Ratio (y) = 0.06130 0.31205
# Poissons Ratio (z) = 0.67478 0.94220
#
# Static dielectric constant tensor:
#      x y z
#    x 1.982730 0.024690 -0.008530 
#    y 0.024690 2.020480 -0.020100 
#    z -0.008530 -0.020100 1.860260 
# 
# From -- ./inp_files/46016.got.cif
#   From: 2010.05.17/outbox.cif.g08.bks.cpg/sg2_24_cif.got.tgz:46016.got - 2010.06.03 11:33:40.
