data_PCOD9105158
_publ_section_title
;
Structure prediction by ZEFSAII (Michael W. Deem and Ramdas Pophale) SiO2 
 PCOD9105158
Probable space group: P -1
;
_chemical_formula_sum "Si O2"
_cell_formula_units_Z 16
_cell_length_a 16.754610
_cell_length_b 8.892169
_cell_length_c 8.620109
_cell_angle_alpha 86.237737
_cell_angle_beta 34.801808
_cell_angle_gamma 87.748704
_cell_volume 731.161032
_symmetry_space_group_name_H-M "P -1"
_symmetry_group_IT_number 2
_symmetry_cell_setting 'triclinic'
loop_
_space_group_symop_operation_xyz
x,y,z
-x,-y,-z
loop_
_atom_site_type_symbol
_atom_site_label
_atom_site_fract_x
_atom_site_fract_y
_atom_site_fract_z
Si Si1 0.709512 0.427590 0.181499
Si Si2 0.828483 0.898058 0.853372
Si Si3 0.786415 0.318880 0.583860
Si Si4 0.521013 0.680672 0.941996
Si Si5 0.572819 0.695295 0.216059
Si Si6 0.218175 0.387096 0.639235
Si Si7 0.004534 0.144980 0.088618
Si Si8 0.082895 0.762512 0.318755
O O1 0.652073 0.536532 0.129468
O O2 0.576375 0.327346 0.459744
O O3 0.750751 0.539344 0.248456
O O4 0.840484 0.326946 0.932763
O O5 0.920384 0.807237 0.584391
O O6 0.838648 0.075375 0.791665
O O7 0.675219 0.825065 0.109735
O O8 0.907307 0.880532 0.893074
O O9 0.791704 0.475081 0.472905
O O10 0.884708 0.334720 0.574558
O O11 0.628910 0.269158 0.880908
O O12 0.851744 0.193447 0.379063
O O13 0.650555 0.709546 0.620051
O O14 0.500000 0.500000 0.000000
O O15 0.549861 0.728232 0.069253
O O16 0.080450 0.284313 0.872172
O O17 0.000000 0.000000 0.000000
#
# Coordination Sequence:
#
# PCOD9105158 Si02
#       8
#     2   2   2   2   2   2   2   2
#     4  11  22  38  67  99 125 165 219 266 317 369
#     4  10  24  46  63  93 132 171 220 250 330 379
#     4  10  22  43  64  97 128 164 217 261 318 381
#     4  10  20  39  63  93 132 164 204 263 321 372
#     4  11  22  40  67  95 132 167 210 270 313 381
#     4  11  22  42  66  99 127 162 219 265 318 381
#     4  11  25  44  67  93 132 170 210 270 319 381
#     4  10  24  43  65  90 135 173 210 267 308 389
#
# _framework density 21.883002999999999
#
# number of rings (size 3 to 8) (size 9 to 14) (size 15 to 20)
#    0.000    1.500    3.750    1.875    3.500    4.000 
#    4.500    2.500    0.000    0.000    0.000    0.000 
#    0.000    0.000    0.000    0.000    0.000    0.000 
#
# Total GULP energy -89439.536547 kJ/mol
# GULP energy per Si atom -5589.971034 kJ/mol
# Density = 2.183320 g / cm^3
# Si number density = 21.883003 Si / 1000 Ang^3
#
#
#
# Elastic Constant Matrix: (Units=GPa)
#
#
# Indices 1 2 3 4 5 6 
#
# 1 39.2003 11.5522 10.5554 -8.0710 -4.0153 2.0319
# 2 11.5522 37.6924 24.6908 -2.3244 -0.3869 4.5617
# 3 10.5554 24.6908 86.6354 22.8908 6.6156 14.6616
# 4 -8.0710 -2.3244 22.8908 15.4374 0.1750 -6.6925
# 5 -4.0153 -0.3869 6.6156 0.1750 21.6168 -2.8809
# 6 2.0319 4.5617 14.6616 -6.6925 -2.8809 24.0190
#
#
#
# Elastic Compliance Matrix: (Units=1/GPa)
#
#
# Indices 1 2 3 4 5 6 
#
# 1 -0.017035 -0.047012 0.079671 -0.173226 -0.039144 -0.091225
# 2 -0.047012 0.001046 0.060969 -0.148790 -0.036737 -0.079302
# 3 0.079671 0.060969 -0.128821 0.308218 0.073478 0.155009
# 4 -0.173226 -0.148790 0.308218 -0.654118 -0.170239 -0.347908
# 5 -0.039144 -0.036737 0.073478 -0.170239 0.006397 -0.081231
# 6 -0.091225 -0.079302 0.155009 -0.347908 -0.081231 -0.136890
#
#
# Mechanical properties :
#
#
# Convention : Reuss Voigt Hill
#
# Bulk Modulus (GPa) = 23.55981 28.56942 26.06462
# Shear Modulus (GPa) = -4.53503 19.99662 7.73080
#
# Velocity S-wave (km/s) = -1.44114 3.02619 1.88161
# Velocity P-wave (km/s) = 2.83204 5.02934 4.08134
#
# Compressibility (1/GPa) = 0.04244516
#
# Stress axis : x y z
#
# Youngs Moduli (GPa) = -58.70208 956.26571 -7.76272
#
# Poissons Ratio (x) = 44.95593 0.61846
# Poissons Ratio (y) = -2.75970 0.47328
# Poissons Ratio (z) = 4.67685 -58.30240
#
# Static dielectric constant tensor:
#      x y z
#    x 1.815600 -0.021610 0.015310 
#    y -0.021610 1.784400 0.031880 
#    z 0.015310 0.031880 1.841710 
# 
# From -- ./inp_files/328981.got.cif
#   From: 2010.05.17/outbox.cif.g08.bks.cpg/sg2_165_cif.got.tgz:328981.got - 2010.06.03 11:33:40.
