data_PCOD9105668
_publ_section_title
;
Structure prediction by ZEFSAII (Michael W. Deem and Ramdas Pophale) SiO2 
 PCOD9105668
Probable space group: P -1
;
_chemical_formula_sum "Si O2"
_cell_formula_units_Z 16
_cell_length_a 17.447252
_cell_length_b 20.901897
_cell_length_c 12.678003
_cell_angle_alpha 21.230364
_cell_angle_beta 38.991019
_cell_angle_gamma 29.352112
_cell_volume 804.344133
_symmetry_space_group_name_H-M "P -1"
_symmetry_group_IT_number 2
_symmetry_cell_setting 'triclinic'
loop_
_space_group_symop_operation_xyz
x,y,z
-x,-y,-z
loop_
_atom_site_type_symbol
_atom_site_label
_atom_site_fract_x
_atom_site_fract_y
_atom_site_fract_z
Si Si1 0.491604 0.212938 0.201994
Si Si2 0.425780 0.544823 0.125486
Si Si3 0.938903 0.575774 0.069049
Si Si4 0.857080 0.275328 0.714930
Si Si5 0.138387 0.640949 0.905582
Si Si6 0.838979 0.004636 0.781305
Si Si7 0.371761 0.967080 0.209499
Si Si8 0.642520 0.295744 0.735529
O O1 0.500000 0.000000 0.500000
O O2 0.582484 0.248057 0.136444
O O3 0.308479 0.423812 0.095898
O O4 0.553336 0.236821 0.991042
O O5 0.251510 0.626697 0.213294
O O6 0.544708 0.292967 0.442681
O O7 0.500000 0.500000 0.000000
O O8 0.923472 0.402847 0.411722
O O9 0.765834 0.834039 0.869153
O O10 0.000000 0.500000 0.000000
O O11 0.063095 0.580111 0.993857
O O12 0.732547 0.339121 0.655664
O O13 0.000000 0.000000 0.000000
O O14 0.160323 0.808138 0.567553
O O15 0.016061 0.769139 0.935849
O O16 0.778369 0.090036 0.831600
O O17 0.719271 0.991953 0.864572
O O18 0.500000 0.000000 0.000000
O O19 0.500000 0.500000 0.500000
#
# Coordination Sequence:
#
# PCOD9105668 Si02
#       8
#     2   2   2   2   2   2   2   2
#     4  11  25  43  64  95 134 173 223 281 329 408
#     4  11  25  45  66  95 131 185 223 278 343 403
#     4  11  25  38  67  99 130 176 223 277 335 406
#     4  11  26  45  62 100 144 172 217 281 345 405
#     4  10  21  38  62  89 129 161 215 266 335 383
#     4  10  20  39  65  94 122 166 217 280 326 388
#     4  11  22  42  67  95 131 168 234 289 327 398
#     4  11  22  42  72  94 124 177 228 272 328 392
#
# _framework density 19.891981999999999
#
# number of rings (size 3 to 8) (size 9 to 14) (size 15 to 20)
#    0.000    1.250    3.750    1.500    5.250    2.000 
#    0.000    0.625    0.000    0.000    0.000    0.000 
#    0.000    0.000    0.000    0.000    0.000    0.000 
#
# Total GULP energy -89257.336674 kJ/mol
# GULP energy per Si atom -5578.583542 kJ/mol
# Density = 1.984671 g / cm^3
# Si number density = 19.891982 Si / 1000 Ang^3
#
#
#
# Elastic Constant Matrix: (Units=GPa)
#
#
# Indices 1 2 3 4 5 6 
#
# 1 56.0161 22.2933 16.6139 23.6474 -24.1576 -2.4916
# 2 22.2933 108.9209 8.4173 18.1833 -1.4007 16.6229
# 3 16.6139 8.4173 61.1382 10.2221 -24.3008 -0.4380
# 4 23.6474 18.1833 10.2221 32.9680 -3.6537 1.7016
# 5 -24.1576 -1.4007 -24.3008 -3.6537 30.9361 5.3727
# 6 -2.4916 16.6229 -0.4380 1.7016 5.3727 44.0561
#
#
#
# Elastic Compliance Matrix: (Units=1/GPa)
#
#
# Indices 1 2 3 4 5 6 
#
# 1 0.046413 -0.004970 0.008438 -0.028885 0.039073 0.000935
# 2 -0.004970 0.011270 -0.001456 -0.002452 -0.004118 -0.003951
# 3 0.008438 -0.001456 0.026474 -0.010460 0.026348 -0.001519
# 4 -0.028885 -0.002452 -0.010460 0.052906 -0.024661 0.000152
# 5 0.039073 -0.004118 0.026348 -0.024661 0.081291 -0.004936
# 6 0.000935 -0.003951 -0.001519 0.000152 -0.004936 0.024823
#
#
# Mechanical properties :
#
#
# Convention : Reuss Voigt Hill
#
# Bulk Modulus (GPa) = 11.34019 35.63604 23.48812
# Shear Modulus (GPa) = 18.61877 33.50877 26.06377
#
# Velocity S-wave (km/s) = 3.06272 4.10876 3.62369
# Velocity P-wave (km/s) = 4.26852 6.36105 5.41679
#
# Compressibility (1/GPa) = 0.08818193
#
# Stress axis : x y z
#
# Youngs Moduli (GPa) = 21.54567 88.73055 37.77243
#
# Poissons Ratio (x) = 0.44098 -0.31873
# Poissons Ratio (y) = 0.10708 0.05500
# Poissons Ratio (z) = -0.18181 0.12921
#
# Static dielectric constant tensor:
#      x y z
#    x 1.683220 -0.004440 0.014470 
#    y -0.004440 1.701170 -0.034230 
#    z 0.014470 -0.034230 1.678150 
# 
# From -- ./inp_files/418920.got.cif
#   From: 2010.05.17/outbox.cif.g08.bks.cpg/sg2_210_cif.got.tgz:418920.got - 2010.06.03 11:33:40.
