data_PCOD9105285
_publ_section_title
;
Structure prediction by ZEFSAII (Michael W. Deem and Ramdas Pophale) SiO2 
 PCOD9105285
Probable space group: P -1
;
_chemical_formula_sum "Si O2"
_cell_formula_units_Z 14
_cell_length_a 11.742494
_cell_length_b 7.405235
_cell_length_c 7.809985
_cell_angle_alpha 100.438356
_cell_angle_beta 71.010746
_cell_angle_gamma 121.371820
_cell_volume 548.227635
_symmetry_space_group_name_H-M "P -1"
_symmetry_group_IT_number 2
_symmetry_cell_setting 'triclinic'
loop_
_space_group_symop_operation_xyz
x,y,z
-x,-y,-z
loop_
_atom_site_type_symbol
_atom_site_label
_atom_site_fract_x
_atom_site_fract_y
_atom_site_fract_z
Si Si1 0.134221 0.210333 0.295674
Si Si2 0.584889 0.764809 0.895486
Si Si3 0.389993 0.702914 0.678783
Si Si4 0.889088 0.494356 0.364205
Si Si5 0.867829 0.093290 0.210080
Si Si6 0.155943 0.840932 0.172040
Si Si7 0.569410 0.823413 0.289363
O O1 0.292513 0.293262 0.177542
O O2 0.128407 0.377843 0.451722
O O3 0.018676 0.136019 0.192035
O O4 0.105974 0.979710 0.333788
O O5 0.469985 0.675586 0.792589
O O6 0.678467 0.024340 0.863375
O O7 0.528467 0.724495 0.106360
O O8 0.226208 0.538255 0.726084
O O9 0.462034 0.693274 0.466271
O O10 0.414680 0.942696 0.701253
O O11 0.849652 0.254108 0.374451
O O12 0.047017 0.607033 0.240366
O O13 0.725745 0.873269 0.266795
O O14 0.864911 0.145758 0.019631
#
# Coordination Sequence:
#
# PCOD9105285 Si02
#       7
#     2   2   2   2   2   2   2
#     4  10  22  38  59  93 119 162 199 247 317 360
#     4   9  21  39  63  86 120 163 208 240 304 374
#     4  10  21  39  61  89 126 160 203 251 308 360
#     4  11  22  38  59  96 120 153 205 257 306 357
#     4  10  20  39  64  88 122 155 207 258 296 362
#     4   9  21  38  62  89 115 161 205 245 314 357
#     4   9  20  38  63  89 119 167 205 245 304 374
#
# _framework density 25.536836999999998
#
# number of rings (size 3 to 8) (size 9 to 14) (size 15 to 20)
#    0.857    1.429    0.000    2.143    2.000    0.571 
#    5.143    0.714    0.000    0.000    0.000    0.000 
#    0.000    0.000    0.000    0.000    0.000    0.000 
#
# Total GULP energy -78152.425267 kJ/mol
# GULP energy per Si atom -5582.316090 kJ/mol
# Density = 2.547871 g / cm^3
# Si number density = 25.536837 Si / 1000 Ang^3
#
#
#
# Elastic Constant Matrix: (Units=GPa)
#
#
# Indices 1 2 3 4 5 6 
#
# 1 128.9181 24.3980 39.8093 8.0096 21.6502 35.1045
# 2 24.3980 80.0769 22.1787 -0.4228 3.6011 22.9154
# 3 39.8093 22.1787 114.3981 13.6445 -7.4964 12.1480
# 4 8.0096 -0.4228 13.6445 29.9978 5.7791 -4.1340
# 5 21.6502 3.6011 -7.4964 5.7791 24.1889 14.0190
# 6 35.1045 22.9154 12.1480 -4.1340 14.0190 42.1119
#
#
#
# Elastic Compliance Matrix: (Units=1/GPa)
#
#
# Indices 1 2 3 4 5 6 
#
# 1 0.012163 -0.000522 -0.003973 -0.000647 -0.008427 -0.005967
# 2 -0.000522 0.015390 -0.001670 -0.000553 0.002657 -0.008396
# 3 -0.003973 -0.001670 0.012557 -0.007523 0.011863 -0.004090
# 4 -0.000647 -0.000553 -0.007523 0.042653 -0.019865 0.013810
# 5 -0.008427 0.002657 0.011863 -0.019865 0.070367 -0.023219
# 6 -0.005967 -0.008396 -0.004090 0.013810 -0.023219 0.043554
#
#
# Mechanical properties :
#
#
# Convention : Reuss Voigt Hill
#
# Bulk Modulus (GPa) = 35.99897 55.12943 45.56420
# Shear Modulus (GPa) = 22.90707 35.06019 28.98363
#
# Velocity S-wave (km/s) = 2.99828 3.70932 3.37259
# Velocity P-wave (km/s) = 5.11016 6.32301 5.74866
#
# Compressibility (1/GPa) = 0.02777857
#
# Stress axis : x y z
#
# Youngs Moduli (GPa) = 82.21957 64.97704 79.63911
#
# Poissons Ratio (x) = 0.03394 0.31638
# Poissons Ratio (y) = 0.04295 0.13302
# Poissons Ratio (z) = 0.32663 0.10853
#
# Static dielectric constant tensor:
#      x y z
#    x 2.076890 -0.052020 -0.053000 
#    y -0.052020 2.083290 0.039520 
#    z -0.053000 0.039520 2.000080 
# 
# From -- ./inp_files/240315.got.cif
#   From: 2010.05.17/outbox.cif.g08.bks.cpg/sg2_121_cif.got.tgz:240315.got - 2010.06.03 11:33:40.
