data_PCOD9105825
_publ_section_title
;
Structure prediction by ZEFSAII (Michael W. Deem and Ramdas Pophale) SiO2 
 PCOD9105825
Probable space group: P -1
;
_chemical_formula_sum "Si O2"
_cell_formula_units_Z 16
_cell_length_a 19.655832
_cell_length_b 8.831206
_cell_length_c 9.796404
_cell_angle_alpha 132.101436
_cell_angle_beta 124.245359
_cell_angle_gamma 38.945353
_cell_volume 789.965510
_symmetry_space_group_name_H-M "P -1"
_symmetry_group_IT_number 2
_symmetry_cell_setting 'triclinic'
loop_
_space_group_symop_operation_xyz
x,y,z
-x,-y,-z
loop_
_atom_site_type_symbol
_atom_site_label
_atom_site_fract_x
_atom_site_fract_y
_atom_site_fract_z
Si Si1 0.392957 0.133668 0.090746
Si Si2 0.957736 0.797348 0.123010
Si Si3 0.816416 0.340450 0.749512
Si Si4 0.122804 0.846117 0.999604
Si Si5 0.726886 0.758402 0.232718
Si Si6 0.453717 0.577272 0.843974
Si Si7 0.536434 0.240078 0.467518
Si Si8 0.780057 0.077875 0.317885
O O1 0.272757 0.334919 0.145969
O O2 0.460286 0.184790 0.286858
O O3 0.360069 0.223235 0.949585
O O4 0.449815 0.823785 0.955902
O O5 0.064513 0.766563 0.214782
O O6 0.884152 0.945855 0.262369
O O7 0.000000 0.500000 0.000000
O O8 0.886307 0.961958 0.006493
O O9 0.818680 0.225589 0.831029
O O10 0.778812 0.243025 0.536255
O O11 0.179401 0.555832 0.819646
O O12 0.000000 0.000000 0.000000
O O13 0.658304 0.972530 0.405487
O O14 0.774217 0.865797 0.257372
O O15 0.517557 0.334760 0.660148
O O16 0.327749 0.719762 0.772142
O O17 0.500000 0.500000 0.000000
O O18 0.500000 0.500000 0.500000
#
# Coordination Sequence:
#
# PCOD9105825 Si02
#       8
#     2   2   2   2   2   2   2   2
#     4  10  20  39  66  89 127 171 215 272 325 380
#     4  11  22  40  66  94 129 173 209 268 342 394
#     4  10  20  41  67  92 124 172 221 272 319 391
#     4   9  20  40  63  93 125 164 219 269 322 383
#     4  10  21  38  66  94 126 174 221 271 323 387
#     4  11  25  42  61  93 137 172 216 273 333 390
#     4  12  21  40  66  95 125 173 228 263 322 395
#     4  11  21  42  62  92 130 169 220 267 331 392
#
# _framework density 20.254049999999999
#
# number of rings (size 3 to 8) (size 9 to 14) (size 15 to 20)
#    0.000    1.500    3.750    3.750    0.000    1.500 
#    6.750    6.875    0.000    0.000    0.000    0.000 
#    0.000    0.000    0.000    0.000    0.000    0.000 
#
# Total GULP energy -89206.240641 kJ/mol
# GULP energy per Si atom -5575.390040 kJ/mol
# Density = 2.020795 g / cm^3
# Si number density = 20.254050 Si / 1000 Ang^3
#
#
#
# Elastic Constant Matrix: (Units=GPa)
#
#
# Indices 1 2 3 4 5 6 
#
# 1 78.5031 31.3062 40.6625 9.1581 -10.8028 -15.3228
# 2 31.3062 109.8807 43.1399 18.0327 -13.7731 -2.2657
# 3 40.6625 43.1399 149.6992 17.0066 -7.0211 -10.5399
# 4 9.1581 18.0327 17.0066 35.0900 -10.8302 -7.3133
# 5 -10.8028 -13.7731 -7.0211 -10.8302 36.8535 6.6095
# 6 -15.3228 -2.2657 -10.5399 -7.3133 6.6095 21.8855
#
#
#
# Elastic Compliance Matrix: (Units=1/GPa)
#
#
# Indices 1 2 3 4 5 6 
#
# 1 0.018001 -0.003686 -0.003164 0.001514 0.001831 0.010651
# 2 -0.003686 0.011923 -0.002150 -0.004299 0.002524 -0.004581
# 3 -0.003164 -0.002150 0.008449 -0.002221 -0.000987 0.001187
# 4 0.001514 -0.004299 -0.002221 0.035538 0.007199 0.009247
# 5 0.001831 0.002524 -0.000987 0.007199 0.031632 -0.006079
# 6 0.010651 -0.004581 0.001187 0.009247 -0.006079 0.058173
#
#
# Mechanical properties :
#
#
# Convention : Reuss Voigt Hill
#
# Bulk Modulus (GPa) = 49.08611 63.14447 56.11529
# Shear Modulus (GPa) = 26.52427 33.63075 30.07751
#
# Velocity S-wave (km/s) = 3.62274 4.07928 3.85777
# Velocity P-wave (km/s) = 6.46427 7.30967 6.89993
#
# Compressibility (1/GPa) = 0.02037236
#
# Stress axis : x y z
#
# Youngs Moduli (GPa) = 55.55153 83.87437 118.36111
#
# Poissons Ratio (x) = 0.30917 0.37445
# Poissons Ratio (y) = 0.20477 0.25452
# Poissons Ratio (z) = 0.17575 0.18036
#
# Static dielectric constant tensor:
#      x y z
#    x 1.779510 -0.014080 -0.022120 
#    y -0.014080 1.780730 -0.003640 
#    z -0.022120 -0.003640 1.722480 
# 
# From -- ./inp_files/343874.got.cif
#   From: 2010.05.17/outbox.cif.g08.bks.cpg/sg2_172_cif.got.tgz:343874.got - 2010.06.03 11:33:40.
