data_PCOD9105811
_publ_section_title
;
Structure prediction by ZEFSAII (Michael W. Deem and Ramdas Pophale) SiO2 
 PCOD9105811
Probable space group: P -1
;
_chemical_formula_sum "Si O2"
_cell_formula_units_Z 16
_cell_length_a 9.044367
_cell_length_b 19.608409
_cell_length_c 8.737252
_cell_angle_alpha 126.185444
_cell_angle_beta 79.474166
_cell_angle_gamma 59.243439
_cell_volume 768.882529
_symmetry_space_group_name_H-M "P -1"
_symmetry_group_IT_number 2
_symmetry_cell_setting 'triclinic'
loop_
_space_group_symop_operation_xyz
x,y,z
-x,-y,-z
loop_
_atom_site_type_symbol
_atom_site_label
_atom_site_fract_x
_atom_site_fract_y
_atom_site_fract_z
Si Si1 0.422908 0.935639 0.754591
Si Si2 0.133925 0.819925 0.871891
Si Si3 0.522298 0.901815 0.047875
Si Si4 0.660418 0.599120 0.983690
Si Si5 0.263396 0.860283 0.204809
Si Si6 0.918707 0.490848 0.344356
Si Si7 0.897787 0.360712 0.397292
Si Si8 0.460592 0.294545 0.542988
O O1 0.566044 0.788035 0.495951
O O2 0.523865 0.980956 0.737816
O O3 0.417976 0.940534 0.947505
O O4 0.151977 0.045693 0.894277
O O5 0.186854 0.698026 0.674141
O O6 0.264584 0.811779 0.698954
O O7 0.233510 0.813320 0.001521
O O8 0.407672 0.880784 0.149103
O O9 0.812297 0.765242 0.798882
O O10 0.418550 0.740955 0.141086
O O11 0.620428 0.604750 0.178445
O O12 0.763995 0.473710 0.703706
O O13 0.858018 0.586428 0.907605
O O14 0.000000 0.000000 0.500000
O O15 0.861544 0.422640 0.322895
O O16 0.693920 0.627429 0.478255
O O17 0.000000 0.500000 0.500000
#
# Coordination Sequence:
#
# PCOD9105811 Si02
#       8
#     2   2   2   2   2   2   2   2
#     4  10  21  39  65  95 124 170 218 260 318 386
#     4  11  24  41  67  91 134 170 213 269 324 392
#     4  10  21  41  69  91 126 171 216 264 314 390
#     4  11  24  39  65  95 132 166 218 269 313 391
#     4  12  25  43  66  96 130 172 212 267 332 382
#     4  10  20  39  66  88 126 170 215 262 311 385
#     4  10  22  44  67  97 122 177 220 257 325 382
#     4  12  23  38  64  99 131 170 214 268 325 376
#
# _framework density 20.809421
#
# number of rings (size 3 to 8) (size 9 to 14) (size 15 to 20)
#    0.000    1.250    2.500    4.500    1.750    2.500 
#    2.250    1.875    2.750    0.000    0.000    0.000 
#    0.000    0.000    0.000    0.000    0.000    0.000 
#
# Total GULP energy -89367.493891 kJ/mol
# GULP energy per Si atom -5585.468368 kJ/mol
# Density = 2.076206 g / cm^3
# Si number density = 20.809421 Si / 1000 Ang^3
#
#
#
# Elastic Constant Matrix: (Units=GPa)
#
#
# Indices 1 2 3 4 5 6 
#
# 1 102.4232 36.2960 38.7546 4.3694 13.5517 9.4801
# 2 36.2960 75.0005 18.5217 14.4413 12.6761 0.9158
# 3 38.7546 18.5217 86.5148 0.1377 10.0919 -2.0940
# 4 4.3694 14.4413 0.1377 34.3438 3.3419 2.2557
# 5 13.5517 12.6761 10.0919 3.3419 27.3784 13.7219
# 6 9.4801 0.9158 -2.0940 2.2557 13.7219 25.9428
#
#
#
# Elastic Compliance Matrix: (Units=1/GPa)
#
#
# Indices 1 2 3 4 5 6 
#
# 1 0.014265 -0.005755 -0.005332 0.000970 0.000298 -0.005682
# 2 -0.005755 0.018793 -0.000347 -0.006798 -0.008026 0.006248
# 3 -0.005332 -0.000347 0.014858 0.000932 -0.005897 0.006198
# 4 0.000970 -0.006798 0.000932 0.032049 -0.000234 -0.002702
# 5 0.000298 -0.008026 -0.005897 -0.000234 0.057745 -0.030824
# 6 -0.005682 0.006248 0.006198 -0.002702 -0.030824 0.057441
#
#
# Mechanical properties :
#
#
# Convention : Reuss Voigt Hill
#
# Bulk Modulus (GPa) = 39.92261 50.12036 45.02148
# Shear Modulus (GPa) = 22.08781 28.89075 25.48928
#
# Velocity S-wave (km/s) = 3.26150 3.73010 3.50364
# Velocity P-wave (km/s) = 5.78011 6.53370 6.16842
#
# Compressibility (1/GPa) = 0.02504846
#
# Stress axis : x y z
#
# Youngs Moduli (GPa) = 70.10007 53.21072 67.30399
#
# Poissons Ratio (x) = 0.30621 0.35887
# Poissons Ratio (y) = 0.40341 0.02337
# Poissons Ratio (z) = 0.37378 0.01848
#
# Static dielectric constant tensor:
#      x y z
#    x 1.762540 0.017620 0.011580 
#    y 0.017620 1.758850 0.016460 
#    z 0.011580 0.016460 1.759260 
# 
# From -- ./inp_files/224050.got.cif
#   From: 2010.05.17/outbox.cif.g08.bks.cpg/sg2_113_cif.got.tgz:224050.got - 2010.06.03 11:33:40.
