data_PCOD9105615
_publ_section_title
;
Structure prediction by ZEFSAII (Michael W. Deem and Ramdas Pophale) SiO2 
 PCOD9105615
Probable space group: P -1
;
_chemical_formula_sum "Si O2"
_cell_formula_units_Z 14
_cell_length_a 20.660885
_cell_length_b 23.328579
_cell_length_c 5.499414
_cell_angle_alpha 60.966356
_cell_angle_beta 116.987794
_cell_angle_gamma 164.142323
_cell_volume 632.325133
_symmetry_space_group_name_H-M "P -1"
_symmetry_group_IT_number 2
_symmetry_cell_setting 'triclinic'
loop_
_space_group_symop_operation_xyz
x,y,z
-x,-y,-z
loop_
_atom_site_type_symbol
_atom_site_label
_atom_site_fract_x
_atom_site_fract_y
_atom_site_fract_z
Si Si1 0.840179 0.426064 0.424141
Si Si2 0.389687 0.469449 0.986846
Si Si3 0.353650 0.527530 0.185583
Si Si4 0.033179 0.837247 0.338761
Si Si5 0.583387 0.770836 0.473268
Si Si6 0.431835 0.782789 0.127836
Si Si7 0.931290 0.238920 0.817198
O O1 0.677542 0.276868 0.696071
O O2 0.000000 0.500000 0.500000
O O3 0.008589 0.632905 0.352712
O O4 0.700350 0.319065 0.148815
O O5 0.112522 0.238059 0.924510
O O6 0.525414 0.651028 0.743550
O O7 0.500000 0.500000 0.000000
O O8 0.401201 0.495517 0.238144
O O9 0.178560 0.375134 0.427321
O O10 0.590411 0.763508 0.208985
O O11 0.188971 0.428058 0.931167
O O12 0.145465 0.873105 0.309981
O O13 0.194654 0.012776 0.444132
O O14 0.418736 0.694250 0.351601
O O15 0.710023 0.039214 0.034259
#
# Coordination Sequence:
#
# PCOD9105615 Si02
#       7
#     2   2   2   2   2   2   2
#     4  12  28  47  70 108 151 188 231 291 364 433
#     4  10  24  41  61  94 140 181 223 286 364 426
#     4  10  20  39  65  92 126 171 227 287 338 411
#     4  10  22  39  64  99 127 172 236 289 343 407
#     4  11  22  39  68  98 125 174 241 286 349 412
#     4  12  25  44  76 105 139 192 241 291 357 421
#     4  11  24  42  72  99 141 173 244 292 348 413
#
# _framework density 22.140509000000002
#
# number of rings (size 3 to 8) (size 9 to 14) (size 15 to 20)
#    0.000    1.143    2.857    3.857    2.000    4.000 
#    0.000    1.429    0.000    0.000    0.000    0.000 
#    0.000    0.000    0.000    0.000    0.000    0.000 
#
# Total GULP energy -77963.456602 kJ/mol
# GULP energy per Si atom -5568.818329 kJ/mol
# Density = 2.209012 g / cm^3
# Si number density = 22.140509 Si / 1000 Ang^3
#
#
#
# Elastic Constant Matrix: (Units=GPa)
#
#
# Indices 1 2 3 4 5 6 
#
# 1 194.3594 71.7860 30.0214 -6.7269 -10.3710 14.4559
# 2 71.7860 113.0588 41.8744 8.1144 -10.7188 -19.4730
# 3 30.0214 41.8744 58.8500 -5.5520 -16.6313 7.3374
# 4 -6.7269 8.1144 -5.5520 40.8178 -6.3386 -11.4130
# 5 -10.3710 -10.7188 -16.6313 -6.3386 34.5553 -4.0564
# 6 14.4559 -19.4730 7.3374 -11.4130 -4.0564 27.1467
#
#
#
# Elastic Compliance Matrix: (Units=1/GPa)
#
#
# Indices 1 2 3 4 5 6 
#
# 1 0.008804 -0.008887 0.003402 0.000423 0.000218 -0.011773
# 2 -0.008887 0.025664 -0.017264 -0.001304 -0.000056 0.027252
# 3 0.003402 -0.017264 0.033327 0.004594 0.010231 -0.019743
# 4 0.000423 -0.001304 0.004594 0.030048 0.008801 0.011546
# 5 0.000218 -0.000056 0.010231 0.008801 0.036253 0.006196
# 6 -0.011773 0.027252 -0.019743 0.011546 0.006196 0.073771
#
#
# Mechanical properties :
#
#
# Convention : Reuss Voigt Hill
#
# Bulk Modulus (GPa) = 44.84936 72.62574 58.73755
# Shear Modulus (GPa) = 19.17190 35.34306 27.25748
#
# Velocity S-wave (km/s) = 2.94584 3.99972 3.51253
# Velocity P-wave (km/s) = 5.64547 7.36232 6.56030
#
# Compressibility (1/GPa) = 0.02229686
#
# Stress axis : x y z
#
# Youngs Moduli (GPa) = 113.58423 38.96481 30.00535
#
# Poissons Ratio (x) = 0.34629 -0.10207
# Poissons Ratio (y) = 1.00946 0.51801
# Poissons Ratio (z) = -0.38640 0.67269
#
# Static dielectric constant tensor:
#      x y z
#    x 1.838440 -0.055790 -0.131060 
#    y -0.055790 1.942250 0.077700 
#    z -0.131060 0.077700 2.067690 
# 
# From -- ./inp_files/112356.got.cif
#   From: 2010.05.17/outbox.cif.g08.bks.cpg/sg2_57_cif.got.tgz:112356.got - 2010.06.03 11:33:40.
