data_PCOD9105532
_publ_section_title
;
Structure prediction by ZEFSAII (Michael W. Deem and Ramdas Pophale) SiO2 
 PCOD9105532
Probable space group: P -1
;
_chemical_formula_sum "Si O2"
_cell_formula_units_Z 16
_cell_length_a 6.511669
_cell_length_b 7.974484
_cell_length_c 18.494455
_cell_angle_alpha 110.964090
_cell_angle_beta 84.172399
_cell_angle_gamma 62.301008
_cell_volume 751.203495
_symmetry_space_group_name_H-M "P -1"
_symmetry_group_IT_number 2
_symmetry_cell_setting 'triclinic'
loop_
_space_group_symop_operation_xyz
x,y,z
-x,-y,-z
loop_
_atom_site_type_symbol
_atom_site_label
_atom_site_fract_x
_atom_site_fract_y
_atom_site_fract_z
Si Si1 0.790023 0.341719 0.455317
Si Si2 0.338100 0.912393 0.675595
Si Si3 0.180255 0.633280 0.878190
Si Si4 0.966941 0.604908 0.253522
Si Si5 0.689846 0.796476 0.009513
Si Si6 0.113018 0.483920 0.391556
Si Si7 0.687880 0.411511 0.890812
Si Si8 0.843334 0.990540 0.142229
O O1 0.500000 0.500000 0.500000
O O2 0.813080 0.141834 0.383111
O O3 0.904086 0.332095 0.528247
O O4 0.902062 0.444366 0.416517
O O5 0.625924 0.732709 0.633797
O O6 0.262162 0.151832 0.699443
O O7 0.255083 0.911694 0.760539
O O8 0.118453 0.547453 0.796057
O O9 0.435520 0.455974 0.876392
O O10 0.958841 0.704435 0.952017
O O11 0.199619 0.831410 0.885504
O O12 0.090273 0.536439 0.316419
O O13 0.155296 0.591461 0.184462
O O14 0.640036 0.609342 0.972421
O O15 0.707121 0.875779 0.100308
O O16 0.500000 0.000000 0.000000
O O17 0.868755 0.188211 0.888698
#
# Coordination Sequence:
#
# PCOD9105532 Si02
#       8
#     2   2   2   2   2   2   2   2
#     4   9  20  40  61  90 120 153 196 235 291 356
#     4  10  22  39  60  90 119 151 201 240 294 355
#     4  11  23  40  58  86 121 158 203 247 296 353
#     4  10  23  38  60  92 119 155 200 244 291 351
#     4  11  23  41  60  86 122 156 202 251 297 355
#     4  10  20  39  65  85 121 159 186 243 296 345
#     4  10  23  42  59  87 123 154 203 249 295 353
#     4  11  22  40  63  87 117 161 196 250 302 347
#
# _framework density 21.299157000000001
#
# number of rings (size 3 to 8) (size 9 to 14) (size 15 to 20)
#    0.000    1.750    1.250    2.250    1.750    5.000 
#    4.500    5.625    0.000    0.000    0.000    0.000 
#    0.000    0.000    0.000    0.000    0.000    0.000 
#
# Total GULP energy -89468.295641 kJ/mol
# GULP energy per Si atom -5591.768478 kJ/mol
# Density = 2.125068 g / cm^3
# Si number density = 21.299157 Si / 1000 Ang^3
#
#
#
# Elastic Constant Matrix: (Units=GPa)
#
#
# Indices 1 2 3 4 5 6 
#
# 1 72.9882 14.2073 20.8883 2.3379 2.4343 -13.2759
# 2 14.2073 65.1672 15.7445 -6.8578 -0.7658 -16.0740
# 3 20.8883 15.7445 123.2933 1.0332 22.4759 2.0025
# 4 2.3379 -6.8578 1.0332 25.2363 -5.8318 4.4770
# 5 2.4343 -0.7658 22.4759 -5.8318 27.1644 4.8886
# 6 -13.2759 -16.0740 2.0025 4.4770 4.8886 33.0251
#
#
#
# Elastic Compliance Matrix: (Units=1/GPa)
#
#
# Indices 1 2 3 4 5 6 
#
# 1 0.016016 -0.001722 -0.002307 -0.003326 -0.001442 0.006405
# 2 -0.001722 0.018774 -0.002737 0.004618 0.002571 0.007605
# 3 -0.002307 -0.002737 0.010530 -0.002825 -0.008976 -0.001186
# 4 -0.003326 0.004618 -0.002825 0.045788 0.013888 -0.007181
# 5 -0.001442 0.002571 -0.008976 0.013888 0.048844 -0.007897
# 6 0.006405 0.007605 -0.001186 -0.007181 -0.007897 0.038770
#
#
# Mechanical properties :
#
#
# Convention : Reuss Voigt Hill
#
# Bulk Modulus (GPa) = 31.45671 40.34764 35.90217
# Shear Modulus (GPa) = 24.64897 31.12573 27.88735
#
# Velocity S-wave (km/s) = 3.40556 3.82692 3.62237
# Velocity P-wave (km/s) = 5.50135 6.20577 5.86415
#
# Compressibility (1/GPa) = 0.03178972
#
# Stress axis : x y z
#
# Youngs Moduli (GPa) = 62.43873 53.26637 94.96414
#
# Poissons Ratio (x) = 0.09170 0.21907
# Poissons Ratio (y) = 0.10749 0.25987
# Poissons Ratio (z) = 0.14404 0.14577
#
# Static dielectric constant tensor:
#      x y z
#    x 1.759680 0.007930 0.007810 
#    y 0.007930 1.748810 0.017980 
#    z 0.007810 0.017980 1.794070 
# 
# From -- ./inp_files/45194.got.cif
#   From: 2010.05.17/outbox.cif.g08.bks.cpg/sg2_23_cif.got.tgz:45194.got - 2010.06.03 11:33:40.
