data_PCOD9105818
_publ_section_title
;
Structure prediction by ZEFSAII (Michael W. Deem and Ramdas Pophale) SiO2 
 PCOD9105818
Probable space group: P -1
;
_chemical_formula_sum "Si O2"
_cell_formula_units_Z 16
_cell_length_a 18.108894
_cell_length_b 15.199432
_cell_length_c 23.443445
_cell_angle_alpha 159.799015
_cell_angle_beta 19.664011
_cell_angle_gamma 150.254865
_cell_volume 743.085705
_symmetry_space_group_name_H-M "P -1"
_symmetry_group_IT_number 2
_symmetry_cell_setting 'triclinic'
loop_
_space_group_symop_operation_xyz
x,y,z
-x,-y,-z
loop_
_atom_site_type_symbol
_atom_site_label
_atom_site_fract_x
_atom_site_fract_y
_atom_site_fract_z
Si Si1 0.706193 0.282127 0.997125
Si Si2 0.423965 0.698442 0.092384
Si Si3 0.860786 0.233485 0.211240
Si Si4 0.339786 0.274386 0.611432
Si Si5 0.234106 0.750057 0.391762
Si Si6 0.197592 0.272705 0.364198
Si Si7 0.635014 0.741611 0.543676
Si Si8 0.056149 0.564207 0.191325
O O1 0.704051 0.455024 0.160488
O O2 0.451152 0.262452 0.154573
O O3 0.815363 0.424072 0.953774
O O4 0.818083 0.994257 0.753887
O O5 0.334393 0.719187 0.235306
O O6 0.218715 0.655090 0.175436
O O7 0.496363 0.971892 0.188193
O O8 0.615441 0.456930 0.805444
O O9 0.606140 0.197554 0.365417
O O10 0.852758 0.486873 0.410537
O O11 0.985638 0.295986 0.100880
O O12 0.000000 0.000000 0.000000
O O13 0.251086 0.291210 0.621686
O O14 0.250376 0.047491 0.573614
O O15 0.982051 0.701356 0.539335
O O16 0.500000 0.500000 0.500000
O O17 0.817983 0.731020 0.453814
#
# Coordination Sequence:
#
# PCOD9105818 Si02
#       8
#     2   2   2   2   2   2   2   2
#     4  10  24  41  64  95 130 173 212 257 318 387
#     4  10  22  36  61  94 124 156 212 266 319 373
#     4  11  23  39  66  94 126 166 213 266 320 378
#     4  10  22  42  60  93 132 165 211 258 320 383
#     4  10  20  39  66  89 121 169 213 260 318 374
#     4  10  22  41  65  91 124 176 214 254 318 384
#     4  11  23  36  62  97 128 157 210 275 317 363
#     4  12  23  40  65  95 127 166 213 268 318 374
#
# _framework density 21.531835999999998
#
# number of rings (size 3 to 8) (size 9 to 14) (size 15 to 20)
#    0.000    1.500    2.500    2.625    5.250    3.000 
#    0.000    6.250    0.000    0.000    0.000    0.000 
#    0.000    0.000    0.000    0.000    0.000    0.000 
#
# Total GULP energy -89410.233671 kJ/mol
# GULP energy per Si atom -5588.139604 kJ/mol
# Density = 2.148283 g / cm^3
# Si number density = 21.531836 Si / 1000 Ang^3
#
#
#
# Elastic Constant Matrix: (Units=GPa)
#
#
# Indices 1 2 3 4 5 6 
#
# 1 77.8906 40.6407 44.2244 15.1847 -29.6766 11.1216
# 2 40.6407 91.1542 38.4056 4.6855 -23.6229 6.2368
# 3 44.2244 38.4056 97.3749 21.2722 -29.5120 3.6223
# 4 15.1847 4.6855 21.2722 30.3552 -5.7499 -1.2249
# 5 -29.6766 -23.6229 -29.5120 -5.7499 29.9647 -1.5268
# 6 11.1216 6.2368 3.6223 -1.2249 -1.5268 44.7572
#
#
#
# Elastic Compliance Matrix: (Units=1/GPa)
#
#
# Indices 1 2 3 4 5 6 
#
# 1 0.025693 -0.005178 -0.002708 -0.007126 0.017072 -0.005056
# 2 -0.005178 0.015678 -0.003059 0.003210 0.004814 -0.000398
# 3 -0.002708 -0.003059 0.017899 -0.008668 0.010861 -0.000216
# 4 -0.007126 0.003210 -0.008668 0.041261 -0.004995 0.002984
# 5 0.017072 0.004814 0.010861 -0.004995 0.063623 -0.003758
# 6 -0.005056 -0.000398 -0.000216 0.002984 -0.003758 0.023626
#
#
# Mechanical properties :
#
#
# Convention : Reuss Voigt Hill
#
# Bulk Modulus (GPa) = 26.75159 56.99569 41.87364
# Shear Modulus (GPa) = 22.50928 30.55870 26.53399
#
# Velocity S-wave (km/s) = 3.23677 3.77136 3.51424
# Velocity P-wave (km/s) = 5.14004 6.74478 5.99634
#
# Compressibility (1/GPa) = 0.03738096
#
# Stress axis : x y z
#
# Youngs Moduli (GPa) = 38.92045 63.78480 55.86799
#
# Poissons Ratio (x) = 0.33027 0.15128
# Poissons Ratio (y) = 0.20152 0.17091
# Poissons Ratio (z) = 0.10539 0.19513
#
# Static dielectric constant tensor:
#      x y z
#    x 1.789920 0.006630 -0.001070 
#    y 0.006630 1.812130 -0.017590 
#    z -0.001070 -0.017590 1.780860 
# 
# From -- ./inp_files/383360.got.cif
#   From: 2010.05.17/outbox.cif.g08.bks.cpg/sg2_192_cif.got.tgz:383360.got - 2010.06.03 11:33:40.
