data_PCOD9105418
_publ_section_title
;
Structure prediction by ZEFSAII (Michael W. Deem and Ramdas Pophale) SiO2 
 PCOD9105418
Probable space group: P -1
;
_chemical_formula_sum "Si O2"
_cell_formula_units_Z 14
_cell_length_a 24.095125
_cell_length_b 8.164416
_cell_length_c 9.087753
_cell_angle_alpha 49.955725
_cell_angle_beta 142.364185
_cell_angle_gamma 144.558884
_cell_volume 633.021277
_symmetry_space_group_name_H-M "P -1"
_symmetry_group_IT_number 2
_symmetry_cell_setting 'triclinic'
loop_
_space_group_symop_operation_xyz
x,y,z
-x,-y,-z
loop_
_atom_site_type_symbol
_atom_site_label
_atom_site_fract_x
_atom_site_fract_y
_atom_site_fract_z
Si Si1 0.654194 0.824918 0.780276
Si Si2 0.480007 0.946395 0.662134
Si Si3 0.699835 0.697875 0.237085
Si Si4 0.862906 0.803094 0.757933
Si Si5 0.128791 0.601757 0.197084
Si Si6 0.709294 0.501945 0.898609
Si Si7 0.130780 0.305231 0.618475
O O1 0.588336 0.934718 0.516227
O O2 0.641806 0.597097 0.782704
O O3 0.791380 0.097920 0.882671
O O4 0.634896 0.767982 0.949676
O O5 0.611151 0.163366 0.884319
O O6 0.500000 0.000000 0.500000
O O7 0.399515 0.620456 0.726088
O O8 0.801471 0.888068 0.468951
O O9 0.776067 0.698380 0.270581
O O10 0.861021 0.590662 0.772853
O O11 0.764780 0.639161 0.776837
O O12 0.000000 0.000000 0.000000
O O13 0.152805 0.564419 0.435282
O O14 0.000000 0.500000 0.000000
O O15 0.826348 0.621351 0.168460
O O16 0.000000 0.000000 0.500000
#
# Coordination Sequence:
#
# PCOD9105418 Si02
#       7
#     2   2   2   2   2   2   2
#     4  11  23  42  66  96 126 170 223 260 329 389
#     4  12  23  46  65  93 137 170 219 270 322 385
#     4  10  22  42  67  90 132 175 210 268 331 375
#     4  11  21  41  65  94 132 169 213 275 328 380
#     4  11  21  40  64  94 135 170 213 271 322 390
#     4  11  23  40  67  97 124 173 220 267 325 388
#     4  10  20  39  64  94 127 169 212 264 325 378
#
# _framework density 22.116161999999999
#
# number of rings (size 3 to 8) (size 9 to 14) (size 15 to 20)
#    0.000    1.143    4.286    4.714    0.000    2.857 
#    2.571    5.714    0.000    0.000    0.000    0.000 
#    0.000    0.000    0.000    0.000    0.000    0.000 
#
# Total GULP energy -77954.475112 kJ/mol
# GULP energy per Si atom -5568.176794 kJ/mol
# Density = 2.206582 g / cm^3
# Si number density = 22.116162 Si / 1000 Ang^3
#
#
#
# Elastic Constant Matrix: (Units=GPa)
#
#
# Indices 1 2 3 4 5 6 
#
# 1 68.7011 5.7407 2.6611 -1.8847 -9.2903 17.4695
# 2 5.7407 119.4515 23.4542 10.8237 -7.7359 23.4311
# 3 2.6611 23.4542 77.1899 -4.4705 -11.7231 10.4010
# 4 -1.8847 10.8237 -4.4705 44.4421 6.5269 -4.3650
# 5 -9.2903 -7.7359 -11.7231 6.5269 29.8710 -1.9612
# 6 17.4695 23.4311 10.4010 -4.3650 -1.9612 31.5658
#
#
#
# Elastic Compliance Matrix: (Units=1/GPa)
#
#
# Indices 1 2 3 4 5 6 
#
# 1 0.018077 0.001676 0.001258 -0.001545 0.006133 -0.011496
# 2 0.001676 0.010967 -0.002003 -0.004090 0.002892 -0.008795
# 3 0.001258 -0.002003 0.014865 0.000904 0.005269 -0.003656
# 4 -0.001545 -0.004090 0.000904 0.025093 -0.006230 0.006676
# 5 0.006133 0.002892 0.005269 -0.006230 0.039188 -0.005704
# 6 -0.011496 -0.008795 -0.003656 0.006676 -0.005704 0.046344
#
#
# Mechanical properties :
#
#
# Convention : Reuss Voigt Hill
#
# Bulk Modulus (GPa) = 21.84656 36.56162 29.20409
# Shear Modulus (GPa) = 29.77444 36.74155 33.25800
#
# Velocity S-wave (km/s) = 3.67314 4.08032 3.88208
# Velocity P-wave (km/s) = 5.28099 6.22626 5.77300
#
# Compressibility (1/GPa) = 0.04577380
#
# Stress axis : x y z
#
# Youngs Moduli (GPa) = 55.31823 91.18032 67.27025
#
# Poissons Ratio (x) = -0.15285 -0.08466
# Poissons Ratio (y) = -0.09273 0.13473
# Poissons Ratio (z) = -0.06962 0.18262
#
# Static dielectric constant tensor:
#      x y z
#    x 1.808320 -0.002250 -0.003930 
#    y -0.002250 2.039680 -0.243720 
#    z -0.003930 -0.243720 2.260930 
# 
# From -- ./inp_files/178603.got.cif
#   From: 2010.05.17/outbox.cif.g08.bks.cpg/sg2_90_cif.got.tgz:178603.got - 2010.06.03 11:33:40.
