data_PCOD9105691
_publ_section_title
;
Structure prediction by ZEFSAII (Michael W. Deem and Ramdas Pophale) SiO2 
 PCOD9105691
Probable space group: P -1
;
_chemical_formula_sum "Si O2"
_cell_formula_units_Z 14
_cell_length_a 13.186757
_cell_length_b 16.438905
_cell_length_c 10.479601
_cell_angle_alpha 33.071241
_cell_angle_beta 33.471348
_cell_angle_gamma 40.548421
_cell_volume 669.571109
_symmetry_space_group_name_H-M "P -1"
_symmetry_group_IT_number 2
_symmetry_cell_setting 'triclinic'
loop_
_space_group_symop_operation_xyz
x,y,z
-x,-y,-z
loop_
_atom_site_type_symbol
_atom_site_label
_atom_site_fract_x
_atom_site_fract_y
_atom_site_fract_z
Si Si1 0.369683 0.293997 0.438692
Si Si2 0.306385 0.613804 0.180031
Si Si3 0.417196 0.523959 0.698166
Si Si4 0.460197 0.182152 0.772384
Si Si5 0.280439 0.048753 0.695182
Si Si6 0.151750 0.352895 0.073742
Si Si7 0.028083 0.854434 0.301687
O O1 0.268349 0.465273 0.346911
O O2 0.402559 0.204764 0.654937
O O3 0.257790 0.212958 0.564290
O O4 0.568915 0.305209 0.150784
O O5 0.436335 0.552093 0.247526
O O6 0.122601 0.722960 0.278364
O O7 0.500000 0.500000 0.500000
O O8 0.384269 0.707518 0.517218
O O9 0.258784 0.421350 0.987661
O O10 0.295117 0.273305 0.918403
O O11 0.500000 0.000000 0.000000
O O12 0.155352 0.048032 0.701731
O O13 0.500000 0.000000 0.500000
O O14 0.194258 0.946234 0.021227
O O15 0.039921 0.225562 0.401887
O O16 0.000000 0.500000 0.000000
#
# Coordination Sequence:
#
# PCOD9105691 Si02
#       7
#     2   2   2   2   2   2   2
#     4  10  21  39  63  89 130 164 207 266 320 383
#     4  10  20  39  65  95 120 165 217 263 318 375
#     4   9  19  38  64  89 124 172 210 258 317 380
#     4  10  23  39  63  92 126 174 213 260 331 383
#     4  11  24  41  64  95 129 169 206 267 331 381
#     4  11  23  41  63  94 132 167 223 267 307 390
#     4  11  24  40  67  97 124 163 226 260 314 394
#
# _framework density 20.908906000000002
#
# number of rings (size 3 to 8) (size 9 to 14) (size 15 to 20)
#    0.000    1.714    1.429    3.429    2.000    2.857 
#    0.000    8.571    0.000    0.000    0.000    0.000 
#    0.000    0.000    0.000    0.000    0.000    0.000 
#
# Total GULP energy -78043.816705 kJ/mol
# GULP energy per Si atom -5574.558336 kJ/mol
# Density = 2.086132 g / cm^3
# Si number density = 20.908906 Si / 1000 Ang^3
#
#
#
# Elastic Constant Matrix: (Units=GPa)
#
#
# Indices 1 2 3 4 5 6 
#
# 1 48.1723 34.3745 30.1344 -12.8044 -8.4168 2.0187
# 2 34.3745 92.4152 36.6970 -0.6185 -0.7979 -2.3401
# 3 30.1344 36.6970 131.6816 -13.4397 8.2384 -7.0987
# 4 -12.8044 -0.6185 -13.4397 28.8686 2.8483 -3.8876
# 5 -8.4168 -0.7979 8.2384 2.8483 37.6753 -3.5157
# 6 2.0187 -2.3401 -7.0987 -3.8876 -3.5157 25.3843
#
#
#
# Elastic Compliance Matrix: (Units=1/GPa)
#
#
# Indices 1 2 3 4 5 6 
#
# 1 0.036894 -0.011872 -0.004413 0.012993 0.007768 -0.002197
# 2 -0.011872 0.016091 -0.002229 -0.005728 -0.001322 0.000744
# 3 -0.004413 -0.002229 0.009925 0.003332 -0.003176 0.002991
# 4 0.012993 -0.005728 0.003332 0.042677 -0.000631 0.005819
# 5 0.007768 -0.001322 -0.003176 -0.000631 0.029209 0.002321
# 6 -0.002197 0.000744 0.002991 0.005819 0.002321 0.041687
#
#
# Mechanical properties :
#
#
# Convention : Reuss Voigt Hill
#
# Bulk Modulus (GPa) = 38.63736 52.74232 45.68984
# Shear Modulus (GPa) = 22.50847 29.78987 26.14917
#
# Velocity S-wave (km/s) = 3.28457 3.77867 3.54025
# Velocity P-wave (km/s) = 5.73616 6.65713 6.21373
#
# Compressibility (1/GPa) = 0.02588168
#
# Stress axis : x y z
#
# Youngs Moduli (GPa) = 27.10463 62.14641 100.75427
#
# Poissons Ratio (x) = 0.73783 0.44460
# Poissons Ratio (y) = 0.32180 0.22460
# Poissons Ratio (z) = 0.11960 0.13854
#
# Static dielectric constant tensor:
#      x y z
#    x 1.774780 -0.015150 -0.027830 
#    y -0.015150 1.735630 -0.020770 
#    z -0.027830 -0.020770 1.853770 
# 
# From -- ./inp_files/456310.got.cif
#   From: 2010.05.17/outbox.cif.g08.bks.cpg/sg2_229_cif.got.tgz:456310.got - 2010.06.03 11:33:40.
