data_PCOD9105208
_publ_section_title
;
Structure prediction by ZEFSAII (Michael W. Deem and Ramdas Pophale) SiO2 
 PCOD9105208
Probable space group: P -1
;
_chemical_formula_sum "Si O2"
_cell_formula_units_Z 15
_cell_length_a 5.682360
_cell_length_b 24.958280
_cell_length_c 5.173484
_cell_angle_alpha 119.701433
_cell_angle_beta 90.329451
_cell_angle_gamma 94.064382
_cell_volume 635.007162
_symmetry_space_group_name_H-M "P -1"
_symmetry_group_IT_number 2
_symmetry_cell_setting 'triclinic'
loop_
_space_group_symop_operation_xyz
x,y,z
-x,-y,-z
loop_
_atom_site_type_symbol
_atom_site_label
_atom_site_fract_x
_atom_site_fract_y
_atom_site_fract_z
Si Si1 0.303454 0.119549 0.806600
Si Si2 0.336319 0.687596 0.320964
Si Si3 0.785991 0.488821 0.677813
Si Si4 0.499594 0.826619 0.568485
Si Si5 0.650956 0.052501 0.968668
Si Si6 0.924577 0.601541 0.237964
Si Si7 0.453324 0.371880 0.313088
Si Si8 0.000000 0.000000 0.500000
O O1 0.388315 0.166528 0.696003
O O2 0.497549 0.069738 0.756098
O O3 0.084237 0.074067 0.610678
O O4 0.304533 0.155938 0.165049
O O5 0.366181 0.760989 0.469532
O O6 0.420235 0.666275 0.552556
O O7 0.067723 0.657033 0.220578
O O8 0.497716 0.661065 0.034279
O O9 0.570702 0.442618 0.466572
O O10 0.000000 0.500000 0.500000
O O11 0.881116 0.445066 0.796773
O O12 0.745883 0.555051 0.961144
O O13 0.331111 0.882801 0.727680
O O14 0.883278 0.024033 0.817469
O O15 0.500000 0.000000 0.000000
O O16 0.803571 0.623813 0.550509
#
# Coordination Sequence:
#
# PCOD9105208 Si02
#       8
#     2   2   2   2   2   2   2   1
#     4  10  23  41  64  95 124 160 202 261 311 378
#     4  11  24  45  61  89 128 174 211 262 307 378
#     4  10  20  39  63  96 132 162 209 271 320 369
#     4  10  23  45  61  86 138 160 206 267 309 370
#     4  10  23  41  63  94 127 157 204 260 313 376
#     4  10  23  40  63  96 127 168 215 262 321 371
#     4  11  24  40  69  91 127 170 216 263 314 370
#     4  12  20  40  70  92 122 160 200 254 326 370
#
# _framework density 23.621780999999999
#
# number of rings (size 3 to 8) (size 9 to 14) (size 15 to 20)
#    0.800    0.800    2.667    1.600    1.867    2.667 
#    4.800    0.000    0.000    0.000    0.000    0.000 
#    0.000    0.000    0.000    0.000    0.000    0.000 
#
# Total GULP energy -83502.758639 kJ/mol
# GULP energy per Si atom -5566.850576 kJ/mol
# Density = 2.356802 g / cm^3
# Si number density = 23.621781 Si / 1000 Ang^3
#
#
#
# Elastic Constant Matrix: (Units=GPa)
#
#
# Indices 1 2 3 4 5 6 
#
# 1 30.4207 26.0259 15.8448 5.8966 -10.8717 3.1481
# 2 26.0259 189.7093 45.3928 25.1598 10.9446 16.4612
# 3 15.8448 45.3928 86.3377 11.6923 -7.3055 -3.8931
# 4 5.8966 25.1598 11.6923 53.4099 5.3321 7.4649
# 5 -10.8717 10.9446 -7.3055 5.3321 22.1194 -9.1382
# 6 3.1481 16.4612 -3.8931 7.4649 -9.1382 27.1647
#
#
#
# Elastic Compliance Matrix: (Units=1/GPa)
#
#
# Indices 1 2 3 4 5 6 
#
# 1 0.056463 -0.010665 0.000561 -0.007765 0.041773 0.016186
# 2 -0.010665 0.009823 -0.005272 0.000971 -0.016780 -0.011384
# 3 0.000561 -0.005272 0.016520 -0.004187 0.014048 0.011374
# 4 -0.007765 0.000971 -0.004187 0.023381 -0.016364 -0.012218
# 5 0.041773 -0.016780 0.014048 -0.016364 0.101645 0.046031
# 6 0.016186 -0.011384 0.011374 -0.012218 0.046031 0.062307
#
#
# Mechanical properties :
#
#
# Convention : Reuss Voigt Hill
#
# Bulk Modulus (GPa) = 19.21061 53.44385 36.32723
# Shear Modulus (GPa) = 15.71130 35.15241 25.43185
#
# Velocity S-wave (km/s) = 2.58179 3.86182 3.28476
# Velocity P-wave (km/s) = 4.12768 6.52371 5.45878
#
# Compressibility (1/GPa) = 0.05205457
#
# Stress axis : x y z
#
# Youngs Moduli (GPa) = 17.71063 101.80349 60.53350
#
# Poissons Ratio (x) = 1.08572 -0.03396
# Poissons Ratio (y) = 0.18888 0.31912
# Poissons Ratio (z) = -0.00994 0.53669
#
# Static dielectric constant tensor:
#      x y z
#    x 2.092170 -0.039840 0.083890 
#    y -0.039840 1.834080 -0.021470 
#    z 0.083890 -0.021470 1.934920 
# 
# From -- ./inp_files/14230.got.cif
#   From: 2010.05.17/outbox.cif.g08.bks.cpg/sg2_8_cif.got.tgz:14230.got - 2010.06.03 11:33:40.
