data_PCOD9105706
_publ_section_title
;
Structure prediction by ZEFSAII (Michael W. Deem and Ramdas Pophale) SiO2 
 PCOD9105706
Probable space group: P -1
;
_chemical_formula_sum "Si O2"
_cell_formula_units_Z 16
_cell_length_a 16.172234
_cell_length_b 10.568192
_cell_length_c 12.319911
_cell_angle_alpha 51.851563
_cell_angle_beta 50.476771
_cell_angle_gamma 24.248620
_cell_volume 662.374153
_symmetry_space_group_name_H-M "P -1"
_symmetry_group_IT_number 2
_symmetry_cell_setting 'triclinic'
loop_
_space_group_symop_operation_xyz
x,y,z
-x,-y,-z
loop_
_atom_site_type_symbol
_atom_site_label
_atom_site_fract_x
_atom_site_fract_y
_atom_site_fract_z
Si Si1 0.348338 0.745753 0.399543
Si Si2 0.003875 0.902329 0.931919
Si Si3 0.069412 0.310287 0.775300
Si Si4 0.539307 0.756572 0.099021
Si Si5 0.587885 0.567377 0.911604
Si Si6 0.731321 0.707989 0.663552
Si Si7 0.096849 0.609269 0.531696
Si Si8 0.525799 0.225774 0.424066
O O1 0.500000 0.500000 0.500000
O O2 0.382424 0.876536 0.250075
O O3 0.429972 0.523030 0.357072
O O4 0.109229 0.022085 0.481433
O O5 0.933098 0.810220 0.060642
O O6 0.234050 0.588321 0.863424
O O7 0.825456 0.230426 0.849741
O O8 0.000000 0.000000 0.000000
O O9 0.069196 0.498727 0.697994
O O10 0.870324 0.525570 0.752169
O O11 0.281078 0.009383 0.692644
O O12 0.541313 0.674576 0.019831
O O13 0.500000 0.000000 0.000000
O O14 0.563977 0.776645 0.768324
O O15 0.500000 0.500000 0.000000
O O16 0.892373 0.478750 0.551257
O O17 0.616572 0.021478 0.563989
O O18 0.325925 0.380448 0.476812
#
# Coordination Sequence:
#
# PCOD9105706 Si02
#       8
#     2   2   2   2   2   2   2   2
#     4  12  26  43  70  95 139 182 232 272 342 419
#     4  10  20  39  65  95 130 172 227 278 335 408
#     4  11  19  39  65  94 126 169 230 275 335 399
#     4  11  25  47  72 101 139 182 228 284 345 411
#     4  11  26  42  71 103 136 177 232 289 347 406
#     4  11  22  40  69  94 133 173 236 280 338 408
#     4  11  25  39  62  97 134 176 218 288 342 404
#     4  11  24  40  63  97 134 175 221 287 345 397
#
# _framework density 24.155532999999998
#
# number of rings (size 3 to 8) (size 9 to 14) (size 15 to 20)
#    0.000    1.000    2.500    7.125    8.750    0.000 
#    0.000    0.625    0.000    0.000    0.000    0.000 
#    0.000    0.000    0.000    0.000    0.000    0.000 
#
# Total GULP energy -89276.767231 kJ/mol
# GULP energy per Si atom -5579.797952 kJ/mol
# Density = 2.410055 g / cm^3
# Si number density = 24.155533 Si / 1000 Ang^3
#
#
#
# Elastic Constant Matrix: (Units=GPa)
#
#
# Indices 1 2 3 4 5 6 
#
# 1 70.1743 33.6116 19.1701 3.1038 -22.8085 -2.7178
# 2 33.6116 148.7986 4.9530 13.4678 7.9267 11.0393
# 3 19.1701 4.9530 94.6490 1.9796 -15.9884 1.1908
# 4 3.1038 13.4678 1.9796 37.4151 -0.6100 -6.2197
# 5 -22.8085 7.9267 -15.9884 -0.6100 31.5690 -2.6496
# 6 -2.7178 11.0393 1.1908 -6.2197 -2.6496 25.8788
#
#
#
# Elastic Compliance Matrix: (Units=1/GPa)
#
#
# Indices 1 2 3 4 5 6 
#
# 1 0.024936 -0.007499 -0.001450 0.002448 0.019927 0.008513
# 2 -0.007499 0.009768 -0.000284 -0.004155 -0.008668 -0.006828
# 3 -0.001450 -0.000284 0.011717 -0.000341 0.004939 -0.000147
# 4 0.002448 -0.004155 -0.000341 0.029698 0.004018 0.009594
# 5 0.019927 -0.008668 0.004939 0.004018 0.051822 0.011834
# 6 0.008513 -0.006828 -0.000147 0.009594 0.011834 0.045973
#
#
# Mechanical properties :
#
#
# Convention : Reuss Voigt Hill
#
# Bulk Modulus (GPa) = 35.77117 47.67680 41.72398
# Shear Modulus (GPa) = 24.78931 36.03173 30.41052
#
# Velocity S-wave (km/s) = 3.20697 3.86639 3.55201
# Velocity P-wave (km/s) = 5.34357 6.30176 5.84234
#
# Compressibility (1/GPa) = 0.02795547
#
# Stress axis : x y z
#
# Youngs Moduli (GPa) = 40.10192 102.37220 85.34460
#
# Poissons Ratio (x) = 0.76770 0.12378
# Poissons Ratio (y) = 0.30073 0.02421
# Poissons Ratio (z) = 0.05816 0.02904
#
# Static dielectric constant tensor:
#      x y z
#    x 2.172500 -0.052290 -0.023240 
#    y -0.052290 1.930530 -0.038450 
#    z -0.023240 -0.038450 1.981910 
# 
# From -- ./inp_files/538413.got.cif
#   From: 2010.05.17/outbox.cif.g08.bks.cpg/sg2_270_cif.got.tgz:538413.got - 2010.06.03 11:33:40.
