data_PCOD9105413
_publ_section_title
;
Structure prediction by ZEFSAII (Michael W. Deem and Ramdas Pophale) SiO2 
 PCOD9105413
Probable space group: P -1
;
_chemical_formula_sum "Si O2"
_cell_formula_units_Z 14
_cell_length_a 8.194637
_cell_length_b 12.502338
_cell_length_c 12.423224
_cell_angle_alpha 70.384182
_cell_angle_beta 133.237946
_cell_angle_gamma 130.600318
_cell_volume 689.940950
_symmetry_space_group_name_H-M "P -1"
_symmetry_group_IT_number 2
_symmetry_cell_setting 'triclinic'
loop_
_space_group_symop_operation_xyz
x,y,z
-x,-y,-z
loop_
_atom_site_type_symbol
_atom_site_label
_atom_site_fract_x
_atom_site_fract_y
_atom_site_fract_z
Si Si1 0.800729 0.195745 0.357412
Si Si2 0.844742 0.850521 0.338599
Si Si3 0.803373 0.774037 0.914539
Si Si4 0.816273 0.450430 0.325799
Si Si5 0.119737 0.280720 0.804058
Si Si6 0.551649 0.059797 0.882151
Si Si7 0.286675 0.029395 0.310092
O O1 0.867196 0.348438 0.318976
O O2 0.620997 0.142263 0.407375
O O3 0.057658 0.190614 0.500018
O O4 0.590802 0.078373 0.213929
O O5 0.753534 0.732618 0.244114
O O6 0.614127 0.875456 0.239121
O O7 0.125308 0.996324 0.360929
O O8 0.521206 0.647468 0.767123
O O9 0.834737 0.914707 0.845946
O O10 0.728991 0.723096 0.021651
O O11 0.111520 0.818182 0.018909
O O12 0.889192 0.587806 0.249400
O O13 0.000000 0.500000 0.500000
O O14 0.811758 0.125278 0.720284
O O15 0.500000 0.000000 0.000000
#
# Coordination Sequence:
#
# PCOD9105413 Si02
#       7
#     2   2   2   2   2   2   2
#     4  11  22  39  65  90 124 162 207 262 305 354
#     4  10  21  35  64  90 125 156 202 251 315 363
#     4  11  22  39  63  95 124 159 209 262 305 360
#     4  11  23  41  66  92 125 159 209 259 308 369
#     4  10  20  39  64  94 121 156 210 256 311 354
#     4  12  23  40  62  95 128 163 205 255 309 368
#     4   9  19  34  66  90 117 148 219 259 301 343
#
# _framework density 20.291592000000001
#
# number of rings (size 3 to 8) (size 9 to 14) (size 15 to 20)
#    0.857    0.571    4.286    1.714    6.000    0.000 
#    0.000    0.714    0.000    1.714    0.000    0.000 
#    0.000    0.000    0.000    0.000    0.000    0.000 
#
# Total GULP energy -77986.547315 kJ/mol
# GULP energy per Si atom -5570.467665 kJ/mol
# Density = 2.024541 g / cm^3
# Si number density = 20.291592 Si / 1000 Ang^3
#
#
#
# Elastic Constant Matrix: (Units=GPa)
#
#
# Indices 1 2 3 4 5 6 
#
# 1 40.2251 18.0090 29.3839 -2.4755 6.2714 -9.3805
# 2 18.0090 142.2462 38.0622 -22.1600 5.1212 -15.3993
# 3 29.3839 38.0622 103.3933 -10.3118 6.1992 -6.3654
# 4 -2.4755 -22.1600 -10.3118 36.5472 -7.8052 4.7863
# 5 6.2714 5.1212 6.1992 -7.8052 34.0468 -4.9169
# 6 -9.3805 -15.3993 -6.3654 4.7863 -4.9169 21.7421
#
#
#
# Elastic Compliance Matrix: (Units=1/GPa)
#
#
# Indices 1 2 3 4 5 6 
#
# 1 0.034936 -0.001155 -0.008886 -0.003139 -0.003701 0.011507
# 2 -0.001155 0.008905 -0.002306 0.004289 0.000911 0.004395
# 3 -0.008886 -0.002306 0.013124 0.001921 -0.000270 -0.002109
# 4 -0.003139 0.004289 0.001921 0.032112 0.006459 -0.003362
# 5 -0.003701 0.000911 -0.000270 0.006459 0.032141 0.004816
# 6 0.011507 0.004395 -0.002109 -0.003362 0.004816 0.055283
#
#
# Mechanical properties :
#
#
# Convention : Reuss Voigt Hill
#
# Bulk Modulus (GPa) = 30.98868 50.75276 40.87072
# Shear Modulus (GPa) = 23.59022 31.82785 27.70903
#
# Velocity S-wave (km/s) = 3.41333 3.96476 3.69933
# Velocity P-wave (km/s) = 5.55332 6.78418 6.19937
#
# Compressibility (1/GPa) = 0.03226985
#
# Stress axis : x y z
#
# Youngs Moduli (GPa) = 28.62402 112.30166 76.19601
#
# Poissons Ratio (x) = 0.12974 0.67708
# Poissons Ratio (y) = 0.03307 0.17571
# Poissons Ratio (z) = 0.25435 0.25897
#
# Static dielectric constant tensor:
#      x y z
#    x 1.754560 0.005230 -0.017580 
#    y 0.005230 1.748860 -0.002650 
#    z -0.017580 -0.002650 1.781860 
# 
# From -- ./inp_files/469193.got.cif
#   From: 2010.05.17/outbox.cif.g08.bks.cpg/sg2_235_cif.got.tgz:469193.got - 2010.06.03 11:33:40.
