data_PCOD9105366
_publ_section_title
;
Structure prediction by ZEFSAII (Michael W. Deem and Ramdas Pophale) SiO2 
 PCOD9105366
Probable space group: P -1
;
_chemical_formula_sum "Si O2"
_cell_formula_units_Z 16
_cell_length_a 8.381396
_cell_length_b 19.217202
_cell_length_c 16.962993
_cell_angle_alpha 21.298766
_cell_angle_beta 50.490081
_cell_angle_gamma 60.738607
_cell_volume 711.022984
_symmetry_space_group_name_H-M "P -1"
_symmetry_group_IT_number 2
_symmetry_cell_setting 'triclinic'
loop_
_space_group_symop_operation_xyz
x,y,z
-x,-y,-z
loop_
_atom_site_type_symbol
_atom_site_label
_atom_site_fract_x
_atom_site_fract_y
_atom_site_fract_z
Si Si1 0.840256 0.556319 0.050957
Si Si2 0.649270 0.423872 0.421002
Si Si3 0.134276 0.915347 0.665420
Si Si4 0.737097 0.883438 0.935551
Si Si5 0.506241 0.272789 0.228148
Si Si6 0.104935 0.789282 0.326315
Si Si7 0.347227 0.028214 0.859151
Si Si8 0.631538 0.740096 0.545856
O O1 0.801853 0.466684 0.247782
O O2 0.591388 0.451367 0.205914
O O3 0.000000 0.500000 0.000000
O O4 0.973259 0.798607 0.768045
O O5 0.758936 0.341136 0.543908
O O6 0.422035 0.246163 0.652124
O O7 0.633281 0.637030 0.227039
O O8 0.263065 0.763877 0.812199
O O9 0.965129 0.942438 0.753630
O O10 0.332802 0.136609 0.361638
O O11 0.798772 0.998893 0.877230
O O12 0.563329 0.966503 0.861601
O O13 0.414044 0.178111 0.442812
O O14 0.500000 0.500000 0.000000
O O15 0.846389 0.678971 0.544012
O O16 0.155299 0.854317 0.151093
O O17 0.309938 0.080457 0.727090
#
# Coordination Sequence:
#
# PCOD9105366 Si02
#       8
#     2   2   2   2   2   2   2   2
#     4  10  20  39  64  91 134 172 204 265 330 385
#     4   9  21  38  67  93 128 166 227 263 325 392
#     4  10  22  42  65  97 129 174 222 255 329 399
#     4  10  20  39  67  94 127 169 221 270 317 399
#     4  11  24  41  70  99 131 172 218 270 326 397
#     4  11  22  40  66  93 126 179 218 274 326 382
#     4  10  23  41  63  91 133 172 218 271 337 379
#     4  11  23  41  65  96 135 169 216 273 329 387
#
# _framework density 22.502787999999999
#
# number of rings (size 3 to 8) (size 9 to 14) (size 15 to 20)
#    0.000    1.750    2.500    1.875    3.500    3.000 
#    0.000   12.500    0.000    9.000    0.000    0.000 
#    0.000    0.000    0.000    0.000    0.000    0.000 
#
# Total GULP energy -89327.242770 kJ/mol
# GULP energy per Si atom -5582.952673 kJ/mol
# Density = 2.245157 g / cm^3
# Si number density = 22.502788 Si / 1000 Ang^3
#
#
#
# Elastic Constant Matrix: (Units=GPa)
#
#
# Indices 1 2 3 4 5 6 
#
# 1 48.4325 16.6626 9.1584 3.2445 -7.5128 7.7580
# 2 16.6626 70.7201 17.2572 -8.1095 10.7573 -8.2589
# 3 9.1584 17.2572 60.2550 -20.7244 0.6394 3.9013
# 4 3.2445 -8.1095 -20.7244 43.4929 2.5398 -2.8688
# 5 -7.5128 10.7573 0.6394 2.5398 35.6419 7.4233
# 6 7.7580 -8.2589 3.9013 -2.8688 7.4233 31.5467
#
#
#
# Elastic Compliance Matrix: (Units=1/GPa)
#
#
# Indices 1 2 3 4 5 6 
#
# 1 0.029441 -0.010452 -0.003278 -0.007320 0.012695 -0.013224
# 2 -0.010452 0.021029 -0.003539 0.004431 -0.011208 0.011554
# 3 -0.003278 -0.003539 0.021590 0.009771 -0.000326 -0.001825
# 4 -0.007320 0.004431 0.009771 0.029789 -0.006422 0.005972
# 5 0.012695 -0.011208 -0.000326 -0.006422 0.037807 -0.015496
# 6 -0.013224 0.011554 -0.001825 0.005972 -0.015496 0.042391
#
#
# Mechanical properties :
#
#
# Convention : Reuss Voigt Hill
#
# Bulk Modulus (GPa) = 26.65069 29.50710 28.07890
# Shear Modulus (GPa) = 21.82531 31.22493 26.52512
#
# Velocity S-wave (km/s) = 3.11769 3.72909 3.43701
# Velocity P-wave (km/s) = 4.98287 5.62873 5.31562
#
# Compressibility (1/GPa) = 0.03752248
#
# Stress axis : x y z
#
# Youngs Moduli (GPa) = 33.96656 47.55407 46.31695
#
# Poissons Ratio (x) = 0.49701 0.15182
# Poissons Ratio (y) = 0.35500 0.16393
# Poissons Ratio (z) = 0.11134 0.16831
#
# Static dielectric constant tensor:
#      x y z
#    x 1.843680 0.022980 0.010630 
#    y 0.022980 1.825560 0.027840 
#    z 0.010630 0.027840 1.894560 
# 
# From -- ./inp_files/562517.got.cif
#   From: 2010.05.17/outbox.cif.g08.bks.cpg/sg2_282_cif.got.tgz:562517.got - 2010.06.03 11:33:40.
