data_PCOD9105986
_publ_section_title
;
Structure prediction by ZEFSAII (Michael W. Deem and Ramdas Pophale) SiO2 
 PCOD9105986
Probable space group: P -1
;
_chemical_formula_sum "Si O2"
_cell_formula_units_Z 16
_cell_length_a 16.979652
_cell_length_b 8.734834
_cell_length_c 8.687331
_cell_angle_alpha 106.895206
_cell_angle_beta 127.134289
_cell_angle_gamma 109.457688
_cell_volume 732.559321
_symmetry_space_group_name_H-M "P -1"
_symmetry_group_IT_number 2
_symmetry_cell_setting 'triclinic'
loop_
_space_group_symop_operation_xyz
x,y,z
-x,-y,-z
loop_
_atom_site_type_symbol
_atom_site_label
_atom_site_fract_x
_atom_site_fract_y
_atom_site_fract_z
Si Si1 0.139951 0.085750 0.867087
Si Si2 0.679762 0.265539 0.237103
Si Si3 0.048869 0.375119 0.486750
Si Si4 0.044863 0.313986 0.816360
Si Si5 0.543434 0.795567 0.245221
Si Si6 0.315462 0.736747 0.394401
Si Si7 0.417906 0.539127 0.320542
Si Si8 0.759209 0.006607 0.325472
O O1 0.036731 0.116740 0.786007
O O2 0.185321 0.064656 0.747633
O O3 0.272792 0.320268 0.131737
O O4 0.072085 0.857207 0.793151
O O5 0.820437 0.487531 0.417750
O O6 0.665501 0.273854 0.404591
O O7 0.693409 0.086805 0.182118
O O8 0.565491 0.225035 0.990420
O O9 0.082756 0.348124 0.689505
O O10 0.000000 0.500000 0.500000
O O11 0.895562 0.220278 0.626836
O O12 0.163575 0.536381 0.105161
O O13 0.469844 0.604262 0.225477
O O14 0.634369 0.028738 0.504298
O O15 0.649231 0.828811 0.263677
O O16 0.411481 0.716524 0.415715
O O17 0.500000 0.500000 0.500000
#
# Coordination Sequence:
#
# PCOD9105986 Si02
#       8
#     2   2   2   2   2   2   2   2
#     4  10  22  41  63  90 132 164 207 266 313 377
#     4  11  22  39  66 100 125 161 222 262 309 374
#     4  11  20  38  65  95 118 169 216 252 309 377
#     4  10  21  41  62  94 134 164 210 263 326 361
#     4  11  25  42  67  92 125 177 213 258 317 380
#     4  10  23  43  65  92 131 167 209 272 310 374
#     4  11  26  45  61  94 129 171 210 261 328 377
#     4  10  20  39  66  98 125 165 216 265 307 377
#
# _framework density 21.841235999999999
#
# number of rings (size 3 to 8) (size 9 to 14) (size 15 to 20)
#    0.000    1.500    2.500    4.875    3.500    3.500 
#    6.750    1.250    0.000    0.000    0.000    0.000 
#    0.000    0.000    0.000    0.000    0.000    0.000 
#
# Total GULP energy -89156.240002 kJ/mol
# GULP energy per Si atom -5572.265000 kJ/mol
# Density = 2.179152 g / cm^3
# Si number density = 21.841236 Si / 1000 Ang^3
#
#
#
# Elastic Constant Matrix: (Units=GPa)
#
#
# Indices 1 2 3 4 5 6 
#
# 1 62.1321 5.5911 20.9658 14.3025 21.1147 15.2059
# 2 5.5911 68.1639 8.8364 9.0894 11.2657 14.1757
# 3 20.9658 8.8364 40.2908 -10.5192 18.0705 -4.7160
# 4 14.3025 9.0894 -10.5192 27.4625 -2.7597 0.6449
# 5 21.1147 11.2657 18.0705 -2.7597 30.2380 9.8323
# 6 15.2059 14.1757 -4.7160 0.6449 9.8323 41.6005
#
#
#
# Elastic Compliance Matrix: (Units=1/GPa)
#
#
# Indices 1 2 3 4 5 6 
#
# 1 0.045936 0.012923 -0.034241 -0.042160 -0.013362 -0.021264
# 2 0.012923 0.021837 -0.015729 -0.020257 -0.005607 -0.012309
# 3 -0.034241 -0.015729 0.069330 0.047229 -0.016771 0.028967
# 4 -0.042160 -0.020257 0.047229 0.083442 0.008451 0.024376
# 5 -0.013362 -0.005607 -0.016771 0.008451 0.058209 -0.008995
# 6 -0.021264 -0.012309 0.028967 0.024376 -0.008995 0.041037
#
#
# Mechanical properties :
#
#
# Convention : Reuss Voigt Hill
#
# Bulk Modulus (GPa) = 15.87061 26.81927 21.34494
# Shear Modulus (GPa) = 12.05145 28.87310 20.46228
#
# Velocity S-wave (km/s) = 2.35154 3.63981 3.06414
# Velocity P-wave (km/s) = 3.82820 5.47450 4.72362
#
# Compressibility (1/GPa) = 0.06300955
#
# Stress axis : x y z
#
# Youngs Moduli (GPa) = 21.76943 45.79345 14.42377
#
# Poissons Ratio (x) = -0.59181 0.49389
# Poissons Ratio (y) = -0.28133 0.22687
# Poissons Ratio (z) = 0.74541 0.72029
#
# Static dielectric constant tensor:
#      x y z
#    x 2.424750 -0.153400 0.248250 
#    y -0.153400 1.913990 -0.042870 
#    z 0.248250 -0.042870 2.020080 
# 
# From -- ./inp_files/329207.got.cif
#   From: 2010.05.17/outbox.cif.g08.bks.cpg/sg2_165_cif.got.tgz:329207.got - 2010.06.03 11:33:40.
