data_PCOD9105563
_publ_section_title
;
Structure prediction by ZEFSAII (Michael W. Deem and Ramdas Pophale) SiO2 
 PCOD9105563
Probable space group: P -1
;
_chemical_formula_sum "Si O2"
_cell_formula_units_Z 14
_cell_length_a 15.187886
_cell_length_b 15.165029
_cell_length_c 7.783140
_cell_angle_alpha 135.277164
_cell_angle_beta 35.255780
_cell_angle_gamma 148.485131
_cell_volume 540.278643
_symmetry_space_group_name_H-M "P -1"
_symmetry_group_IT_number 2
_symmetry_cell_setting 'triclinic'
loop_
_space_group_symop_operation_xyz
x,y,z
-x,-y,-z
loop_
_atom_site_type_symbol
_atom_site_label
_atom_site_fract_x
_atom_site_fract_y
_atom_site_fract_z
Si Si1 0.832535 0.408720 0.896212
Si Si2 0.671270 0.700046 0.876925
Si Si3 0.358650 0.059712 0.614282
Si Si4 0.782018 0.238025 0.376329
Si Si5 0.225605 0.092672 0.324450
Si Si6 0.474224 0.392826 0.555682
Si Si7 0.871503 0.169526 0.663357
O O1 0.768180 0.310220 0.678519
O O2 0.891875 0.327952 0.816561
O O3 0.017094 0.603088 0.821301
O O4 0.654705 0.390408 0.243731
O O5 0.648119 0.781594 0.860788
O O6 0.508118 0.501830 0.815071
O O7 0.897153 0.761045 0.615565
O O8 0.656287 0.799080 0.179834
O O9 0.584815 0.155173 0.457725
O O10 0.212828 0.902993 0.763207
O O11 0.284170 0.961628 0.418587
O O12 0.272599 0.203930 0.569902
O O13 0.231930 0.951634 0.173341
O O14 0.000000 0.000000 0.500000
O O15 0.500000 0.500000 0.500000
#
# Coordination Sequence:
#
# PCOD9105563 Si02
#       7
#     2   2   2   2   2   2   2
#     4  10  21  39  60  89 125 156 204 255 305 365
#     4  10  21  39  61  89 123 160 201 249 308 366
#     4  10  20  39  65  89 120 157 209 254 298 362
#     4   9  20  38  63  89 117 162 202 251 310 360
#     4   9  20  39  61  86 120 158 201 244 302 365
#     4  10  21  38  61  88 120 161 202 246 303 367
#     4  10  22  38  58  90 123 161 204 255 303 354
#
# _framework density 25.912554
#
# number of rings (size 3 to 8) (size 9 to 14) (size 15 to 20)
#    0.000    2.286    0.000    2.143    0.000    8.000 
#    0.000    8.571    0.000    0.000    0.000    0.000 
#    0.000    0.000    0.000    0.000    0.000    0.000 
#
# Total GULP energy -78306.878228 kJ/mol
# GULP energy per Si atom -5593.348445 kJ/mol
# Density = 2.585358 g / cm^3
# Si number density = 25.912554 Si / 1000 Ang^3
#
#
#
# Elastic Constant Matrix: (Units=GPa)
#
#
# Indices 1 2 3 4 5 6 
#
# 1 151.4630 48.6990 37.0574 7.9999 -9.7614 -5.4822
# 2 48.6990 167.7400 40.4381 41.8084 -16.3280 2.0681
# 3 37.0574 40.4381 103.9292 27.7344 -16.4505 6.7208
# 4 7.9999 41.8084 27.7344 30.6465 -2.1456 -7.9845
# 5 -9.7614 -16.3280 -16.4505 -2.1456 56.5366 17.2077
# 6 -5.4822 2.0681 6.7208 -7.9845 17.2077 49.1172
#
#
#
# Elastic Compliance Matrix: (Units=1/GPa)
#
#
# Indices 1 2 3 4 5 6 
#
# 1 0.008267 -0.003253 -0.003808 0.006439 -0.001316 0.003088
# 2 -0.003253 0.011307 0.002717 -0.018219 0.004559 -0.005770
# 3 -0.003808 0.002717 0.016782 -0.019614 0.006827 -0.008416
# 4 0.006439 -0.018219 -0.019614 0.078241 -0.013464 0.021605
# 5 -0.001316 0.004559 0.006827 -0.013464 0.023849 -0.011817
# 6 0.003088 -0.005770 -0.008416 0.021605 -0.011817 0.029751
#
#
# Mechanical properties :
#
#
# Convention : Reuss Voigt Hill
#
# Bulk Modulus (GPa) = 36.14362 75.05791 55.60077
# Shear Modulus (GPa) = 26.86631 47.05591 36.96111
#
# Velocity S-wave (km/s) = 3.22344 4.26602 3.78084
# Velocity P-wave (km/s) = 5.27567 7.30027 6.36893
#
# Compressibility (1/GPa) = 0.02766740
#
# Stress axis : x y z
#
# Youngs Moduli (GPa) = 120.96604 88.44190 59.58852
#
# Poissons Ratio (x) = 0.28770 0.22692
# Poissons Ratio (y) = 0.39349 -0.16190
# Poissons Ratio (z) = 0.46065 -0.24030
#
# Static dielectric constant tensor:
#      x y z
#    x 2.082230 -0.062200 0.150520 
#    y -0.062200 2.058680 0.001090 
#    z 0.150520 0.001090 2.094070 
# 
# From -- ./inp_files/316053.got.cif
#   From: 2010.05.17/outbox.cif.g08.bks.cpg/sg2_159_cif.got.tgz:316053.got - 2010.06.03 11:33:40.
