data_PCOD9105378
_publ_section_title
;
Structure prediction by ZEFSAII (Michael W. Deem and Ramdas Pophale) SiO2 
 PCOD9105378
Probable space group: P -1
;
_chemical_formula_sum "Si O2"
_cell_formula_units_Z 14
_cell_length_a 9.268840
_cell_length_b 12.687444
_cell_length_c 26.692068
_cell_angle_alpha 24.936035
_cell_angle_beta 31.435751
_cell_angle_gamma 29.391275
_cell_volume 618.485093
_symmetry_space_group_name_H-M "P -1"
_symmetry_group_IT_number 2
_symmetry_cell_setting 'triclinic'
loop_
_space_group_symop_operation_xyz
x,y,z
-x,-y,-z
loop_
_atom_site_type_symbol
_atom_site_label
_atom_site_fract_x
_atom_site_fract_y
_atom_site_fract_z
Si Si1 0.302531 0.660232 0.942191
Si Si2 0.862390 0.216330 0.491576
Si Si3 0.328892 0.506581 0.894835
Si Si4 0.948457 0.134691 0.713397
Si Si5 0.650170 0.651112 0.148460
Si Si6 0.808835 0.731254 0.320728
Si Si7 0.172440 0.991855 0.602848
O O1 0.453979 0.474627 0.927454
O O2 0.270261 0.969253 0.808494
O O3 0.500000 0.500000 0.000000
O O4 0.955586 0.694548 0.036686
O O5 0.948356 0.476203 0.350223
O O6 0.504671 0.285328 0.564985
O O7 0.995206 0.088698 0.561464
O O8 0.000000 0.000000 0.500000
O O9 0.486751 0.319839 0.880280
O O10 0.226768 0.828564 0.772045
O O11 0.000000 0.500000 0.000000
O O12 0.615174 0.156793 0.817573
O O13 0.000378 0.315545 0.664037
O O14 0.978426 0.178601 0.627088
O O15 0.761534 0.328566 0.269628
O O16 0.500000 0.000000 0.500000
#
# Coordination Sequence:
#
# PCOD9105378 Si02
#       7
#     2   2   2   2   2   2   2
#     4  10  20  39  64  92 127 166 210 257 310 373
#     4  11  24  43  63  88 126 166 207 256 313 375
#     4   8  18  35  57  85 122 160 195 244 305 362
#     4  10  21  39  63  94 122 155 211 258 305 373
#     4  10  21  38  63  92 125 163 201 258 315 364
#     4  10  23  40  63  91 124 165 207 255 313 370
#     4  11  23  40  65  94 125 163 208 259 311 368
#
# _framework density 22.635954999999999
#
# number of rings (size 3 to 8) (size 9 to 14) (size 15 to 20)
#    0.000    2.000    0.000    2.571    0.000   12.000 
#    0.000    4.286    0.000   17.143    0.000    0.000 
#    0.000    0.000    0.000    0.000    0.000    0.000 
#
# Total GULP energy -78213.114812 kJ/mol
# GULP energy per Si atom -5586.651058 kJ/mol
# Density = 2.258443 g / cm^3
# Si number density = 22.635955 Si / 1000 Ang^3
#
#
#
# Elastic Constant Matrix: (Units=GPa)
#
#
# Indices 1 2 3 4 5 6 
#
# 1 168.1862 45.8141 30.1710 -0.3253 22.1033 22.6535
# 2 45.8141 89.7112 27.9083 10.7854 5.5432 25.6313
# 3 30.1710 27.9083 98.7156 -10.8710 -1.4297 14.5363
# 4 -0.3253 10.7854 -10.8710 47.2278 4.5632 5.1317
# 5 22.1033 5.5432 -1.4297 4.5632 37.0121 1.1402
# 6 22.6535 25.6313 14.5363 5.1317 1.1402 39.3561
#
#
#
# Elastic Compliance Matrix: (Units=1/GPa)
#
#
# Indices 1 2 3 4 5 6 
#
# 1 0.007807 -0.002843 -0.001199 0.001088 -0.004349 -0.002215
# 2 -0.002843 0.016035 -0.002995 -0.003570 -0.000156 -0.007230
# 3 -0.001199 -0.002995 0.012101 0.003593 0.001261 -0.002334
# 4 0.001088 -0.003570 0.003593 0.023374 -0.002778 -0.002595
# 5 -0.004349 -0.000156 0.001261 -0.002778 0.029980 0.001633
# 6 -0.002215 -0.007230 -0.002334 -0.002595 0.001633 0.032546
#
#
# Mechanical properties :
#
#
# Convention : Reuss Voigt Hill
#
# Bulk Modulus (GPa) = 45.72847 62.71111 54.21979
# Shear Modulus (GPa) = 34.91409 41.56716 38.24062
#
# Velocity S-wave (km/s) = 3.93162 4.28990 4.11466
# Velocity P-wave (km/s) = 6.39185 7.23201 6.82487
#
# Compressibility (1/GPa) = 0.02186821
#
# Stress axis : x y z
#
# Youngs Moduli (GPa) = 128.08258 62.36250 82.63757
#
# Poissons Ratio (x) = 0.17731 0.09912
# Poissons Ratio (y) = 0.36416 0.24751
# Poissons Ratio (z) = 0.15362 0.18679
#
# Static dielectric constant tensor:
#      x y z
#    x 1.826100 0.071410 -0.004620 
#    y 0.071410 2.048450 -0.044150 
#    z -0.004620 -0.044150 1.891030 
# 
# From -- ./inp_files/69493.got.cif
#   From: 2010.05.17/outbox.cif.g08.bks.cpg/sg2_35_cif.got.tgz:69493.got - 2010.06.03 11:33:40.
