data_PCOD9105932
_publ_section_title
;
Structure prediction by ZEFSAII (Michael W. Deem and Ramdas Pophale) SiO2 
 PCOD9105932
Probable space group: P -1
;
_chemical_formula_sum "Si O2"
_cell_formula_units_Z 13
_cell_length_a 7.072420
_cell_length_b 10.753389
_cell_length_c 9.568125
_cell_angle_alpha 55.485313
_cell_angle_beta 85.538489
_cell_angle_gamma 114.745148
_cell_volume 493.955829
_symmetry_space_group_name_H-M "P -1"
_symmetry_group_IT_number 2
_symmetry_cell_setting 'triclinic'
loop_
_space_group_symop_operation_xyz
x,y,z
-x,-y,-z
loop_
_atom_site_type_symbol
_atom_site_label
_atom_site_fract_x
_atom_site_fract_y
_atom_site_fract_z
Si Si1 0.833020 0.756082 0.519646
Si Si2 0.132977 0.353098 0.027660
Si Si3 0.891859 0.120362 0.940355
Si Si4 0.245554 0.945361 0.560800
Si Si5 0.589246 0.208682 0.772823
Si Si6 0.580304 0.378810 0.949434
Si Si7 0.500000 0.500000 0.500000
O O1 0.680915 0.565999 0.735881
O O2 0.745158 0.686185 0.414104
O O3 0.096685 0.862780 0.480517
O O4 0.755255 0.883140 0.498494
O O5 0.914360 0.213657 0.219411
O O6 0.325373 0.307432 0.056284
O O7 0.057761 0.305689 0.902058
O O8 0.740463 0.448263 0.033272
O O9 0.654662 0.975263 0.130009
O O10 0.789283 0.174642 0.785385
O O11 0.000000 0.000000 0.000000
O O12 0.500000 0.000000 0.500000
O O13 0.574160 0.251686 0.911619
O O14 0.613002 0.376773 0.583545
#
# Coordination Sequence:
#
# PCOD9105932 Si02
#       7
#     2   2   2   2   2   2   1
#     4   9  20  41  65  91 134 172 228 285 334 401
#     4  10  20  39  66  94 135 175 219 287 344 394
#     4  11  22  41  65  98 139 175 223 281 340 416
#     4  10  21  42  64  95 130 180 230 279 338 418
#     4  10  22  41  65  96 135 179 227 278 335 409
#     4   9  19  40  63  97 131 173 223 285 335 400
#     4  10  20  44  68  94 138 180 228 282 340 412
#
# _framework density 26.318145999999999
#
# number of rings (size 3 to 8) (size 9 to 14) (size 15 to 20)
#    0.000    2.154    1.538    0.923    0.000    0.615 
#   19.385    9.231    0.000    0.000    0.000    0.000 
#    0.000    0.000    0.000    0.000    0.000    0.000 
#
# Total GULP energy -72403.678196 kJ/mol
# GULP energy per Si atom -5569.513707 kJ/mol
# Density = 2.625824 g / cm^3
# Si number density = 26.318146 Si / 1000 Ang^3
#
#
#
# Elastic Constant Matrix: (Units=GPa)
#
#
# Indices 1 2 3 4 5 6 
#
# 1 207.5922 33.7125 54.7015 -17.7396 -9.9817 33.6560
# 2 33.7125 131.2243 16.0636 6.0183 -18.0306 30.1309
# 3 54.7015 16.0636 63.8065 -16.5373 11.1440 -18.7767
# 4 -17.7396 6.0183 -16.5373 37.7245 -10.9986 -0.6720
# 5 -9.9817 -18.0306 11.1440 -10.9986 44.5770 -10.2415
# 6 33.6560 30.1309 -18.7767 -0.6720 -10.2415 38.8816
#
#
#
# Elastic Compliance Matrix: (Units=1/GPa)
#
#
# Indices 1 2 3 4 5 6 
#
# 1 0.014702 0.006584 -0.024506 -0.004070 0.004520 -0.028543
# 2 0.006584 0.015324 -0.019842 -0.007076 0.004918 -0.025984
# 3 -0.024506 -0.019842 0.068402 0.019832 -0.010267 0.067260
# 4 -0.004070 -0.007076 0.019832 0.036215 0.004915 0.020504
# 5 0.004520 0.004918 -0.010267 0.004915 0.028015 -0.005217
# 6 -0.028543 -0.025984 0.067260 0.020504 -0.005217 0.102023
#
#
# Mechanical properties :
#
#
# Convention : Reuss Voigt Hill
#
# Bulk Modulus (GPa) = 43.66279 67.95313 55.80796
# Shear Modulus (GPa) = 14.37434 44.11299 29.24366
#
# Velocity S-wave (km/s) = 2.33958 4.09851 3.33702
# Velocity P-wave (km/s) = 4.89127 6.94788 6.00823
#
# Compressibility (1/GPa) = 0.02290280
#
# Stress axis : x y z
#
# Youngs Moduli (GPa) = 68.01696 65.25570 14.61938
#
# Poissons Ratio (x) = -0.42966 0.35826
# Poissons Ratio (y) = -0.44784 0.29007
# Poissons Ratio (z) = 1.66679 1.29479
#
# Static dielectric constant tensor:
#      x y z
#    x 2.211400 -0.116630 -0.597540 
#    y -0.116630 2.263410 0.782160 
#    z -0.597540 0.782160 5.403700 
# 
# From -- ./inp_files/362595.got.cif
#   From: 2010.05.17/outbox.cif.g08.bks.cpg/sg2_182_cif.got.tgz:362595.got - 2010.06.03 11:33:40.
