data_PCOD9105169
_publ_section_title
;
Structure prediction by ZEFSAII (Michael W. Deem and Ramdas Pophale) SiO2 
 PCOD9105169
Probable space group: P -1
;
_chemical_formula_sum "Si O2"
_cell_formula_units_Z 16
_cell_length_a 8.913757
_cell_length_b 8.316042
_cell_length_c 19.045418
_cell_angle_alpha 32.084474
_cell_angle_beta 93.600682
_cell_angle_gamma 97.490572
_cell_volume 740.446472
_symmetry_space_group_name_H-M "P -1"
_symmetry_group_IT_number 2
_symmetry_cell_setting 'triclinic'
loop_
_space_group_symop_operation_xyz
x,y,z
-x,-y,-z
loop_
_atom_site_type_symbol
_atom_site_label
_atom_site_fract_x
_atom_site_fract_y
_atom_site_fract_z
Si Si1 0.336062 0.374252 0.573116
Si Si2 0.130532 0.703822 0.347539
Si Si3 0.657281 0.920890 0.900230
Si Si4 0.260883 0.249024 0.234595
Si Si5 0.873436 0.227653 0.903182
Si Si6 0.949481 0.328997 0.368958
Si Si7 0.425460 0.771048 0.839559
Si Si8 0.656306 0.133977 0.489609
O O1 0.500000 0.500000 0.500000
O O2 0.209527 0.466810 0.483183
O O3 0.342236 0.567726 0.572881
O O4 0.330417 0.015514 0.714775
O O5 0.987565 0.526019 0.368800
O O6 0.239763 0.855035 0.232759
O O7 0.132390 0.993216 0.291519
O O8 0.489909 0.903040 0.868284
O O9 0.721007 0.046622 0.929855
O O10 0.670986 0.561045 0.031909
O O11 0.194317 0.568245 0.115047
O O12 0.421165 0.253364 0.194306
O O13 0.293393 0.121305 0.360719
O O14 0.962061 0.482134 0.759863
O O15 0.000000 0.000000 0.000000
O O16 0.770422 0.244141 0.389217
O O17 0.000000 0.000000 0.500000
O O18 0.500000 0.000000 0.500000
#
# Coordination Sequence:
#
# PCOD9105169 Si02
#       8
#     2   2   2   2   2   2   2   2
#     4  11  20  37  64  95 130 160 206 262 313 377
#     4   9  21  41  63  89 128 168 211 258 314 375
#     4   9  20  39  62  84 124 167 205 256 313 373
#     4  10  21  40  64  91 127 167 210 266 312 371
#     4  11  25  45  60  87 128 171 216 262 316 373
#     4  11  24  44  67  92 126 174 210 259 325 374
#     4  10  20  39  63  94 124 167 206 259 325 367
#     4  11  25  39  63 101 128 161 209 262 318 381
#
# _framework density 21.608581999999998
#
# number of rings (size 3 to 8) (size 9 to 14) (size 15 to 20)
#    0.000    1.750    5.000    0.000    3.500    4.500 
#    9.000    3.125    0.000    0.000    0.000    0.000 
#    0.000    0.000    0.000    0.000    0.000    0.000 
#
# Total GULP energy -89176.309767 kJ/mol
# GULP energy per Si atom -5573.519360 kJ/mol
# Density = 2.155940 g / cm^3
# Si number density = 21.608582 Si / 1000 Ang^3
#
#
#
# Elastic Constant Matrix: (Units=GPa)
#
#
# Indices 1 2 3 4 5 6 
#
# 1 64.4003 42.3489 9.4957 -17.4675 0.9918 2.7715
# 2 42.3489 66.8132 28.5481 -14.9712 10.2704 14.0219
# 3 9.4957 28.5481 122.4402 -24.0183 17.0895 -3.1194
# 4 -17.4675 -14.9712 -24.0183 24.8959 -5.7689 -3.5714
# 5 0.9918 10.2704 17.0895 -5.7689 29.3314 -11.0154
# 6 2.7715 14.0219 -3.1194 -3.5714 -11.0154 31.2981
#
#
#
# Elastic Compliance Matrix: (Units=1/GPa)
#
#
# Indices 1 2 3 4 5 6 
#
# 1 0.037968 -0.027971 0.006115 0.021998 0.016004 0.017921
# 2 -0.027971 0.042288 -0.007323 -0.009879 -0.021225 -0.025796
# 3 0.006115 -0.007323 0.011943 0.012096 -0.000262 0.005218
# 4 0.021998 -0.009879 0.012096 0.067238 0.015160 0.016692
# 5 0.016004 -0.021225 -0.000262 0.015160 0.055077 0.029180
# 6 0.017921 -0.025796 0.005218 0.016692 0.029180 0.054615
#
#
# Mechanical properties :
#
#
# Convention : Reuss Voigt Hill
#
# Bulk Modulus (GPa) = 29.54952 46.04879 37.79915
# Shear Modulus (GPa) = 14.75940 28.65584 21.70762
#
# Velocity S-wave (km/s) = 2.61633 3.64556 3.17295
# Velocity P-wave (km/s) = 4.77823 6.25115 5.56365
#
# Compressibility (1/GPa) = 0.03384150
#
# Stress axis : x y z
#
# Youngs Moduli (GPa) = 26.33781 23.64746 83.73207
#
# Poissons Ratio (x) = 0.66143 -0.51203
# Poissons Ratio (y) = 0.73668 0.61319
# Poissons Ratio (z) = -0.16106 0.17317
#
# Static dielectric constant tensor:
#      x y z
#    x 1.846060 -0.071620 0.022860 
#    y -0.071620 1.880700 -0.003350 
#    z 0.022860 -0.003350 1.803640 
# 
# From -- ./inp_files/587712.got.cif
#   From: 2010.05.17/outbox.cif.g08.bks.cpg/sg2_294_cif.got.tgz:587712.got - 2010.06.03 11:33:40.
