data_PCOD9105089
_publ_section_title
;
Structure prediction by ZEFSAII (Michael W. Deem and Ramdas Pophale) SiO2 
 PCOD9105089
Probable space group: P -1
;
_chemical_formula_sum "Si O2"
_cell_formula_units_Z 14
_cell_length_a 16.385858
_cell_length_b 8.455541
_cell_length_c 22.629453
_cell_angle_alpha 32.789027
_cell_angle_beta 22.457357
_cell_angle_gamma 42.565496
_cell_volume 636.106907
_symmetry_space_group_name_H-M "P -1"
_symmetry_group_IT_number 2
_symmetry_cell_setting 'triclinic'
loop_
_space_group_symop_operation_xyz
x,y,z
-x,-y,-z
loop_
_atom_site_type_symbol
_atom_site_label
_atom_site_fract_x
_atom_site_fract_y
_atom_site_fract_z
Si Si1 0.047674 0.556451 0.518774
Si Si2 0.152960 0.512906 0.739750
Si Si3 0.371937 0.676158 0.355667
Si Si4 0.546500 0.768428 0.464337
Si Si5 0.950986 0.750252 0.691863
Si Si6 0.053161 0.795388 0.910557
Si Si7 0.242672 0.778066 0.082574
O O1 0.853906 0.356457 0.748557
O O2 0.000000 0.500000 0.500000
O O3 0.271197 0.510597 0.415474
O O4 0.066489 0.909464 0.405017
O O5 0.320892 0.766131 0.583165
O O6 0.296821 0.343997 0.654182
O O7 0.995603 0.651529 0.759153
O O8 0.031154 0.292857 0.939529
O O9 0.488373 0.480450 0.383030
O O10 0.162974 0.725092 0.518439
O O11 0.535499 0.983636 0.136984
O O12 0.691547 0.064275 0.300456
O O13 0.757082 0.508078 0.869395
O O14 0.931382 0.044155 0.886610
O O15 0.000000 0.500000 0.000000
#
# Coordination Sequence:
#
# PCOD9105089 Si02
#       7
#     2   2   2   2   2   2   2
#     4  11  25  43  64  89 127 160 201 256 310 360
#     4  10  21  37  64  92 122 155 208 240 309 357
#     4  10  20  41  68  88 118 161 213 250 299 356
#     4  10  20  39  63  91 122 160 200 256 297 363
#     4  10  23  40  66  92 122 163 201 256 299 358
#     4  12  24  37  60  93 129 164 196 250 309 364
#     4  11  22  43  65  90 121 163 211 249 300 361
#
# _framework density 22.008877999999999
#
# number of rings (size 3 to 8) (size 9 to 14) (size 15 to 20)
#    0.000    1.429    5.714    2.143    2.000    3.429 
#    2.571    0.000    0.000    0.000    0.000    0.000 
#    0.000    0.000    0.000    0.000    0.000    0.000 
#
# Total GULP energy -78290.470462 kJ/mol
# GULP energy per Si atom -5592.176462 kJ/mol
# Density = 2.195879 g / cm^3
# Si number density = 22.008878 Si / 1000 Ang^3
#
#
#
# Elastic Constant Matrix: (Units=GPa)
#
#
# Indices 1 2 3 4 5 6 
#
# 1 166.0274 16.5935 67.4447 -10.8097 12.2632 14.4519
# 2 16.5935 45.8004 19.5959 -16.5449 11.1641 12.7726
# 3 67.4447 19.5959 162.6107 -25.7015 -5.5333 19.6808
# 4 -10.8097 -16.5449 -25.7015 23.0363 -2.2991 -9.3238
# 5 12.2632 11.1641 -5.5333 -2.2991 57.8695 -11.5985
# 6 14.4519 12.7726 19.6808 -9.3238 -11.5985 16.2675
#
#
#
# Elastic Compliance Matrix: (Units=1/GPa)
#
#
# Indices 1 2 3 4 5 6 
#
# 1 0.008002 0.000638 -0.002963 -0.002923 -0.003921 -0.008496
# 2 0.000638 0.039350 0.000938 0.014317 -0.013950 -0.034338
# 3 -0.002963 0.000938 0.009005 0.007828 0.000834 -0.003918
# 4 -0.002923 0.014317 0.007828 0.073708 0.007433 0.029430
# 5 -0.003921 -0.013950 0.000834 0.007433 0.028844 0.038254
# 6 -0.008496 -0.034338 -0.003918 0.029430 0.038254 0.144862
#
#
# Mechanical properties :
#
#
# Convention : Reuss Voigt Hill
#
# Bulk Modulus (GPa) = 18.66301 64.63407 41.64854
# Shear Modulus (GPa) = 15.41274 37.48828 26.45051
#
# Velocity S-wave (km/s) = 2.64918 4.13161 3.47048
# Velocity P-wave (km/s) = 4.22560 7.22436 5.91807
#
# Compressibility (1/GPa) = 0.05358193
#
# Stress axis : x y z
#
# Youngs Moduli (GPa) = 124.97269 25.41308 111.04566
#
# Poissons Ratio (x) = -0.01621 0.32901
# Poissons Ratio (y) = -0.07971 -0.10411
# Poissons Ratio (z) = 0.37027 -0.02382
#
# Static dielectric constant tensor:
#      x y z
#    x 1.836640 -0.002030 -0.019800 
#    y -0.002030 1.831070 -0.000160 
#    z -0.019800 -0.000160 1.779810 
# 
# From -- ./inp_files/251363.got.cif
#   From: 2010.05.17/outbox.cif.g08.bks.cpg/sg2_126_cif.got.tgz:251363.got - 2010.06.03 11:33:40.
