data_PCOD9105053
_publ_section_title
;
Structure prediction by ZEFSAII (Michael W. Deem and Ramdas Pophale) SiO2 
 PCOD9105053
Probable space group: P -1
;
_chemical_formula_sum "Si O2"
_cell_formula_units_Z 15
_cell_length_a 10.543235
_cell_length_b 10.654439
_cell_length_c 10.323013
_cell_angle_alpha 100.608069
_cell_angle_beta 58.514265
_cell_angle_gamma 55.943762
_cell_volume 604.815415
_symmetry_space_group_name_H-M "P -1"
_symmetry_group_IT_number 2
_symmetry_cell_setting 'triclinic'
loop_
_space_group_symop_operation_xyz
x,y,z
-x,-y,-z
loop_
_atom_site_type_symbol
_atom_site_label
_atom_site_fract_x
_atom_site_fract_y
_atom_site_fract_z
Si Si1 0.826992 0.832475 0.390579
Si Si2 0.207710 0.449980 0.613098
Si Si3 0.095009 0.675235 0.964301
Si Si4 0.546789 0.226308 0.761670
Si Si5 0.628300 0.256164 0.198026
Si Si6 0.296504 0.624554 0.243482
Si Si7 0.476671 0.868368 0.956076
Si Si8 0.000000 0.500000 0.500000
O O1 0.791628 0.705553 0.408053
O O2 0.061191 0.716529 0.328300
O O3 0.615789 0.061235 0.603024
O O4 0.880555 0.822020 0.209505
O O5 0.079723 0.599042 0.831542
O O6 0.476629 0.320852 0.419385
O O7 0.036051 0.588178 0.609366
O O8 0.305102 0.457836 0.888820
O O9 0.173583 0.766183 0.901972
O O10 0.743352 0.206433 0.649095
O O11 0.532392 0.191867 0.910884
O O12 0.433372 0.458780 0.250680
O O13 0.703200 0.081361 0.039520
O O14 0.500000 0.500000 0.000000
O O15 0.721372 0.678682 0.714753
O O16 0.500000 0.000000 0.000000
#
# Coordination Sequence:
#
# PCOD9105053 Si02
#       8
#     2   2   2   2   2   2   2   1
#     4  12  22  38  63  96 124 165 217 258 318 376
#     4  11  23  39  66  93 122 166 212 268 322 379
#     4  11  23  43  62  85 131 174 211 258 321 383
#     4  11  22  37  64  93 126 168 213 263 310 377
#     4  10  20  39  63  89 126 168 211 256 316 382
#     4  11  19  39  66  91 126 168 207 261 317 379
#     4  11  21  37  62  95 129 166 207 269 317 365
#     4  10  22  40  60  88 122 156 208 254 324 378
#
# _framework density 24.800954999999998
#
# number of rings (size 3 to 8) (size 9 to 14) (size 15 to 20)
#    0.000    1.067    4.000    5.200    0.000    0.533 
#    0.000    5.333    0.000    4.800    0.000    0.000 
#    0.000    0.000    0.000    0.000    0.000    0.000 
#
# Total GULP energy -83637.356197 kJ/mol
# GULP energy per Si atom -5575.823746 kJ/mol
# Density = 2.474451 g / cm^3
# Si number density = 24.800955 Si / 1000 Ang^3
#
#
#
# Elastic Constant Matrix: (Units=GPa)
#
#
# Indices 1 2 3 4 5 6 
#
# 1 133.2777 30.1978 -5.4075 8.1097 37.6814 10.3449
# 2 30.1978 73.9218 22.2356 6.6183 -3.4519 35.7807
# 3 -5.4075 22.2356 133.8033 -12.2523 15.3874 17.3380
# 4 8.1097 6.6183 -12.2523 43.5339 9.4578 2.5751
# 5 37.6814 -3.4519 15.3874 9.4578 49.5747 -3.0523
# 6 10.3449 35.7807 17.3380 2.5751 -3.0523 53.8683
#
#
#
# Elastic Compliance Matrix: (Units=1/GPa)
#
#
# Indices 1 2 3 4 5 6 
#
# 1 0.012089 -0.006762 0.002984 0.001961 -0.010929 0.000497
# 2 -0.006762 0.024631 -0.004037 -0.004626 0.008185 -0.013078
# 3 0.002984 -0.004037 0.009594 0.004247 -0.006433 -0.001547
# 4 0.001961 -0.004626 0.004247 0.026303 -0.008173 -0.000392
# 5 -0.010929 0.008185 -0.006433 -0.008173 0.032665 0.000974
# 6 0.000497 -0.013078 -0.001547 -0.000392 0.000974 0.027727
#
#
# Mechanical properties :
#
#
# Convention : Reuss Voigt Hill
#
# Bulk Modulus (GPa) = 32.58993 48.33942 40.46467
# Shear Modulus (GPa) = 31.47314 48.99382 40.23348
#
# Velocity S-wave (km/s) = 3.56621 4.44946 4.03209
# Velocity P-wave (km/s) = 5.48874 6.77718 6.16670
#
# Compressibility (1/GPa) = 0.03068432
#
# Stress axis : x y z
#
# Youngs Moduli (GPa) = 82.72312 40.59923 104.22840
#
# Poissons Ratio (x) = 0.27455 -0.31106
# Poissons Ratio (y) = 0.55940 0.42075
# Poissons Ratio (z) = -0.24688 0.16389
#
# Static dielectric constant tensor:
#      x y z
#    x 2.043860 -0.023650 0.027900 
#    y -0.023650 2.153130 -0.028130 
#    z 0.027900 -0.028130 1.949910 
# 
# From -- ./inp_files/424028.got.cif
#   From: 2010.05.17/outbox.cif.g08.bks.cpg/sg2_213_cif.got.tgz:424028.got - 2010.06.03 11:33:40.
