data_PCOD9105881
_publ_section_title
;
Structure prediction by ZEFSAII (Michael W. Deem and Ramdas Pophale) SiO2 
 PCOD9105881
Probable space group: P -1
;
_chemical_formula_sum "Si O2"
_cell_formula_units_Z 13
_cell_length_a 16.812743
_cell_length_b 6.930228
_cell_length_c 15.095209
_cell_angle_alpha 118.179741
_cell_angle_beta 155.237508
_cell_angle_gamma 52.229566
_cell_volume 563.315292
_symmetry_space_group_name_H-M "P -1"
_symmetry_group_IT_number 2
_symmetry_cell_setting 'triclinic'
loop_
_space_group_symop_operation_xyz
x,y,z
-x,-y,-z
loop_
_atom_site_type_symbol
_atom_site_label
_atom_site_fract_x
_atom_site_fract_y
_atom_site_fract_z
Si Si1 0.562929 0.993329 0.842875
Si Si2 0.888321 0.465945 0.114890
Si Si3 0.000000 0.000000 0.000000
Si Si4 0.296305 0.526982 0.744032
Si Si5 0.267500 0.614603 0.532296
Si Si6 0.946297 0.144670 0.277031
Si Si7 0.594176 0.066008 0.695403
O O1 0.351806 0.239799 0.721125
O O2 0.537533 0.969934 0.707033
O O3 0.659761 0.727239 0.931275
O O4 0.755533 0.068473 0.059296
O O5 0.909643 0.330793 0.200262
O O6 0.935100 0.269131 0.041419
O O7 0.077340 0.540266 0.317890
O O8 0.151440 0.043639 0.088510
O O9 0.293771 0.637672 0.668834
O O10 0.090791 0.712326 0.635750
O O11 0.500000 0.500000 0.000000
O O12 0.477617 0.369279 0.653589
O O13 0.173434 0.881416 0.446813
O O14 0.500000 0.000000 0.500000
#
# Coordination Sequence:
#
# PCOD9105881 Si02
#       7
#     2   2   1   2   2   2   2
#     4   9  21  40  64  92 134 166 206 272 319 371
#     4  11  23  40  64  95 128 171 216 264 317 379
#     4  12  24  42  68  94 126 174 220 258 332 382
#     4   9  19  39  65  92 128 171 209 257 326 380
#     4  10  22  41  64  96 129 166 211 269 319 374
#     4  10  20  39  66  92 130 169 211 260 316 390
#     4  11  22  43  67  94 128 168 219 269 321 381
#
# _framework density 23.077663999999999
#
# number of rings (size 3 to 8) (size 9 to 14) (size 15 to 20)
#    0.000    1.846    3.077    0.462    0.000    3.077 
#    5.538    1.538    0.000    0.000    0.000    0.000 
#    0.000    0.000    0.000    0.000    0.000    0.000 
#
# Total GULP energy -72442.303761 kJ/mol
# GULP energy per Si atom -5572.484905 kJ/mol
# Density = 2.302514 g / cm^3
# Si number density = 23.077664 Si / 1000 Ang^3
#
#
#
# Elastic Constant Matrix: (Units=GPa)
#
#
# Indices 1 2 3 4 5 6 
#
# 1 133.9104 81.5240 17.3099 -24.1912 -11.8974 -25.6456
# 2 81.5240 135.5060 20.5943 -26.0687 -27.5172 14.2342
# 3 17.3099 20.5943 46.6524 -12.9304 -8.4092 0.0270
# 4 -24.1912 -26.0687 -12.9304 43.4507 2.4172 0.6825
# 5 -11.8974 -27.5172 -8.4092 2.4172 34.8602 0.6007
# 6 -25.6456 14.2342 0.0270 0.6825 0.6007 40.2334
#
#
#
# Elastic Compliance Matrix: (Units=1/GPa)
#
#
# Indices 1 2 3 4 5 6 
#
# 1 0.019306 -0.013866 -0.001417 0.002023 -0.005136 0.017255
# 2 -0.013866 0.020656 -0.000786 0.004063 0.011384 -0.016385
# 3 -0.001417 -0.000786 0.024740 0.005866 0.004471 -0.000808
# 4 0.002023 0.004063 0.005866 0.028147 0.003372 -0.000680
# 5 -0.005136 0.011384 0.004471 0.003372 0.036900 -0.007912
# 6 0.017255 -0.016385 -0.000808 -0.000680 -0.007912 0.041781
#
#
# Mechanical properties :
#
#
# Convention : Reuss Voigt Hill
#
# Bulk Modulus (GPa) = 30.70967 61.65837 46.18402
# Shear Modulus (GPa) = 23.30752 36.81823 30.06288
#
# Velocity S-wave (km/s) = 3.18143 3.99859 3.61319
# Velocity P-wave (km/s) = 5.17990 6.93499 6.12068
#
# Compressibility (1/GPa) = 0.03256303
#
# Stress axis : x y z
#
# Youngs Moduli (GPa) = 51.79686 48.41255 40.42012
#
# Poissons Ratio (x) = 0.67129 0.05729
# Poissons Ratio (y) = 0.71822 0.03177
# Poissons Ratio (z) = 0.07342 0.03805
#
# Static dielectric constant tensor:
#      x y z
#    x 1.812000 0.005100 0.047840 
#    y 0.005100 1.856850 0.024250 
#    z 0.047840 0.024250 1.968660 
# 
# From -- ./inp_files/25012.got.cif
#   From: 2010.05.17/outbox.cif.g08.bks.cpg/sg2_13_cif.got.tgz:25012.got - 2010.06.03 11:33:40.
