data_PCOD9105148
_publ_section_title
;
Structure prediction by ZEFSAII (Michael W. Deem and Ramdas Pophale) SiO2 
 PCOD9105148
Probable space group: P -1
;
_chemical_formula_sum "Si O2"
_cell_formula_units_Z 15
_cell_length_a 13.301259
_cell_length_b 9.544971
_cell_length_c 11.252280
_cell_angle_alpha 133.376093
_cell_angle_beta 33.248199
_cell_angle_gamma 134.800592
_cell_volume 538.031233
_symmetry_space_group_name_H-M "P -1"
_symmetry_group_IT_number 2
_symmetry_cell_setting 'triclinic'
loop_
_space_group_symop_operation_xyz
x,y,z
-x,-y,-z
loop_
_atom_site_type_symbol
_atom_site_label
_atom_site_fract_x
_atom_site_fract_y
_atom_site_fract_z
Si Si1 0.528687 0.061529 0.199620
Si Si2 0.848239 0.972114 0.979501
Si Si3 0.709671 0.874139 0.315909
Si Si4 0.769586 0.494802 0.754210
Si Si5 0.867878 0.763604 0.411611
Si Si6 0.500000 0.500000 0.500000
Si Si7 0.839836 0.197298 0.680337
Si Si8 0.573010 0.515268 0.738568
O O1 0.725046 0.032675 0.034387
O O2 0.383022 0.015688 0.433056
O O3 0.542122 0.290174 0.291649
O O4 0.391185 0.907092 0.151827
O O5 0.732274 0.964433 0.213692
O O6 0.070180 0.109936 0.861262
O O7 0.844759 0.739936 0.830601
O O8 0.552173 0.642642 0.329800
O O9 0.696498 0.423670 0.652578
O O10 0.109249 0.624759 0.365002
O O11 0.578196 0.443302 0.997960
O O12 0.736004 0.614200 0.359665
O O13 0.725947 0.702548 0.632141
O O14 0.058134 0.722585 0.249253
O O15 0.907248 0.998777 0.475679
#
# Coordination Sequence:
#
# PCOD9105148 Si02
#       8
#     2   2   2   2   2   1   2   2
#     4  11  21  41  65  89 128 168 210 268 316 378
#     4  10  23  40  61  94 131 165 212 263 318 381
#     4  10  21  39  62  95 126 167 209 261 323 382
#     4  10  22  41  61  92 135 161 208 272 312 381
#     4  10  22  41  65  92 124 169 214 259 321 389
#     4  10  22  40  66  88 126 168 214 270 312 380
#     4  10  23  41  63  93 127 168 213 259 322 379
#     4  10  20  39  63  93 127 163 211 259 326 379
#
# _framework density 27.879421000000001
#
# number of rings (size 3 to 8) (size 9 to 14) (size 15 to 20)
#    0.000    1.867    1.333    2.800    1.867    4.267 
#    4.800    0.667    0.000    0.000    0.000    0.000 
#    0.000    0.000    0.000    0.000    0.000    0.000 
#
# Total GULP energy -83802.482180 kJ/mol
# GULP energy per Si atom -5586.832145 kJ/mol
# Density = 2.781597 g / cm^3
# Si number density = 27.879421 Si / 1000 Ang^3
#
#
#
# Elastic Constant Matrix: (Units=GPa)
#
#
# Indices 1 2 3 4 5 6 
#
# 1 192.6603 77.7454 49.3472 -3.1769 -58.4805 9.8219
# 2 77.7454 180.1070 22.2413 -22.5116 -36.7010 -4.6741
# 3 49.3472 22.2413 109.2690 -15.6833 -10.2953 -2.7145
# 4 -3.1769 -22.5116 -15.6833 32.4656 0.4662 -16.2514
# 5 -58.4805 -36.7010 -10.2953 0.4662 66.6294 -8.8011
# 6 9.8219 -4.6741 -2.7145 -16.2514 -8.8011 62.0801
#
#
#
# Elastic Compliance Matrix: (Units=1/GPa)
#
#
# Indices 1 2 3 4 5 6 
#
# 1 0.008963 -0.002849 -0.003562 -0.003916 0.005506 -0.002033
# 2 -0.002849 0.008228 0.001039 0.007634 0.002598 0.003483
# 3 -0.003562 0.001039 0.011672 0.007555 -0.000397 0.003073
# 4 -0.003916 0.007634 0.007555 0.046403 0.003482 0.014166
# 5 0.005506 0.002598 -0.000397 0.003482 0.021620 0.003284
# 6 -0.002033 0.003483 0.003073 0.014166 0.003284 0.021000
#
#
# Mechanical properties :
#
#
# Convention : Reuss Voigt Hill
#
# Bulk Modulus (GPa) = 55.19000 86.74490 70.96745
# Shear Modulus (GPa) = 37.12802 54.41518 45.77160
#
# Velocity S-wave (km/s) = 3.65325 4.42272 4.05627
# Velocity P-wave (km/s) = 6.13465 7.56719 6.88826
#
# Compressibility (1/GPa) = 0.01811922
#
# Stress axis : x y z
#
# Youngs Moduli (GPa) = 111.57199 121.53607 85.67579
#
# Poissons Ratio (x) = 0.34630 0.30514
# Poissons Ratio (y) = 0.31791 -0.08903
# Poissons Ratio (z) = 0.39737 -0.12629
#
# Static dielectric constant tensor:
#      x y z
#    x 1.963270 0.076150 -0.022360 
#    y 0.076150 2.105390 -0.044570 
#    z -0.022360 -0.044570 2.225870 
# 
# From -- ./inp_files/501763.got.cif
#   From: 2010.05.17/outbox.cif.g08.bks.cpg/sg2_251_cif.got.tgz:501763.got - 2010.06.03 11:33:40.
