data_PCOD9105790
_publ_section_title
;
Structure prediction by ZEFSAII (Michael W. Deem and Ramdas Pophale) SiO2 
 PCOD9105790
Probable space group: P -1
;
_chemical_formula_sum "Si O2"
_cell_formula_units_Z 16
_cell_length_a 8.411390
_cell_length_b 13.524110
_cell_length_c 14.553432
_cell_angle_alpha 30.887694
_cell_angle_beta 59.385112
_cell_angle_gamma 68.124095
_cell_volume 723.598850
_symmetry_space_group_name_H-M "P -1"
_symmetry_group_IT_number 2
_symmetry_cell_setting 'triclinic'
loop_
_space_group_symop_operation_xyz
x,y,z
-x,-y,-z
loop_
_atom_site_type_symbol
_atom_site_label
_atom_site_fract_x
_atom_site_fract_y
_atom_site_fract_z
Si Si1 0.708629 0.253048 0.165581
Si Si2 0.327345 0.715837 0.581344
Si Si3 0.404728 0.896574 0.218839
Si Si4 0.753801 0.694890 0.052509
Si Si5 0.911408 0.680374 0.816710
Si Si6 0.324672 0.055038 0.430804
Si Si7 0.054121 0.799214 0.030277
Si Si8 0.197288 0.887879 0.108660
O O1 0.487522 0.229855 0.264529
O O2 0.756313 0.072482 0.357541
O O3 0.799727 0.467844 0.996246
O O4 0.770896 0.215052 0.074896
O O5 0.388299 0.506112 0.747886
O O6 0.117927 0.690158 0.706469
O O7 0.341984 0.774411 0.424610
O O8 0.419589 0.902860 0.461756
O O9 0.297093 0.802607 0.234616
O O10 0.339518 0.110427 0.072854
O O11 0.630300 0.944720 0.107306
O O12 0.883347 0.680330 0.116330
O O13 0.876855 0.707117 0.913828
O O14 0.825038 0.850561 0.656422
O O15 0.118659 0.759740 0.146317
O O16 0.977683 0.007217 0.892000
#
# Coordination Sequence:
#
# PCOD9105790 Si02
#       8
#     2   2   2   2   2   2   2   2
#     4  11  23  41  61  92 135 165 204 255 318 372
#     4  12  22  37  64  95 124 168 208 251 309 380
#     4  10  22  41  67  92 122 164 215 260 316 368
#     4  11  22  38  64  94 128 167 198 255 313 374
#     4  12  23  38  63  95 133 166 206 247 308 389
#     4  11  24  37  61  95 130 169 207 251 302 386
#     4  10  20  39  66  86 123 168 202 259 323 358
#     4   9  21  42  65  90 119 165 216 269 312 362
#
# _framework density 22.111699000000002
#
# number of rings (size 3 to 8) (size 9 to 14) (size 15 to 20)
#    0.000    1.250    3.750    2.625    3.500    0.000 
#    0.000    6.250    0.000    0.000    0.000    0.000 
#    0.000    0.000    0.000    0.000    0.000    0.000 
#
# Total GULP energy -89231.003126 kJ/mol
# GULP energy per Si atom -5576.937695 kJ/mol
# Density = 2.206137 g / cm^3
# Si number density = 22.111699 Si / 1000 Ang^3
#
#
#
# Elastic Constant Matrix: (Units=GPa)
#
#
# Indices 1 2 3 4 5 6 
#
# 1 62.7539 14.2606 13.2654 -0.4066 0.9790 7.7837
# 2 14.2606 98.8414 21.6889 17.5436 2.6590 18.4093
# 3 13.2654 21.6889 66.2757 1.4217 0.1912 -6.4505
# 4 -0.4066 17.5436 1.4217 33.1955 6.4800 9.6897
# 5 0.9790 2.6590 0.1912 6.4800 41.2960 1.8979
# 6 7.7837 18.4093 -6.4505 9.6897 1.8979 26.9301
#
#
#
# Elastic Compliance Matrix: (Units=1/GPa)
#
#
# Indices 1 2 3 4 5 6 
#
# 1 0.017814 -0.001020 -0.003915 0.002888 -0.000498 -0.006394
# 2 -0.001020 0.013810 -0.005066 -0.004603 0.000282 -0.008723
# 3 -0.003915 -0.005066 0.018458 -0.000894 0.000045 0.009335
# 4 0.002888 -0.004603 -0.000894 0.036760 -0.005041 -0.010774
# 5 -0.000498 0.000282 0.000045 -0.005041 0.024999 0.000014
# 6 -0.006394 -0.008723 0.009335 -0.010774 0.000014 0.051056
#
#
# Mechanical properties :
#
#
# Convention : Reuss Voigt Hill
#
# Bulk Modulus (GPa) = 33.24425 36.25563 34.74994
# Shear Modulus (GPa) = 25.91687 32.19472 29.05580
#
# Velocity S-wave (km/s) = 3.42729 3.81990 3.62891
# Velocity P-wave (km/s) = 5.54338 5.99063 5.77134
#
# Compressibility (1/GPa) = 0.03008039
#
# Stress axis : x y z
#
# Youngs Moduli (GPa) = 56.13565 72.41070 54.17825
#
# Poissons Ratio (x) = 0.07383 0.21209
# Poissons Ratio (y) = 0.05723 0.27449
# Poissons Ratio (z) = 0.21975 0.36686
#
# Static dielectric constant tensor:
#      x y z
#    x 1.921820 0.044550 -0.018460 
#    y 0.044550 1.849180 -0.015300 
#    z -0.018460 -0.015300 1.785460 
# 
# From -- ./inp_files/503552.got.cif
#   From: 2010.05.17/outbox.cif.g08.bks.cpg/sg2_252_cif.got.tgz:503552.got - 2010.06.03 11:33:40.
