data_PCOD9105390
_publ_section_title
;
Structure prediction by ZEFSAII (Michael W. Deem and Ramdas Pophale) SiO2 
 PCOD9105390
Probable space group: P -1
;
_chemical_formula_sum "Si O2"
_cell_formula_units_Z 16
_cell_length_a 27.829589
_cell_length_b 15.582482
_cell_length_c 9.206186
_cell_angle_alpha 60.321683
_cell_angle_beta 48.793627
_cell_angle_gamma 18.855281
_cell_volume 824.568595
_symmetry_space_group_name_H-M "P -1"
_symmetry_group_IT_number 2
_symmetry_cell_setting 'triclinic'
loop_
_space_group_symop_operation_xyz
x,y,z
-x,-y,-z
loop_
_atom_site_type_symbol
_atom_site_label
_atom_site_fract_x
_atom_site_fract_y
_atom_site_fract_z
Si Si1 0.724982 0.708688 0.251095
Si Si2 0.167664 0.455320 0.507557
Si Si3 0.025279 0.741922 0.113673
Si Si4 0.198051 0.742149 0.908270
Si Si5 0.559739 0.787624 0.140681
Si Si6 0.150201 0.717053 0.341757
Si Si7 0.419073 0.923579 0.993555
Si Si8 0.902116 0.743938 0.550583
O O1 0.833822 0.574155 0.297079
O O2 0.500000 0.000000 0.500000
O O3 0.859928 0.433224 0.122597
O O4 0.709077 0.821501 0.073611
O O5 0.118883 0.644840 0.445398
O O6 0.015631 0.620293 0.568468
O O7 0.391647 0.094645 0.306080
O O8 0.933555 0.777930 0.334597
O O9 0.216823 0.491944 0.047121
O O10 0.833208 0.096027 0.180620
O O11 0.392767 0.395929 0.753291
O O12 0.168833 0.744248 0.127049
O O13 0.000000 0.000000 0.000000
O O14 0.474192 0.902264 0.050570
O O15 0.372165 0.399101 0.234282
O O16 0.000000 0.000000 0.500000
O O17 0.318334 0.969479 0.203830
O O18 0.000000 0.500000 0.500000
#
# Coordination Sequence:
#
# PCOD9105390 Si02
#       8
#     2   2   2   2   2   2   2   2
#     4  12  22  34  60  94 124 156 211 268 308 360
#     4  12  23  38  66  93 124 167 206 261 317 362
#     4  11  21  39  61  90 127 165 207 259 317 363
#     4   9  20  33  58  90 120 151 202 263 303 355
#     4  10  20  39  64  93 120 161 219 261 305 362
#     4  11  23  41  65  93 125 161 207 256 316 373
#     4  11  23  41  61  94 124 165 209 259 303 373
#     4  12  24  41  64  90 129 170 209 252 309 381
#
# _framework density 19.404084000000001
#
# number of rings (size 3 to 8) (size 9 to 14) (size 15 to 20)
#    0.000    1.000    5.000    3.000    0.000    3.500 
#    0.000    3.125    0.000    0.000    0.000    0.000 
#    0.000    0.000    0.000    0.000    0.000    0.000 
#
# Total GULP energy -89147.707150 kJ/mol
# GULP energy per Si atom -5571.731697 kJ/mol
# Density = 1.935992 g / cm^3
# Si number density = 19.404084 Si / 1000 Ang^3
#
#
#
# Elastic Constant Matrix: (Units=GPa)
#
#
# Indices 1 2 3 4 5 6 
#
# 1 102.9346 51.6921 49.5517 -2.6663 3.9694 14.6176
# 2 51.6921 109.9148 23.6497 -18.1659 5.0524 29.7759
# 3 49.5517 23.6497 68.1194 -9.5097 -1.4774 13.1231
# 4 -2.6663 -18.1659 -9.5097 38.5409 1.5869 4.7728
# 5 3.9694 5.0524 -1.4774 1.5869 29.8906 -3.1244
# 6 14.6176 29.7759 13.1231 4.7728 -3.1244 35.5057
#
#
#
# Elastic Compliance Matrix: (Units=1/GPa)
#
#
# Indices 1 2 3 4 5 6 
#
# 1 0.019591 -0.008785 -0.013094 -0.006592 -0.000897 0.004949
# 2 -0.008785 0.018489 0.004422 0.011266 -0.003946 -0.015385
# 3 -0.013094 0.004422 0.025587 0.008551 0.000877 -0.008847
# 4 -0.006592 0.011266 0.008551 0.034927 -0.004022 -0.014943
# 5 -0.000897 -0.003946 0.000877 -0.004022 0.035229 0.006995
# 6 0.004949 -0.015385 -0.008847 -0.014943 0.006995 0.044923
#
#
# Mechanical properties :
#
#
# Convention : Reuss Voigt Hill
#
# Bulk Modulus (GPa) = 34.77831 58.97285 46.87558
# Shear Modulus (GPa) = 22.39700 31.19247 26.79473
#
# Velocity S-wave (km/s) = 3.40110 4.01374 3.72005
# Velocity P-wave (km/s) = 5.77801 7.20681 6.53160
#
# Compressibility (1/GPa) = 0.02875356
#
# Stress axis : x y z
#
# Youngs Moduli (GPa) = 51.04372 54.08645 39.08238
#
# Poissons Ratio (x) = 0.47515 0.51175
# Poissons Ratio (y) = 0.44842 -0.17284
# Poissons Ratio (z) = 0.66837 -0.23919
#
# Static dielectric constant tensor:
#      x y z
#    x 1.743160 0.023800 -0.009610 
#    y 0.023800 1.549800 -0.065180 
#    z -0.009610 -0.065180 1.702620 
# 
# From -- ./inp_files/256625.got.cif
#   From: 2010.05.17/outbox.cif.g08.bks.cpg/sg2_129_cif.got.tgz:256625.got - 2010.06.03 11:33:40.
