data_PCOD9105009
_publ_section_title
;
Structure prediction by ZEFSAII (Michael W. Deem and Ramdas Pophale) SiO2 
 PCOD9105009
Probable space group: P -1
;
_chemical_formula_sum "Si O2"
_cell_formula_units_Z 12
_cell_length_a 5.140797
_cell_length_b 14.618847
_cell_length_c 9.489033
_cell_angle_alpha 56.482834
_cell_angle_beta 70.679151
_cell_angle_gamma 80.163479
_cell_volume 560.998472
_symmetry_space_group_name_H-M "P -1"
_symmetry_group_IT_number 2
_symmetry_cell_setting 'triclinic'
loop_
_space_group_symop_operation_xyz
x,y,z
-x,-y,-z
loop_
_atom_site_type_symbol
_atom_site_label
_atom_site_fract_x
_atom_site_fract_y
_atom_site_fract_z
Si Si1 0.252459 0.423735 0.557201
Si Si2 0.767481 0.142376 0.817789
Si Si3 0.359501 0.947503 0.363771
Si Si4 0.850428 0.788751 0.068023
Si Si5 0.156140 0.166322 0.288238
Si Si6 0.238119 0.249560 0.486051
O O1 0.500000 0.500000 0.500000
O O2 0.145191 0.334237 0.766284
O O3 0.351181 0.351375 0.467122
O O4 0.000000 0.500000 0.500000
O O5 0.727280 0.046391 0.790901
O O6 0.466339 0.178809 0.882618
O O7 0.951998 0.136681 0.929915
O O8 0.928210 0.232933 0.615534
O O9 0.612716 0.865094 0.402373
O O10 0.110279 0.891026 0.543244
O O11 0.383335 0.070609 0.312390
O O12 0.917422 0.793998 0.887215
O O13 0.250305 0.255175 0.311113
#
# Coordination Sequence:
#
# PCOD9105009 Si02
#       6
#     2   2   2   2   2   2
#     4  11  23  42  70  88 116 166 217 262 319 368
#     4  10  20  39  63  87 132 163 210 250 303 362
#     4  10  20  42  63  95 130 181 201 236 317 390
#     4  11  23  42  62  99 126 159 214 270 304 361
#     4  10  24  37  65  96 136 168 200 254 314 381
#     4  10  21  42  66  91 129 166 213 251 317 379
#
# _framework density 21.390433000000002
#
# number of rings (size 3 to 8) (size 9 to 14) (size 15 to 20)
#    0.000    1.667    3.333    2.500    4.667    1.333 
#    0.000    1.667    0.000    0.000    0.000    0.000 
#    0.000    0.000    0.000    0.000    0.000    0.000 
#
# Total GULP energy -67032.708924 kJ/mol
# GULP energy per Si atom -5586.059077 kJ/mol
# Density = 2.134175 g / cm^3
# Si number density = 21.390433 Si / 1000 Ang^3
#
#
#
# Elastic Constant Matrix: (Units=GPa)
#
#
# Indices 1 2 3 4 5 6 
#
# 1 120.0874 44.4734 37.0724 8.1444 22.2165 -9.1948
# 2 44.4734 119.0350 64.2227 16.7696 20.4192 17.9156
# 3 37.0724 64.2227 142.4301 25.2580 37.2847 1.9824
# 4 8.1444 16.7696 25.2580 34.4944 14.4670 11.5236
# 5 22.2165 20.4192 37.2847 14.4670 29.5775 12.6181
# 6 -9.1948 17.9156 1.9824 11.5236 12.6181 36.9609
#
#
#
# Elastic Compliance Matrix: (Units=1/GPa)
#
#
# Indices 1 2 3 4 5 6 
#
# 1 0.012804 -0.005338 0.002426 -0.000021 -0.013332 0.010200
# 2 -0.005338 0.014426 -0.006786 -0.000351 0.007169 -0.010294
# 3 0.002426 -0.006786 0.014825 -0.003950 -0.018423 0.010619
# 4 -0.000021 -0.000351 -0.003950 0.039187 -0.010393 -0.008293
# 5 -0.013332 0.007169 -0.018423 -0.010393 0.079914 -0.029845
# 6 0.010200 -0.010294 0.010619 -0.008293 -0.029845 0.046788
#
#
# Mechanical properties :
#
#
# Convention : Reuss Voigt Hill
#
# Bulk Modulus (GPa) = 44.13450 74.78770 59.46110
# Shear Modulus (GPa) = 21.28627 35.92549 28.60588
#
# Velocity S-wave (km/s) = 3.15799 4.10263 3.66091
# Velocity P-wave (km/s) = 5.82879 7.58163 6.76225
#
# Compressibility (1/GPa) = 0.02265801
#
# Stress axis : x y z
#
# Youngs Moduli (GPa) = 78.09973 69.32035 67.45398
#
# Poissons Ratio (x) = 0.37004 -0.16364
# Poissons Ratio (y) = 0.41690 0.45776
# Poissons Ratio (z) = -0.18946 0.47043
#
# Static dielectric constant tensor:
#      x y z
#    x 1.818230 0.019460 0.032630 
#    y 0.019460 1.806170 0.011630 
#    z 0.032630 0.011630 1.782260 
# 
# From -- ./inp_files/23613.got.cif
#   From: 2010.05.17/outbox.cif.g08.bks.cpg/sg2_12_cif.got.tgz:23613.got - 2010.06.03 11:33:40.
