data_PCOD9105833
_publ_section_title
;
Structure prediction by ZEFSAII (Michael W. Deem and Ramdas Pophale) SiO2 
 PCOD9105833
Probable space group: P -1
;
_chemical_formula_sum "Si O2"
_cell_formula_units_Z 16
_cell_length_a 18.435578
_cell_length_b 8.791960
_cell_length_c 8.600276
_cell_angle_alpha 50.371984
_cell_angle_beta 67.250650
_cell_angle_gamma 98.820725
_cell_volume 818.202927
_symmetry_space_group_name_H-M "P -1"
_symmetry_group_IT_number 2
_symmetry_cell_setting 'triclinic'
loop_
_space_group_symop_operation_xyz
x,y,z
-x,-y,-z
loop_
_atom_site_type_symbol
_atom_site_label
_atom_site_fract_x
_atom_site_fract_y
_atom_site_fract_z
Si Si1 0.967733 0.173745 0.372054
Si Si2 0.700769 0.165430 0.212474
Si Si3 0.871174 0.269669 0.144970
Si Si4 0.426441 0.609605 0.366624
Si Si5 0.532435 0.677845 0.714264
Si Si6 0.662138 0.509840 0.147365
Si Si7 0.776646 0.060918 0.665117
Si Si8 0.371243 0.918277 0.022417
O O1 0.924810 0.151278 0.246525
O O2 0.879348 0.116741 0.591189
O O3 0.000000 0.000000 0.500000
O O4 0.051911 0.452550 0.131353
O O5 0.794406 0.160530 0.142564
O O6 0.723024 0.408333 0.110931
O O7 0.616037 0.941185 0.523466
O O8 0.656710 0.133106 0.100201
O O9 0.804862 0.220578 0.382855
O O10 0.430444 0.414371 0.392675
O O11 0.359313 0.504655 0.641867
O O12 0.533612 0.817636 0.197317
O O13 0.393022 0.736732 0.197422
O O14 0.440565 0.659517 0.737479
O O15 0.500000 0.500000 0.000000
O O16 0.710546 0.777927 0.872070
O O17 0.717975 0.110359 0.798293
#
# Coordination Sequence:
#
# PCOD9105833 Si02
#       8
#     2   2   2   2   2   2   2   2
#     4   9  19  40  69  93 118 157 206 259 317 383
#     4  12  24  38  58  93 125 160 211 263 310 362
#     4   9  21  39  64  93 121 152 206 259 313 376
#     4  11  24  40  57  82 130 174 218 246 299 367
#     4  12  24  37  56  85 124 165 211 261 306 360
#     4  12  22  37  61  88 123 171 213 252 304 366
#     4  10  20  39  66  90 116 165 209 249 312 378
#     4  11  23  39  59  86 125 171 208 258 303 363
#
# _framework density 19.555052
#
# number of rings (size 3 to 8) (size 9 to 14) (size 15 to 20)
#    0.750    0.500    2.500    4.500    3.500    0.000 
#    0.000    0.625    0.000    0.750    0.000    0.000 
#    0.000    0.000    0.000    0.000    0.000    0.000 
#
# Total GULP energy -89251.381594 kJ/mol
# GULP energy per Si atom -5578.211350 kJ/mol
# Density = 1.951054 g / cm^3
# Si number density = 19.555052 Si / 1000 Ang^3
#
#
#
# Elastic Constant Matrix: (Units=GPa)
#
#
# Indices 1 2 3 4 5 6 
#
# 1 130.4665 20.3317 37.1806 -0.7432 9.5988 -1.6378
# 2 20.3317 42.8542 10.4327 6.7136 2.4112 -11.8362
# 3 37.1806 10.4327 72.2046 -3.9981 -8.3222 -3.8545
# 4 -0.7432 6.7136 -3.9981 22.5494 0.0119 2.3168
# 5 9.5988 2.4112 -8.3222 0.0119 35.3801 -1.3567
# 6 -1.6378 -11.8362 -3.8545 2.3168 -1.3567 30.6815
#
#
#
# Elastic Compliance Matrix: (Units=1/GPa)
#
#
# Indices 1 2 3 4 5 6 
#
# 1 0.009968 -0.003925 -0.005046 0.000793 -0.003694 -0.001839
# 2 -0.003925 0.030990 -0.002553 -0.011062 -0.001176 0.012208
# 3 -0.005046 -0.002553 0.017731 0.003637 0.005749 0.000953
# 4 0.000793 -0.011062 0.003637 0.049074 0.001093 -0.007426
# 5 -0.003694 -0.001176 0.005749 0.001093 0.030751 0.001349
# 6 -0.001839 0.012208 0.000953 -0.007426 0.001349 0.037944
#
#
# Mechanical properties :
#
#
# Convention : Reuss Voigt Hill
#
# Bulk Modulus (GPa) = 28.05706 42.37948 35.21827
# Shear Modulus (GPa) = 23.65348 29.56088 26.60718
#
# Velocity S-wave (km/s) = 3.48168 3.89224 3.69267
# Velocity P-wave (km/s) = 5.52645 6.47444 6.01914
#
# Compressibility (1/GPa) = 0.03564165
#
# Stress axis : x y z
#
# Youngs Moduli (GPa) = 100.32467 32.26877 56.39708
#
# Poissons Ratio (x) = 0.12666 0.28456
# Poissons Ratio (y) = 0.39379 0.14397
# Poissons Ratio (z) = 0.50620 0.08238
#
# Static dielectric constant tensor:
#      x y z
#    x 1.758710 0.004470 0.021470 
#    y 0.004470 1.671940 -0.001550 
#    z 0.021470 -0.001550 1.691600 
# 
# From -- ./inp_files/312253.got.cif
#   From: 2010.05.17/outbox.cif.g08.bks.cpg/sg2_157_cif.got.tgz:312253.got - 2010.06.03 11:33:40.
