data_PCOD9105859
_publ_section_title
;
Structure prediction by ZEFSAII (Michael W. Deem and Ramdas Pophale) SiO2 
 PCOD9105859
Probable space group: P -1
;
_chemical_formula_sum "Si O2"
_cell_formula_units_Z 12
_cell_length_a 7.007732
_cell_length_b 12.494616
_cell_length_c 11.967313
_cell_angle_alpha 116.352254
_cell_angle_beta 43.052340
_cell_angle_gamma 83.007104
_cell_volume 438.587791
_symmetry_space_group_name_H-M "P -1"
_symmetry_group_IT_number 2
_symmetry_cell_setting 'triclinic'
loop_
_space_group_symop_operation_xyz
x,y,z
-x,-y,-z
loop_
_atom_site_type_symbol
_atom_site_label
_atom_site_fract_x
_atom_site_fract_y
_atom_site_fract_z
Si Si1 0.122364 0.325093 0.996478
Si Si2 0.284894 0.689014 0.002794
Si Si3 0.065091 0.356523 0.689729
Si Si4 0.268335 0.255890 0.301431
Si Si5 0.726759 0.887095 0.970446
Si Si6 0.805864 0.072238 0.407415
O O1 0.084700 0.227640 0.054022
O O2 0.541465 0.182001 0.682384
O O3 0.785941 0.406832 0.084504
O O4 0.059380 0.468709 0.150624
O O5 0.222839 0.654537 0.136389
O O6 0.615303 0.663405 0.781642
O O7 0.917045 0.899850 0.255930
O O8 0.078722 0.335940 0.540713
O O9 0.502807 0.204137 0.495930
O O10 0.663203 0.048448 0.067486
O O11 0.057860 0.238587 0.288412
O O12 0.258982 0.982094 0.205344
#
# Coordination Sequence:
#
# PCOD9105859 Si02
#       6
#     2   2   2   2   2   2
#     4  11  22  39  64  95 127 159 201 257 314 361
#     4  10  21  40  68  92 117 164 216 250 293 365
#     4  11  23  41  65  92 126 162 202 255 309 364
#     4  10  23  42  65  91 123 164 210 252 299 367
#     4  10  22  40  63  91 123 162 207 254 304 360
#     4  10  20  39  66  91 119 162 211 251 297 365
#
# _framework density 27.360543
#
# number of rings (size 3 to 8) (size 9 to 14) (size 15 to 20)
#    0.000    1.667    0.000    6.500    0.000   10.000 
#    0.000   18.333    0.000    0.000    0.000    0.000 
#    0.000    0.000    0.000    0.000    0.000    0.000 
#
# Total GULP energy -67069.636217 kJ/mol
# GULP energy per Si atom -5589.136351 kJ/mol
# Density = 2.729827 g / cm^3
# Si number density = 27.360543 Si / 1000 Ang^3
#
#
#
# Elastic Constant Matrix: (Units=GPa)
#
#
# Indices 1 2 3 4 5 6 
#
# 1 85.3022 35.2110 32.6047 -8.3638 12.5473 -5.5761
# 2 35.2110 169.7509 70.1765 -22.7298 8.6994 -21.0165
# 3 32.6047 70.1765 203.9408 -10.6099 39.8927 -3.2407
# 4 -8.3638 -22.7298 -10.6099 41.6831 -9.8957 12.6482
# 5 12.5473 8.6994 39.8927 -9.8957 49.0093 -7.4175
# 6 -5.5761 -21.0165 -3.2407 12.6482 -7.4175 56.9596
#
#
#
# Elastic Compliance Matrix: (Units=1/GPa)
#
#
# Indices 1 2 3 4 5 6 
#
# 1 0.013364 -0.002176 -0.000934 0.000751 -0.002122 0.000009
# 2 -0.002176 0.008014 -0.002654 0.003129 0.002258 0.002192
# 3 -0.000934 -0.002654 0.006939 -0.000758 -0.005272 -0.001194
# 4 0.000751 0.003129 -0.000758 0.028159 0.004884 -0.004432
# 5 -0.002122 0.002258 -0.005272 0.004884 0.026226 0.002656
# 6 0.000009 0.002192 -0.001194 -0.004432 0.002656 0.019628
#
#
# Mechanical properties :
#
#
# Convention : Reuss Voigt Hill
#
# Bulk Modulus (GPa) = 59.55709 81.66426 70.61068
# Shear Modulus (GPa) = 41.85729 50.93050 46.39390
#
# Velocity S-wave (km/s) = 3.91556 4.31914 4.12229
# Velocity P-wave (km/s) = 6.50053 7.40173 6.96572
#
# Compressibility (1/GPa) = 0.01679061
#
# Stress axis : x y z
#
# Youngs Moduli (GPa) = 74.82576 124.77976 144.12034
#
# Poissons Ratio (x) = 0.27149 0.13454
# Poissons Ratio (y) = 0.16280 0.38249
# Poissons Ratio (z) = 0.06985 0.33116
#
# Static dielectric constant tensor:
#      x y z
#    x 2.168350 -0.005250 -0.106120 
#    y -0.005250 2.219820 -0.066890 
#    z -0.106120 -0.066890 2.236030 
# 
# From -- ./inp_files/153779.got.cif
#   From: 2010.05.17/outbox.cif.g08.bks.cpg/sg2_77_cif.got.tgz:153779.got - 2010.06.03 11:33:40.
