data_PCOD9105908
_publ_section_title
;
Structure prediction by ZEFSAII (Michael W. Deem and Ramdas Pophale) SiO2 
 PCOD9105908
Probable space group: P -1
;
_chemical_formula_sum "Si O2"
_cell_formula_units_Z 16
_cell_length_a 24.405820
_cell_length_b 11.753141
_cell_length_c 7.454597
_cell_angle_alpha 44.281165
_cell_angle_beta 125.472838
_cell_angle_gamma 151.431598
_cell_volume 706.375846
_symmetry_space_group_name_H-M "P -1"
_symmetry_group_IT_number 2
_symmetry_cell_setting 'triclinic'
loop_
_space_group_symop_operation_xyz
x,y,z
-x,-y,-z
loop_
_atom_site_type_symbol
_atom_site_label
_atom_site_fract_x
_atom_site_fract_y
_atom_site_fract_z
Si Si1 0.823627 0.611217 0.974157
Si Si2 0.096104 0.330788 0.304771
Si Si3 0.965328 0.190134 0.697989
Si Si4 0.759632 0.175354 0.750907
Si Si5 0.563445 0.107562 0.188013
Si Si6 0.940506 0.300956 0.883278
Si Si7 0.596320 0.828346 0.524104
Si Si8 0.548199 0.783605 0.062328
O O1 0.814716 0.537164 0.834067
O O2 0.884084 0.906759 0.758327
O O3 0.701229 0.381227 0.101340
O O4 0.919783 0.680248 0.164953
O O5 0.164816 0.515234 0.405967
O O6 0.000000 0.000000 0.500000
O O7 0.026689 0.356332 0.091075
O O8 0.903966 0.125575 0.837704
O O9 0.997454 0.414666 0.396276
O O10 0.833044 0.157781 0.950091
O O11 0.718478 0.071555 0.584942
O O12 0.651700 0.972848 0.906031
O O13 0.534946 0.864534 0.460305
O O14 0.518421 0.175381 0.132755
O O15 0.500000 0.000000 0.000000
O O16 0.595163 0.858844 0.273238
O O17 0.535480 0.535929 0.765516
#
# Coordination Sequence:
#
# PCOD9105908 Si02
#       8
#     2   2   2   2   2   2   2   2
#     4  10  20  39  66  93 133 173 224 281 338 403
#     4  11  24  43  59  95 141 176 224 282 342 411
#     4   9  20  39  67  99 125 173 228 278 336 412
#     4  12  24  43  69  98 136 178 224 283 338 413
#     4  10  21  41  66  96 131 177 225 272 339 407
#     4  10  22  40  63  98 133 172 223 277 344 400
#     4  10  23  45  67  96 138 178 228 285 337 404
#     4  10  24  46  67 101 139 174 233 283 339 412
#
# _framework density 22.650831
#
# number of rings (size 3 to 8) (size 9 to 14) (size 15 to 20)
#    0.000    1.750    0.000    3.750    1.750    4.500 
#   13.500    0.000    0.000    0.000    0.000    0.000 
#    0.000    0.000    0.000    0.000    0.000    0.000 
#
# Total GULP energy -89383.201542 kJ/mol
# GULP energy per Si atom -5586.450096 kJ/mol
# Density = 2.259928 g / cm^3
# Si number density = 22.650831 Si / 1000 Ang^3
#
#
#
# Elastic Constant Matrix: (Units=GPa)
#
#
# Indices 1 2 3 4 5 6 
#
# 1 173.4122 48.5365 31.8068 -5.6511 18.8953 7.6558
# 2 48.5365 114.3644 27.1140 -10.0259 9.3537 -27.6174
# 3 31.8068 27.1140 70.3158 -7.1093 30.0687 -11.4170
# 4 -5.6511 -10.0259 -7.1093 29.6691 -5.3138 0.5386
# 5 18.8953 9.3537 30.0687 -5.3138 39.5038 -0.2386
# 6 7.6558 -27.6174 -11.4170 0.5386 -0.2386 41.5054
#
#
#
# Elastic Compliance Matrix: (Units=1/GPa)
#
#
# Indices 1 2 3 4 5 6 
#
# 1 0.007515 -0.003677 -0.002299 -0.000472 -0.001064 -0.004465
# 2 -0.003677 0.013124 -0.001875 0.003226 0.000566 0.008857
# 3 -0.002299 -0.001875 0.024178 0.001644 -0.016604 0.005710
# 4 -0.000472 0.003226 0.001644 0.035598 0.003012 0.002241
# 5 -0.001064 0.000566 -0.016604 0.003012 0.038710 -0.003811
# 6 -0.004465 0.008857 0.005710 0.002241 -0.003811 0.032330
#
#
# Mechanical properties :
#
#
# Convention : Reuss Voigt Hill
#
# Bulk Modulus (GPa) = 34.34655 63.66743 49.00699
# Shear Modulus (GPa) = 28.27034 38.84466 33.55750
#
# Velocity S-wave (km/s) = 3.53667 4.14567 3.85322
# Velocity P-wave (km/s) = 5.64569 7.14735 6.44044
#
# Compressibility (1/GPa) = 0.02911500
#
# Stress axis : x y z
#
# Youngs Moduli (GPa) = 133.06366 76.19404 41.35909
#
# Poissons Ratio (x) = 0.28016 0.09509
# Poissons Ratio (y) = 0.48927 0.07757
# Poissons Ratio (z) = 0.30593 0.14290
#
# Static dielectric constant tensor:
#      x y z
#    x 1.863410 -0.016670 -0.016150 
#    y -0.016670 1.876730 0.032340 
#    z -0.016150 0.032340 1.879750 
# 
# From -- ./inp_files/353353.got.cif
#   From: 2010.05.17/outbox.cif.g08.bks.cpg/sg2_177_cif.got.tgz:353353.got - 2010.06.03 11:33:40.
