data_PCOD9105958
_publ_section_title
;
Structure prediction by ZEFSAII (Michael W. Deem and Ramdas Pophale) SiO2 
 PCOD9105958
Probable space group: P -1
;
_chemical_formula_sum "Si O2"
_cell_formula_units_Z 16
_cell_length_a 8.704920
_cell_length_b 10.247076
_cell_length_c 14.273624
_cell_angle_alpha 117.644188
_cell_angle_beta 92.762292
_cell_angle_gamma 43.130605
_cell_volume 676.639285
_symmetry_space_group_name_H-M "P -1"
_symmetry_group_IT_number 2
_symmetry_cell_setting 'triclinic'
loop_
_space_group_symop_operation_xyz
x,y,z
-x,-y,-z
loop_
_atom_site_type_symbol
_atom_site_label
_atom_site_fract_x
_atom_site_fract_y
_atom_site_fract_z
Si Si1 0.175956 0.955859 0.563713
Si Si2 0.559631 0.205218 0.169232
Si Si3 0.680952 0.833718 0.150486
Si Si4 0.742237 0.937667 0.666461
Si Si5 0.243886 0.502375 0.073900
Si Si6 0.995351 0.010001 0.782562
Si Si7 0.600241 0.752602 0.404073
Si Si8 0.045105 0.593409 0.385896
O O1 0.124767 0.942389 0.662019
O O2 0.075158 0.196631 0.620179
O O3 0.473887 0.739769 0.471199
O O4 0.000000 0.000000 0.500000
O O5 0.434125 0.335552 0.110190
O O6 0.340148 0.384635 0.301645
O O7 0.653228 0.964935 0.105148
O O8 0.791306 0.133923 0.180106
O O9 0.445861 0.034652 0.281452
O O10 0.957445 0.661318 0.142546
O O11 0.675556 0.669053 0.063464
O O12 0.542528 0.179439 0.673649
O O13 0.868949 0.949141 0.747840
O O14 0.953447 0.709601 0.525959
O O15 0.205338 0.702626 0.114931
O O16 0.903632 0.545753 0.345379
O O17 0.500000 0.000000 0.500000
#
# Coordination Sequence:
#
# PCOD9105958 Si02
#       8
#     2   2   2   2   2   2   2   2
#     4  10  16  34  55  83 118 157 189 226 283 347
#     4  11  23  37  61  88 117 152 196 236 285 352
#     4  10  23  41  65  83 113 151 195 253 282 340
#     4  10  20  37  55  92 122 146 195 232 292 348
#     4  10  22  43  64  85 108 152 204 240 294 330
#     4  11  22  36  61  87 116 161 188 235 291 349
#     4   8  17  29  56  79 114 151 183 232 272 337
#     4  10  20  34  58  87 120 151 187 240 284 343
#
# _framework density 23.646277999999999
#
# number of rings (size 3 to 8) (size 9 to 14) (size 15 to 20)
#    0.000    2.250    3.750    1.125    8.750    1.500 
#    0.000    3.125    0.000    0.000    0.000    0.000 
#    0.000    0.000    0.000    0.000    0.000    0.000 
#
# Total GULP energy -89349.333689 kJ/mol
# GULP energy per Si atom -5584.333356 kJ/mol
# Density = 2.359246 g / cm^3
# Si number density = 23.646278 Si / 1000 Ang^3
#
#
#
# Elastic Constant Matrix: (Units=GPa)
#
#
# Indices 1 2 3 4 5 6 
#
# 1 71.6689 17.6196 1.5269 1.5382 4.4749 -20.0999
# 2 17.6196 97.4592 6.1634 -13.4475 13.3915 -20.6993
# 3 1.5269 6.1634 46.7078 -3.6158 13.1766 -8.9264
# 4 1.5382 -13.4475 -3.6158 18.5948 -4.4094 2.0244
# 5 4.4749 13.3915 13.1766 -4.4094 31.8314 -6.9766
# 6 -20.0999 -20.6993 -8.9264 2.0244 -6.9766 27.0908
#
#
#
# Elastic Compliance Matrix: (Units=1/GPa)
#
#
# Indices 1 2 3 4 5 6 
#
# 1 0.018007 -0.000924 0.001977 -0.003350 -0.000481 0.013432
# 2 -0.000924 0.013860 0.001468 0.008666 -0.003151 0.008929
# 3 0.001977 0.001468 0.025588 0.002760 -0.009257 0.008429
# 4 -0.003350 0.008666 0.002760 0.061773 0.004593 0.001612
# 5 -0.000481 -0.003151 -0.009257 0.004593 0.038077 0.003648
# 6 0.013432 0.008929 0.008429 0.001612 0.003648 0.057298
#
#
# Mechanical properties :
#
#
# Convention : Reuss Voigt Hill
#
# Bulk Modulus (GPa) = 16.00107 29.60619 22.80363
# Shear Modulus (GPa) = 21.70210 28.20515 24.95362
#
# Velocity S-wave (km/s) = 3.03278 3.45743 3.25204
# Velocity P-wave (km/s) = 4.36408 5.33723 4.87500
#
# Compressibility (1/GPa) = 0.06249581
#
# Stress axis : x y z
#
# Youngs Moduli (GPa) = 55.53367 72.14977 39.08155
#
# Poissons Ratio (x) = 0.06664 -0.07725
# Poissons Ratio (y) = 0.05130 -0.05735
# Poissons Ratio (z) = -0.10977 -0.10588
#
# Static dielectric constant tensor:
#      x y z
#    x 1.910710 -0.009410 0.006750 
#    y -0.009410 1.971680 0.049380 
#    z 0.006750 0.049380 1.941400 
# 
# From -- ./inp_files/499322.got.cif
#   From: 2010.05.17/outbox.cif.g08.bks.cpg/sg2_250_cif.got.tgz:499322.got - 2010.06.03 11:33:40.
