data_PCOD9105240
_publ_section_title
;
Structure prediction by ZEFSAII (Michael W. Deem and Ramdas Pophale) SiO2 
 PCOD9105240
Probable space group: P -1
;
_chemical_formula_sum "Si O2"
_cell_formula_units_Z 14
_cell_length_a 15.017671
_cell_length_b 10.675179
_cell_length_c 5.147979
_cell_angle_alpha 113.574442
_cell_angle_beta 83.358440
_cell_angle_gamma 54.531774
_cell_volume 545.138241
_symmetry_space_group_name_H-M "P -1"
_symmetry_group_IT_number 2
_symmetry_cell_setting 'triclinic'
loop_
_space_group_symop_operation_xyz
x,y,z
-x,-y,-z
loop_
_atom_site_type_symbol
_atom_site_label
_atom_site_fract_x
_atom_site_fract_y
_atom_site_fract_z
Si Si1 0.072231 0.200587 0.626214
Si Si2 0.284415 0.204784 0.089578
Si Si3 0.604788 0.794119 0.425666
Si Si4 0.911899 0.164567 0.949523
Si Si5 0.695018 0.199340 0.845724
Si Si6 0.583093 0.223549 0.402694
Si Si7 0.061465 0.583027 0.670794
O O1 0.216847 0.027219 0.400558
O O2 0.008953 0.298290 0.461491
O O3 0.031253 0.338294 0.992256
O O4 0.009576 0.123178 0.675261
O O5 0.367822 0.177788 0.273667
O O6 0.150980 0.366561 0.396173
O O7 0.289252 0.292521 0.897691
O O8 0.329320 0.004748 0.843534
O O9 0.546513 0.704776 0.401899
O O10 0.500000 0.000000 0.500000
O O11 0.859452 0.364461 0.241725
O O12 0.794095 0.204468 0.923023
O O13 0.000000 0.000000 0.000000
O O14 0.637094 0.269290 0.638539
O O15 0.591966 0.281398 0.165430
#
# Coordination Sequence:
#
# PCOD9105240 Si02
#       7
#     2   2   2   2   2   2   2
#     4  10  21  36  55  86 111 154 196 226 273 332
#     4  11  21  41  61  85 116 148 194 238 282 352
#     4  10  20  39  64  82 110 150 198 241 276 338
#     4  10  21  37  63  81 115 153 206 232 266 327
#     4  12  21  35  58  87 120 146 189 241 281 332
#     4  11  23  35  58  90 113 146 188 237 301 332
#     4  10  22  35  61  85 111 153 204 224 278 329
#
# _framework density 25.681557999999999
#
# number of rings (size 3 to 8) (size 9 to 14) (size 15 to 20)
#    0.857    0.571    1.429    7.286    2.000    0.000 
#    0.000    4.286    0.000    5.143    0.000    0.000 
#    0.000    0.000    0.000    0.000    0.000    0.000 
#
# Total GULP energy -78275.290413 kJ/mol
# GULP energy per Si atom -5591.092172 kJ/mol
# Density = 2.562311 g / cm^3
# Si number density = 25.681558 Si / 1000 Ang^3
#
#
#
# Elastic Constant Matrix: (Units=GPa)
#
#
# Indices 1 2 3 4 5 6 
#
# 1 98.0199 19.9513 47.2415 -17.2274 22.3001 24.2656
# 2 19.9513 65.8535 27.8639 -22.0092 8.0302 1.6207
# 3 47.2415 27.8639 138.7621 -30.5817 7.9804 2.3209
# 4 -17.2274 -22.0092 -30.5817 50.3890 -3.7373 2.1697
# 5 22.3001 8.0302 7.9804 -3.7373 62.0143 -7.9867
# 6 24.2656 1.6207 2.3209 2.1697 -7.9867 30.1378
#
#
#
# Elastic Compliance Matrix: (Units=1/GPa)
#
#
# Indices 1 2 3 4 5 6 
#
# 1 0.019816 -0.001319 -0.004961 0.003337 -0.008431 -0.017976
# 2 -0.001319 0.018719 -0.001769 0.006575 -0.001410 -0.000656
# 3 -0.004961 -0.001769 0.009880 0.003483 0.001395 0.003447
# 4 0.003337 0.006575 0.003483 0.026092 -0.001652 -0.005625
# 5 -0.008431 -0.001410 0.001395 -0.001652 0.020651 0.012348
# 6 -0.017976 -0.000656 0.003447 -0.005625 0.012348 0.051102
#
#
# Mechanical properties :
#
#
# Convention : Reuss Voigt Hill
#
# Bulk Modulus (GPa) = 30.94159 54.74985 42.84572
# Shear Modulus (GPa) = 28.88030 42.34682 35.61356
#
# Velocity S-wave (km/s) = 3.35708 4.06509 3.72793
# Velocity P-wave (km/s) = 5.20586 6.58774 5.93714
#
# Compressibility (1/GPa) = 0.03231896
#
# Stress axis : x y z
#
# Youngs Moduli (GPa) = 50.46451 53.42210 101.21192
#
# Poissons Ratio (x) = 0.07046 0.50207
# Poissons Ratio (y) = 0.06656 0.17900
# Poissons Ratio (z) = 0.25033 0.09448
#
# Static dielectric constant tensor:
#      x y z
#    x 2.103250 0.032670 0.007050 
#    y 0.032670 2.044140 0.042430 
#    z 0.007050 0.042430 2.152980 
# 
# From -- ./inp_files/95635.got.cif
#   From: 2010.05.17/outbox.cif.g08.bks.cpg/sg2_48_cif.got.tgz:95635.got - 2010.06.03 11:33:40.
