data_PCOD9105586
_publ_section_title
;
Structure prediction by ZEFSAII (Michael W. Deem and Ramdas Pophale) SiO2 
 PCOD9105586
Probable space group: P -1
;
_chemical_formula_sum "Si O2"
_cell_formula_units_Z 16
_cell_length_a 9.527334
_cell_length_b 8.164727
_cell_length_c 12.603494
_cell_angle_alpha 79.460162
_cell_angle_beta 86.803626
_cell_angle_gamma 131.520427
_cell_volume 700.483385
_symmetry_space_group_name_H-M "P -1"
_symmetry_group_IT_number 2
_symmetry_cell_setting 'triclinic'
loop_
_space_group_symop_operation_xyz
x,y,z
-x,-y,-z
loop_
_atom_site_type_symbol
_atom_site_label
_atom_site_fract_x
_atom_site_fract_y
_atom_site_fract_z
Si Si1 0.100517 0.865983 0.465058
Si Si2 0.164024 0.165622 0.675397
Si Si3 0.381036 0.069604 0.782230
Si Si4 0.359729 0.043399 0.015442
Si Si5 0.474881 0.688376 0.582376
Si Si6 0.593694 0.295750 0.169303
Si Si7 0.044562 0.198999 0.905315
Si Si8 0.239267 0.636904 0.404394
O O1 0.162578 0.763565 0.395704
O O2 0.989120 0.918348 0.398967
O O3 0.937375 0.636133 0.567550
O O4 0.299438 0.098781 0.477248
O O5 0.221740 0.027770 0.721921
O O6 0.368802 0.423612 0.610499
O O7 0.076708 0.178201 0.783840
O O8 0.592885 0.253428 0.700469
O O9 0.337833 0.839904 0.822571
O O10 0.380049 0.152330 0.888856
O O11 0.424825 0.183325 0.104455
O O12 0.135693 0.824384 0.067506
O O13 0.500000 0.000000 0.000000
O O14 0.458634 0.718435 0.704073
O O15 0.343500 0.692394 0.508316
O O16 0.762721 0.554261 0.096801
O O17 0.000000 0.000000 0.000000
#
# Coordination Sequence:
#
# PCOD9105586 Si02
#       8
#     2   2   2   2   2   2   2   2
#     4  10  20  39  65  91 118 167 218 251 307 382
#     4  10  23  40  61  92 132 164 206 267 316 368
#     4  11  22  43  60  95 136 166 202 272 322 364
#     4  10  23  42  63  93 129 164 211 259 313 374
#     4  10  20  41  66  93 122 166 222 256 312 378
#     4  10  23  41  70  90 126 173 211 259 317 379
#     4  11  22  43  66  94 125 167 217 257 311 383
#     4  10  22  38  68  93 125 165 215 266 307 373
#
# _framework density 22.841367000000002
#
# number of rings (size 3 to 8) (size 9 to 14) (size 15 to 20)
#    0.000    1.750    2.500    1.125    1.750    4.500 
#    2.250    5.000    0.000    0.000    0.000    0.000 
#    0.000    0.000    0.000    0.000    0.000    0.000 
#
# Total GULP energy -89416.389844 kJ/mol
# GULP energy per Si atom -5588.524365 kJ/mol
# Density = 2.278938 g / cm^3
# Si number density = 22.841367 Si / 1000 Ang^3
#
#
#
# Elastic Constant Matrix: (Units=GPa)
#
#
# Indices 1 2 3 4 5 6 
#
# 1 88.8228 18.4838 26.1357 -9.0875 7.4267 10.9160
# 2 18.4838 109.8617 41.8076 -8.7190 14.1697 21.3095
# 3 26.1357 41.8076 119.2993 4.2504 -3.3425 8.9458
# 4 -9.0875 -8.7190 4.2504 42.7519 5.0042 -2.8842
# 5 7.4267 14.1697 -3.3425 5.0042 41.6482 -4.5774
# 6 10.9160 21.3095 8.9458 -2.8842 -4.5774 25.9283
#
#
#
# Elastic Compliance Matrix: (Units=1/GPa)
#
#
# Indices 1 2 3 4 5 6 
#
# 1 0.013329 0.000726 -0.002991 0.003362 -0.003871 -0.005486
# 2 0.000726 0.014045 -0.004568 0.003534 -0.006919 -0.011101
# 3 -0.002991 -0.004568 0.010720 -0.002932 0.003476 0.001603
# 4 0.003362 0.003534 -0.002932 0.025641 -0.005270 -0.001386
# 5 -0.003871 -0.006919 0.003476 -0.005270 0.029140 0.010675
# 6 -0.005486 -0.011101 0.001603 -0.001386 0.010675 0.051178
#
#
# Mechanical properties :
#
#
# Convention : Reuss Voigt Hill
#
# Bulk Modulus (GPa) = 40.93904 54.53756 47.73830
# Shear Modulus (GPa) = 30.14533 37.50278 33.82406
#
# Velocity S-wave (km/s) = 3.63680 4.05641 3.85232
# Velocity P-wave (km/s) = 5.96634 6.77257 6.38220
#
# Compressibility (1/GPa) = 0.02442656
#
# Stress axis : x y z
#
# Youngs Moduli (GPa) = 75.02290 71.20139 93.28170
#
# Poissons Ratio (x) = -0.05168 0.27904
# Poissons Ratio (y) = -0.05445 0.42613
# Poissons Ratio (z) = 0.22442 0.32526
#
# Static dielectric constant tensor:
#      x y z
#    x 1.882680 -0.037650 -0.015700 
#    y -0.037650 1.852640 0.042340 
#    z -0.015700 0.042340 1.895340 
# 
# From -- ./inp_files/492537.got.cif
#   From: 2010.05.17/outbox.cif.g08.bks.cpg/sg2_247_cif.got.tgz:492537.got - 2010.06.03 11:33:40.
