data_PCOD9105600
_publ_section_title
;
Structure prediction by ZEFSAII (Michael W. Deem and Ramdas Pophale) SiO2 
 PCOD9105600
Probable space group: P -1
;
_chemical_formula_sum "Si O2"
_cell_formula_units_Z 16
_cell_length_a 9.104844
_cell_length_b 11.064790
_cell_length_c 22.752799
_cell_angle_alpha 32.192274
_cell_angle_beta 138.177120
_cell_angle_gamma 124.728665
_cell_volume 802.251817
_symmetry_space_group_name_H-M "P -1"
_symmetry_group_IT_number 2
_symmetry_cell_setting 'triclinic'
loop_
_space_group_symop_operation_xyz
x,y,z
-x,-y,-z
loop_
_atom_site_type_symbol
_atom_site_label
_atom_site_fract_x
_atom_site_fract_y
_atom_site_fract_z
Si Si1 0.790800 0.117828 0.173108
Si Si2 0.484818 0.264122 0.368721
Si Si3 0.820840 0.376498 0.786688
Si Si4 0.294840 0.108367 0.016909
Si Si5 0.237401 0.565620 0.386975
Si Si6 0.095640 0.472111 0.104914
Si Si7 0.099784 0.990784 0.886967
Si Si8 0.988170 0.335135 0.508621
O O1 0.929573 0.318935 0.146903
O O2 0.829720 0.034755 0.150060
O O3 0.525497 0.186018 0.069214
O O4 0.885033 0.910237 0.330033
O O5 0.312891 0.428701 0.292065
O O6 0.347665 0.328215 0.241267
O O7 0.730322 0.326787 0.419766
O O8 0.500000 0.000000 0.500000
O O9 0.805985 0.481895 0.673961
O O10 0.082916 0.273371 0.913418
O O11 0.704345 0.149274 0.851548
O O12 0.251907 0.092972 0.939365
O O13 0.500000 0.500000 0.500000
O O14 0.135192 0.835925 0.253691
O O15 0.108967 0.430421 0.450469
O O16 0.000000 0.500000 0.000000
O O17 0.092424 0.735520 0.013817
O O18 0.000000 0.500000 0.500000
#
# Coordination Sequence:
#
# PCOD9105600 Si02
#       8
#     2   2   2   2   2   2   2   2
#     4  11  21  38  63 100 128 167 230 274 323 402
#     4  12  24  46  70  92 140 179 225 277 331 412
#     4  10  23  39  64  94 129 177 213 273 350 386
#     4  10  20  39  65  91 131 167 218 279 339 391
#     4  11  23  39  62  99 138 169 219 283 339 397
#     4  10  23  40  62  96 131 171 220 274 337 384
#     4  10  21  37  65  95 128 175 217 278 337 386
#     4  12  24  40  69 101 130 179 229 271 332 398
#
# _framework density 19.943861999999999
#
# number of rings (size 3 to 8) (size 9 to 14) (size 15 to 20)
#    0.000    1.250    3.750    2.625    0.000    4.000 
#    0.000    2.500    0.000    0.000    0.000    0.000 
#    0.000    0.000    0.000    0.000    0.000    0.000 
#
# Total GULP energy -89274.653467 kJ/mol
# GULP energy per Si atom -5579.665842 kJ/mol
# Density = 1.989847 g / cm^3
# Si number density = 19.943862 Si / 1000 Ang^3
#
#
#
# Elastic Constant Matrix: (Units=GPa)
#
#
# Indices 1 2 3 4 5 6 
#
# 1 84.1587 18.6447 37.5097 7.1895 0.2425 7.8181
# 2 18.6447 75.4737 51.9072 18.0947 14.7347 31.5243
# 3 37.5097 51.9072 159.7602 -0.0944 4.5391 19.9778
# 4 7.1895 18.0947 -0.0944 40.4305 1.2957 4.9470
# 5 0.2425 14.7347 4.5391 1.2957 40.4380 10.8505
# 6 7.8181 31.5243 19.9778 4.9470 10.8505 33.0185
#
#
#
# Elastic Compliance Matrix: (Units=1/GPa)
#
#
# Indices 1 2 3 4 5 6 
#
# 1 0.013566 -0.000736 -0.002880 -0.002027 0.000767 -0.000716
# 2 -0.000736 0.030884 -0.006988 -0.010872 -0.004192 -0.022077
# 3 -0.002880 -0.006988 0.009054 0.003505 0.001176 0.000964
# 4 -0.002027 -0.010872 0.003505 0.029452 0.001618 0.003795
# 5 0.000767 -0.004192 0.001176 0.001618 0.027746 -0.006251
# 6 -0.000716 -0.022077 0.000964 0.003795 -0.006251 0.052436
#
#
# Mechanical properties :
#
#
# Convention : Reuss Voigt Hill
#
# Bulk Modulus (GPa) = 30.96246 59.50178 45.23212
# Shear Modulus (GPa) = 25.62646 36.86614 31.24630
#
# Velocity S-wave (km/s) = 3.58848 4.30408 3.96247
# Velocity P-wave (km/s) = 5.72085 7.38915 6.60786
#
# Compressibility (1/GPa) = 0.03229717
#
# Stress axis : x y z
#
# Youngs Moduli (GPa) = 73.71272 32.37925 110.44689
#
# Poissons Ratio (x) = 0.02382 0.31804
# Poissons Ratio (y) = 0.05423 0.77183
# Poissons Ratio (z) = 0.21226 0.22627
#
# Static dielectric constant tensor:
#      x y z
#    x 1.768130 -0.145560 -0.101600 
#    y -0.145560 2.028020 0.158400 
#    z -0.101600 0.158400 1.793090 
# 
# From -- ./inp_files/207387.got.cif
#   From: 2010.05.17/outbox.cif.g08.bks.cpg/sg2_104_cif.got.tgz:207387.got - 2010.06.03 11:33:40.
