data_PCOD9105449
_publ_section_title
;
Structure prediction by ZEFSAII (Michael W. Deem and Ramdas Pophale) SiO2 
 PCOD9105449
Probable space group: P -1
;
_chemical_formula_sum "Si O2"
_cell_formula_units_Z 16
_cell_length_a 9.150073
_cell_length_b 7.902186
_cell_length_c 16.569881
_cell_angle_alpha 40.866612
_cell_angle_beta 64.577592
_cell_angle_gamma 89.886544
_cell_volume 593.150205
_symmetry_space_group_name_H-M "P -1"
_symmetry_group_IT_number 2
_symmetry_cell_setting 'triclinic'
loop_
_space_group_symop_operation_xyz
x,y,z
-x,-y,-z
loop_
_atom_site_type_symbol
_atom_site_label
_atom_site_fract_x
_atom_site_fract_y
_atom_site_fract_z
Si Si1 0.226065 0.262428 0.861133
Si Si2 0.920045 0.653023 0.836162
Si Si3 0.613150 0.521214 0.076393
Si Si4 0.305155 0.098891 0.637082
Si Si5 0.077892 0.359126 0.343253
Si Si6 0.730796 0.423052 0.421369
Si Si7 0.385274 0.602789 0.313899
Si Si8 0.729740 0.982159 0.748772
O O1 0.296999 0.376719 0.894049
O O2 0.258846 0.525075 0.696339
O O3 0.383380 0.184125 0.823558
O O4 0.000000 0.000000 0.000000
O O5 0.919333 0.971231 0.712391
O O6 0.896837 0.538760 0.792489
O O7 0.746161 0.457458 0.009630
O O8 0.121530 0.760188 0.789885
O O9 0.394847 0.244174 0.213078
O O10 0.628918 0.806434 0.920755
O O11 0.509426 0.145839 0.590883
O O12 0.259014 0.280967 0.648341
O O13 0.340435 0.285510 0.477976
O O14 0.913628 0.402663 0.404574
O O15 0.278600 0.543673 0.276105
O O16 0.000000 0.000000 0.500000
O O17 0.285002 0.726656 0.350348
#
# Coordination Sequence:
#
# PCOD9105449 Si02
#       8
#     2   2   2   2   2   2   2   2
#     4  11  24  45  65  99 138 177 227 276 336 406
#     4  10  20  39  64  95 133 169 218 278 338 389
#     4   9  21  43  66  93 141 174 224 279 332 394
#     4  10  21  44  63  97 135 174 220 278 345 411
#     4  12  25  42  67 103 135 171 230 283 337 397
#     4  10  25  42  65  97 137 176 222 277 343 402
#     4  11  24  40  71  98 128 180 229 278 338 398
#     4   9  21  40  68 100 129 180 226 285 323 398
#
# _framework density 26.974616999999999
#
# number of rings (size 3 to 8) (size 9 to 14) (size 15 to 20)
#    0.750    1.000    1.250    2.250    3.500    3.000 
#    0.000    5.000    0.000    0.000    0.000    0.000 
#    0.000    0.000    0.000    0.000    0.000    0.000 
#
# Total GULP energy -89560.587243 kJ/mol
# GULP energy per Si atom -5597.536703 kJ/mol
# Density = 2.691322 g / cm^3
# Si number density = 26.974617 Si / 1000 Ang^3
#
#
#
# Elastic Constant Matrix: (Units=GPa)
#
#
# Indices 1 2 3 4 5 6 
#
# 1 185.2611 43.1681 32.7177 4.8849 -18.8225 7.9345
# 2 43.1681 99.3827 16.8128 28.9699 -7.7603 23.6505
# 3 32.7177 16.8128 65.4626 14.8270 -19.7104 4.4863
# 4 4.8849 28.9699 14.8270 38.6498 0.7957 -1.1621
# 5 -18.8225 -7.7603 -19.7104 0.7957 51.0045 1.3153
# 6 7.9345 23.6505 4.4863 -1.1621 1.3153 64.5733
#
#
#
# Elastic Compliance Matrix: (Units=1/GPa)
#
#
# Indices 1 2 3 4 5 6 
#
# 1 0.006658 -0.003286 -0.002915 0.002742 0.000772 0.000622
# 2 -0.003286 0.016590 0.001344 -0.012762 0.002186 -0.006040
# 3 -0.002915 0.001344 0.020711 -0.008791 0.007318 -0.001880
# 4 0.002742 -0.012762 -0.008791 0.038743 -0.005080 0.005749
# 5 0.000772 0.002186 0.007318 -0.005080 0.023181 -0.001967
# 6 0.000622 -0.006040 -0.001880 0.005749 -0.001967 0.017896
#
#
# Mechanical properties :
#
#
# Convention : Reuss Voigt Hill
#
# Bulk Modulus (GPa) = 29.20097 59.50040 44.35069
# Shear Modulus (GPa) = 34.50467 48.00604 41.25535
#
# Velocity S-wave (km/s) = 3.58041 4.22320 3.91501
# Velocity P-wave (km/s) = 5.28595 6.77394 6.07567
#
# Compressibility (1/GPa) = 0.03424543
#
# Stress axis : x y z
#
# Youngs Moduli (GPa) = 150.20246 60.27669 48.28334
#
# Poissons Ratio (x) = 0.19806 0.14074
# Poissons Ratio (y) = 0.49353 -0.06489
# Poissons Ratio (z) = 0.43783 -0.08101
#
# Static dielectric constant tensor:
#      x y z
#    x 2.065080 -0.041600 0.060890 
#    y -0.041600 2.118130 0.028990 
#    z 0.060890 0.028990 2.146620 
# 
# From -- ./inp_files/556865.got.cif
#   From: 2010.05.17/outbox.cif.g08.bks.cpg/sg2_279_cif.got.tgz:556865.got - 2010.06.03 11:33:40.
