data_PCOD9105389
_publ_section_title
;
Structure prediction by ZEFSAII (Michael W. Deem and Ramdas Pophale) SiO2 
 PCOD9105389
Probable space group: P -1
;
_chemical_formula_sum "Si O2"
_cell_formula_units_Z 16
_cell_length_a 8.577967
_cell_length_b 13.567497
_cell_length_c 28.916398
_cell_angle_alpha 18.703357
_cell_angle_beta 41.117006
_cell_angle_gamma 48.583572
_cell_volume 687.688232
_symmetry_space_group_name_H-M "P -1"
_symmetry_group_IT_number 2
_symmetry_cell_setting 'triclinic'
loop_
_space_group_symop_operation_xyz
x,y,z
-x,-y,-z
loop_
_atom_site_type_symbol
_atom_site_label
_atom_site_fract_x
_atom_site_fract_y
_atom_site_fract_z
Si Si1 0.058587 0.920076 0.328559
Si Si2 0.614434 0.856943 0.329630
Si Si3 0.100621 0.305740 0.810320
Si Si4 0.788345 0.803712 0.741784
Si Si5 0.641383 0.497785 0.811457
Si Si6 0.296203 0.989837 0.510337
Si Si7 0.390283 0.468891 0.437887
Si Si8 0.893121 0.795796 0.909302
O O1 0.217528 0.663527 0.415016
O O2 0.777100 0.715979 0.484011
O O3 0.124883 0.225196 0.211823
O O4 0.122042 0.025335 0.214927
O O5 0.500000 0.500000 0.500000
O O6 0.575572 0.822783 0.408865
O O7 0.455630 0.081193 0.247188
O O8 0.899751 0.990377 0.199667
O O9 0.210801 0.627287 0.672283
O O10 0.348219 0.292495 0.734353
O O11 0.870175 0.352998 0.811141
O O12 0.000000 0.000000 0.000000
O O13 0.712440 0.582881 0.812082
O O14 0.038937 0.050116 0.559708
O O15 0.635548 0.777032 0.652367
O O16 0.365903 0.290935 0.969149
O O17 0.500000 0.000000 0.500000
O O18 0.000000 0.500000 0.000000
#
# Coordination Sequence:
#
# PCOD9105389 Si02
#       8
#     2   2   2   2   2   2   2   2
#     4  10  22  37  65 101 127 174 216 275 328 398
#     4  11  21  40  63  96 125 170 209 270 333 389
#     4  11  23  43  69  97 136 177 225 280 335 396
#     4  11  21  39  67  99 128 170 232 264 327 406
#     4  11  24  46  68  97 137 184 223 278 339 407
#     4  11  25  45  72  94 133 188 229 270 335 410
#     4  10  20  39  64  92 137 168 213 270 338 388
#     4  11  24  41  64  92 135 171 216 274 332 392
#
# _framework density 23.266355000000001
#
# number of rings (size 3 to 8) (size 9 to 14) (size 15 to 20)
#    0.000    1.250    2.500    4.500    3.500    0.500 
#    4.500    0.625    0.000    0.000    0.000    0.000 
#    0.000    0.000    0.000    0.000    0.000    0.000 
#
# Total GULP energy -89126.648419 kJ/mol
# GULP energy per Si atom -5570.415526 kJ/mol
# Density = 2.321340 g / cm^3
# Si number density = 23.266355 Si / 1000 Ang^3
#
#
#
# Elastic Constant Matrix: (Units=GPa)
#
#
# Indices 1 2 3 4 5 6 
#
# 1 109.8124 32.4504 51.4409 15.2182 -25.9061 -22.7571
# 2 32.4504 39.6327 19.9353 17.4036 -18.4774 -9.7374
# 3 51.4409 19.9353 139.3189 26.3718 -21.8796 -24.5428
# 4 15.2182 17.4036 26.3718 34.0199 -18.2278 -9.8556
# 5 -25.9061 -18.4774 -21.8796 -18.2278 45.5870 8.1938
# 6 -22.7571 -9.7374 -24.5428 -9.8556 8.1938 31.0680
#
#
#
# Elastic Compliance Matrix: (Units=1/GPa)
#
#
# Indices 1 2 3 4 5 6 
#
# 1 0.014912 -0.009240 -0.003409 0.004407 0.003826 0.005723
# 2 -0.009240 0.041711 0.001389 -0.014589 0.006288 0.001116
# 3 -0.003409 0.001389 0.010076 -0.005560 0.000520 0.003997
# 4 0.004407 -0.014589 -0.005560 0.047257 0.011710 0.006166
# 5 0.003826 0.006288 0.000520 0.011710 0.031484 0.000596
# 6 0.005723 0.001116 0.003997 0.006166 0.000596 0.041686
#
#
# Mechanical properties :
#
#
# Convention : Reuss Voigt Hill
#
# Bulk Modulus (GPa) = 22.63559 55.15745 38.89652
# Shear Modulus (GPa) = 22.28457 34.46414 28.37435
#
# Velocity S-wave (km/s) = 3.09820 3.85292 3.49599
# Velocity P-wave (km/s) = 4.74852 6.59938 5.74892
#
# Compressibility (1/GPa) = 0.04417821
#
# Stress axis : x y z
#
# Youngs Moduli (GPa) = 67.06159 23.97470 99.24622
#
# Poissons Ratio (x) = 0.22153 0.33832
# Poissons Ratio (y) = 0.61965 -0.13784
# Poissons Ratio (z) = 0.22860 -0.03330
#
# Static dielectric constant tensor:
#      x y z
#    x 2.104840 0.144170 0.039390 
#    y 0.144170 2.143440 0.034510 
#    z 0.039390 0.034510 1.906810 
# 
# From -- ./inp_files/622583.got.cif
#   From: 2010.05.17/outbox.cif.g08.bks.cpg/sg2_312_cif.got.tgz:622583.got - 2010.06.03 11:33:40.
