data_PCOD9105678
_publ_section_title
;
Structure prediction by ZEFSAII (Michael W. Deem and Ramdas Pophale) SiO2 
 PCOD9105678
Probable space group: P -1
;
_chemical_formula_sum "Si O2"
_cell_formula_units_Z 14
_cell_length_a 11.181565
_cell_length_b 14.453814
_cell_length_c 10.671561
_cell_angle_alpha 128.293093
_cell_angle_beta 86.147932
_cell_angle_gamma 139.292031
_cell_volume 545.298451
_symmetry_space_group_name_H-M "P -1"
_symmetry_group_IT_number 2
_symmetry_cell_setting 'triclinic'
loop_
_space_group_symop_operation_xyz
x,y,z
-x,-y,-z
loop_
_atom_site_type_symbol
_atom_site_label
_atom_site_fract_x
_atom_site_fract_y
_atom_site_fract_z
Si Si1 0.261337 0.579978 0.557751
Si Si2 0.028680 0.399329 0.981515
Si Si3 0.915996 0.062469 0.244793
Si Si4 0.232785 0.127999 0.335945
Si Si5 0.000187 0.495087 0.697965
Si Si6 0.725448 0.028073 0.463006
Si Si7 0.431591 0.460025 0.117367
O O1 0.541033 0.753973 0.648293
O O2 0.184571 0.604760 0.478205
O O3 0.988589 0.240617 0.306719
O O4 0.258490 0.650054 0.746740
O O5 0.896363 0.311252 0.051688
O O6 0.378386 0.689292 0.207146
O O7 0.000000 0.500000 0.000000
O O8 0.858877 0.158091 0.700711
O O9 0.180002 0.205690 0.334877
O O10 0.887848 0.081879 0.406433
O O11 0.625584 0.719268 0.962234
O O12 0.896682 0.777120 0.059380
O O13 0.787091 0.209971 0.544596
O O14 0.653212 0.733033 0.416803
O O15 0.500000 0.500000 0.000000
#
# Coordination Sequence:
#
# PCOD9105678 Si02
#       7
#     2   2   2   2   2   2   2
#     4  10  20  44  64 102 132 185 221 268 329 395
#     4  10  20  39  65  94 130 171 221 270 329 386
#     4   9  23  40  72  96 138 172 220 272 329 400
#     4  10  23  43  70  96 132 176 218 271 331 398
#     4   9  20  39  67  93 139 169 227 273 321 392
#     4  10  21  39  68  97 129 172 215 273 337 385
#     4  10  23  44  67  98 133 167 221 277 332 390
#
# _framework density 25.674012999999999
#
# number of rings (size 3 to 8) (size 9 to 14) (size 15 to 20)
#    0.857    1.429    0.000    2.571    2.000    1.714 
#    0.000    8.571    0.000   21.429    0.000    0.000 
#    0.000    0.000    0.000    0.000    0.000    0.000 
#
# Total GULP energy -78355.262884 kJ/mol
# GULP energy per Si atom -5596.804492 kJ/mol
# Density = 2.561558 g / cm^3
# Si number density = 25.674013 Si / 1000 Ang^3
#
#
#
# Elastic Constant Matrix: (Units=GPa)
#
#
# Indices 1 2 3 4 5 6 
#
# 1 116.2533 41.8658 35.5159 8.1895 -15.7041 24.7567
# 2 41.8658 91.2758 34.0144 -1.9775 -16.3751 14.7579
# 3 35.5159 34.0144 128.6723 6.7174 -7.5181 -2.4312
# 4 8.1895 -1.9775 6.7174 21.6720 -5.3322 -12.7935
# 5 -15.7041 -16.3751 -7.5181 -5.3322 40.7786 5.4037
# 6 24.7567 14.7579 -2.4312 -12.7935 5.4037 51.4969
#
#
#
# Elastic Compliance Matrix: (Units=1/GPa)
#
#
# Indices 1 2 3 4 5 6 
#
# 1 0.013306 -0.003598 -0.002238 -0.008559 0.003199 -0.007933
# 2 -0.003598 0.015026 -0.002918 0.003434 0.004874 -0.002373
# 3 -0.002238 -0.002918 0.009219 -0.001213 -0.000774 0.002127
# 4 -0.008559 0.003434 -0.001213 0.061556 0.003524 0.017996
# 5 0.003199 0.004874 -0.000774 0.003524 0.028706 -0.005108
# 6 -0.007933 -0.002373 0.002127 0.017996 -0.005108 0.029020
#
#
# Mechanical properties :
#
#
# Convention : Reuss Voigt Hill
#
# Bulk Modulus (GPa) = 49.89337 62.11039 56.00188
# Shear Modulus (GPa) = 27.62098 37.77653 32.69876
#
# Velocity S-wave (km/s) = 3.28355 3.84003 3.57264
# Velocity P-wave (km/s) = 5.81818 6.62613 6.23525
#
# Compressibility (1/GPa) = 0.02004274
#
# Stress axis : x y z
#
# Youngs Moduli (GPa) = 75.15608 66.55151 108.47120
#
# Poissons Ratio (x) = 0.23945 0.24272
# Poissons Ratio (y) = 0.27041 0.31655
# Poissons Ratio (z) = 0.16817 0.19422
#
# Static dielectric constant tensor:
#      x y z
#    x 2.044030 -0.026610 -0.076040 
#    y -0.026610 2.042900 0.004270 
#    z -0.076040 0.004270 2.049430 
# 
# From -- ./inp_files/431801.got.cif
#   From: 2010.05.17/outbox.cif.g08.bks.cpg/sg2_216_cif.got.tgz:431801.got - 2010.06.03 11:33:40.
