data_PCOD9105608
_publ_section_title
;
Structure prediction by ZEFSAII (Michael W. Deem and Ramdas Pophale) SiO2 
 PCOD9105608
Probable space group: P -1
;
_chemical_formula_sum "Si O2"
_cell_formula_units_Z 16
_cell_length_a 20.717937
_cell_length_b 6.906889
_cell_length_c 8.597510
_cell_angle_alpha 120.585977
_cell_angle_beta 45.373849
_cell_angle_gamma 103.416073
_cell_volume 737.805674
_symmetry_space_group_name_H-M "P -1"
_symmetry_group_IT_number 2
_symmetry_cell_setting 'triclinic'
loop_
_space_group_symop_operation_xyz
x,y,z
-x,-y,-z
loop_
_atom_site_type_symbol
_atom_site_label
_atom_site_fract_x
_atom_site_fract_y
_atom_site_fract_z
Si Si1 0.870394 0.169728 0.886704
Si Si2 0.292047 0.311751 0.381729
Si Si3 0.679815 0.503354 0.255700
Si Si4 0.410049 0.831812 0.908962
Si Si5 0.096816 0.538874 0.785781
Si Si6 0.957347 0.656290 0.493961
Si Si7 0.426618 0.061329 0.506604
Si Si8 0.602129 0.352417 0.799614
O O1 0.957329 0.253179 0.694339
O O2 0.883584 0.895204 0.742896
O O3 0.779261 0.327393 0.027950
O O4 0.876935 0.242060 0.086252
O O5 0.330931 0.371767 0.507665
O O6 0.183007 0.336822 0.601006
O O7 0.319672 0.500772 0.298322
O O8 0.336522 0.069014 0.136052
O O9 0.610129 0.339690 0.260651
O O10 0.654341 0.709851 0.256303
O O11 0.507527 0.892710 0.728079
O O12 0.402226 0.728116 0.049425
O O13 0.085820 0.514457 0.612058
O O14 0.000000 0.500000 0.000000
O O15 0.000000 0.500000 0.500000
O O16 0.500000 0.000000 0.500000
O O17 0.383409 0.850242 0.435555
O O18 0.500000 0.500000 0.000000
#
# Coordination Sequence:
#
# PCOD9105608 Si02
#       8
#     2   2   2   2   2   2   2   2
#     4   9  21  41  61  89 128 161 206 264 314 382
#     4  11  23  43  66  95 129 174 220 267 326 393
#     4  11  23  42  63  94 128 170 220 269 323 386
#     4  12  24  42  66  90 129 173 216 273 326 382
#     4   9  20  41  65  92 131 166 207 264 324 381
#     4  10  20  39  65  92 123 164 204 257 324 383
#     4  12  24  43  65  93 133 177 221 274 332 386
#     4  12  23  41  64  92 130 170 219 271 321 387
#
# _framework density 21.685928000000001
#
# number of rings (size 3 to 8) (size 9 to 14) (size 15 to 20)
#    0.000    1.250    2.500    3.750    0.000    1.500 
#    6.750    0.000    0.000    0.000    0.000    0.000 
#    0.000    0.000    0.000    0.000    0.000    0.000 
#
# Total GULP energy -89283.911088 kJ/mol
# GULP energy per Si atom -5580.244443 kJ/mol
# Density = 2.163657 g / cm^3
# Si number density = 21.685928 Si / 1000 Ang^3
#
#
#
# Elastic Constant Matrix: (Units=GPa)
#
#
# Indices 1 2 3 4 5 6 
#
# 1 106.0631 39.2543 36.1405 9.5656 5.8638 -20.4409
# 2 39.2543 80.5089 23.2906 16.6687 -3.1093 -18.2606
# 3 36.1405 23.2906 81.9026 25.7510 -15.7708 -10.8375
# 4 9.5656 16.6687 25.7510 29.8511 -1.4564 -0.5410
# 5 5.8638 -3.1093 -15.7708 -1.4564 44.7967 -3.0048
# 6 -20.4409 -18.2606 -10.8375 -0.5410 -3.0048 30.5999
#
#
#
# Elastic Compliance Matrix: (Units=1/GPa)
#
#
# Indices 1 2 3 4 5 6 
#
# 1 0.014033 -0.005075 -0.006092 0.003469 -0.003962 0.003860
# 2 -0.005075 0.018434 0.001746 -0.009886 0.002796 0.008329
# 3 -0.006092 0.001746 0.022367 -0.017801 0.008578 0.005422
# 4 0.003469 -0.009886 -0.017801 0.052782 -0.006334 -0.009576
# 5 -0.003962 0.002796 0.008578 -0.006334 0.026153 0.004516
# 6 0.003860 0.008329 0.005422 -0.009576 0.004516 0.042423
#
#
# Mechanical properties :
#
#
# Convention : Reuss Voigt Hill
#
# Bulk Modulus (GPa) = 27.78372 51.76060 39.77216
# Shear Modulus (GPa) = 24.15101 32.36883 28.25992
#
# Velocity S-wave (km/s) = 3.34079 3.86763 3.61383
# Velocity P-wave (km/s) = 5.26506 6.62306 5.98272
#
# Compressibility (1/GPa) = 0.03599230
#
# Stress axis : x y z
#
# Youngs Moduli (GPa) = 71.26293 54.24637 44.70849
#
# Poissons Ratio (x) = 0.27533 0.27235
# Poissons Ratio (y) = 0.36169 -0.07807
# Poissons Ratio (z) = 0.43410 -0.09472
#
# Static dielectric constant tensor:
#      x y z
#    x 1.814680 -0.010310 -0.003150 
#    y -0.010310 1.785840 0.025680 
#    z -0.003150 0.025680 1.850770 
# 
# From -- ./inp_files/53216.got.cif
#   From: 2010.05.17/outbox.cif.g08.bks.cpg/sg2_27_cif.got.tgz:53216.got - 2010.06.03 11:33:40.
