data_PCOD9105839
_publ_section_title
;
Structure prediction by ZEFSAII (Michael W. Deem and Ramdas Pophale) SiO2 
 PCOD9105839
Probable space group: P -1
;
_chemical_formula_sum "Si O2"
_cell_formula_units_Z 16
_cell_length_a 11.751386
_cell_length_b 9.380424
_cell_length_c 9.467541
_cell_angle_alpha 51.258270
_cell_angle_beta 80.831037
_cell_angle_gamma 86.193255
_cell_volume 802.855280
_symmetry_space_group_name_H-M "P -1"
_symmetry_group_IT_number 2
_symmetry_cell_setting 'triclinic'
loop_
_space_group_symop_operation_xyz
x,y,z
-x,-y,-z
loop_
_atom_site_type_symbol
_atom_site_label
_atom_site_fract_x
_atom_site_fract_y
_atom_site_fract_z
Si Si1 0.344997 0.504158 0.886691
Si Si2 0.792711 0.787410 0.579076
Si Si3 0.929967 0.414684 0.833529
Si Si4 0.209827 0.121640 0.163823
Si Si5 0.610056 0.497601 0.785706
Si Si6 0.773651 0.248538 0.737842
Si Si7 0.062996 0.880289 0.752492
Si Si8 0.845910 0.352471 0.346374
O O1 0.473106 0.499512 0.801971
O O2 0.265993 0.641615 0.734282
O O3 0.273310 0.313305 0.996450
O O4 0.360064 0.534243 0.033815
O O5 0.865536 0.607334 0.715458
O O6 0.765600 0.892472 0.664389
O O7 0.673609 0.690784 0.609322
O O8 0.862985 0.928484 0.376007
O O9 0.886151 0.297286 0.781071
O O10 0.064674 0.472054 0.781443
O O11 0.897909 0.286307 0.052766
O O12 0.070897 0.105989 0.192520
O O13 0.252736 0.964057 0.152696
O O14 0.669671 0.345851 0.774596
O O15 0.804158 0.324733 0.530074
O O16 0.078048 0.806229 0.636290
#
# Coordination Sequence:
#
# PCOD9105839 Si02
#       8
#     2   2   2   2   2   2   2   2
#     4  10  22  43  72  83 117 175 218 247 309 380
#     4  10  20  39  66  90 124 167 206 255 308 368
#     4  11  23  40  59  94 134 165 205 255 309 377
#     4  11  20  38  62  96 125 163 205 256 314 375
#     4   9  22  45  65  89 122 164 214 266 304 363
#     4  11  24  38  60  92 135 158 201 267 319 356
#     4  12  21  37  67  96 125 166 214 247 308 393
#     4  12  21  38  64  95 125 168 205 255 315 379
#
# _framework density 19.928871999999998
#
# number of rings (size 3 to 8) (size 9 to 14) (size 15 to 20)
#    0.000    1.250    3.750    4.125    0.000    2.500 
#    4.500    0.625    5.500    0.000    0.000    0.000 
#    0.000    0.000    0.000    0.000    0.000    0.000 
#
# Total GULP energy -89250.317732 kJ/mol
# GULP energy per Si atom -5578.144858 kJ/mol
# Density = 1.988351 g / cm^3
# Si number density = 19.928872 Si / 1000 Ang^3
#
#
#
# Elastic Constant Matrix: (Units=GPa)
#
#
# Indices 1 2 3 4 5 6 
#
# 1 111.2335 19.0337 31.9423 6.9117 -24.3000 -1.2389
# 2 19.0337 110.6736 23.2683 13.6536 -12.7505 -8.7283
# 3 31.9423 23.2683 86.4072 -5.9506 -20.2802 -2.4004
# 4 6.9117 13.6536 -5.9506 27.0099 6.3575 -5.5963
# 5 -24.3000 -12.7505 -20.2802 6.3575 28.0486 2.2881
# 6 -1.2389 -8.7283 -2.4004 -5.5963 2.2881 19.9075
#
#
#
# Elastic Compliance Matrix: (Units=1/GPa)
#
#
# Indices 1 2 3 4 5 6 
#
# 1 0.012487 0.000334 -0.002728 -0.007056 0.010812 -0.002631
# 2 0.000334 0.011072 -0.002345 -0.006958 0.005037 0.002057
# 3 -0.002728 -0.002345 0.015027 0.003867 0.006482 0.000956
# 4 -0.007056 -0.006958 0.003867 0.050434 -0.019000 0.013338
# 5 0.010812 0.005037 0.006482 -0.019000 0.056973 -0.008227
# 6 -0.002631 0.002057 0.000956 0.013338 -0.008227 0.055781
#
#
# Mechanical properties :
#
#
# Convention : Reuss Voigt Hill
#
# Bulk Modulus (GPa) = 34.35259 50.75589 42.55424
# Shear Modulus (GPa) = 22.62912 30.59787 26.61349
#
# Velocity S-wave (km/s) = 3.37337 3.92261 3.65831
# Velocity P-wave (km/s) = 5.69630 6.78525 6.26448
#
# Compressibility (1/GPa) = 0.02910988
#
# Stress axis : x y z
#
# Youngs Moduli (GPa) = 80.08176 90.31710 66.54672
#
# Poissons Ratio (x) = -0.03021 0.18151
# Poissons Ratio (y) = -0.02678 0.15606
# Poissons Ratio (z) = 0.21843 0.21180
#
# Static dielectric constant tensor:
#      x y z
#    x 1.716630 -0.006120 0.017040 
#    y -0.006120 1.728450 -0.027410 
#    z 0.017040 -0.027410 1.758320 
# 
# From -- ./inp_files/200372.got.cif
#   From: 2010.05.17/outbox.cif.g08.bks.cpg/sg2_101_cif.got.tgz:200372.got - 2010.06.03 11:33:40.
