data_PCOD9105065
_publ_section_title
;
Structure prediction by ZEFSAII (Michael W. Deem and Ramdas Pophale) SiO2 
 PCOD9105065
Probable space group: P -1
;
_chemical_formula_sum "Si O2"
_cell_formula_units_Z 16
_cell_length_a 9.787098
_cell_length_b 25.201750
_cell_length_c 11.285688
_cell_angle_alpha 158.060824
_cell_angle_beta 55.619551
_cell_angle_gamma 122.581282
_cell_volume 857.365532
_symmetry_space_group_name_H-M "P -1"
_symmetry_group_IT_number 2
_symmetry_cell_setting 'triclinic'
loop_
_space_group_symop_operation_xyz
x,y,z
-x,-y,-z
loop_
_atom_site_type_symbol
_atom_site_label
_atom_site_fract_x
_atom_site_fract_y
_atom_site_fract_z
Si Si1 0.942713 0.635098 0.152387
Si Si2 0.108088 0.562787 0.684120
Si Si3 0.671475 0.181971 0.267583
Si Si4 0.281816 0.148244 0.423108
Si Si5 0.843413 0.174904 0.937493
Si Si6 0.563199 0.595975 0.778053
Si Si7 0.241409 0.616385 0.139673
Si Si8 0.226915 0.149665 0.727525
O O1 0.842851 0.765202 0.417193
O O2 0.101834 0.670726 0.231015
O O3 0.823638 0.532389 0.078175
O O4 0.015469 0.549778 0.827815
O O5 0.277498 0.485647 0.429809
O O6 0.000000 0.500000 0.500000
O O7 0.145381 0.728642 0.983626
O O8 0.472425 0.176220 0.350471
O O9 0.729976 0.275945 0.543580
O O10 0.738968 0.239090 0.227360
O O11 0.739914 0.023528 0.921657
O O12 0.262188 0.193642 0.664248
O O13 0.031349 0.168786 0.882299
O O14 0.762622 0.020238 0.625815
O O15 0.500000 0.500000 0.500000
O O16 0.411367 0.601236 0.953794
O O17 0.646431 0.756958 0.059365
#
# Coordination Sequence:
#
# PCOD9105065 Si02
#       8
#     2   2   2   2   2   2   2   2
#     4  11  24  41  60  87 124 163 202 248 300 365
#     4  12  22  39  63  93 121 159 210 254 300 362
#     4  10  22  37  64  91 119 157 196 252 305 357
#     4  10  20  40  62  90 119 154 204 251 302 353
#     4  10  21  37  65  94 120 157 206 254 303 358
#     4  12  24  41  62  88 125 165 203 253 310 360
#     4  11  25  42  59  87 127 162 202 246 306 367
#     4  10  20  39  63  90 123 157 204 258 301 359
#
# _framework density 18.661819999999999
#
# number of rings (size 3 to 8) (size 9 to 14) (size 15 to 20)
#    0.000    1.250    5.000    0.750    1.750    1.000 
#    0.000    0.625    2.750    0.000    0.000    0.000 
#    0.000    0.000    0.000    0.000    0.000    0.000 
#
# Total GULP energy -89243.634774 kJ/mol
# GULP energy per Si atom -5577.727173 kJ/mol
# Density = 1.861935 g / cm^3
# Si number density = 18.661820 Si / 1000 Ang^3
#
#
#
# Elastic Constant Matrix: (Units=GPa)
#
#
# Indices 1 2 3 4 5 6 
#
# 1 101.5521 24.8441 39.1122 5.8101 -3.1654 10.5245
# 2 24.8441 75.0865 21.8342 -3.1761 1.9197 17.6075
# 3 39.1122 21.8342 79.8798 -2.3418 10.4272 11.7715
# 4 5.8101 -3.1761 -2.3418 28.5222 -0.3557 -7.1919
# 5 -3.1654 1.9197 10.4272 -0.3557 36.3479 3.6426
# 6 10.5245 17.6075 11.7715 -7.1919 3.6426 28.8958
#
#
#
# Elastic Compliance Matrix: (Units=1/GPa)
#
#
# Indices 1 2 3 4 5 6 
#
# 1 0.013339 -0.002344 -0.006082 -0.004033 0.003228 -0.002363
# 2 -0.002344 0.016718 -0.002225 0.000025 0.000400 -0.008471
# 3 -0.006082 -0.002225 0.017166 0.001746 -0.005084 -0.002346
# 4 -0.004033 0.000025 0.001746 0.038672 -0.001533 0.010561
# 5 0.003228 0.000400 -0.005084 -0.001533 0.029562 -0.003456
# 6 -0.002363 -0.008471 -0.002346 0.010561 -0.003456 0.044650
#
#
# Mechanical properties :
#
#
# Convention : Reuss Voigt Hill
#
# Bulk Modulus (GPa) = 38.57955 47.56661 43.07308
# Shear Modulus (GPa) = 26.30905 30.13503 28.22204
#
# Velocity S-wave (km/s) = 3.75878 4.02281 3.89303
# Velocity P-wave (km/s) = 6.28933 6.86450 6.58320
#
# Compressibility (1/GPa) = 0.02592047
#
# Stress axis : x y z
#
# Youngs Moduli (GPa) = 74.96608 59.81646 58.25581
#
# Poissons Ratio (x) = 0.14021 0.35432
# Poissons Ratio (y) = 0.17572 0.12963
# Poissons Ratio (z) = 0.45595 0.13310
#
# Static dielectric constant tensor:
#      x y z
#    x 1.614720 0.001200 -0.018650 
#    y 0.001200 1.652610 0.013650 
#    z -0.018650 0.013650 1.681430 
# 
# From -- ./inp_files/224345.got.cif
#   From: 2010.05.17/outbox.cif.g08.bks.cpg/sg2_113_cif.got.tgz:224345.got - 2010.06.03 11:33:40.
