data_PCOD9105287
_publ_section_title
;
Structure prediction by ZEFSAII (Michael W. Deem and Ramdas Pophale) SiO2 
 PCOD9105287
Probable space group: P -1
;
_chemical_formula_sum "Si O2"
_cell_formula_units_Z 16
_cell_length_a 8.326217
_cell_length_b 8.017724
_cell_length_c 18.845199
_cell_angle_alpha 134.918233
_cell_angle_beta 115.558493
_cell_angle_gamma 56.097251
_cell_volume 737.877467
_symmetry_space_group_name_H-M "P -1"
_symmetry_group_IT_number 2
_symmetry_cell_setting 'triclinic'
loop_
_space_group_symop_operation_xyz
x,y,z
-x,-y,-z
loop_
_atom_site_type_symbol
_atom_site_label
_atom_site_fract_x
_atom_site_fract_y
_atom_site_fract_z
Si Si1 0.201244 0.718752 0.609151
Si Si2 0.973098 0.135960 0.960276
Si Si3 0.655830 0.626600 0.087955
Si Si4 0.921896 0.615129 0.627045
Si Si5 0.594955 0.565873 0.715480
Si Si6 0.010926 0.811377 0.379348
Si Si7 0.648695 0.018003 0.783950
Si Si8 0.622016 0.065599 0.102761
O O1 0.140903 0.554244 0.490777
O O2 0.424238 0.591223 0.635539
O O3 0.076727 0.710793 0.651738
O O4 0.140517 0.002312 0.649980
O O5 0.809695 0.112943 0.871334
O O6 0.170506 0.007383 0.915891
O O7 0.874387 0.429627 0.056849
O O8 0.000000 0.000000 0.000000
O O9 0.563468 0.756404 0.184198
O O10 0.641932 0.861313 0.106480
O O11 0.500000 0.500000 0.000000
O O12 0.005001 0.433594 0.657663
O O13 0.727917 0.863109 0.681388
O O14 0.781536 0.306596 0.657778
O O15 0.659642 0.794437 0.774011
O O16 0.494334 0.654132 0.799839
O O17 0.000000 0.000000 0.500000
O O18 0.500000 0.000000 0.000000
#
# Coordination Sequence:
#
# PCOD9105287 Si02
#       8
#     2   2   2   2   2   2   2   2
#     4  10  20  39  64  88 123 166 202 254 315 362
#     4  11  21  38  60  82 121 160 195 252 308 357
#     4   9  19  37  57  84 115 151 201 243 295 372
#     4   9  19  38  61  88 126 158 201 260 305 368
#     4  10  21  40  61  91 122 155 210 254 300 380
#     4   9  20  39  61  89 123 161 204 251 310 368
#     4   9  19  37  56  83 119 149 199 250 298 364
#     4  11  22  40  61  87 120 158 199 256 308 357
#
# _framework density 21.683817000000001
#
# number of rings (size 3 to 8) (size 9 to 14) (size 15 to 20)
#    0.000    2.250    0.000    3.375    0.000    4.500 
#   22.500    8.125    0.000    0.000    0.000    0.000 
#    0.000    0.000    0.000    0.000    0.000    0.000 
#
# Total GULP energy -89094.046049 kJ/mol
# GULP energy per Si atom -5568.377878 kJ/mol
# Density = 2.163446 g / cm^3
# Si number density = 21.683817 Si / 1000 Ang^3
#
#
#
# Elastic Constant Matrix: (Units=GPa)
#
#
# Indices 1 2 3 4 5 6 
#
# 1 93.0524 -1.3198 40.1890 4.4139 -25.3439 -10.2056
# 2 -1.3198 28.1822 32.7647 2.5746 -6.7234 -2.1151
# 3 40.1890 32.7647 67.3650 22.8562 -29.9732 -15.2658
# 4 4.4139 2.5746 22.8562 32.0579 -13.5019 -8.2751
# 5 -25.3439 -6.7234 -29.9732 -13.5019 34.7378 2.0846
# 6 -10.2056 -2.1151 -15.2658 -8.2751 2.0846 33.1580
#
#
#
# Elastic Compliance Matrix: (Units=1/GPa)
#
#
# Indices 1 2 3 4 5 6 
#
# 1 -0.105737 -0.366445 0.344501 -0.149282 0.087563 0.059927
# 2 -0.366445 -1.100087 1.059460 -0.470792 0.240557 0.172195
# 3 0.344501 1.059460 -0.986025 0.439781 -0.214024 -0.157138
# 4 -0.149282 -0.470792 0.439781 -0.155028 0.114334 0.080618
# 5 0.087563 0.240557 -0.214024 0.114334 0.000666 -0.027748
# 6 0.059927 0.172195 -0.157138 0.080618 -0.027748 0.009105
#
#
# Mechanical properties :
#
#
# Convention : Reuss Voigt Hill
#
# Bulk Modulus (GPa) = -8.56042 36.87416 14.15687
# Shear Modulus (GPa) = -1.12332 27.78843 13.33256
#
# Velocity S-wave (km/s) = -0.72054 3.58373 2.48233
# Velocity P-wave (km/s) = 2.15607 5.84521 3.84173
#
# Compressibility (1/GPa) = -0.11681674
#
# Stress axis : x y z
#
# Youngs Moduli (GPa) = -9.45741 -0.90902 -1.01417
#
# Poissons Ratio (x) = -0.33311 0.34938
# Poissons Ratio (y) = -3.46561 1.07448
# Poissons Ratio (z) = 3.25808 0.96307
#
# Static dielectric constant tensor:
#      x y z
#    x 1.837960 0.005810 -0.008910 
#    y 0.005810 1.834360 0.065890 
#    z -0.008910 0.065890 1.889460 
# 
# From -- ./inp_files/296698.got.cif
#   From: 2010.05.17/outbox.cif.g08.bks.cpg/sg2_149_cif.got.tgz:296698.got - 2010.06.03 11:33:40.
