data_PCOD9105186
_publ_section_title
;
Structure prediction by ZEFSAII (Michael W. Deem and Ramdas Pophale) SiO2 
 PCOD9105186
Probable space group: P -1
;
_chemical_formula_sum "Si O2"
_cell_formula_units_Z 15
_cell_length_a 22.662808
_cell_length_b 6.756363
_cell_length_c 13.136445
_cell_angle_alpha 80.999067
_cell_angle_beta 21.235418
_cell_angle_gamma 81.011727
_cell_volume 719.265161
_symmetry_space_group_name_H-M "P -1"
_symmetry_group_IT_number 2
_symmetry_cell_setting 'triclinic'
loop_
_space_group_symop_operation_xyz
x,y,z
-x,-y,-z
loop_
_atom_site_type_symbol
_atom_site_label
_atom_site_fract_x
_atom_site_fract_y
_atom_site_fract_z
Si Si1 0.353630 0.255927 0.934321
Si Si2 0.253452 0.121618 0.428196
Si Si3 0.412735 0.882093 0.999893
Si Si4 0.204069 0.497398 0.339822
Si Si5 0.000000 0.500000 0.000000
Si Si6 0.090174 0.077484 0.981889
Si Si7 0.273902 0.673094 0.674080
Si Si8 0.150550 0.341893 0.055743
O O1 0.533111 0.344972 0.645444
O O2 0.241825 0.371331 0.187967
O O3 0.276729 0.282562 0.945285
O O4 0.372464 0.025538 0.957965
O O5 0.215723 0.345213 0.428856
O O6 0.327314 0.990492 0.226018
O O7 0.395892 0.126680 0.281705
O O8 0.084621 0.024833 0.736063
O O9 0.336416 0.667056 0.126130
O O10 0.024402 0.596015 0.620912
O O11 0.917840 0.723228 0.088858
O O12 0.172938 0.604481 0.744329
O O13 0.120063 0.162722 0.040343
O O14 0.221837 0.902805 0.761653
O O15 0.211883 0.530211 0.876164
#
# Coordination Sequence:
#
# PCOD9105186 Si02
#       8
#     2   2   2   2   1   2   2   2
#     4  11  26  42  62  97 134 170 220 264 316 382
#     4  10  20  39  63  95 124 162 212 267 325 384
#     4  10  22  38  63  94 129 162 209 271 328 371
#     4  11  22  42  66  96 127 171 216 270 322 375
#     4  10  24  40  68 100 126 166 212 268 322 390
#     4  11  22  41  68  93 131 165 218 261 325 381
#     4  11  24  44  66  95 130 172 212 266 324 384
#     4  11  24  43  67  94 127 177 222 260 314 382
#
# _framework density 20.854617000000001
#
# number of rings (size 3 to 8) (size 9 to 14) (size 15 to 20)
#    0.000    1.333    2.667    2.400    0.000    5.333 
#    0.000    0.000    0.000    0.000    0.000    0.000 
#    0.000    0.000    0.000    0.000    0.000    0.000 
#
# Total GULP energy -83664.459581 kJ/mol
# GULP energy per Si atom -5577.630639 kJ/mol
# Density = 2.080715 g / cm^3
# Si number density = 20.854617 Si / 1000 Ang^3
#
#
#
# Elastic Constant Matrix: (Units=GPa)
#
#
# Indices 1 2 3 4 5 6 
#
# 1 63.6939 32.8866 18.2284 0.4677 -19.6249 -2.9901
# 2 32.8866 112.6686 19.9925 -21.4169 -8.2138 4.6143
# 3 18.2284 19.9925 86.1295 5.4218 -2.9953 12.0387
# 4 0.4677 -21.4169 5.4218 26.5718 -7.1517 -1.4355
# 5 -19.6249 -8.2138 -2.9953 -7.1517 24.1682 -4.1933
# 6 -2.9901 4.6143 12.0387 -1.4355 -4.1933 18.0186
#
#
#
# Elastic Compliance Matrix: (Units=1/GPa)
#
#
# Indices 1 2 3 4 5 6 
#
# 1 0.028705 -0.005301 -0.006564 0.004134 0.024799 0.016607
# 2 -0.005301 0.013528 -0.002563 0.012419 0.003507 -0.000826
# 3 -0.006564 -0.002563 0.015721 -0.008349 -0.009104 -0.013721
# 4 0.004134 0.012419 -0.008349 0.056942 0.025754 0.013614
# 5 0.024799 0.003507 -0.009104 0.025754 0.074162 0.028610
# 6 0.016607 -0.000826 -0.013721 0.013614 0.028610 0.075375
#
#
# Mechanical properties :
#
#
# Convention : Reuss Voigt Hill
#
# Bulk Modulus (GPa) = 34.36379 44.96743 39.66561
# Shear Modulus (GPa) = 16.50232 26.51070 21.50651
#
# Velocity S-wave (km/s) = 2.81606 3.56928 3.21481
# Velocity P-wave (km/s) = 5.20453 6.21253 5.73073
#
# Compressibility (1/GPa) = 0.02910040
#
# Stress axis : x y z
#
# Youngs Moduli (GPa) = 34.83654 73.92251 63.60838
#
# Poissons Ratio (x) = 0.39183 0.41752
# Poissons Ratio (y) = 0.18465 0.16300
# Poissons Ratio (z) = 0.22866 0.18943
#
# Static dielectric constant tensor:
#      x y z
#    x 1.756760 -0.004370 0.045630 
#    y -0.004370 1.712470 0.004050 
#    z 0.045630 0.004050 1.719880 
# 
# From -- ./inp_files/67504.got.cif
#   From: 2010.05.17/outbox.cif.g08.bks.cpg/sg2_34_cif.got.tgz:67504.got - 2010.06.03 11:33:40.
