data_PCOD9105183
_publ_section_title
;
Structure prediction by ZEFSAII (Michael W. Deem and Ramdas Pophale) SiO2 
 PCOD9105183
Probable space group: P -1
;
_chemical_formula_sum "Si O2"
_cell_formula_units_Z 16
_cell_length_a 12.114587
_cell_length_b 9.191909
_cell_length_c 11.732661
_cell_angle_alpha 62.901401
_cell_angle_beta 63.451673
_cell_angle_gamma 108.394128
_cell_volume 788.968825
_symmetry_space_group_name_H-M "P -1"
_symmetry_group_IT_number 2
_symmetry_cell_setting 'triclinic'
loop_
_space_group_symop_operation_xyz
x,y,z
-x,-y,-z
loop_
_atom_site_type_symbol
_atom_site_label
_atom_site_fract_x
_atom_site_fract_y
_atom_site_fract_z
Si Si1 0.449865 0.790816 0.396540
Si Si2 0.151085 0.679380 0.113666
Si Si3 0.251238 0.766695 0.787317
Si Si4 0.349818 0.260284 0.298563
Si Si5 0.166345 0.787029 0.564349
Si Si6 0.625244 0.470588 0.266878
Si Si7 0.570131 0.332551 0.965966
Si Si8 0.672044 0.873357 0.054603
O O1 0.307850 0.798927 0.437599
O O2 0.381048 0.582926 0.578480
O O3 0.544236 0.810162 0.236026
O O4 0.580346 0.998109 0.341622
O O5 0.318199 0.726656 0.044425
O O6 0.003718 0.440731 0.307942
O O7 0.140909 0.693049 0.976457
O O8 0.174642 0.875458 0.090493
O O9 0.187363 0.782703 0.692723
O O10 0.288105 0.608064 0.805040
O O11 0.441353 0.327458 0.353532
O O12 0.323037 0.424918 0.219316
O O13 0.202031 0.007263 0.445441
O O14 0.488944 0.319270 0.125514
O O15 0.708500 0.713695 0.111477
O O16 0.423047 0.180470 0.999852
#
# Coordination Sequence:
#
# PCOD9105183 Si02
#       8
#     2   2   2   2   2   2   2   2
#     4  10  18  34  58  85 109 139 184 226 272 322
#     4  11  22  36  53  82 117 147 177 220 280 326
#     4  10  18  35  60  83 108 141 187 225 271 322
#     4  10  18  35  61  85 100 141 189 236 261 311
#     4  11  20  34  58  84 113 139 182 228 279 318
#     4  10  16  33  61  84 103 135 190 232 265 308
#     4  10  21  37  58  78 110 144 193 220 262 322
#     4  10  22  35  56  78 112 148 184 217 268 329
#
# _framework density 20.279636
#
# number of rings (size 3 to 8) (size 9 to 14) (size 15 to 20)
#    0.000    1.750    3.750    2.625    0.000    0.500 
#    0.000    5.000    5.500    0.000    0.000    0.000 
#    0.000    0.000    0.000    0.000    0.000    0.000 
#
# Total GULP energy -89348.814454 kJ/mol
# GULP energy per Si atom -5584.300903 kJ/mol
# Density = 2.023348 g / cm^3
# Si number density = 20.279636 Si / 1000 Ang^3
#
#
#
# Elastic Constant Matrix: (Units=GPa)
#
#
# Indices 1 2 3 4 5 6 
#
# 1 22.8469 12.9094 3.8678 -4.9042 15.0613 -3.6241
# 2 12.9094 63.0580 17.4015 -23.8723 11.3636 -7.2872
# 3 3.8678 17.4015 49.8664 -30.2966 7.1722 1.7501
# 4 -4.9042 -23.8723 -30.2966 42.2798 2.0547 6.2994
# 5 15.0613 11.3636 7.1722 2.0547 25.7893 -6.3177
# 6 -3.6241 -7.2872 1.7501 6.2994 -6.3177 13.6051
#
#
#
# Elastic Compliance Matrix: (Units=1/GPa)
#
#
# Indices 1 2 3 4 5 6 
#
# 1 0.088383 -0.003447 0.025910 0.034411 -0.067080 -0.028719
# 2 -0.003447 0.023508 0.003411 0.016030 -0.010874 -0.001237
# 3 0.025910 0.003411 0.062007 0.059347 -0.050950 -0.050386
# 4 0.034411 0.016030 0.059347 0.091884 -0.066492 -0.063302
# 5 -0.067080 -0.010874 -0.050950 -0.066492 0.119102 0.068954
# 6 -0.028719 -0.001237 -0.050386 -0.063302 0.068954 0.133000
#
#
# Mechanical properties :
#
#
# Convention : Reuss Voigt Hill
#
# Bulk Modulus (GPa) = 4.43175 22.68097 13.55636
# Shear Modulus (GPa) = 9.23613 23.10767 16.17190
#
# Velocity S-wave (km/s) = 2.13642 3.37924 2.82697
# Velocity P-wave (km/s) = 2.87676 5.14141 4.16592
#
# Compressibility (1/GPa) = 0.22564441
#
# Stress axis : x y z
#
# Youngs Moduli (GPa) = 11.31437 42.53819 16.12733
#
# Poissons Ratio (x) = 0.14665 -0.41786
# Poissons Ratio (y) = 0.03901 -0.05500
# Poissons Ratio (z) = -0.29316 -0.14508
#
# Static dielectric constant tensor:
#      x y z
#    x 1.702930 0.004530 0.019430 
#    y 0.004530 1.735520 -0.018860 
#    z 0.019430 -0.018860 1.762520 
# 
# From -- ./inp_files/177777.got.cif
#   From: 2010.05.17/outbox.cif.g08.bks.cpg/sg2_89_cif.got.tgz:177777.got - 2010.06.03 11:33:40.
