data_PCOD9105495
_publ_section_title
;
Structure prediction by ZEFSAII (Michael W. Deem and Ramdas Pophale) SiO2 
 PCOD9105495
Probable space group: P -1
;
_chemical_formula_sum "Si O2"
_cell_formula_units_Z 14
_cell_length_a 11.059410
_cell_length_b 21.137611
_cell_length_c 5.143112
_cell_angle_alpha 92.653317
_cell_angle_beta 91.956918
_cell_angle_gamma 151.505169
_cell_volume 565.871084
_symmetry_space_group_name_H-M "P -1"
_symmetry_group_IT_number 2
_symmetry_cell_setting 'triclinic'
loop_
_space_group_symop_operation_xyz
x,y,z
-x,-y,-z
loop_
_atom_site_type_symbol
_atom_site_label
_atom_site_fract_x
_atom_site_fract_y
_atom_site_fract_z
Si Si1 0.969823 0.558896 0.597213
Si Si2 0.382287 0.498950 0.299553
Si Si3 0.111366 0.225587 0.779083
Si Si4 0.855166 0.907350 0.222246
Si Si5 0.568327 0.200038 0.983848
Si Si6 0.608644 0.158022 0.481991
Si Si7 0.908596 0.193861 0.235130
O O1 0.694503 0.466271 0.589855
O O2 0.000000 0.500000 0.500000
O O3 0.142378 0.646928 0.887831
O O4 0.127304 0.679131 0.441962
O O5 0.500000 0.500000 0.500000
O O6 0.394707 0.386896 0.872301
O O7 0.105618 0.341147 0.190839
O O8 0.148560 0.168949 0.789042
O O9 0.025374 0.206345 0.480704
O O10 0.906809 0.154009 0.963055
O O11 0.572100 0.806199 0.158707
O O12 0.000000 0.000000 0.500000
O O13 0.000000 0.000000 0.000000
O O14 0.459670 0.129792 0.247183
O O15 0.516732 0.118593 0.762351
O O16 0.676761 0.124107 0.341130
#
# Coordination Sequence:
#
# PCOD9105495 Si02
#       7
#     2   2   2   2   2   2   2
#     4   9  21  36  61  97 141 175 220 265 329 418
#     4   9  20  38  62 103 139 181 215 264 333 419
#     4  11  23  39  66  96 133 172 226 270 333 400
#     4  12  27  47  71  94 130 174 235 298 344 385
#     4  10  22  41  65  91 128 177 216 269 351 390
#     4   9  20  38  63  91 131 176 210 259 339 396
#     4  10  20  39  64  98 137 173 210 263 330 412
#
# _framework density 24.74062
#
# number of rings (size 3 to 8) (size 9 to 14) (size 15 to 20)
#    0.857    1.143    0.000    3.000    2.000    2.857 
#    5.143    0.000    0.000   17.143    0.000    0.000 
#    0.000    0.000    0.000    0.000    0.000    0.000 
#
# Total GULP energy -78131.981212 kJ/mol
# GULP energy per Si atom -5580.855801 kJ/mol
# Density = 2.468431 g / cm^3
# Si number density = 24.740620 Si / 1000 Ang^3
#
#
#
# Elastic Constant Matrix: (Units=GPa)
#
#
# Indices 1 2 3 4 5 6 
#
# 1 193.3509 42.5590 49.1978 10.8256 -3.2788 -21.3656
# 2 42.5590 81.5979 40.4844 -2.4461 -4.5851 -12.5445
# 3 49.1978 40.4844 155.1790 -10.2352 -12.7537 -3.4817
# 4 10.8256 -2.4461 -10.2352 28.8430 1.3508 0.2555
# 5 -3.2788 -4.5851 -12.7537 1.3508 40.2031 1.2267
# 6 -21.3656 -12.5445 -3.4817 0.2555 1.2267 34.3989
#
#
#
# Elastic Compliance Matrix: (Units=1/GPa)
#
#
# Indices 1 2 3 4 5 6 
#
# 1 0.006623 -0.002248 -0.001679 -0.003289 -0.000235 0.003157
# 2 -0.002248 0.015674 -0.003186 0.000987 0.000439 0.003974
# 3 -0.001679 -0.003186 0.008150 0.003170 0.002024 -0.001475
# 4 -0.003289 0.000987 0.003170 0.037144 -0.000348 -0.001626
# 5 -0.000235 0.000439 0.002024 -0.000348 0.025579 -0.000690
# 6 0.003157 0.003974 -0.001475 -0.001626 -0.000690 0.032368
#
#
# Mechanical properties :
#
#
# Convention : Reuss Voigt Hill
#
# Bulk Modulus (GPa) = 61.64795 77.17890 69.41343
# Shear Modulus (GPa) = 34.44228 40.54810 37.49519
#
# Velocity S-wave (km/s) = 3.73518 4.05276 3.89721
# Velocity P-wave (km/s) = 6.60105 7.29128 6.95473
#
# Compressibility (1/GPa) = 0.01622114
#
# Stress axis : x y z
#
# Youngs Moduli (GPa) = 150.99226 63.80136 122.70118
#
# Poissons Ratio (x) = 0.14342 0.20597
# Poissons Ratio (y) = 0.33942 0.39093
# Poissons Ratio (z) = 0.25346 0.20328
#
# Static dielectric constant tensor:
#      x y z
#    x 2.032190 0.050680 -0.060540 
#    y 0.050680 2.093270 0.018210 
#    z -0.060540 0.018210 1.972700 
# 
# From -- ./inp_files/45064.got.cif
#   From: 2010.05.17/outbox.cif.g08.bks.cpg/sg2_23_cif.got.tgz:45064.got - 2010.06.03 11:33:40.
