data_PCOD9105723
_publ_section_title
;
Structure prediction by ZEFSAII (Michael W. Deem and Ramdas Pophale) SiO2 
 PCOD9105723
Probable space group: P -1
;
_chemical_formula_sum "Si O2"
_cell_formula_units_Z 16
_cell_length_a 22.958363
_cell_length_b 9.079771
_cell_length_c 9.274179
_cell_angle_alpha 122.080591
_cell_angle_beta 150.810135
_cell_angle_gamma 56.848613
_cell_volume 782.534541
_symmetry_space_group_name_H-M "P -1"
_symmetry_group_IT_number 2
_symmetry_cell_setting 'triclinic'
loop_
_space_group_symop_operation_xyz
x,y,z
-x,-y,-z
loop_
_atom_site_type_symbol
_atom_site_label
_atom_site_fract_x
_atom_site_fract_y
_atom_site_fract_z
Si Si1 0.771476 0.910619 0.309742
Si Si2 0.725240 0.754204 0.561486
Si Si3 0.019514 0.346372 0.847174
Si Si4 0.793247 0.102096 0.741497
Si Si5 0.505332 0.996788 0.338805
Si Si6 0.613522 0.336720 0.656469
Si Si7 0.977989 0.984088 0.615911
Si Si8 0.792837 0.530984 0.310219
O O1 0.788101 0.709202 0.299401
O O2 0.813282 0.040499 0.587957
O O3 0.855554 0.921153 0.358813
O O4 0.629108 0.978121 0.005011
O O5 0.741906 0.603852 0.395983
O O6 0.751251 0.929840 0.629223
O O7 0.593761 0.817849 0.380240
O O8 0.835589 0.707244 0.890261
O O9 0.972196 0.189532 0.745552
O O10 0.930826 0.420324 0.564023
O O11 0.000000 0.500000 0.000000
O O12 0.686542 0.272164 0.632444
O O13 0.912150 0.119192 0.100649
O O14 0.563792 0.164959 0.509697
O O15 0.500000 0.000000 0.500000
O O16 0.500000 0.500000 0.500000
O O17 0.711746 0.400047 0.004518
O O18 0.000000 0.000000 0.500000
#
# Coordination Sequence:
#
# PCOD9105723 Si02
#       8
#     2   2   2   2   2   2   2   2
#     4  11  24  41  65  95 126 167 218 255 312 387
#     4   8  19  38  65  87 125 169 206 247 318 378
#     4   9  19  38  64  92 120 163 202 254 318 366
#     4   9  21  39  64  93 123 171 208 255 309 380
#     4  11  25  41  61  91 128 170 216 256 307 387
#     4  11  22  40  63  91 129 161 209 259 319 363
#     4  11  23  41  68  94 125 169 210 259 318 377
#     4  10  20  39  65  96 125 164 206 267 313 367
#
# _framework density 20.446380000000001
#
# number of rings (size 3 to 8) (size 9 to 14) (size 15 to 20)
#    0.000    2.000    1.250    1.875    8.750    1.500 
#    0.000    8.125    0.000    0.000    0.000    0.000 
#    0.000    0.000    0.000    0.000    0.000    0.000 
#
# Total GULP energy -89200.220941 kJ/mol
# GULP energy per Si atom -5575.013809 kJ/mol
# Density = 2.039984 g / cm^3
# Si number density = 20.446380 Si / 1000 Ang^3
#
#
#
# Elastic Constant Matrix: (Units=GPa)
#
#
# Indices 1 2 3 4 5 6 
#
# 1 97.1196 23.0064 44.7787 -6.2061 5.9358 -7.1463
# 2 23.0064 72.2626 33.2762 -17.5387 6.9352 -15.0784
# 3 44.7787 33.2762 123.8268 -11.2881 2.5173 2.0290
# 4 -6.2061 -17.5387 -11.2881 42.3519 -5.1273 -4.3096
# 5 5.9358 6.9352 2.5173 -5.1273 27.5960 2.8180
# 6 -7.1463 -15.0784 2.0290 -4.3096 2.8180 16.5129
#
#
#
# Elastic Compliance Matrix: (Units=1/GPa)
#
#
# Indices 1 2 3 4 5 6 
#
# 1 0.013258 -0.000028 -0.004749 0.001028 -0.002942 0.007067
# 2 -0.000028 0.026132 -0.006321 0.011229 -0.006832 0.028723
# 3 -0.004749 -0.006321 0.011518 -0.000962 0.002392 -0.009901
# 4 0.001028 0.011229 -0.000962 0.030135 0.000749 0.018553
# 5 -0.002942 -0.006832 0.002392 0.000749 0.039982 -0.014433
# 6 0.007067 0.028723 -0.009901 0.018553 -0.014433 0.098366
#
#
# Mechanical properties :
#
#
# Convention : Reuss Voigt Hill
#
# Bulk Modulus (GPa) = 34.82728 55.03683 44.93205
# Shear Modulus (GPa) = 19.90785 30.10203 25.00494
#
# Velocity S-wave (km/s) = 3.12374 3.84114 3.50087
# Velocity P-wave (km/s) = 5.48460 6.82998 6.19392
#
# Compressibility (1/GPa) = 0.02871312
#
# Stress axis : x y z
#
# Youngs Moduli (GPa) = 75.42367 38.26712 86.82197
#
# Poissons Ratio (x) = 0.00105 0.41235
# Poissons Ratio (y) = 0.00207 0.54878
# Poissons Ratio (z) = 0.35822 0.24188
#
# Static dielectric constant tensor:
#      x y z
#    x 1.767580 -0.049300 -0.032430 
#    y -0.049300 1.771880 0.018420 
#    z -0.032430 0.018420 1.814890 
# 
# From -- ./inp_files/343816.got.cif
#   From: 2010.05.17/outbox.cif.g08.bks.cpg/sg2_172_cif.got.tgz:343816.got - 2010.06.03 11:33:40.
