data_PCOD9105432
_publ_section_title
;
Structure prediction by ZEFSAII (Michael W. Deem and Ramdas Pophale) SiO2 
 PCOD9105432
Probable space group: P -1
;
_chemical_formula_sum "Si O2"
_cell_formula_units_Z 16
_cell_length_a 8.388948
_cell_length_b 9.133112
_cell_length_c 12.847336
_cell_angle_alpha 105.873541
_cell_angle_beta 80.155823
_cell_angle_gamma 45.891543
_cell_volume 579.351038
_symmetry_space_group_name_H-M "P -1"
_symmetry_group_IT_number 2
_symmetry_cell_setting 'triclinic'
loop_
_space_group_symop_operation_xyz
x,y,z
-x,-y,-z
loop_
_atom_site_type_symbol
_atom_site_label
_atom_site_fract_x
_atom_site_fract_y
_atom_site_fract_z
Si Si1 0.793893 0.115550 0.807660
Si Si2 0.814457 0.683345 0.343495
Si Si3 0.762139 0.045800 0.345350
Si Si4 0.435859 0.588828 0.820743
Si Si5 0.685450 0.663061 0.677211
Si Si6 0.314099 0.866289 0.406000
Si Si7 0.561887 0.858644 0.114358
Si Si8 0.029271 0.656757 0.903829
O O1 0.079666 0.972826 0.759961
O O2 0.616504 0.393811 0.857364
O O3 0.794536 0.028575 0.677316
O O4 0.654263 0.101437 0.897162
O O5 0.515237 0.852399 0.413223
O O6 0.951999 0.436327 0.228387
O O7 0.003763 0.581909 0.399221
O O8 0.836934 0.813182 0.290864
O O9 0.457821 0.286948 0.401597
O O10 0.843904 0.033691 0.450276
O O11 0.549598 0.664305 0.784994
O O12 0.523609 0.408183 0.682819
O O13 0.146122 0.741015 0.909477
O O14 0.584369 0.907028 0.756093
O O15 0.751746 0.604170 0.107655
O O16 0.753400 0.812412 0.010746
#
# Coordination Sequence:
#
# PCOD9105432 Si02
#       8
#     2   2   2   2   2   2   2   2
#     4   9  19  40  62  87 121 160 200 246 301 352
#     4  11  21  41  61  89 128 154 202 260 293 355
#     4  12  22  38  63  90 123 164 203 246 301 360
#     4   8  19  39  57  92 118 158 194 252 296 353
#     4  12  24  36  62  93 124 157 205 247 305 349
#     4   9  20  39  64  84 121 172 196 241 313 348
#     4  10  20  39  64  95 111 163 206 241 304 371
#     4   9  19  41  67  81 126 159 199 247 304 362
#
# _framework density 27.617108999999999
#
# number of rings (size 3 to 8) (size 9 to 14) (size 15 to 20)
#    0.750    1.250    3.750    0.750    0.000    4.000 
#    0.000    1.875    0.000    0.000    0.000    0.000 
#    0.000    0.000    0.000    0.000    0.000    0.000 
#
# Total GULP energy -89359.622189 kJ/mol
# GULP energy per Si atom -5584.976387 kJ/mol
# Density = 2.755425 g / cm^3
# Si number density = 27.617109 Si / 1000 Ang^3
#
#
#
# Elastic Constant Matrix: (Units=GPa)
#
#
# Indices 1 2 3 4 5 6 
#
# 1 92.4432 43.2144 22.4199 7.6187 -47.9404 8.3104
# 2 43.2144 94.3960 8.8252 -6.0958 -16.2447 9.7034
# 3 22.4199 8.8252 69.1415 -9.4044 -29.9130 15.2463
# 4 7.6187 -6.0958 -9.4044 31.1295 6.1285 -10.6326
# 5 -47.9404 -16.2447 -29.9130 6.1285 55.0570 -2.7260
# 6 8.3104 9.7034 15.2463 -10.6326 -2.7260 64.9317
#
#
#
# Elastic Compliance Matrix: (Units=1/GPa)
#
#
# Indices 1 2 3 4 5 6 
#
# 1 0.029966 -0.010046 0.001364 -0.015281 0.025368 -0.004091
# 2 -0.010046 0.014733 0.000066 0.006326 -0.005074 -0.000109
# 3 0.001364 0.000066 0.020312 0.002085 0.011807 -0.004117
# 4 -0.015281 0.006326 0.002085 0.043008 -0.014750 0.006944
# 5 0.025368 -0.005074 0.011807 -0.014750 0.046528 -0.005723
# 6 -0.004091 -0.000109 -0.004117 0.006944 -0.005723 0.017804
#
#
# Mechanical properties :
#
#
# Convention : Reuss Voigt Hill
#
# Bulk Modulus (GPa) = 20.92982 44.98886 32.95934
# Shear Modulus (GPa) = 24.32984 42.32503 33.32743
#
# Velocity S-wave (km/s) = 2.97133 3.91905 3.47762
# Velocity P-wave (km/s) = 4.40077 6.06664 5.29957
#
# Compressibility (1/GPa) = 0.04777871
#
# Stress axis : x y z
#
# Youngs Moduli (GPa) = 33.37148 67.87404 49.23244
#
# Poissons Ratio (x) = 0.68190 -0.06717
# Poissons Ratio (y) = 0.33527 -0.00326
# Poissons Ratio (z) = -0.04553 -0.00449
#
# Static dielectric constant tensor:
#      x y z
#    x 2.212470 -0.084850 -0.047090 
#    y -0.084850 2.169670 -0.024730 
#    z -0.047090 -0.024730 2.174050 
# 
# From -- ./inp_files/556216.got.cif
#   From: 2010.05.17/outbox.cif.g08.bks.cpg/sg2_279_cif.got.tgz:556216.got - 2010.06.03 11:33:40.
