data_PCOD9105329
_publ_section_title
;
Structure prediction by ZEFSAII (Michael W. Deem and Ramdas Pophale) SiO2 
 PCOD9105329
Probable space group: P -1
;
_chemical_formula_sum "Si O2"
_cell_formula_units_Z 16
_cell_length_a 9.181469
_cell_length_b 9.689214
_cell_length_c 9.474082
_cell_angle_alpha 99.868704
_cell_angle_beta 101.812016
_cell_angle_gamma 53.234050
_cell_volume 659.595159
_symmetry_space_group_name_H-M "P -1"
_symmetry_group_IT_number 2
_symmetry_cell_setting 'triclinic'
loop_
_space_group_symop_operation_xyz
x,y,z
-x,-y,-z
loop_
_atom_site_type_symbol
_atom_site_label
_atom_site_fract_x
_atom_site_fract_y
_atom_site_fract_z
Si Si1 0.629361 0.934924 0.232109
Si Si2 0.744002 0.418883 0.227831
Si Si3 0.082517 0.437928 0.317870
Si Si4 0.347263 0.701786 0.555854
Si Si5 0.267842 0.229529 0.058453
Si Si6 0.055019 0.813644 0.023861
Si Si7 0.987090 0.207012 0.670642
Si Si8 0.585364 0.750581 0.428627
O O1 0.562017 0.899131 0.354422
O O2 0.799912 0.944033 0.293430
O O3 0.461944 0.098375 0.147554
O O4 0.700692 0.777394 0.104007
O O5 0.685379 0.316639 0.290633
O O6 0.782210 0.343224 0.064801
O O7 0.607619 0.614077 0.292149
O O8 0.938643 0.390580 0.295210
O O9 0.166318 0.395192 0.167713
O O10 0.000758 0.637444 0.347490
O O11 0.236982 0.338294 0.450191
O O12 0.500000 0.500000 0.500000
O O13 0.147290 0.788508 0.465231
O O14 0.429653 0.792933 0.514812
O O15 0.131861 0.172036 0.033815
O O16 0.100243 0.773485 0.190332
O O17 0.000000 0.000000 0.000000
#
# Coordination Sequence:
#
# PCOD9105329 Si02
#       8
#     2   2   2   2   2   2   2   2
#     4  10  21  40  62  90 125 169 208 253 311 365
#     4  10  20  39  64  90 123 162 206 254 311 367
#     4  11  20  38  67  94 123 158 211 265 307 364
#     4  10  21  39  56  95 131 156 201 258 311 367
#     4   9  23  41  62  93 127 164 209 261 307 372
#     4  10  24  42  63  90 129 165 208 254 316 377
#     4  11  21  39  67  93 121 164 210 258 308 374
#     4  11  21  36  64  93 130 158 208 260 308 371
#
# _framework density 24.257304999999999
#
# number of rings (size 3 to 8) (size 9 to 14) (size 15 to 20)
#    0.000    1.750    3.750    1.125    3.500    2.000 
#    6.750    3.125    0.000    0.000    0.000    0.000 
#    0.000    0.000    0.000    0.000    0.000    0.000 
#
# Total GULP energy -89367.677677 kJ/mol
# GULP energy per Si atom -5585.479855 kJ/mol
# Density = 2.420209 g / cm^3
# Si number density = 24.257305 Si / 1000 Ang^3
#
#
#
# Elastic Constant Matrix: (Units=GPa)
#
#
# Indices 1 2 3 4 5 6 
#
# 1 72.6897 11.1418 20.0056 -8.8551 -39.1173 5.1945
# 2 11.1418 43.3162 8.7859 10.2130 -6.2171 4.3577
# 3 20.0056 8.7859 90.8470 4.6605 -41.1332 -1.7545
# 4 -8.8551 10.2130 4.6605 40.4788 -13.2376 -7.7105
# 5 -39.1173 -6.2171 -41.1332 -13.2376 48.9890 -3.1127
# 6 5.1945 4.3577 -1.7545 -7.7105 -3.1127 39.6623
#
#
#
# Elastic Compliance Matrix: (Units=1/GPa)
#
#
# Indices 1 2 3 4 5 6 
#
# 1 0.045608 -0.014959 0.015533 0.031802 0.056598 0.006982
# 2 -0.014959 0.030579 -0.007927 -0.017908 -0.019991 -0.006802
# 3 0.015533 -0.007927 0.024031 0.015547 0.036141 0.005759
# 4 0.031802 -0.017908 0.015547 0.053706 0.051512 0.012974
# 5 0.056598 -0.019991 0.036141 0.051512 0.108280 0.014895
# 6 0.006982 -0.006802 0.005759 0.012974 0.014895 0.028992
#
#
# Mechanical properties :
#
#
# Convention : Reuss Voigt Hill
#
# Bulk Modulus (GPa) = 11.69441 31.85771 21.77606
# Shear Modulus (GPa) = 14.95183 36.95399 25.95291
#
# Velocity S-wave (km/s) = 2.48540 3.90733 3.27448
# Velocity P-wave (km/s) = 3.61494 5.78948 4.82627
#
# Compressibility (1/GPa) = 0.08551095
#
# Stress axis : x y z
#
# Youngs Moduli (GPa) = 21.92597 32.70209 41.61271
#
# Poissons Ratio (x) = 0.48919 -0.64636
# Poissons Ratio (y) = 0.32799 0.32988
# Poissons Ratio (z) = -0.34057 0.25924
#
# Static dielectric constant tensor:
#      x y z
#    x 1.915420 -0.006200 0.003140 
#    y -0.006200 2.027060 0.090630 
#    z 0.003140 0.090630 1.936480 
# 
# From -- ./inp_files/179196.got.cif
#   From: 2010.05.17/outbox.cif.g08.bks.cpg/sg2_90_cif.got.tgz:179196.got - 2010.06.03 11:33:40.
