data_PCOD9105324
_publ_section_title
;
Structure prediction by ZEFSAII (Michael W. Deem and Ramdas Pophale) SiO2 
 PCOD9105324
Probable space group: P -1
;
_chemical_formula_sum "Si O2"
_cell_formula_units_Z 16
_cell_length_a 12.104546
_cell_length_b 10.986912
_cell_length_c 16.509618
_cell_angle_alpha 136.754016
_cell_angle_beta 23.311115
_cell_angle_gamma 133.303542
_cell_volume 594.130035
_symmetry_space_group_name_H-M "P -1"
_symmetry_group_IT_number 2
_symmetry_cell_setting 'triclinic'
loop_
_space_group_symop_operation_xyz
x,y,z
-x,-y,-z
loop_
_atom_site_type_symbol
_atom_site_label
_atom_site_fract_x
_atom_site_fract_y
_atom_site_fract_z
Si Si1 0.776332 0.816547 0.459052
Si Si2 0.251201 0.664860 0.959913
Si Si3 0.130721 0.279595 0.894856
Si Si4 0.922931 0.193265 0.593738
Si Si5 0.187856 0.876136 0.628075
Si Si6 0.564166 0.780175 0.948877
Si Si7 0.844857 0.185128 0.196651
Si Si8 0.734138 0.410469 0.682308
O O1 0.465681 0.821737 0.635616
O O2 0.969549 0.695827 0.216802
O O3 0.820849 0.760119 0.495554
O O4 0.921591 0.016727 0.454595
O O5 0.299324 0.455961 0.833741
O O6 0.162155 0.720274 0.958228
O O7 0.492311 0.776059 0.900195
O O8 0.041608 0.300368 0.058370
O O9 0.252259 0.088446 0.698469
O O10 0.836553 0.349061 0.669907
O O11 0.666284 0.138652 0.801144
O O12 0.868046 0.861289 0.804309
O O13 0.174351 0.779504 0.677780
O O14 0.352914 0.764643 0.396705
O O15 0.538050 0.572285 0.892962
O O16 0.000000 0.000000 0.000000
O O17 0.000000 0.500000 0.500000
#
# Coordination Sequence:
#
# PCOD9105324 Si02
#       8
#     2   2   2   2   2   2   2   2
#     4  10  22  39  63  91 120 159 205 252 301 360
#     4  10  23  40  61  93 124 158 203 253 306 354
#     4  10  22  41  61  88 125 162 201 247 305 363
#     4  10  20  39  64  90 121 159 204 252 305 359
#     4  10  22  40  62  89 122 163 205 248 302 362
#     4  10  22  40  63  91 123 159 203 254 303 358
#     4  10  22  40  61  87 119 159 203 246 300 362
#     4  10  22  37  59  91 124 159 200 250 301 357
#
# _framework density 26.930129999999998
#
# number of rings (size 3 to 8) (size 9 to 14) (size 15 to 20)
#    0.000    2.000    0.000    2.625    0.000   12.000 
#    0.000    3.750    0.000    0.000    0.000    0.000 
#    0.000    0.000    0.000    0.000    0.000    0.000 
#
# Total GULP energy -89606.048350 kJ/mol
# GULP energy per Si atom -5600.378022 kJ/mol
# Density = 2.686884 g / cm^3
# Si number density = 26.930130 Si / 1000 Ang^3
#
#
#
# Elastic Constant Matrix: (Units=GPa)
#
#
# Indices 1 2 3 4 5 6 
#
# 1 147.9720 15.4417 12.3590 -10.5169 9.4453 6.4880
# 2 15.4417 74.6346 22.2244 11.0620 9.5719 16.2033
# 3 12.3590 22.2244 117.7722 13.7657 -2.1153 8.8776
# 4 -10.5169 11.0620 13.7657 42.3720 1.9679 -6.1174
# 5 9.4453 9.5719 -2.1153 1.9679 34.9365 -11.1106
# 6 6.4880 16.2033 8.8776 -6.1174 -11.1106 50.5684
#
#
#
# Elastic Compliance Matrix: (Units=1/GPa)
#
#
# Indices 1 2 3 4 5 6 
#
# 1 0.007277 -0.001254 -0.000804 0.002409 -0.001978 -0.000534
# 2 -0.001254 0.017393 -0.002168 -0.004863 -0.006527 -0.007054
# 3 -0.000804 -0.002168 0.009414 -0.002884 0.001248 -0.000930
# 4 0.002409 -0.004863 -0.002884 0.027123 0.000624 0.005174
# 5 -0.001978 -0.006527 0.001248 0.000624 0.034067 0.009687
# 6 -0.000534 -0.007054 -0.000930 0.005174 0.009687 0.025021
#
#
# Mechanical properties :
#
#
# Convention : Reuss Voigt Hill
#
# Bulk Modulus (GPa) = 39.01213 48.93656 43.97434
# Shear Modulus (GPa) = 36.41909 44.93227 40.67568
#
# Velocity S-wave (km/s) = 3.68143 4.08913 3.89062
# Velocity P-wave (km/s) = 5.70863 6.36441 6.04542
#
# Compressibility (1/GPa) = 0.02563305
#
# Stress axis : x y z
#
# Youngs Moduli (GPa) = 137.42044 57.49511 106.22477
#
# Poissons Ratio (x) = 0.07208 0.08540
# Poissons Ratio (y) = 0.17228 0.23026
# Poissons Ratio (z) = 0.11048 0.12463
#
# Static dielectric constant tensor:
#      x y z
#    x 2.167090 0.021640 -0.041030 
#    y 0.021640 2.128530 0.023960 
#    z -0.041030 0.023960 2.125180 
# 
# From -- ./inp_files/568861.got.cif
#   From: 2010.05.17/outbox.cif.g08.bks.cpg/sg2_285_cif.got.tgz:568861.got - 2010.06.03 11:33:40.
