data_PCOD9105430
_publ_section_title
;
Structure prediction by ZEFSAII (Michael W. Deem and Ramdas Pophale) SiO2 
 PCOD9105430
Probable space group: P -1
;
_chemical_formula_sum "Si O2"
_cell_formula_units_Z 16
_cell_length_a 9.324976
_cell_length_b 11.465855
_cell_length_c 10.391547
_cell_angle_alpha 107.951982
_cell_angle_beta 40.850305
_cell_angle_gamma 100.514038
_cell_volume 689.046284
_symmetry_space_group_name_H-M "P -1"
_symmetry_group_IT_number 2
_symmetry_cell_setting 'triclinic'
loop_
_space_group_symop_operation_xyz
x,y,z
-x,-y,-z
loop_
_atom_site_type_symbol
_atom_site_label
_atom_site_fract_x
_atom_site_fract_y
_atom_site_fract_z
Si Si1 0.702355 0.156077 0.461923
Si Si2 0.436550 0.298252 0.133751
Si Si3 0.251657 0.093998 0.323795
Si Si4 0.904600 0.644281 0.110966
Si Si5 0.215331 0.816825 0.296507
Si Si6 0.762833 0.877842 0.356932
Si Si7 0.953891 0.648697 0.784183
Si Si8 0.679256 0.564891 0.483072
O O1 0.664678 0.181142 0.647758
O O2 0.459494 0.165112 0.570664
O O3 0.877446 0.245703 0.319039
O O4 0.798737 0.015219 0.332055
O O5 0.408190 0.155577 0.140282
O O6 0.239381 0.345691 0.188303
O O7 0.431680 0.369065 0.295538
O O8 0.669896 0.292273 0.901824
O O9 0.301888 0.101852 0.442754
O O10 0.034983 0.189463 0.495087
O O11 0.207695 0.952688 0.282488
O O12 0.972084 0.784273 0.140939
O O13 0.768749 0.647027 0.337971
O O14 0.849377 0.656507 0.000999
O O15 0.000000 0.500000 0.000000
O O16 0.119957 0.525709 0.631005
O O17 0.500000 0.500000 0.500000
#
# Coordination Sequence:
#
# PCOD9105430 Si02
#       8
#     2   2   2   2   2   2   2   2
#     4  10  21  40  65  97 137 176 220 289 341 399
#     4  12  23  43  69 101 131 183 228 280 348 406
#     4  10  21  41  64  97 140 171 225 282 331 413
#     4  10  22  41  63  92 132 179 224 276 333 402
#     4  10  22  40  67  99 136 179 220 276 347 407
#     4  10  20  39  64  94 136 180 221 278 342 399
#     4  11  24  42  68  98 139 177 229 289 343 400
#     4  11  25  46  68  96 137 179 231 285 340 415
#
# _framework density 23.220503000000001
#
# number of rings (size 3 to 8) (size 9 to 14) (size 15 to 20)
#    0.000    1.500    2.500    2.250    0.000    2.500 
#    0.000    1.250    0.000    0.000    0.000    0.000 
#    0.000    0.000    0.000    0.000    0.000    0.000 
#
# Total GULP energy -89102.323944 kJ/mol
# GULP energy per Si atom -5568.895247 kJ/mol
# Density = 2.316765 g / cm^3
# Si number density = 23.220503 Si / 1000 Ang^3
#
#
#
# Elastic Constant Matrix: (Units=GPa)
#
#
# Indices 1 2 3 4 5 6 
#
# 1 88.1532 4.2357 33.7463 -3.6443 17.7693 -15.8099
# 2 4.2357 81.8812 30.1234 8.9995 12.1633 -19.7974
# 3 33.7463 30.1234 128.6180 34.0085 14.8872 -6.5837
# 4 -3.6443 8.9995 34.0085 26.9613 -0.4752 6.3478
# 5 17.7693 12.1633 14.8872 -0.4752 29.3245 -4.2054
# 6 -15.8099 -19.7974 -6.5837 6.3478 -4.2054 25.9579
#
#
#
# Elastic Compliance Matrix: (Units=1/GPa)
#
#
# Indices 1 2 3 4 5 6 
#
# 1 0.016585 0.003838 -0.005345 0.005421 -0.007531 0.009127
# 2 0.003838 0.018561 -0.001674 -0.007648 -0.006886 0.016824
# 3 -0.005345 -0.001674 0.015803 -0.021110 -0.003856 0.004014
# 4 0.005421 -0.007648 -0.021110 0.072887 0.008291 -0.024366
# 5 -0.007531 -0.006886 -0.003856 0.008291 0.042765 -0.005916
# 6 0.009127 0.016824 0.004014 -0.024366 -0.005916 0.062932
#
#
# Mechanical properties :
#
#
# Convention : Reuss Voigt Hill
#
# Bulk Modulus (GPa) = 22.42752 48.31815 35.37283
# Shear Modulus (GPa) = 19.93969 31.81855 25.87912
#
# Velocity S-wave (km/s) = 2.93356 3.70574 3.34203
# Velocity P-wave (km/s) = 4.59933 6.25808 5.49169
#
# Compressibility (1/GPa) = 0.04458808
#
# Stress axis : x y z
#
# Youngs Moduli (GPa) = 60.29702 53.87570 63.27901
#
# Poissons Ratio (x) = -0.20678 0.33821
# Poissons Ratio (y) = -0.23142 0.10591
# Poissons Ratio (z) = 0.32227 0.09017
#
# Static dielectric constant tensor:
#      x y z
#    x 1.990870 0.184010 -0.102320 
#    y 0.184010 2.579370 -0.131450 
#    z -0.102320 -0.131450 1.920960 
# 
# From -- ./inp_files/188169.got.cif
#   From: 2010.05.17/outbox.cif.g08.bks.cpg/sg2_95_cif.got.tgz:188169.got - 2010.06.03 11:33:40.
