data_PCOD9105465
_publ_section_title
;
Structure prediction by ZEFSAII (Michael W. Deem and Ramdas Pophale) SiO2 
 PCOD9105465
Probable space group: P -1
;
_chemical_formula_sum "Si O2"
_cell_formula_units_Z 16
_cell_length_a 9.288035
_cell_length_b 13.969259
_cell_length_c 12.901651
_cell_angle_alpha 75.032864
_cell_angle_beta 141.240612
_cell_angle_gamma 126.686262
_cell_volume 765.176030
_symmetry_space_group_name_H-M "P -1"
_symmetry_group_IT_number 2
_symmetry_cell_setting 'triclinic'
loop_
_space_group_symop_operation_xyz
x,y,z
-x,-y,-z
loop_
_atom_site_type_symbol
_atom_site_label
_atom_site_fract_x
_atom_site_fract_y
_atom_site_fract_z
Si Si1 0.668872 0.532287 0.194538
Si Si2 0.434279 0.051392 0.547189
Si Si3 0.461858 0.663399 0.132155
Si Si4 0.322340 0.671537 0.450938
Si Si5 0.760288 0.942756 0.161550
Si Si6 0.401460 0.953298 0.129234
Si Si7 0.231837 0.533262 0.239173
Si Si8 0.231088 0.324731 0.179041
O O1 0.698042 0.648871 0.229684
O O2 0.440772 0.408895 0.175134
O O3 0.998946 0.578110 0.353161
O O4 0.500000 0.500000 0.000000
O O5 0.639059 0.208941 0.610337
O O6 0.489305 0.013756 0.699663
O O7 0.500000 0.000000 0.500000
O O8 0.089961 0.992618 0.357923
O O9 0.529333 0.785993 0.084344
O O10 0.445866 0.658320 0.248646
O O11 0.119920 0.532176 0.948932
O O12 0.321548 0.584094 0.390445
O O13 0.611460 0.726603 0.667471
O O14 0.663017 0.988881 0.187385
O O15 0.719813 0.982748 0.015886
O O16 0.115117 0.797377 0.007889
O O17 0.242773 0.424279 0.233221
#
# Coordination Sequence:
#
# PCOD9105465 Si02
#       8
#     2   2   2   2   2   2   2   2
#     4  11  22  38  63  93 128 175 214 265 334 396
#     4  12  27  46  68  99 141 185 228 273 338 403
#     4  10  20  39  64  96 128 168 223 270 331 399
#     4  12  23  43  65  99 134 175 221 273 336 404
#     4  11  23  45  70 102 131 178 235 274 339 397
#     4  11  24  45  71  98 136 179 227 289 329 398
#     4  10  21  38  69  98 129 168 215 280 340 393
#     4  11  23  43  65 100 136 167 222 279 339 397
#
# _framework density 20.910221
#
# number of rings (size 3 to 8) (size 9 to 14) (size 15 to 20)
#    0.000    1.000    3.750    3.375    1.750    0.500 
#    2.250    1.250    0.000    0.000    0.000    0.000 
#    0.000    0.000    0.000    0.000    0.000    0.000 
#
# Total GULP energy -89367.452472 kJ/mol
# GULP energy per Si atom -5585.465780 kJ/mol
# Density = 2.086263 g / cm^3
# Si number density = 20.910221 Si / 1000 Ang^3
#
#
#
# Elastic Constant Matrix: (Units=GPa)
#
#
# Indices 1 2 3 4 5 6 
#
# 1 117.7192 31.3326 70.0666 -7.7716 -5.5837 14.4807
# 2 31.3326 90.7344 19.1931 -16.0862 -6.8979 5.6091
# 3 70.0666 19.1931 120.0575 -16.0672 4.2417 8.3357
# 4 -7.7716 -16.0862 -16.0672 28.6452 7.2455 1.1036
# 5 -5.5837 -6.8979 4.2417 7.2455 25.7574 2.5940
# 6 14.4807 5.6091 8.3357 1.1036 2.5940 17.1920
#
#
#
# Elastic Compliance Matrix: (Units=1/GPa)
#
#
# Indices 1 2 3 4 5 6 
#
# 1 0.015614 -0.003220 -0.008692 -0.003591 0.005824 -0.008535
# 2 -0.003220 0.013443 0.000809 0.006959 0.001081 -0.002676
# 3 -0.008692 0.000809 0.014507 0.007809 -0.006301 0.000472
# 4 -0.003591 0.006959 0.007809 0.045570 -0.012611 -0.004054
# 5 0.005824 0.001081 -0.006301 -0.012611 0.045797 -0.008303
# 6 -0.008535 -0.002676 0.000472 -0.004054 -0.008303 0.067513
#
#
# Mechanical properties :
#
#
# Convention : Reuss Voigt Hill
#
# Bulk Modulus (GPa) = 46.81641 63.29952 55.05796
# Shear Modulus (GPa) = 21.57319 28.18017 24.87668
#
# Velocity S-wave (km/s) = 3.21550 3.67505 3.45293
# Velocity P-wave (km/s) = 6.01862 6.95311 6.50267
#
# Compressibility (1/GPa) = 0.02136003
#
# Stress axis : x y z
#
# Youngs Moduli (GPa) = 64.04505 74.38659 68.93055
#
# Poissons Ratio (x) = 0.23950 0.59911
# Poissons Ratio (y) = 0.20620 -0.05575
# Poissons Ratio (z) = 0.55665 -0.06017
#
# Static dielectric constant tensor:
#      x y z
#    x 1.757010 0.000670 -0.017230 
#    y 0.000670 1.796610 -0.021200 
#    z -0.017230 -0.021200 1.760140 
# 
# From -- ./inp_files/278166.got.cif
#   From: 2010.05.17/outbox.cif.g08.bks.cpg/sg2_140_cif.got.tgz:278166.got - 2010.06.03 11:33:40.
