data_PCOD9105385
_publ_section_title
;
Structure prediction by ZEFSAII (Michael W. Deem and Ramdas Pophale) SiO2 
 PCOD9105385
Probable space group: P -1
;
_chemical_formula_sum "Si O2"
_cell_formula_units_Z 14
_cell_length_a 8.009895
_cell_length_b 8.904329
_cell_length_c 13.933003
_cell_angle_alpha 56.358070
_cell_angle_beta 104.904894
_cell_angle_gamma 64.904986
_cell_volume 567.540049
_symmetry_space_group_name_H-M "P -1"
_symmetry_group_IT_number 2
_symmetry_cell_setting 'triclinic'
loop_
_space_group_symop_operation_xyz
x,y,z
-x,-y,-z
loop_
_atom_site_type_symbol
_atom_site_label
_atom_site_fract_x
_atom_site_fract_y
_atom_site_fract_z
Si Si1 0.583492 0.032035 0.599168
Si Si2 0.711962 0.143516 0.119013
Si Si3 0.640202 0.882050 0.866517
Si Si4 0.820660 0.536828 0.382572
Si Si5 0.887779 0.259073 0.944956
Si Si6 0.031841 0.967233 0.403013
Si Si7 0.121086 0.556655 0.313578
O O1 0.820852 0.973965 0.637250
O O2 0.367135 0.332098 0.486096
O O3 0.500000 0.000000 0.500000
O O4 0.616372 0.879301 0.749302
O O5 0.459495 0.220744 0.057758
O O6 0.724124 0.300039 0.991667
O O7 0.793066 0.127058 0.245229
O O8 0.930317 0.846765 0.220961
O O9 0.899706 0.771642 0.969846
O O10 0.442158 0.180811 0.759207
O O11 0.820316 0.328392 0.479309
O O12 0.000000 0.500000 0.500000
O O13 0.961282 0.490548 0.321393
O O14 0.786144 0.448989 0.774513
O O15 0.000000 0.000000 0.000000
O O16 0.000000 0.000000 0.500000
#
# Coordination Sequence:
#
# PCOD9105385 Si02
#       7
#     2   2   2   2   2   2   2
#     4  12  24  39  66  91 126 166 216 266 318 374
#     4  10  20  39  64  92 130 162 209 259 309 384
#     4  11  21  40  66  91 128 168 206 260 324 361
#     4  11  20  37  64  93 127 160 213 270 309 378
#     4  10  23  38  60  95 130 166 207 255 314 386
#     4  12  23  37  63  95 127 163 214 270 317 374
#     4  10  21  40  60  95 126 159 212 254 315 372
#
# _framework density 24.667863000000001
#
# number of rings (size 3 to 8) (size 9 to 14) (size 15 to 20)
#    0.000    1.143    5.714    1.714    4.000    6.286 
#    0.000    0.714    0.000    1.714    0.000    0.000 
#    0.000    0.000    0.000    0.000    0.000    0.000 
#
# Total GULP energy -78304.894995 kJ/mol
# GULP energy per Si atom -5593.206785 kJ/mol
# Density = 2.461172 g / cm^3
# Si number density = 24.667863 Si / 1000 Ang^3
#
#
#
# Elastic Constant Matrix: (Units=GPa)
#
#
# Indices 1 2 3 4 5 6 
#
# 1 176.8249 21.2962 42.6339 21.3413 -27.1786 -8.5441
# 2 21.2962 84.9883 10.9401 7.4681 -1.2524 -0.4967
# 3 42.6339 10.9401 71.2439 17.0516 -21.7888 -9.3289
# 4 21.3413 7.4681 17.0516 39.4197 -11.0652 -2.6966
# 5 -27.1786 -1.2524 -21.7888 -11.0652 36.9411 13.8280
# 6 -8.5441 -0.4967 -9.3289 -2.6966 13.8280 28.1961
#
#
#
# Elastic Compliance Matrix: (Units=1/GPa)
#
#
# Indices 1 2 3 4 5 6 
#
# 1 0.007144 -0.001253 -0.002770 -0.001536 0.003326 -0.000552
# 2 -0.001253 0.012362 -0.001298 -0.001598 -0.001798 0.000138
# 3 -0.002770 -0.001298 0.019448 -0.004460 0.007504 0.001465
# 4 -0.001536 -0.001598 -0.004460 0.029953 0.005906 -0.002001
# 5 0.003326 -0.001798 0.007504 0.005906 0.041823 -0.016487
# 6 -0.000552 0.000138 0.001465 -0.002001 -0.016487 0.043680
#
#
# Mechanical properties :
#
#
# Convention : Reuss Voigt Hill
#
# Bulk Modulus (GPa) = 35.32123 53.64418 44.48270
# Shear Modulus (GPa) = 28.65509 38.12384 33.38946
#
# Velocity S-wave (km/s) = 3.41198 3.93553 3.68307
# Velocity P-wave (km/s) = 5.46552 6.51498 6.01319
#
# Compressibility (1/GPa) = 0.02831159
#
# Stress axis : x y z
#
# Youngs Moduli (GPa) = 139.97610 80.89277 51.41983
#
# Poissons Ratio (x) = 0.10134 0.14244
# Poissons Ratio (y) = 0.17536 0.06675
# Poissons Ratio (z) = 0.38775 0.10502
#
# Static dielectric constant tensor:
#      x y z
#    x 1.941650 -0.033700 -0.031020 
#    y -0.033700 2.085870 0.015510 
#    z -0.031020 0.015510 1.951050 
# 
# From -- ./inp_files/494503.got.cif
#   From: 2010.05.17/outbox.cif.g08.bks.cpg/sg2_248_cif.got.tgz:494503.got - 2010.06.03 11:33:40.
