data_PCOD9105121
_publ_section_title
;
Structure prediction by ZEFSAII (Michael W. Deem and Ramdas Pophale) SiO2 
 PCOD9105121
Probable space group: P -1
;
_chemical_formula_sum "Si O2"
_cell_formula_units_Z 14
_cell_length_a 6.683672
_cell_length_b 9.608019
_cell_length_c 12.761151
_cell_angle_alpha 114.148957
_cell_angle_beta 96.784388
_cell_angle_gamma 51.834173
_cell_volume 577.459919
_symmetry_space_group_name_H-M "P -1"
_symmetry_group_IT_number 2
_symmetry_cell_setting 'triclinic'
loop_
_space_group_symop_operation_xyz
x,y,z
-x,-y,-z
loop_
_atom_site_type_symbol
_atom_site_label
_atom_site_fract_x
_atom_site_fract_y
_atom_site_fract_z
Si Si1 0.124027 0.463353 0.709079
Si Si2 0.617127 0.429989 0.369995
Si Si3 0.358310 0.839403 0.410932
Si Si4 0.777809 0.858459 0.090922
Si Si5 0.856019 0.016915 0.327678
Si Si6 0.709486 0.373863 0.063940
Si Si7 0.621907 0.711407 0.871786
O O1 0.133055 0.584498 0.652080
O O2 0.352851 0.239678 0.621420
O O3 0.229127 0.503339 0.829749
O O4 0.839751 0.552787 0.754740
O O5 0.500000 0.500000 0.500000
O O6 0.406066 0.632537 0.356998
O O7 0.700486 0.214646 0.309269
O O8 0.263637 0.935445 0.548851
O O9 0.137938 0.957694 0.347097
O O10 0.851217 0.860645 0.215817
O O11 0.512495 0.074365 0.117949
O O12 0.739710 0.710471 0.991588
O O13 0.020840 0.809589 0.025608
O O14 0.589035 0.312467 0.118647
O O15 0.500000 0.500000 0.000000
#
# Coordination Sequence:
#
# PCOD9105121 Si02
#       7
#     2   2   2   2   2   2   2
#     4   9  19  37  57  86 122 157 199 251 308 352
#     4   8  16  31  56  86 115 156 198 238 298 357
#     4   8  18  32  57  90 119 150 207 249 297 360
#     4  10  22  36  59  90 115 162 203 242 305 363
#     4  10  16  33  60  87 117 161 203 246 300 366
#     4  11  22  38  62  86 117 163 200 249 311 354
#     4  10  22  40  58  86 127 154 203 257 288 368
#
# _framework density 24.244107
#
# number of rings (size 3 to 8) (size 9 to 14) (size 15 to 20)
#    0.857    1.714    0.000    2.143    0.000    4.571 
#    0.000    2.143    0.000    0.000    0.000   13.000 
#    0.000    0.000    0.000    0.000    0.000    0.000 
#
# Total GULP energy -78007.134679 kJ/mol
# GULP energy per Si atom -5571.938191 kJ/mol
# Density = 2.418893 g / cm^3
# Si number density = 24.244107 Si / 1000 Ang^3
#
#
#
# Elastic Constant Matrix: (Units=GPa)
#
#
# Indices 1 2 3 4 5 6 
#
# 1 76.2041 9.6230 23.4775 12.0382 -10.8709 -5.9326
# 2 9.6230 68.0383 15.3156 -4.6072 -11.8910 -11.4746
# 3 23.4775 15.3156 117.7824 9.2326 -16.7996 -15.8336
# 4 12.0382 -4.6072 9.2326 36.7459 -12.2820 -8.0123
# 5 -10.8709 -11.8910 -16.7996 -12.2820 28.1527 13.3404
# 6 -5.9326 -11.4746 -15.8336 -8.0123 13.3404 28.2669
#
#
#
# Elastic Compliance Matrix: (Units=1/GPa)
#
#
# Indices 1 2 3 4 5 6 
#
# 1 0.014912 -0.001607 -0.002239 -0.003908 0.002555 -0.001090
# 2 -0.001607 0.017533 -0.000834 0.006240 0.006672 0.004933
# 3 -0.002239 -0.000834 0.009936 -0.000115 0.003121 0.003252
# 4 -0.003908 0.006240 -0.000115 0.035070 0.013996 0.004984
# 5 0.002555 0.006672 0.003121 0.013996 0.055448 -0.017208
# 6 -0.001090 0.004933 0.003252 0.004984 -0.017208 0.048506
#
#
# Mechanical properties :
#
#
# Convention : Reuss Voigt Hill
#
# Bulk Modulus (GPa) = 30.28338 39.87299 35.07818
# Shear Modulus (GPa) = 24.78023 32.87370 28.82696
#
# Velocity S-wave (km/s) = 3.20052 3.68631 3.45197
# Velocity P-wave (km/s) = 5.11624 5.88224 5.51256
#
# Compressibility (1/GPa) = 0.03302141
#
# Stress axis : x y z
#
# Youngs Moduli (GPa) = 67.05802 57.03484 100.64019
#
# Poissons Ratio (x) = 0.09166 0.22537
# Poissons Ratio (y) = 0.10777 0.08392
# Poissons Ratio (z) = 0.15017 0.04756
#
# Static dielectric constant tensor:
#      x y z
#    x 2.277680 0.022900 0.005650 
#    y 0.022900 1.936150 0.032770 
#    z 0.005650 0.032770 1.979860 
# 
# From -- ./inp_files/482880.got.cif
#   From: 2010.05.17/outbox.cif.g08.bks.cpg/sg2_242_cif.got.tgz:482880.got - 2010.06.03 11:33:40.
