data_PCOD9105916
_publ_section_title
;
Structure prediction by ZEFSAII (Michael W. Deem and Ramdas Pophale) SiO2 
 PCOD9105916
Probable space group: P -1
;
_chemical_formula_sum "Si O2"
_cell_formula_units_Z 16
_cell_length_a 10.185150
_cell_length_b 17.971116
_cell_length_c 11.796825
_cell_angle_alpha 132.018797
_cell_angle_beta 49.885856
_cell_angle_gamma 150.595798
_cell_volume 776.446128
_symmetry_space_group_name_H-M "P -1"
_symmetry_group_IT_number 2
_symmetry_cell_setting 'triclinic'
loop_
_space_group_symop_operation_xyz
x,y,z
-x,-y,-z
loop_
_atom_site_type_symbol
_atom_site_label
_atom_site_fract_x
_atom_site_fract_y
_atom_site_fract_z
Si Si1 0.908291 0.079257 0.915403
Si Si2 0.852192 0.153779 0.556545
Si Si3 0.803216 0.864302 0.567559
Si Si4 0.579162 0.180106 0.914052
Si Si5 0.515648 0.320425 0.905410
Si Si6 0.343990 0.794819 0.446940
Si Si7 0.776599 0.335790 0.389615
Si Si8 0.978911 0.327624 0.038630
O O1 0.208279 0.206566 0.929754
O O2 0.836496 0.952663 0.746702
O O3 0.907471 0.178371 0.939149
O O4 0.689499 0.980167 0.036828
O O5 0.705483 0.153721 0.733833
O O6 0.891477 0.249584 0.530000
O O7 0.095060 0.199704 0.519354
O O8 0.636313 0.976524 0.446415
O O9 0.494484 0.726766 0.556857
O O10 0.000000 0.000000 0.500000
O O11 0.529337 0.256591 0.944326
O O12 0.798095 0.295632 0.008860
O O13 0.635192 0.304855 0.721604
O O14 0.710058 0.504667 0.990559
O O15 0.314227 0.783311 0.585537
O O16 0.000000 0.500000 0.500000
O O17 0.894627 0.336957 0.214861
#
# Coordination Sequence:
#
# PCOD9105916 Si02
#       8
#     2   2   2   2   2   2   2   2
#     4  12  24  42  67 102 129 170 225 274 316 388
#     4  10  21  40  69  96 126 166 221 269 322 382
#     4  12  23  41  70  98 131 168 226 272 317 392
#     4  11  24  43  70  95 132 173 220 271 331 388
#     4  11  23  44  66  94 135 176 216 266 337 392
#     4  10  20  39  66  94 125 172 214 267 321 387
#     4  12  24  43  67  94 135 172 215 270 336 388
#     4  12  25  42  64  96 137 175 215 269 336 394
#
# _framework density 20.606708999999999
#
# number of rings (size 3 to 8) (size 9 to 14) (size 15 to 20)
#    0.000    0.750    5.000    3.000    0.000    0.000 
#    4.500    0.625    0.000    0.000    0.000    0.000 
#    0.000    0.000    0.000    0.000    0.000    0.000 
#
# Total GULP energy -89415.406860 kJ/mol
# GULP energy per Si atom -5588.462929 kJ/mol
# Density = 2.055981 g / cm^3
# Si number density = 20.606709 Si / 1000 Ang^3
#
#
#
# Elastic Constant Matrix: (Units=GPa)
#
#
# Indices 1 2 3 4 5 6 
#
# 1 123.2665 29.9511 25.6606 -25.1426 10.9434 26.7740
# 2 29.9511 84.7316 0.9748 -10.7305 -0.9579 21.3314
# 3 25.6606 0.9748 51.9514 -9.5489 7.0682 1.6056
# 4 -25.1426 -10.7305 -9.5489 12.9417 2.0872 -0.4813
# 5 10.9434 -0.9579 7.0682 2.0872 29.7018 0.0656
# 6 26.7740 21.3314 1.6056 -0.4813 0.0656 31.5098
#
#
#
# Elastic Compliance Matrix: (Units=1/GPa)
#
#
# Indices 1 2 3 4 5 6 
#
# 1 0.022459 0.003008 -0.000348 0.046943 -0.011349 -0.020361
# 2 0.003008 0.016958 0.003071 0.022108 -0.002815 -0.013849
# 3 -0.000348 0.003071 0.024213 0.020762 -0.006988 -0.002685
# 4 0.046943 0.022108 0.020762 0.205945 -0.035879 -0.052692
# 5 -0.011349 -0.002815 -0.006988 -0.035879 0.041918 0.011270
# 6 -0.020361 -0.013849 -0.002685 -0.052692 0.011270 0.057721
#
#
# Mechanical properties :
#
#
# Convention : Reuss Voigt Hill
#
# Bulk Modulus (GPa) = 13.31724 41.45806 27.38765
# Shear Modulus (GPa) = 13.06223 28.38818 20.72520
#
# Velocity S-wave (km/s) = 2.52043 3.71565 3.17480
# Velocity P-wave (km/s) = 3.86610 6.21052 5.17287
#
# Compressibility (1/GPa) = 0.07509064
#
# Stress axis : x y z
#
# Youngs Moduli (GPa) = 44.52534 58.96956 41.30006
#
# Poissons Ratio (x) = -0.17736 0.01438
# Poissons Ratio (y) = -0.13392 -0.12683
# Poissons Ratio (z) = 0.01550 -0.18109
#
# Static dielectric constant tensor:
#      x y z
#    x 1.777420 -0.058530 0.002280 
#    y -0.058530 1.876090 0.001140 
#    z 0.002280 0.001140 1.717020 
# 
# From -- ./inp_files/208333.got.cif
#   From: 2010.05.17/outbox.cif.g08.bks.cpg/sg2_105_cif.got.tgz:208333.got - 2010.06.03 11:33:40.
