data_PCOD9105399
_publ_section_title
;
Structure prediction by ZEFSAII (Michael W. Deem and Ramdas Pophale) SiO2 
 PCOD9105399
Probable space group: P -1
;
_chemical_formula_sum "Si O2"
_cell_formula_units_Z 16
_cell_length_a 18.922190
_cell_length_b 5.533502
_cell_length_c 13.965091
_cell_angle_alpha 136.109642
_cell_angle_beta 39.876786
_cell_angle_gamma 125.345998
_cell_volume 648.877935
_symmetry_space_group_name_H-M "P -1"
_symmetry_group_IT_number 2
_symmetry_cell_setting 'triclinic'
loop_
_space_group_symop_operation_xyz
x,y,z
-x,-y,-z
loop_
_atom_site_type_symbol
_atom_site_label
_atom_site_fract_x
_atom_site_fract_y
_atom_site_fract_z
Si Si1 0.035430 0.868220 0.690856
Si Si2 0.421561 0.344488 0.621492
Si Si3 0.672775 0.946627 0.058117
Si Si4 0.797600 0.968995 0.295914
Si Si5 0.496122 0.508403 0.218430
Si Si6 0.152924 0.812512 0.909055
Si Si7 0.904744 0.163836 0.585071
Si Si8 0.325290 0.081480 0.159634
O O1 0.090115 0.994493 0.571396
O O2 0.946292 0.568202 0.663229
O O3 0.136231 0.766944 0.625037
O O4 0.961595 0.119527 0.900446
O O5 0.500000 0.500000 0.500000
O O6 0.334596 0.049109 0.586104
O O7 0.491412 0.325849 0.641390
O O8 0.337812 0.640441 0.823837
O O9 0.553065 0.784657 0.164849
O O10 0.754176 0.938817 0.061304
O O11 0.704005 0.784413 0.878038
O O12 0.820156 0.590037 0.213286
O O13 0.845349 0.062964 0.167271
O O14 0.380034 0.358555 0.255888
O O15 0.578953 0.189073 0.035033
O O16 0.784632 0.101474 0.736035
O O17 0.000000 0.000000 0.500000
#
# Coordination Sequence:
#
# PCOD9105399 Si02
#       8
#     2   2   2   2   2   2   2   2
#     4  11  26  43  65  96 134 178 227 282 341 401
#     4  10  23  40  59  95 134 168 213 277 343 404
#     4  10  20  39  64  93 127 171 217 273 334 400
#     4  11  25  44  71 103 130 183 227 281 341 409
#     4  10  20  40  65  94 124 169 226 275 334 398
#     4  11  23  43  74  99 135 175 232 284 333 410
#     4  11  26  44  63  96 137 182 223 285 346 402
#     4  10  22  39  67  91 127 171 227 279 326 405
#
# _framework density 24.657948000000001
#
# number of rings (size 3 to 8) (size 9 to 14) (size 15 to 20)
#    0.000    1.500    1.250    2.625    8.750    1.500 
#    2.250    0.000    0.000    0.000    0.000    0.000 
#    0.000    0.000    0.000    0.000    0.000    0.000 
#
# Total GULP energy -89400.316434 kJ/mol
# GULP energy per Si atom -5587.519777 kJ/mol
# Density = 2.460183 g / cm^3
# Si number density = 24.657948 Si / 1000 Ang^3
#
#
#
# Elastic Constant Matrix: (Units=GPa)
#
#
# Indices 1 2 3 4 5 6 
#
# 1 181.2788 44.4727 63.9598 -26.4604 33.7687 30.4059
# 2 44.4727 89.3680 39.5737 -16.7252 23.9024 16.1552
# 3 63.9598 39.5737 95.3316 -26.6860 38.4165 5.1882
# 4 -26.4604 -16.7252 -26.6860 44.5055 -11.0349 2.0647
# 5 33.7687 23.9024 38.4165 -11.0349 42.6305 -2.3077
# 6 30.4059 16.1552 5.1882 2.0647 -2.3077 55.5355
#
#
#
# Elastic Compliance Matrix: (Units=1/GPa)
#
#
# Indices 1 2 3 4 5 6 
#
# 1 0.008473 -0.000760 -0.003323 0.002229 -0.002948 -0.004313
# 2 -0.000760 0.015415 -0.002973 0.002526 -0.004929 -0.004089
# 3 -0.003323 -0.002973 0.020915 0.006243 -0.012935 -0.000040
# 4 0.002229 0.002526 0.006243 0.028236 -0.001697 -0.003659
# 5 -0.002948 -0.004929 -0.012935 -0.001697 0.040098 0.005986
# 6 -0.004313 -0.004089 -0.000040 -0.003659 0.005986 0.021946
#
#
# Mechanical properties :
#
#
# Convention : Reuss Voigt Hill
#
# Bulk Modulus (GPa) = 32.58200 73.55452 53.06826
# Shear Modulus (GPa) = 31.36288 43.06578 37.21433
#
# Velocity S-wave (km/s) = 3.57026 4.18368 3.88909
# Velocity P-wave (km/s) = 5.49891 7.29605 6.46027
#
# Compressibility (1/GPa) = 0.03069180
#
# Stress axis : x y z
#
# Youngs Moduli (GPa) = 118.02220 64.87341 47.81161
#
# Poissons Ratio (x) = 0.04930 0.15886
# Poissons Ratio (y) = 0.08968 0.14215
# Poissons Ratio (z) = 0.39215 0.19287
#
# Static dielectric constant tensor:
#      x y z
#    x 2.014480 -0.022400 -0.044090 
#    y -0.022400 2.015980 0.101010 
#    z -0.044090 0.101010 2.051970 
# 
# From -- ./inp_files/411102.got.cif
#   From: 2010.05.17/outbox.cif.g08.bks.cpg/sg2_206_cif.got.tgz:411102.got - 2010.06.03 11:33:40.
