data_PCOD9105076
_publ_section_title
;
Structure prediction by ZEFSAII (Michael W. Deem and Ramdas Pophale) SiO2 
 PCOD9105076
Probable space group: P -1
;
_chemical_formula_sum "Si O2"
_cell_formula_units_Z 16
_cell_length_a 8.922371
_cell_length_b 9.035613
_cell_length_c 18.014501
_cell_angle_alpha 129.374055
_cell_angle_beta 138.000326
_cell_angle_gamma 45.248364
_cell_volume 670.970536
_symmetry_space_group_name_H-M "P -1"
_symmetry_group_IT_number 2
_symmetry_cell_setting 'triclinic'
loop_
_space_group_symop_operation_xyz
x,y,z
-x,-y,-z
loop_
_atom_site_type_symbol
_atom_site_label
_atom_site_fract_x
_atom_site_fract_y
_atom_site_fract_z
Si Si1 0.567545 0.984753 0.610016
Si Si2 0.272279 0.813554 0.031058
Si Si3 0.960700 0.880513 0.538461
Si Si4 0.926323 0.328895 0.722262
Si Si5 0.285864 0.455516 0.806865
Si Si6 0.501411 0.687358 0.608766
Si Si7 0.368630 0.059146 0.891406
Si Si8 0.112363 0.770773 0.709144
O O1 0.616558 0.796578 0.628968
O O2 0.848571 0.961574 0.703521
O O3 0.500000 0.000000 0.500000
O O4 0.286689 0.136125 0.585357
O O5 0.256371 0.631398 0.915881
O O6 0.423408 0.714866 0.131138
O O7 0.441323 0.906400 0.081538
O O8 0.000000 0.000000 0.000000
O O9 0.211595 0.830793 0.569285
O O10 0.050630 0.716097 0.588138
O O11 0.876146 0.125949 0.616028
O O12 0.103476 0.355621 0.733111
O O13 0.099058 0.262899 0.838812
O O14 0.681346 0.557467 0.702106
O O15 0.218811 0.581803 0.746197
O O16 0.500000 0.500000 0.500000
O O17 0.306691 0.863025 0.792206
O O18 0.500000 0.000000 0.000000
#
# Coordination Sequence:
#
# PCOD9105076 Si02
#       8
#     2   2   2   2   2   2   2   2
#     4  10  21  40  65  90 129 170 207 264 323 376
#     4  10  22  40  63  93 122 168 215 259 328 379
#     4  10  23  42  63  95 132 167 216 264 322 387
#     4  10  22  38  65  94 127 170 217 258 323 374
#     4  10  20  39  63  90 126 163 213 270 305 380
#     4  12  23  41  68  95 129 172 215 264 324 386
#     4  10  20  40  65  89 131 169 205 265 324 369
#     4  10  20  40  64  92 128 171 216 266 317 375
#
# _framework density 23.846056000000001
#
# number of rings (size 3 to 8) (size 9 to 14) (size 15 to 20)
#    0.000    1.750    3.750    0.375    0.000    3.000 
#    2.250    4.375    0.000    0.000    0.000    0.000 
#    0.000    0.000    0.000    0.000    0.000    0.000 
#
# Total GULP energy -89127.243763 kJ/mol
# GULP energy per Si atom -5570.452735 kJ/mol
# Density = 2.379178 g / cm^3
# Si number density = 23.846056 Si / 1000 Ang^3
#
#
#
# Elastic Constant Matrix: (Units=GPa)
#
#
# Indices 1 2 3 4 5 6 
#
# 1 101.8517 40.9943 25.3543 -7.7606 19.0693 10.1748
# 2 40.9943 106.9551 51.1948 -36.1434 2.4642 14.3795
# 3 25.3543 51.1948 83.5879 -31.5533 13.6533 7.0161
# 4 -7.7606 -36.1434 -31.5533 55.3274 14.1016 0.6999
# 5 19.0693 2.4642 13.6533 14.1016 38.3268 -16.3037
# 6 10.1748 14.3795 7.0161 0.6999 -16.3037 46.4898
#
#
#
# Elastic Compliance Matrix: (Units=1/GPa)
#
#
# Indices 1 2 3 4 5 6 
#
# 1 0.013903 -0.004035 0.001757 0.003194 -0.010996 -0.005964
# 2 -0.004035 0.016736 -0.005454 0.007762 -0.001772 -0.004209
# 3 0.001757 -0.005454 0.024557 0.015644 -0.018982 -0.009296
# 4 0.003194 0.007762 0.015644 0.040223 -0.029432 -0.016388
# 5 -0.010996 -0.001772 -0.018982 -0.029432 0.061036 0.027667
# 6 -0.005964 -0.004209 -0.009296 -0.016388 0.027667 0.035470
#
#
# Mechanical properties :
#
#
# Convention : Reuss Voigt Hill
#
# Bulk Modulus (GPa) = 25.16893 58.60904 41.88898
# Shear Modulus (GPa) = 22.66193 39.68557 31.17375
#
# Velocity S-wave (km/s) = 3.08611 4.08394 3.61957
# Velocity P-wave (km/s) = 4.82456 6.84613 5.92224
#
# Compressibility (1/GPa) = 0.03973153
#
# Stress axis : x y z
#
# Youngs Moduli (GPa) = 71.92766 59.74993 40.72119
#
# Poissons Ratio (x) = 0.24109 -0.07153
# Poissons Ratio (y) = 0.29023 0.22209
# Poissons Ratio (z) = -0.12635 0.32588
#
# Static dielectric constant tensor:
#      x y z
#    x 1.780900 0.002450 0.026020 
#    y 0.002450 1.977400 -0.072140 
#    z 0.026020 -0.072140 1.979800 
# 
# From -- ./inp_files/588075.got.cif
#   From: 2010.05.17/outbox.cif.g08.bks.cpg/sg2_295_cif.got.tgz:588075.got - 2010.06.03 11:33:40.
