data_PCOD9105298
_publ_section_title
;
Structure prediction by ZEFSAII (Michael W. Deem and Ramdas Pophale) SiO2 
 PCOD9105298
Probable space group: P -1
;
_chemical_formula_sum "Si O2"
_cell_formula_units_Z 16
_cell_length_a 9.018931
_cell_length_b 18.621424
_cell_length_c 6.955682
_cell_angle_alpha 68.412842
_cell_angle_beta 52.136011
_cell_angle_gamma 53.098672
_cell_volume 737.486888
_symmetry_space_group_name_H-M "P -1"
_symmetry_group_IT_number 2
_symmetry_cell_setting 'triclinic'
loop_
_space_group_symop_operation_xyz
x,y,z
-x,-y,-z
loop_
_atom_site_type_symbol
_atom_site_label
_atom_site_fract_x
_atom_site_fract_y
_atom_site_fract_z
Si Si1 0.176275 0.948240 0.742776
Si Si2 0.579070 0.255392 0.718236
Si Si3 0.068023 0.126464 0.506273
Si Si4 0.605118 0.817341 0.734990
Si Si5 0.924571 0.199832 0.980592
Si Si6 0.154030 0.534255 0.265047
Si Si7 0.208192 0.276628 0.714390
Si Si8 0.411540 0.615647 0.133938
O O1 0.417651 0.902350 0.684866
O O2 0.143828 0.021780 0.538909
O O3 0.140017 0.866227 0.803154
O O4 0.000000 0.000000 0.000000
O O5 0.419080 0.263668 0.668158
O O6 0.560822 0.346231 0.724219
O O7 0.833117 0.189640 0.540225
O O8 0.510016 0.216094 0.992550
O O9 0.248763 0.152555 0.294306
O O10 0.022882 0.153803 0.741585
O O11 0.739288 0.742805 0.536969
O O12 0.111475 0.213462 0.912313
O O13 0.719785 0.298052 0.990338
O O14 0.264768 0.569025 0.298013
O O15 0.000000 0.500000 0.500000
O O16 0.989931 0.623167 0.189909
O O17 0.354566 0.456057 0.066072
#
# Coordination Sequence:
#
# PCOD9105298 Si02
#       8
#     2   2   2   2   2   2   2   2
#     4  10  16  33  64  86 110 158 197 238 291 341
#     4  11  21  41  59  84 127 149 195 242 281 344
#     4   9  19  34  58  89 114 153 203 236 282 351
#     4  11  20  38  64  81 118 163 188 239 301 329
#     4   8  16  34  57  81 117 151 192 237 288 339
#     4  10  20  36  61  86 115 144 197 233 287 350
#     4  10  23  38  58  92 114 154 199 235 286 358
#     4   9  18  35  58  83 112 156 181 239 292 331
#
# _framework density 21.695302000000002
#
# number of rings (size 3 to 8) (size 9 to 14) (size 15 to 20)
#    0.000    2.250    3.750    1.875    0.000    0.500 
#    2.250    1.875    0.000    0.000    0.000    0.000 
#    0.000    0.000    0.000    0.000    0.000    0.000 
#
# Total GULP energy -89295.953345 kJ/mol
# GULP energy per Si atom -5580.997084 kJ/mol
# Density = 2.164592 g / cm^3
# Si number density = 21.695302 Si / 1000 Ang^3
#
#
#
# Elastic Constant Matrix: (Units=GPa)
#
#
# Indices 1 2 3 4 5 6 
#
# 1 127.5648 30.0922 52.3491 -25.2024 -28.8487 26.5611
# 2 30.0922 91.5655 27.9827 -0.1219 -13.7142 16.8093
# 3 52.3491 27.9827 54.6194 11.7416 -31.6569 11.7094
# 4 -25.2024 -0.1219 11.7416 12.1618 10.7274 -19.8006
# 5 -28.8487 -13.7142 -31.6569 10.7274 41.6099 -0.7438
# 6 26.5611 16.8093 11.7094 -19.8006 -0.7438 18.7252
#
#
#
# Elastic Compliance Matrix: (Units=1/GPa)
#
#
# Indices 1 2 3 4 5 6 
#
# 1 0.015928 0.002056 -0.007092 -0.002644 0.006604 -0.022538
# 2 0.002056 0.014146 -0.009061 0.002445 -0.001569 -0.007425
# 3 -0.007092 -0.009061 0.016762 0.024529 -0.000874 0.033615
# 4 -0.002644 0.002445 0.024529 -0.017911 0.021683 -0.031862
# 5 0.006604 -0.001569 -0.000874 0.021683 0.022133 0.016394
# 6 -0.022538 -0.007425 0.033615 -0.031862 0.016394 0.037977
#
#
# Mechanical properties :
#
#
# Convention : Reuss Voigt Hill
#
# Bulk Modulus (GPa) = 53.64258 54.95531 54.29894
# Shear Modulus (GPa) = 40.50432 25.38776 32.94604
#
# Velocity S-wave (km/s) = 4.32552 3.42452 3.90112
# Velocity P-wave (km/s) = 7.05167 6.40484 6.73602
#
# Compressibility (1/GPa) = 0.01864191
#
# Stress axis : x y z
#
# Youngs Moduli (GPa) = 62.78056 70.69217 59.65943
#
# Poissons Ratio (x) = -0.14531 0.42309
# Poissons Ratio (y) = -0.12905 0.54057
# Poissons Ratio (z) = 0.44522 0.64053
#
# Static dielectric constant tensor:
#      x y z
#    x 1.838900 0.022720 0.013730 
#    y 0.022720 1.831940 -0.026720 
#    z 0.013730 -0.026720 1.811460 
# 
# From -- ./inp_files/214905.got.cif
#   From: 2010.05.17/outbox.cif.g08.bks.cpg/sg2_108_cif.got.tgz:214905.got - 2010.06.03 11:33:40.
