data_PCOD9105848
_publ_section_title
;
Structure prediction by ZEFSAII (Michael W. Deem and Ramdas Pophale) SiO2 
 PCOD9105848
Probable space group: P -1
;
_chemical_formula_sum "Si O2"
_cell_formula_units_Z 15
_cell_length_a 10.778489
_cell_length_b 5.483926
_cell_length_c 13.323577
_cell_angle_alpha 124.528942
_cell_angle_beta 103.202840
_cell_angle_gamma 103.277027
_cell_volume 564.800117
_symmetry_space_group_name_H-M "P -1"
_symmetry_group_IT_number 2
_symmetry_cell_setting 'triclinic'
loop_
_space_group_symop_operation_xyz
x,y,z
-x,-y,-z
loop_
_atom_site_type_symbol
_atom_site_label
_atom_site_fract_x
_atom_site_fract_y
_atom_site_fract_z
Si Si1 0.426333 0.556122 0.885248
Si Si2 0.238605 0.838002 0.440982
Si Si3 0.020306 0.680835 0.808453
Si Si4 0.802005 0.599107 0.350506
Si Si5 0.000000 0.500000 0.000000
Si Si6 0.288693 0.339815 0.016108
Si Si7 0.402720 0.857154 0.654019
Si Si8 0.291728 0.938618 0.249253
O O1 0.346867 0.573861 0.777081
O O2 0.339979 0.533495 0.965240
O O3 0.419775 0.190505 0.790218
O O4 0.594686 0.794518 0.974771
O O5 0.378190 0.887661 0.538556
O O6 0.267555 0.001449 0.374172
O O7 0.129881 0.459715 0.308792
O O8 0.166527 0.024656 0.537964
O O9 0.095894 0.491444 0.718477
O O10 0.006138 0.578559 0.897879
O O11 0.125023 0.072286 0.910763
O O12 0.753155 0.413781 0.403055
O O13 0.841179 0.163888 0.874094
O O14 0.299714 0.584616 0.164003
O O15 0.544521 0.811632 0.689712
#
# Coordination Sequence:
#
# PCOD9105848 Si02
#       8
#     2   2   2   2   1   2   2   2
#     4   9  20  38  62 100 126 152 214 263 311 376
#     4  10  24  43  59  92 130 166 216 254 302 375
#     4  11  23  42  63  94 128 168 205 258 320 370
#     4  11  22  40  66  93 123 168 212 264 306 359
#     4  10  24  40  60  96 128 156 206 256 314 384
#     4  10  20  39  66  90 128 167 198 262 324 368
#     4  10  21  41  67  91 122 170 213 258 311 361
#     4  10  22  43  62  92 129 162 209 263 308 380
#
# _framework density 26.558066
#
# number of rings (size 3 to 8) (size 9 to 14) (size 15 to 20)
#    0.000    1.867    1.333    1.600    1.867    3.733 
#   12.000    0.000    0.000    0.000    0.000    0.000 
#    0.000    0.000    0.000    0.000    0.000    0.000 
#
# Total GULP energy -83588.324167 kJ/mol
# GULP energy per Si atom -5572.554944 kJ/mol
# Density = 2.649762 g / cm^3
# Si number density = 26.558066 Si / 1000 Ang^3
#
#
#
# Elastic Constant Matrix: (Units=GPa)
#
#
# Indices 1 2 3 4 5 6 
#
# 1 85.3356 -0.9292 36.8041 -5.3786 -6.3913 22.9558
# 2 -0.9292 53.8678 30.1433 3.6107 -6.2991 15.3211
# 3 36.8041 30.1433 158.3881 -11.0757 -0.2333 10.0037
# 4 -5.3786 3.6107 -11.0757 44.5193 -1.6200 -2.7522
# 5 -6.3913 -6.2991 -0.2333 -1.6200 48.9269 2.2920
# 6 22.9558 15.3211 10.0037 -2.7522 2.2920 25.4740
#
#
#
# Elastic Compliance Matrix: (Units=1/GPa)
#
#
# Indices 1 2 3 4 5 6 
#
# 1 0.020950 0.010897 -0.005498 -0.001006 0.005197 -0.023850
# 2 0.010897 0.031489 -0.007118 -0.004441 0.006563 -0.027033
# 3 -0.005498 -0.007118 0.008717 0.002402 -0.001806 0.006234
# 4 -0.001006 -0.004441 0.002402 0.023614 -0.000153 0.005199
# 5 0.005197 0.006563 -0.001806 -0.000153 0.022415 -0.009955
# 6 -0.023850 -0.027033 0.006234 0.005199 -0.009955 0.076016
#
#
# Mechanical properties :
#
#
# Convention : Reuss Voigt Hill
#
# Bulk Modulus (GPa) = 17.32604 47.73644 32.53124
# Shear Modulus (GPa) = 24.28602 39.22226 31.75414
#
# Velocity S-wave (km/s) = 3.02727 3.84715 3.46157
# Velocity P-wave (km/s) = 4.33095 6.14390 5.31529
#
# Compressibility (1/GPa) = 0.05771659
#
# Stress axis : x y z
#
# Youngs Moduli (GPa) = 47.73279 31.75719 114.71309
#
# Poissons Ratio (x) = -0.34604 0.63071
# Poissons Ratio (y) = -0.52012 0.81655
# Poissons Ratio (z) = 0.26244 0.22605
#
# Static dielectric constant tensor:
#      x y z
#    x 2.301620 -0.049400 -0.017670 
#    y -0.049400 2.232630 0.106410 
#    z -0.017670 0.106410 2.026480 
# 
# From -- ./inp_files/83227.got.cif
#   From: 2010.05.17/outbox.cif.g08.bks.cpg/sg2_42_cif.got.tgz:83227.got - 2010.06.03 11:33:40.
