data_PCOD9105178
_publ_section_title
;
Structure prediction by ZEFSAII (Michael W. Deem and Ramdas Pophale) SiO2 
 PCOD9105178
Probable space group: P -1
;
_chemical_formula_sum "Si O2"
_cell_formula_units_Z 16
_cell_length_a 17.897811
_cell_length_b 9.260741
_cell_length_c 9.147430
_cell_angle_alpha 123.874347
_cell_angle_beta 86.167881
_cell_angle_gamma 48.441079
_cell_volume 670.132074
_symmetry_space_group_name_H-M "P -1"
_symmetry_group_IT_number 2
_symmetry_cell_setting 'triclinic'
loop_
_space_group_symop_operation_xyz
x,y,z
-x,-y,-z
loop_
_atom_site_type_symbol
_atom_site_label
_atom_site_fract_x
_atom_site_fract_y
_atom_site_fract_z
Si Si1 0.010574 0.301007 0.795397
Si Si2 0.061840 0.742735 0.958443
Si Si3 0.647346 0.980990 0.785774
Si Si4 0.389106 0.374565 0.171969
Si Si5 0.894549 0.693937 0.482743
Si Si6 0.275530 0.278852 0.045278
Si Si7 0.651782 0.673904 0.367829
Si Si8 0.438098 0.430020 0.488139
O O1 0.853475 0.564663 0.916648
O O2 0.092460 0.177458 0.564934
O O3 0.034782 0.103314 0.801217
O O4 0.000000 0.500000 0.000000
O O5 0.071946 0.544914 0.752180
O O6 0.215124 0.522484 0.853789
O O7 0.000000 0.000000 0.000000
O O8 0.735102 0.969885 0.708566
O O9 0.708757 0.826900 0.852204
O O10 0.664436 0.778205 0.565651
O O11 0.480679 0.316699 0.022906
O O12 0.267653 0.501590 0.188418
O O13 0.353934 0.551130 0.419772
O O14 0.500000 0.000000 0.000000
O O15 0.000000 0.500000 0.500000
O O16 0.416863 0.962965 0.758635
O O17 0.650098 0.476779 0.314133
O O18 0.500000 0.000000 0.500000
O O19 0.500000 0.500000 0.500000
#
# Coordination Sequence:
#
# PCOD9105178 Si02
#       8
#     2   2   2   2   2   2   2   2
#     4  10  21  36  60  92 117 156 212 255 301 363
#     4  10  24  41  58  88 130 162 200 258 320 363
#     4   9  16  32  56  87 109 156 208 245 285 367
#     4   8  15  30  54  81 113 146 199 236 299 363
#     4  10  19  35  63  89 116 160 216 247 295 374
#     4  10  16  33  61  82 120 156 206 247 300 371
#     4  11  20  36  61  87 117 162 216 245 294 384
#     4  10  19  31  53  93 114 145 192 258 313 344
#
# _framework density 23.875890999999999
#
# number of rings (size 3 to 8) (size 9 to 14) (size 15 to 20)
#    0.000    2.500    5.000    0.750    0.000    2.000 
#    0.000    0.625    0.000    7.500    0.000    0.000 
#    0.000    0.000    0.000    0.000    0.000    0.000 
#
# Total GULP energy -89211.808767 kJ/mol
# GULP energy per Si atom -5575.738048 kJ/mol
# Density = 2.382155 g / cm^3
# Si number density = 23.875891 Si / 1000 Ang^3
#
#
#
# Elastic Constant Matrix: (Units=GPa)
#
#
# Indices 1 2 3 4 5 6 
#
# 1 194.4320 54.5721 50.4796 -19.5592 -34.6189 -12.4739
# 2 54.5721 85.1769 31.5295 -23.4099 -13.6152 13.2831
# 3 50.4796 31.5295 64.7588 -24.6771 -37.8990 13.1574
# 4 -19.5592 -23.4099 -24.6771 31.4714 12.5962 -8.8584
# 5 -34.6189 -13.6152 -37.8990 12.5962 50.7093 -14.5959
# 6 -12.4739 13.2831 13.1574 -8.8584 -14.5959 45.4305
#
#
#
# Elastic Compliance Matrix: (Units=1/GPa)
#
#
# Indices 1 2 3 4 5 6 
#
# 1 0.008249 -0.004490 -0.003674 -0.000929 0.003521 0.005592
# 2 -0.004490 0.018431 -0.004036 0.008121 -0.004698 -0.005379
# 3 -0.003674 -0.004036 0.039368 0.016723 0.021358 -0.001108
# 4 -0.000929 0.008121 0.016723 0.050243 0.002461 0.003115
# 5 0.003521 -0.004698 0.021358 0.002461 0.038836 0.009112
# 6 0.005592 -0.005379 -0.001108 0.003115 0.009112 0.028975
#
#
# Mechanical properties :
#
#
# Convention : Reuss Voigt Hill
#
# Bulk Modulus (GPa) = 24.01056 68.61448 46.31252
# Shear Modulus (GPa) = 22.48360 39.37466 30.92913
#
# Velocity S-wave (km/s) = 3.07202 4.06536 3.60309
# Velocity P-wave (km/s) = 4.76039 7.12998 6.06209
#
# Compressibility (1/GPa) = 0.04164834
#
# Stress axis : x y z
#
# Youngs Moduli (GPa) = 121.21999 54.25768 25.40154
#
# Poissons Ratio (x) = 0.24361 0.09333
# Poissons Ratio (y) = 0.54427 0.10251
# Poissons Ratio (z) = 0.44538 0.21896
#
# Static dielectric constant tensor:
#      x y z
#    x 1.949710 -0.140350 -0.130770 
#    y -0.140350 1.498880 -0.354850 
#    z -0.130770 -0.354850 1.710220 
# 
# From -- ./inp_files/329301.got.cif
#   From: 2010.05.17/outbox.cif.g08.bks.cpg/sg2_165_cif.got.tgz:329301.got - 2010.06.03 11:33:40.
