data_PCOD9105863
_publ_section_title
;
Structure prediction by ZEFSAII (Michael W. Deem and Ramdas Pophale) SiO2 
 PCOD9105863
Probable space group: P -1
;
_chemical_formula_sum "Si O2"
_cell_formula_units_Z 14
_cell_length_a 9.888359
_cell_length_b 11.400376
_cell_length_c 11.710126
_cell_angle_alpha 86.473037
_cell_angle_beta 39.087473
_cell_angle_gamma 113.462645
_cell_volume 586.226165
_symmetry_space_group_name_H-M "P -1"
_symmetry_group_IT_number 2
_symmetry_cell_setting 'triclinic'
loop_
_space_group_symop_operation_xyz
x,y,z
-x,-y,-z
loop_
_atom_site_type_symbol
_atom_site_label
_atom_site_fract_x
_atom_site_fract_y
_atom_site_fract_z
Si Si1 0.785429 0.771926 0.742936
Si Si2 0.722959 0.231371 0.224827
Si Si3 0.810092 0.065531 0.743714
Si Si4 0.145260 0.107524 0.716296
Si Si5 0.857799 0.435701 0.913814
Si Si6 0.841103 0.768289 0.965921
Si Si7 0.439190 0.570203 0.434032
O O1 0.840469 0.739984 0.833679
O O2 0.035373 0.831141 0.481373
O O3 0.787983 0.915754 0.748044
O O4 0.442572 0.620559 0.932835
O O5 0.378669 0.115280 0.493561
O O6 0.935003 0.399331 0.153003
O O7 0.858422 0.158330 0.168452
O O8 0.760642 0.289812 0.067993
O O9 0.047719 0.168775 0.686257
O O10 0.500000 0.000000 0.000000
O O11 0.341056 0.238689 0.679830
O O12 0.859772 0.917474 0.949335
O O13 0.092107 0.475805 0.665931
O O14 0.569498 0.598981 0.221613
O O15 0.500000 0.500000 0.500000
#
# Coordination Sequence:
#
# PCOD9105863 Si02
#       7
#     2   2   2   2   2   2   2
#     4  10  23  43  62  96 137 165 217 274 322 392
#     4  10  20  39  66  91 125 170 215 262 329 384
#     4  10  22  41  67  93 129 179 216 258 334 396
#     4  10  22  42  64  95 128 163 223 276 311 389
#     4  10  21  40  64  90 129 173 214 264 319 394
#     4  11  23  41  63  98 131 170 213 271 332 373
#     4  11  23  39  64  94 128 171 220 261 320 389
#
# _framework density 23.881567
#
# number of rings (size 3 to 8) (size 9 to 14) (size 15 to 20)
#    0.000    1.714    2.857    0.857    2.000    1.143 
#   12.857    0.000    0.000    0.000    0.000    0.000 
#    0.000    0.000    0.000    0.000    0.000    0.000 
#
# Total GULP energy -78219.868827 kJ/mol
# GULP energy per Si atom -5587.133488 kJ/mol
# Density = 2.382721 g / cm^3
# Si number density = 23.881567 Si / 1000 Ang^3
#
#
#
# Elastic Constant Matrix: (Units=GPa)
#
#
# Indices 1 2 3 4 5 6 
#
# 1 90.6653 11.6973 58.6812 5.8886 19.8561 11.4679
# 2 11.6973 44.9856 27.3095 3.4908 5.2251 2.8274
# 3 58.6812 27.3095 178.6617 31.0549 15.6684 7.3046
# 4 5.8886 3.4908 31.0549 38.4395 -2.8176 -2.9514
# 5 19.8561 5.2251 15.6684 -2.8176 47.4757 -2.8177
# 6 11.4679 2.8274 7.3046 -2.9514 -2.8177 25.0205
#
#
#
# Elastic Compliance Matrix: (Units=1/GPa)
#
#
# Indices 1 2 3 4 5 6 
#
# 1 0.016018 -0.000401 -0.004498 0.000306 -0.005542 -0.006571
# 2 -0.000401 0.024716 -0.003522 0.000425 -0.001465 -0.001696
# 3 -0.004498 -0.003522 0.008841 -0.006289 -0.001081 -0.000985
# 4 0.000306 0.000425 -0.006289 0.031763 0.004134 0.005860
# 5 -0.005542 -0.001465 -0.001081 0.004134 0.024517 0.006270
# 6 -0.006571 -0.001696 -0.000985 0.005860 0.006270 0.044855
#
#
# Mechanical properties :
#
#
# Convention : Reuss Voigt Hill
#
# Bulk Modulus (GPa) = 30.55174 56.63207 43.59191
# Shear Modulus (GPa) = 28.01701 36.62878 32.32289
#
# Velocity S-wave (km/s) = 3.42886 3.92058 3.68294
# Velocity P-wave (km/s) = 5.33825 6.65281 6.03145
#
# Compressibility (1/GPa) = 0.03273136
#
# Stress axis : x y z
#
# Youngs Moduli (GPa) = 62.43079 40.46009 113.10871
#
# Poissons Ratio (x) = 0.01624 0.50878
# Poissons Ratio (y) = 0.02505 0.39839
# Poissons Ratio (z) = 0.28082 0.14251
#
# Static dielectric constant tensor:
#      x y z
#    x 1.912050 -0.001980 0.038810 
#    y -0.001980 1.995650 -0.008290 
#    z 0.038810 -0.008290 1.969930 
# 
# From -- ./inp_files/298286.got.cif
#   From: 2010.05.17/outbox.cif.g08.bks.cpg/sg2_150_cif.got.tgz:298286.got - 2010.06.03 11:33:40.
