data_PCOD9105645
_publ_section_title
;
Structure prediction by ZEFSAII (Michael W. Deem and Ramdas Pophale) SiO2 
 PCOD9105645
Probable space group: P -1
;
_chemical_formula_sum "Si O2"
_cell_formula_units_Z 12
_cell_length_a 11.385799
_cell_length_b 9.270844
_cell_length_c 6.915038
_cell_angle_alpha 63.312166
_cell_angle_beta 74.610073
_cell_angle_gamma 109.951835
_cell_volume 531.427656
_symmetry_space_group_name_H-M "P -1"
_symmetry_group_IT_number 2
_symmetry_cell_setting 'triclinic'
loop_
_space_group_symop_operation_xyz
x,y,z
-x,-y,-z
loop_
_atom_site_type_symbol
_atom_site_label
_atom_site_fract_x
_atom_site_fract_y
_atom_site_fract_z
Si Si1 0.796354 0.749069 0.879625
Si Si2 0.221524 0.204669 0.691649
Si Si3 0.350462 0.562140 0.142812
Si Si4 0.492951 0.689238 0.379371
Si Si5 0.896392 0.107564 0.364023
Si Si6 0.343744 0.802822 0.672138
O O1 0.653119 0.573863 0.947856
O O2 0.935557 0.739322 0.764429
O O3 0.829310 0.947764 0.657215
O O4 0.795114 0.757725 0.103486
O O5 0.253477 0.388623 0.441282
O O6 0.355814 0.173117 0.663091
O O7 0.104600 0.015710 0.745538
O O8 0.475824 0.709936 0.146177
O O9 0.312309 0.691661 0.956123
O O10 0.500000 0.500000 0.500000
O O11 0.371685 0.692583 0.554107
O O12 0.790755 0.180801 0.333204
O O13 0.500000 0.000000 0.500000
#
# Coordination Sequence:
#
# PCOD9105645 Si02
#       6
#     2   2   2   2   2   2
#     4  10  22  43  68  90 128 175 214 257 312 393
#     4  10  20  39  65  93 124 171 217 257 308 388
#     4  10  23  39  62  94 126 169 211 253 325 377
#     4  10  22  39  63  93 127 168 210 252 319 383
#     4  10  23  42  64  96 128 169 216 260 320 372
#     4  12  25  42  63  98 135 163 208 276 319 369
#
# _framework density 22.580684000000002
#
# number of rings (size 3 to 8) (size 9 to 14) (size 15 to 20)
#    0.000    1.667    1.667    2.500    2.333    6.000 
#    0.000    1.667    0.000    0.000    0.000    0.000 
#    0.000    0.000    0.000    0.000    0.000    0.000 
#
# Total GULP energy -66820.168217 kJ/mol
# GULP energy per Si atom -5568.347351 kJ/mol
# Density = 2.252929 g / cm^3
# Si number density = 22.580684 Si / 1000 Ang^3
#
#
#
# Elastic Constant Matrix: (Units=GPa)
#
#
# Indices 1 2 3 4 5 6 
#
# 1 151.3506 33.8365 63.0897 -10.3647 24.1085 -13.2930
# 2 33.8365 80.5445 40.5370 15.4274 9.1271 2.6978
# 3 63.0897 40.5370 143.2304 17.7155 40.9288 -12.4529
# 4 -10.3647 15.4274 17.7155 30.9602 3.6100 5.6059
# 5 24.1085 9.1271 40.9288 3.6100 34.1831 -1.8570
# 6 -13.2930 2.6978 -12.4529 5.6059 -1.8570 42.4328
#
#
#
# Elastic Compliance Matrix: (Units=1/GPa)
#
#
# Indices 1 2 3 4 5 6 
#
# 1 0.009794 -0.003533 -0.003304 0.007011 -0.002678 0.001280
# 2 -0.003533 0.016715 -0.003091 -0.007673 0.002434 -0.001957
# 3 -0.003304 -0.003091 0.014151 -0.006824 -0.012869 0.003653
# 4 0.007011 -0.007673 -0.006824 0.043231 0.000437 -0.005011
# 5 -0.002678 0.002434 -0.012869 0.000437 0.045701 -0.002828
# 6 0.001280 -0.001957 0.003653 -0.005011 -0.002828 0.025702
#
#
# Mechanical properties :
#
#
# Convention : Reuss Voigt Hill
#
# Bulk Modulus (GPa) = 48.07214 72.22797 60.15005
# Shear Modulus (GPa) = 27.45967 37.35937 32.40952
#
# Velocity S-wave (km/s) = 3.49100 4.07195 3.79261
# Velocity P-wave (km/s) = 6.13064 7.35960 6.77305
#
# Compressibility (1/GPa) = 0.02080207
#
# Stress axis : x y z
#
# Youngs Moduli (GPa) = 102.10709 59.82721 70.66666
#
# Poissons Ratio (x) = 0.21139 0.23351
# Poissons Ratio (y) = 0.36079 0.21842
# Poissons Ratio (z) = 0.33741 0.18491
#
# Static dielectric constant tensor:
#      x y z
#    x 1.931500 0.079240 -0.046180 
#    y 0.079240 1.925940 -0.011650 
#    z -0.046180 -0.011650 1.858590 
# 
# From -- ./inp_files/21861.got.cif
#   From: 2010.05.17/outbox.cif.g08.bks.cpg/sg2_11_cif.got.tgz:21861.got - 2010.06.03 11:33:40.
