data_PCOD9105504
_publ_section_title
;
Structure prediction by ZEFSAII (Michael W. Deem and Ramdas Pophale) SiO2 
 PCOD9105504
Probable space group: P -1
;
_chemical_formula_sum "Si O2"
_cell_formula_units_Z 16
_cell_length_a 18.786103
_cell_length_b 22.774304
_cell_length_c 13.502655
_cell_angle_alpha 18.770406
_cell_angle_beta 27.819507
_cell_angle_gamma 28.328318
_cell_volume 831.443397
_symmetry_space_group_name_H-M "P -1"
_symmetry_group_IT_number 2
_symmetry_cell_setting 'triclinic'
loop_
_space_group_symop_operation_xyz
x,y,z
-x,-y,-z
loop_
_atom_site_type_symbol
_atom_site_label
_atom_site_fract_x
_atom_site_fract_y
_atom_site_fract_z
Si Si1 0.971668 0.881750 0.816920
Si Si2 0.617013 0.518038 0.642361
Si Si3 0.829645 0.750464 0.548842
Si Si4 0.995094 0.006434 0.184093
Si Si5 0.666482 0.733581 0.435139
Si Si6 0.333402 0.904950 0.658553
Si Si7 0.929160 0.413442 0.316919
Si Si8 0.724515 0.481387 0.962174
O O1 0.972278 0.992513 0.741938
O O2 0.807718 0.827419 0.096550
O O3 0.000000 0.000000 0.500000
O O4 0.116961 0.690311 0.950971
O O5 0.632970 0.632066 0.539347
O O6 0.752125 0.530821 0.378458
O O7 0.653278 0.295122 0.983804
O O8 0.435961 0.580443 0.728369
O O9 0.733849 0.637926 0.782022
O O10 0.954717 0.612020 0.690309
O O11 0.719014 0.920445 0.479352
O O12 0.929738 0.844646 0.200967
O O13 0.808068 0.063509 0.297520
O O14 0.069022 0.799903 0.375014
O O15 0.502942 0.881154 0.437636
O O16 0.715822 0.577047 0.711836
O O17 0.000000 0.500000 0.000000
#
# Coordination Sequence:
#
# PCOD9105504 Si02
#       8
#     2   2   2   2   2   2   2   2
#     4  12  27  43  61  94 130 165 209 264 320 375
#     4  11  21  40  66  95 129 160 212 262 310 376
#     4  11  21  41  68  92 130 163 214 261 308 379
#     4  11  21  42  66  93 126 169 213 255 309 378
#     4  11  23  40  69  92 126 165 212 261 314 376
#     4  10  20  39  65 100 121 160 215 262 308 366
#     4  11  24  40  65  95 128 173 205 255 319 377
#     4  11  24  41  66  96 120 168 212 263 315 371
#
# _framework density 19.243642999999999
#
# number of rings (size 3 to 8) (size 9 to 14) (size 15 to 20)
#    0.000    1.000    3.750    4.875    3.500    3.000 
#    4.500    1.875    0.000    0.000    0.000    0.000 
#    0.000    0.000    0.000    0.000    0.000    0.000 
#
# Total GULP energy -89492.158200 kJ/mol
# GULP energy per Si atom -5593.259888 kJ/mol
# Density = 1.919984 g / cm^3
# Si number density = 19.243643 Si / 1000 Ang^3
#
#
#
# Elastic Constant Matrix: (Units=GPa)
#
#
# Indices 1 2 3 4 5 6 
#
# 1 135.4129 55.6557 48.0458 23.3313 -19.2701 7.9412
# 2 55.6557 120.1414 40.0576 38.1957 -17.1235 -13.5714
# 3 48.0458 40.0576 59.6510 39.7662 4.5527 -4.7957
# 4 23.3313 38.1957 39.7662 33.4568 4.1254 -3.1698
# 5 -19.2701 -17.1235 4.5527 4.1254 32.3920 4.3955
# 6 7.9412 -13.5714 -4.7957 -3.1698 4.3955 22.1598
#
#
#
# Elastic Compliance Matrix: (Units=1/GPa)
#
#
# Indices 1 2 3 4 5 6 
#
# 1 0.021443 -0.010591 -0.041022 0.042868 0.010029 -0.018905
# 2 -0.010591 0.022878 0.028686 -0.052159 0.006329 0.015298
# 3 -0.041022 0.028686 0.163562 -0.192836 -0.013471 0.042754
# 4 0.042868 -0.052159 -0.192836 0.284854 -0.004823 -0.047336
# 5 0.010029 0.006329 -0.013471 -0.004823 0.044336 -0.012117
# 6 -0.018905 0.015298 0.042754 -0.047336 -0.012117 0.066156
#
#
# Mechanical properties :
#
#
# Convention : Reuss Voigt Hill
#
# Bulk Modulus (GPa) = 6.17179 66.96928 36.57053
# Shear Modulus (GPa) = 7.11144 29.03146 18.07145
#
# Velocity S-wave (km/s) = 1.92445 3.88832 3.06778
# Velocity P-wave (km/s) = 2.85520 7.41856 5.62081
#
# Compressibility (1/GPa) = 0.16202758
#
# Stress axis : x y z
#
# Youngs Moduli (GPa) = 46.63616 43.70998 6.11390
#
# Poissons Ratio (x) = 0.46291 0.25081
# Poissons Ratio (y) = 0.49390 -0.17538
# Poissons Ratio (z) = 1.91312 -1.25384
#
# Static dielectric constant tensor:
#      x y z
#    x 1.652170 -0.002380 -0.006120 
#    y -0.002380 1.673540 0.002980 
#    z -0.006120 0.002980 1.653400 
# 
# From -- ./inp_files/182497.got.cif
#   From: 2010.05.17/outbox.cif.g08.bks.cpg/sg2_92_cif.got.tgz:182497.got - 2010.06.03 11:33:40.
