data_PCOD9105626
_publ_section_title
;
Structure prediction by ZEFSAII (Michael W. Deem and Ramdas Pophale) SiO2 
 PCOD9105626
Probable space group: P -1
;
_chemical_formula_sum "Si O2"
_cell_formula_units_Z 14
_cell_length_a 9.624767
_cell_length_b 14.267637
_cell_length_c 14.368768
_cell_angle_alpha 150.589792
_cell_angle_beta 134.813702
_cell_angle_gamma 42.896126
_cell_volume 646.292241
_symmetry_space_group_name_H-M "P -1"
_symmetry_group_IT_number 2
_symmetry_cell_setting 'triclinic'
loop_
_space_group_symop_operation_xyz
x,y,z
-x,-y,-z
loop_
_atom_site_type_symbol
_atom_site_label
_atom_site_fract_x
_atom_site_fract_y
_atom_site_fract_z
Si Si1 0.651084 0.091764 0.441971
Si Si2 0.575680 0.436582 0.287783
Si Si3 0.019655 0.574692 0.419954
Si Si4 0.982679 0.823542 0.242395
Si Si5 0.854559 0.205064 0.057020
Si Si6 0.868288 0.511084 0.811657
Si Si7 0.656913 0.989471 0.650215
O O1 0.517835 0.325652 0.572855
O O2 0.496869 0.984636 0.312325
O O3 0.834407 0.082771 0.594193
O O4 0.770359 0.995917 0.321569
O O5 0.659827 0.312104 0.126086
O O6 0.381450 0.397697 0.212476
O O7 0.775699 0.408269 0.420702
O O8 0.973918 0.367850 0.243413
O O9 0.827645 0.766344 0.529421
O O10 0.058297 0.577049 0.330384
O O11 0.044120 0.665023 0.221650
O O12 0.957401 0.690643 0.030737
O O13 0.777310 0.143780 0.868517
O O14 0.000000 0.000000 0.000000
O O15 0.500000 0.000000 0.500000
#
# Coordination Sequence:
#
# PCOD9105626 Si02
#       7
#     2   2   2   2   2   2   2
#     4  10  20  39  65  92 130 178 222 269 335 398
#     4  11  22  44  69  92 132 185 225 273 334 410
#     4  12  25  44  66 101 139 170 230 287 330 394
#     4   9  20  40  65  94 133 176 220 271 340 407
#     4  12  25  46  71  95 136 185 224 272 343 403
#     4  10  22  40  67  96 132 174 224 276 338 395
#     4  12  26  41  68 102 137 173 227 282 338 395
#
# _framework density 21.662029
#
# number of rings (size 3 to 8) (size 9 to 14) (size 15 to 20)
#    0.000    1.143    2.857    3.429    2.000    2.857 
#    0.000    1.429    0.000    0.000    0.000    0.000 
#    0.000    0.000    0.000    0.000    0.000    0.000 
#
# Total GULP energy -78211.631340 kJ/mol
# GULP energy per Si atom -5586.545096 kJ/mol
# Density = 2.161273 g / cm^3
# Si number density = 21.662029 Si / 1000 Ang^3
#
#
#
# Elastic Constant Matrix: (Units=GPa)
#
#
# Indices 1 2 3 4 5 6 
#
# 1 83.4729 20.7499 19.0632 -4.2008 -0.4852 -13.6398
# 2 20.7499 91.1177 32.0163 5.1962 -12.5823 -24.2618
# 3 19.0632 32.0163 132.0970 -6.4341 -15.7887 4.8399
# 4 -4.2008 5.1962 -6.4341 27.9381 1.4850 -6.4796
# 5 -0.4852 -12.5823 -15.7887 1.4850 35.3221 1.9127
# 6 -13.6398 -24.2618 4.8399 -6.4796 1.9127 23.3538
#
#
#
# Elastic Compliance Matrix: (Units=1/GPa)
#
#
# Indices 1 2 3 4 5 6 
#
# 1 0.014398 -0.000276 -0.002375 0.004048 -0.001667 0.009874
# 2 -0.000276 0.018404 -0.004745 -0.000188 0.003377 0.019613
# 3 -0.002375 -0.004745 0.009770 0.000662 0.003072 -0.008409
# 4 0.004048 -0.000188 0.000662 0.039772 -0.002104 0.013239
# 5 -0.001667 0.003377 0.003072 -0.002104 0.031019 -0.001226
# 6 0.009874 0.019613 -0.008409 0.013239 -0.001226 0.074479
#
#
# Mechanical properties :
#
#
# Convention : Reuss Voigt Hill
#
# Bulk Modulus (GPa) = 35.99545 50.03849 43.01697
# Shear Modulus (GPa) = 23.59657 32.98002 28.28829
#
# Velocity S-wave (km/s) = 3.30404 3.90613 3.61763
# Velocity P-wave (km/s) = 5.58646 6.59497 6.11155
#
# Compressibility (1/GPa) = 0.02778129
#
# Stress axis : x y z
#
# Youngs Moduli (GPa) = 69.45175 54.33485 102.34954
#
# Poissons Ratio (x) = 0.01502 0.24305
# Poissons Ratio (y) = 0.01919 0.48564
# Poissons Ratio (z) = 0.16493 0.25781
#
# Static dielectric constant tensor:
#      x y z
#    x 1.794490 0.019640 0.021520 
#    y 0.019640 1.796360 -0.037170 
#    z 0.021520 -0.037170 1.810870 
# 
# From -- ./inp_files/262229.got.cif
#   From: 2010.05.17/outbox.cif.g08.bks.cpg/sg2_132_cif.got.tgz:262229.got - 2010.06.03 11:33:40.
