data_PCOD9105850
_publ_section_title
;
Structure prediction by ZEFSAII (Michael W. Deem and Ramdas Pophale) SiO2 
 PCOD9105850
Probable space group: P -1
;
_chemical_formula_sum "Si O2"
_cell_formula_units_Z 16
_cell_length_a 11.445178
_cell_length_b 20.331613
_cell_length_c 12.762585
_cell_angle_alpha 25.151210
_cell_angle_beta 145.763407
_cell_angle_gamma 132.374173
_cell_volume 674.911865
_symmetry_space_group_name_H-M "P -1"
_symmetry_group_IT_number 2
_symmetry_cell_setting 'triclinic'
loop_
_space_group_symop_operation_xyz
x,y,z
-x,-y,-z
loop_
_atom_site_type_symbol
_atom_site_label
_atom_site_fract_x
_atom_site_fract_y
_atom_site_fract_z
Si Si1 0.135848 0.310171 0.352950
Si Si2 0.736500 0.258856 0.225532
Si Si3 0.319304 0.315868 0.104551
Si Si4 0.453724 0.040507 0.286133
Si Si5 0.038298 0.747598 0.391644
Si Si6 0.450485 0.631373 0.434867
Si Si7 0.684538 0.369818 0.439083
Si Si8 0.984213 0.398390 0.896609
O O1 0.384627 0.278666 0.617801
O O2 0.982146 0.216217 0.423527
O O3 0.000000 0.500000 0.000000
O O4 0.136101 0.298217 0.245114
O O5 0.784489 0.227156 0.431243
O O6 0.593147 0.164788 0.195675
O O7 0.605014 0.449309 0.839378
O O8 0.298031 0.445677 0.807942
O O9 0.083782 0.333011 0.952307
O O10 0.444211 0.128910 0.451298
O O11 0.453238 0.381057 0.197067
O O12 0.195541 0.117549 0.967806
O O13 0.500000 0.000000 0.500000
O O14 0.134492 0.722261 0.380899
O O15 0.989779 0.583050 0.631131
O O16 0.336616 0.700724 0.361044
O O17 0.255208 0.614447 0.243217
#
# Coordination Sequence:
#
# PCOD9105850 Si02
#       8
#     2   2   2   2   2   2   2   2
#     4  10  21  39  65  97 127 158 214 275 314 355
#     4  11  23  42  63  94 131 164 211 267 315 375
#     4  10  22  39  61  92 131 168 205 262 314 378
#     4  12  26  41  62  95 134 170 209 252 323 385
#     4  11  23  40  65  96 127 171 208 260 318 380
#     4  11  20  36  65  96 124 163 208 265 315 367
#     4  10  20  39  66  90 131 161 211 263 314 373
#     4  11  21  38  67  98 122 164 219 259 317 367
#
# _framework density 23.706800000000001
#
# number of rings (size 3 to 8) (size 9 to 14) (size 15 to 20)
#    0.000    1.250    5.000    3.000    1.750    6.000 
#    0.000    0.625    0.000    1.500    0.000    0.000 
#    0.000    0.000    0.000    0.000    0.000    0.000 
#
# Total GULP energy -89428.147978 kJ/mol
# GULP energy per Si atom -5589.259249 kJ/mol
# Density = 2.365284 g / cm^3
# Si number density = 23.706800 Si / 1000 Ang^3
#
#
#
# Elastic Constant Matrix: (Units=GPa)
#
#
# Indices 1 2 3 4 5 6 
#
# 1 80.3243 15.0829 2.2671 -2.5999 21.1258 17.2474
# 2 15.0829 78.6758 29.8720 20.9315 20.5953 16.1625
# 3 2.2671 29.8720 87.2685 6.5729 27.4770 0.0135
# 4 -2.5999 20.9315 6.5729 34.5935 3.9963 12.4817
# 5 21.1258 20.5953 27.4770 3.9963 28.4518 14.2074
# 6 17.2474 16.1625 0.0135 12.4817 14.2074 29.5537
#
#
#
# Elastic Compliance Matrix: (Units=1/GPa)
#
#
# Indices 1 2 3 4 5 6 
#
# 1 0.017528 -0.001535 0.004282 0.004697 -0.014499 -0.004405
# 2 -0.001535 0.019131 -0.003746 -0.009329 -0.006542 -0.002480
# 3 0.004282 -0.003746 0.021839 -0.003587 -0.028399 0.014707
# 4 0.004697 -0.009329 -0.003587 0.041742 0.011172 -0.020638
# 5 -0.014499 -0.006542 -0.028399 0.011172 0.095853 -0.038746
# 6 -0.004405 -0.002480 0.014707 -0.020638 -0.038746 0.065099
#
#
# Mechanical properties :
#
#
# Convention : Reuss Voigt Hill
#
# Bulk Modulus (GPa) = 17.69901 37.85697 27.77799
# Shear Modulus (GPa) = 17.72895 31.78957 24.75926
#
# Velocity S-wave (km/s) = 2.73764 3.66587 3.23522
# Velocity P-wave (km/s) = 4.18030 5.82423 5.06934
#
# Compressibility (1/GPa) = 0.05650033
#
# Stress axis : x y z
#
# Youngs Moduli (GPa) = 57.05080 52.27168 45.78886
#
# Poissons Ratio (x) = 0.08026 -0.19608
# Poissons Ratio (y) = 0.08760 0.17151
# Poissons Ratio (z) = -0.24430 0.19580
#
# Static dielectric constant tensor:
#      x y z
#    x 1.973880 0.070810 -0.041990 
#    y 0.070810 1.794630 0.125370 
#    z -0.041990 0.125370 1.775750 
# 
# From -- ./inp_files/523911.got.cif
#   From: 2010.05.17/outbox.cif.g08.bks.cpg/sg2_262_cif.got.tgz:523911.got - 2010.06.03 11:33:40.
