data_PCOD9105321
_publ_section_title
;
Structure prediction by ZEFSAII (Michael W. Deem and Ramdas Pophale) SiO2 
 PCOD9105321
Probable space group: P -1
;
_chemical_formula_sum "Si O2"
_cell_formula_units_Z 16
_cell_length_a 27.005826
_cell_length_b 15.087732
_cell_length_c 20.183273
_cell_angle_alpha 27.137500
_cell_angle_beta 17.748288
_cell_angle_gamma 17.949636
_cell_volume 761.102418
_symmetry_space_group_name_H-M "P -1"
_symmetry_group_IT_number 2
_symmetry_cell_setting 'triclinic'
loop_
_space_group_symop_operation_xyz
x,y,z
-x,-y,-z
loop_
_atom_site_type_symbol
_atom_site_label
_atom_site_fract_x
_atom_site_fract_y
_atom_site_fract_z
Si Si1 0.249417 0.055562 0.938303
Si Si2 0.889070 0.367298 0.437622
Si Si3 0.566225 0.504488 0.653993
Si Si4 0.528241 0.656615 0.310739
Si Si5 0.847936 0.332415 0.986536
Si Si6 0.816727 0.699214 0.999288
Si Si7 0.917258 0.022835 0.423477
Si Si8 0.296131 0.160661 0.556639
O O1 0.265443 0.130577 0.941375
O O2 0.516171 0.852239 0.704116
O O3 0.046888 0.357775 0.954013
O O4 0.137954 0.939690 0.162979
O O5 0.701603 0.388328 0.628456
O O6 0.773559 0.681888 0.389445
O O7 0.989354 0.202024 0.488840
O O8 0.093143 0.221427 0.220096
O O9 0.382464 0.489885 0.886482
O O10 0.754368 0.325372 0.471632
O O11 0.431636 0.832578 0.604262
O O12 0.500000 0.500000 0.500000
O O13 0.730889 0.443865 0.135624
O O14 0.616139 0.751958 0.181844
O O15 0.270814 0.907408 0.433986
O O16 0.037583 0.339110 0.732649
O O17 0.000000 0.000000 0.000000
#
# Coordination Sequence:
#
# PCOD9105321 Si02
#       8
#     2   2   2   2   2   2   2   2
#     4  11  22  38  63  90 127 159 209 255 302 368
#     4  12  23  39  65  94 125 158 212 257 310 359
#     4  10  20  39  64  90 119 164 207 249 298 369
#     4  11  22  39  64  91 123 161 208 257 304 366
#     4   9  21  36  59  93 122 155 204 255 300 356
#     4  11  22  39  63  93 119 166 213 251 298 371
#     4  11  24  41  62  96 125 160 204 263 311 359
#     4  11  22  39  63  91 126 163 209 254 298 374
#
# _framework density 21.022137000000001
#
# number of rings (size 3 to 8) (size 9 to 14) (size 15 to 20)
#    0.000    1.250    5.000    1.500    3.500    1.000 
#    0.000    0.000    0.000    1.500    0.000    0.000 
#    0.000    0.000    0.000    0.000    0.000    0.000 
#
# Total GULP energy -89320.633915 kJ/mol
# GULP energy per Si atom -5582.539620 kJ/mol
# Density = 2.097429 g / cm^3
# Si number density = 21.022137 Si / 1000 Ang^3
#
#
#
# Elastic Constant Matrix: (Units=GPa)
#
#
# Indices 1 2 3 4 5 6 
#
# 1 116.1401 22.9511 58.2473 16.7586 -33.9718 -14.5017
# 2 22.9511 41.3246 25.2273 -3.5005 -1.2327 -9.9300
# 3 58.2473 25.2273 129.3656 19.7109 -26.1545 -21.0015
# 4 16.7586 -3.5005 19.7109 17.6675 -5.4206 -2.0594
# 5 -33.9718 -1.2327 -26.1545 -5.4206 43.7293 5.7373
# 6 -14.5017 -9.9300 -21.0015 -2.0594 5.7373 37.1738
#
#
#
# Elastic Compliance Matrix: (Units=1/GPa)
#
#
# Indices 1 2 3 4 5 6 
#
# 1 0.015537 -0.008131 -0.001615 -0.011582 0.009322 0.000896
# 2 -0.008131 0.035898 -0.007382 0.021238 -0.007692 0.004611
# 3 -0.001615 -0.007382 0.013359 -0.013059 0.004445 0.003536
# 4 -0.011582 0.021238 -0.013059 0.084556 -0.005640 -0.000668
# 5 0.009322 -0.007692 0.004445 -0.005640 0.032004 -0.001159
# 6 0.000896 0.004611 0.003536 -0.000668 -0.001159 0.030621
#
#
# Mechanical properties :
#
#
# Convention : Reuss Voigt Hill
#
# Bulk Modulus (GPa) = 32.74565 55.52019 44.13292
# Shear Modulus (GPa) = 19.49991 31.74110 25.62051
#
# Velocity S-wave (km/s) = 3.04894 3.88995 3.49483
# Velocity P-wave (km/s) = 5.29200 6.82959 6.10936
#
# Compressibility (1/GPa) = 0.03053841
#
# Stress axis : x y z
#
# Youngs Moduli (GPa) = 64.36311 27.85642 74.85455
#
# Poissons Ratio (x) = 0.22649 0.12091
# Poissons Ratio (y) = 0.52331 0.55260
# Poissons Ratio (z) = 0.10396 0.20564
#
# Static dielectric constant tensor:
#      x y z
#    x 1.733480 0.005500 -0.038660 
#    y 0.005500 1.798710 0.013210 
#    z -0.038660 0.013210 1.795440 
# 
# From -- ./inp_files/335644.got.cif
#   From: 2010.05.17/outbox.cif.g08.bks.cpg/sg2_168_cif.got.tgz:335644.got - 2010.06.03 11:33:40.
