data_PCOD9105367
_publ_section_title
;
Structure prediction by ZEFSAII (Michael W. Deem and Ramdas Pophale) SiO2 
 PCOD9105367
Probable space group: P -1
;
_chemical_formula_sum "Si O2"
_cell_formula_units_Z 14
_cell_length_a 9.164918
_cell_length_b 11.192521
_cell_length_c 12.404967
_cell_angle_alpha 56.202490
_cell_angle_beta 66.197686
_cell_angle_gamma 40.199483
_cell_volume 681.990652
_symmetry_space_group_name_H-M "P -1"
_symmetry_group_IT_number 2
_symmetry_cell_setting 'triclinic'
loop_
_space_group_symop_operation_xyz
x,y,z
-x,-y,-z
loop_
_atom_site_type_symbol
_atom_site_label
_atom_site_fract_x
_atom_site_fract_y
_atom_site_fract_z
Si Si1 0.375914 0.947747 0.010125
Si Si2 0.215899 0.528241 0.513200
Si Si3 0.865846 0.238656 0.997949
Si Si4 0.279827 0.206499 0.520853
Si Si5 0.463723 0.582583 0.808790
Si Si6 0.467713 0.625791 0.302936
Si Si7 0.317135 0.933754 0.803634
O O1 0.401568 0.796271 0.157645
O O2 0.109951 0.149645 0.974223
O O3 0.500000 0.000000 0.000000
O O4 0.458835 0.866298 0.904160
O O5 0.292116 0.361216 0.484951
O O6 0.260235 0.663584 0.391901
O O7 0.374891 0.417236 0.626587
O O8 0.951072 0.666138 0.542121
O O9 0.708374 0.385250 0.072860
O O10 0.714957 0.373905 0.872112
O O11 0.129274 0.937578 0.896216
O O12 0.241288 0.130466 0.676375
O O13 0.500000 0.000000 0.500000
O O14 0.558752 0.237345 0.240603
O O15 0.406190 0.571296 0.712094
#
# Coordination Sequence:
#
# PCOD9105367 Si02
#       7
#     2   2   2   2   2   2   2
#     4  12  23  36  61  95 129 155 199 267 318 366
#     4  10  25  42  67  90 126 175 207 254 316 365
#     4   9  19  37  60  93 116 165 204 238 316 382
#     4  11  23  45  65  96 125 164 215 260 305 376
#     4   9  19  36  65  87 118 161 210 248 302 378
#     4  11  21  45  60  90 127 164 210 256 309 378
#     4  10  20  39  64  92 115 165 209 247 312 373
#
# _framework density 20.52814
#
# number of rings (size 3 to 8) (size 9 to 14) (size 15 to 20)
#    0.857    0.857    1.429    3.000    2.000    0.000 
#    7.714    3.571    0.000    0.000    0.000    0.000 
#    0.000    0.000    0.000    0.000    0.000    0.000 
#
# Total GULP energy -78030.327362 kJ/mol
# GULP energy per Si atom -5573.594812 kJ/mol
# Density = 2.048142 g / cm^3
# Si number density = 20.528140 Si / 1000 Ang^3
#
#
#
# Elastic Constant Matrix: (Units=GPa)
#
#
# Indices 1 2 3 4 5 6 
#
# 1 156.6149 50.2655 22.7417 0.4272 18.2682 -4.1676
# 2 50.2655 89.0492 -3.6670 3.0055 9.2101 -5.3067
# 3 22.7417 -3.6670 54.4139 -7.1734 1.0242 -1.3608
# 4 0.4272 3.0055 -7.1734 25.3916 13.2029 1.3636
# 5 18.2682 9.2101 1.0242 13.2029 34.5059 -2.1493
# 6 -4.1676 -5.3067 -1.3608 1.3636 -2.1493 21.1375
#
#
#
# Elastic Compliance Matrix: (Units=1/GPa)
#
#
# Indices 1 2 3 4 5 6 
#
# 1 0.008941 -0.004862 -0.003817 0.001361 -0.003855 -0.000183
# 2 -0.004862 0.014385 0.003042 -0.000368 -0.001042 0.002766
# 3 -0.003817 0.003042 0.021105 0.006615 -0.001902 0.000750
# 4 0.001361 -0.000368 0.006615 0.052587 -0.021248 -0.004951
# 5 -0.003855 -0.001042 -0.001902 -0.021248 0.039752 0.004269
# 6 -0.000183 0.002766 0.000750 -0.004951 0.004269 0.048769
#
#
# Mechanical properties :
#
#
# Convention : Reuss Voigt Hill
#
# Bulk Modulus (GPa) = 30.16122 48.75093 39.45607
# Shear Modulus (GPa) = 24.05408 31.58953 27.82181
#
# Velocity S-wave (km/s) = 3.42681 3.92706 3.68544
# Velocity P-wave (km/s) = 5.51198 6.66050 6.11327
#
# Compressibility (1/GPa) = 0.03315516
#
# Stress axis : x y z
#
# Youngs Moduli (GPa) = 111.84548 69.51843 47.38312
#
# Poissons Ratio (x) = 0.33802 0.18086
# Poissons Ratio (y) = 0.54382 -0.14413
# Poissons Ratio (z) = 0.42692 -0.21146
#
# Static dielectric constant tensor:
#      x y z
#    x 1.717560 0.033550 -0.017960 
#    y 0.033550 1.795130 0.049580 
#    z -0.017960 0.049580 1.790670 
# 
# From -- ./inp_files/431026.got.cif
#   From: 2010.05.17/outbox.cif.g08.bks.cpg/sg2_216_cif.got.tgz:431026.got - 2010.06.03 11:33:40.
