data_PCOD9105184
_publ_section_title
;
Structure prediction by ZEFSAII (Michael W. Deem and Ramdas Pophale) SiO2 
 PCOD9105184
Probable space group: P -1
;
_chemical_formula_sum "Si O2"
_cell_formula_units_Z 14
_cell_length_a 8.417433
_cell_length_b 11.355985
_cell_length_c 9.197621
_cell_angle_alpha 104.538612
_cell_angle_beta 50.854332
_cell_angle_gamma 104.343292
_cell_volume 655.330553
_symmetry_space_group_name_H-M "P -1"
_symmetry_group_IT_number 2
_symmetry_cell_setting 'triclinic'
loop_
_space_group_symop_operation_xyz
x,y,z
-x,-y,-z
loop_
_atom_site_type_symbol
_atom_site_label
_atom_site_fract_x
_atom_site_fract_y
_atom_site_fract_z
Si Si1 0.054040 0.663335 0.077019
Si Si2 0.271019 0.985365 0.783627
Si Si3 0.710982 0.935283 0.538946
Si Si4 0.091911 0.819820 0.354053
Si Si5 0.052113 0.636238 0.577625
Si Si6 0.870907 0.787557 0.961814
Si Si7 0.725040 0.462704 0.326789
O O1 0.914187 0.573382 0.240073
O O2 0.157556 0.774868 0.146526
O O3 0.891870 0.701777 0.062802
O O4 0.231094 0.602852 0.870734
O O5 0.250871 0.027137 0.640378
O O6 0.075760 0.885535 0.888030
O O7 0.466847 0.915716 0.681707
O O8 0.292679 0.114424 0.899737
O O9 0.795076 0.050235 0.624992
O O10 0.847923 0.831353 0.475699
O O11 0.125451 0.726219 0.432981
O O12 0.880499 0.703093 0.787572
O O13 0.000000 0.500000 0.500000
O O14 0.222158 0.623921 0.598904
O O15 0.500000 0.500000 0.500000
#
# Coordination Sequence:
#
# PCOD9105184 Si02
#       7
#     2   2   2   2   2   2   2
#     4  10  21  40  64  87 129 164 206 258 316 372
#     4  10  20  39  63  95 119 167 215 260 312 387
#     4  10  22  37  64  93 124 162 215 259 322 373
#     4  11  21  40  61  94 130 164 199 271 319 370
#     4  11  22  40  62  90 130 167 205 260 324 372
#     4  10  21  39  64  90 129 166 206 264 319 380
#     4  10  23  42  65  90 118 171 221 252 303 382
#
# _framework density 21.363263
#
# number of rings (size 3 to 8) (size 9 to 14) (size 15 to 20)
#    0.000    1.714    4.286    0.000    0.000    3.429 
#    2.571    2.143    0.000    0.000    0.000    0.000 
#    0.000    0.000    0.000    0.000    0.000    0.000 
#
# Total GULP energy -78052.938882 kJ/mol
# GULP energy per Si atom -5575.209920 kJ/mol
# Density = 2.131464 g / cm^3
# Si number density = 21.363263 Si / 1000 Ang^3
#
#
#
# Elastic Constant Matrix: (Units=GPa)
#
#
# Indices 1 2 3 4 5 6 
#
# 1 50.8162 9.9175 36.6411 8.8607 -4.1380 -11.2437
# 2 9.9175 68.4186 27.3765 19.5141 5.7174 -4.0372
# 3 36.6411 27.3765 96.2900 27.6434 7.5352 5.8294
# 4 8.8607 19.5141 27.6434 40.6684 9.1884 15.1994
# 5 -4.1380 5.7174 7.5352 9.1884 35.3848 17.4189
# 6 -11.2437 -4.0372 5.8294 15.1994 17.4189 27.5406
#
#
#
# Elastic Compliance Matrix: (Units=1/GPa)
#
#
# Indices 1 2 3 4 5 6 
#
# 1 0.035458 0.004852 -0.013316 -0.009794 -0.004041 0.025967
# 2 0.004852 0.021166 -0.004610 -0.013129 -0.007277 0.017908
# 3 -0.013316 -0.004610 0.018562 -0.004724 0.000176 -0.007545
# 4 -0.009794 -0.013129 -0.004724 0.048063 0.007235 -0.036024
# 5 -0.004041 -0.007277 0.000176 0.007235 0.044099 -0.034639
# 6 0.025967 0.017908 -0.007545 -0.036024 -0.034639 0.092923
#
#
# Mechanical properties :
#
#
# Convention : Reuss Voigt Hill
#
# Bulk Modulus (GPa) = 20.39230 40.37724 30.38477
# Shear Modulus (GPa) = 16.51443 30.15809 23.33626
#
# Velocity S-wave (km/s) = 2.78336 3.76131 3.30866
# Velocity P-wave (km/s) = 4.46045 6.14855 5.37123
#
# Compressibility (1/GPa) = 0.04903811
#
# Stress axis : x y z
#
# Youngs Moduli (GPa) = 28.20264 47.24464 53.87279
#
# Poissons Ratio (x) = -0.22922 0.71738
# Poissons Ratio (y) = -0.13683 0.24834
# Poissons Ratio (z) = 0.37555 0.21779
#
# Static dielectric constant tensor:
#      x y z
#    x 1.752390 0.001230 -0.000710 
#    y 0.001230 1.818210 0.064430 
#    z -0.000710 0.064430 1.854240 
# 
# From -- ./inp_files/179723.got.cif
#   From: 2010.05.17/outbox.cif.g08.bks.cpg/sg2_90_cif.got.tgz:179723.got - 2010.06.03 11:33:40.
