data_PCOD9105799
_publ_section_title
;
Structure prediction by ZEFSAII (Michael W. Deem and Ramdas Pophale) SiO2 
 PCOD9105799
Probable space group: P -1
;
_chemical_formula_sum "Si O2"
_cell_formula_units_Z 16
_cell_length_a 14.667823
_cell_length_b 9.053592
_cell_length_c 22.701614
_cell_angle_alpha 111.411539
_cell_angle_beta 162.242102
_cell_angle_gamma 77.046525
_cell_volume 770.784829
_symmetry_space_group_name_H-M "P -1"
_symmetry_group_IT_number 2
_symmetry_cell_setting 'triclinic'
loop_
_space_group_symop_operation_xyz
x,y,z
-x,-y,-z
loop_
_atom_site_type_symbol
_atom_site_label
_atom_site_fract_x
_atom_site_fract_y
_atom_site_fract_z
Si Si1 0.796948 0.194163 0.123670
Si Si2 0.166998 0.137681 0.853353
Si Si3 0.809025 0.323773 0.964514
Si Si4 0.265479 0.222085 0.306508
Si Si5 0.181242 0.712768 0.255020
Si Si6 0.253896 0.192568 0.705560
Si Si7 0.474909 0.935432 0.356406
Si Si8 0.273744 0.526840 0.814059
O O1 0.937351 0.381294 0.271727
O O2 0.021634 0.197684 0.207360
O O3 0.753756 0.027315 0.111237
O O4 0.445882 0.167637 0.876815
O O5 0.013549 0.181106 0.824121
O O6 0.475015 0.316523 0.050053
O O7 0.428175 0.823748 0.371623
O O8 0.537106 0.278738 0.842372
O O9 0.650809 0.189794 0.794647
O O10 0.132035 0.307303 0.186545
O O11 0.930530 0.524579 0.049581
O O12 0.625417 0.314306 0.572943
O O13 0.263479 0.045332 0.252985
O O14 0.138766 0.928423 0.390463
O O15 0.116331 0.337397 0.657273
O O16 0.000000 0.000000 0.500000
O O17 0.500000 0.500000 0.000000
#
# Coordination Sequence:
#
# PCOD9105799 Si02
#       8
#     2   2   2   2   2   2   2   2
#     4  10  20  39  66  87 122 158 206 253 294 367
#     4  11  20  40  64  91 119 166 202 252 306 359
#     4  11  23  37  61  91 126 164 200 257 307 357
#     4  10  20  40  60  92 121 162 205 246 305 362
#     4  11  20  40  63  89 127 162 205 247 301 376
#     4  10  23  43  61  87 124 161 205 255 308 353
#     4  11  22  37  63  90 129 158 202 250 310 366
#     4  10  22  39  63  89 115 156 213 251 294 359
#
# _framework density 20.758063
#
# number of rings (size 3 to 8) (size 9 to 14) (size 15 to 20)
#    0.000    1.500    3.750    2.250    3.500    0.000 
#    0.000    4.375    0.000    0.000    0.000    0.000 
#    0.000    0.000    0.000    0.000    0.000    0.000 
#
# Total GULP energy -89283.765686 kJ/mol
# GULP energy per Si atom -5580.235355 kJ/mol
# Density = 2.071082 g / cm^3
# Si number density = 20.758063 Si / 1000 Ang^3
#
#
#
# Elastic Constant Matrix: (Units=GPa)
#
#
# Indices 1 2 3 4 5 6 
#
# 1 54.7959 26.1332 1.5476 -0.3684 -10.9323 -19.0743
# 2 26.1332 145.6130 37.0196 20.8745 -17.1646 -28.8116
# 3 1.5476 37.0196 31.5722 17.8494 -5.4040 -17.7791
# 4 -0.3684 20.8745 17.8494 32.1050 -3.9544 -6.8281
# 5 -10.9323 -17.1646 -5.4040 -3.9544 27.0413 9.2629
# 6 -19.0743 -28.8116 -17.7791 -6.8281 9.2629 30.3859
#
#
#
# Elastic Compliance Matrix: (Units=1/GPa)
#
#
# Indices 1 2 3 4 5 6 
#
# 1 0.028702 -0.004596 0.018419 -0.001546 0.004343 0.022765
# 2 -0.004596 0.011135 -0.012680 -0.000021 0.002889 -0.000632
# 3 0.018419 -0.012680 0.088220 -0.031386 -0.002981 0.045014
# 4 -0.001546 -0.000021 -0.031386 0.046912 0.003314 -0.009824
# 5 0.004343 0.002889 -0.002981 0.003314 0.043468 -0.008785
# 6 0.022765 -0.000632 0.045014 -0.009824 -0.008785 0.073410
#
#
# Mechanical properties :
#
#
# Convention : Reuss Voigt Hill
#
# Bulk Modulus (GPa) = 7.67203 40.15355 23.91279
# Shear Modulus (GPa) = 15.01466 29.05846 22.03656
#
# Velocity S-wave (km/s) = 2.69237 3.74553 3.26174
# Velocity P-wave (km/s) = 3.65638 6.17179 5.07248
#
# Compressibility (1/GPa) = 0.13034368
#
# Stress axis : x y z
#
# Youngs Moduli (GPa) = 34.84112 89.81085 11.33528
#
# Poissons Ratio (x) = 0.41275 -0.20878
# Poissons Ratio (y) = 0.16012 0.14373
# Poissons Ratio (z) = -0.64174 1.13876
#
# Static dielectric constant tensor:
#      x y z
#    x 1.761200 -0.014380 0.003660 
#    y -0.014380 1.773330 -0.012680 
#    z 0.003660 -0.012680 1.737320 
# 
# From -- ./inp_files/611678.got.cif
#   From: 2010.05.17/outbox.cif.g08.bks.cpg/sg2_306_cif.got.tgz:611678.got - 2010.06.03 11:33:40.
