data_PCOD9105919
_publ_section_title
;
Structure prediction by ZEFSAII (Michael W. Deem and Ramdas Pophale) SiO2 
 PCOD9105919
Probable space group: P -1
;
_chemical_formula_sum "Si O2"
_cell_formula_units_Z 12
_cell_length_a 18.298417
_cell_length_b 13.582281
_cell_length_c 5.394739
_cell_angle_alpha 88.916532
_cell_angle_beta 114.736670
_cell_angle_gamma 147.438753
_cell_volume 478.830164
_symmetry_space_group_name_H-M "P -1"
_symmetry_group_IT_number 2
_symmetry_cell_setting 'triclinic'
loop_
_space_group_symop_operation_xyz
x,y,z
-x,-y,-z
loop_
_atom_site_type_symbol
_atom_site_label
_atom_site_fract_x
_atom_site_fract_y
_atom_site_fract_z
Si Si1 0.169278 0.137946 0.990500
Si Si2 0.719317 0.141835 0.306192
Si Si3 0.065097 0.421548 0.520651
Si Si4 0.484032 0.591673 0.732062
Si Si5 0.203479 0.362462 0.710991
Si Si6 0.361391 0.045439 0.293883
O O1 0.318700 0.324739 0.423996
O O2 0.301459 0.222932 0.978266
O O3 0.136395 0.209256 0.829512
O O4 0.957572 0.843468 0.731822
O O5 0.776010 0.319901 0.368326
O O6 0.938796 0.331591 0.569694
O O7 0.621829 0.994911 0.427668
O O8 0.598488 0.975279 0.893395
O O9 0.168611 0.435148 0.729277
O O10 0.878420 0.196029 0.072841
O O11 0.418918 0.570953 0.892968
O O12 0.509335 0.709638 0.565733
#
# Coordination Sequence:
#
# PCOD9105919 Si02
#       6
#     2   2   2   2   2   2
#     4  10  23  42  61  92 131 171 214 273 324 388
#     4   9  20  38  67  95 128 174 211 264 329 384
#     4   9  20  37  65  94 128 170 215 266 321 389
#     4  11  23  40  64  94 129 171 215 270 330 383
#     4  11  22  42  63  97 123 172 219 268 322 392
#     4  10  20  39  66  94 128 171 215 262 326 386
#
# _framework density 25.061081000000001
#
# number of rings (size 3 to 8) (size 9 to 14) (size 15 to 20)
#    1.000    1.000    1.667    1.500    2.333    1.333 
#   12.000    1.667    0.000    0.000    0.000    0.000 
#    0.000    0.000    0.000    0.000    0.000    0.000 
#
# Total GULP energy -67064.136962 kJ/mol
# GULP energy per Si atom -5588.678080 kJ/mol
# Density = 2.500404 g / cm^3
# Si number density = 25.061081 Si / 1000 Ang^3
#
#
#
# Elastic Constant Matrix: (Units=GPa)
#
#
# Indices 1 2 3 4 5 6 
#
# 1 153.5106 33.8869 3.7051 -7.7411 16.8928 -16.3812
# 2 33.8869 92.0987 14.8982 -19.5854 -15.2668 -21.0548
# 3 3.7051 14.8982 45.0675 4.8973 -8.6594 2.9561
# 4 -7.7411 -19.5854 4.8973 41.9789 -0.5334 -7.6504
# 5 16.8928 -15.2668 -8.6594 -0.5334 25.7660 3.3866
# 6 -16.3812 -21.0548 2.9561 -7.6504 3.3866 43.6568
#
#
#
# Elastic Compliance Matrix: (Units=1/GPa)
#
#
# Indices 1 2 3 4 5 6 
#
# 1 0.008580 -0.003839 -0.001255 0.000222 -0.008601 0.002159
# 2 -0.003839 0.019540 -0.005814 0.010947 0.011128 0.009432
# 3 -0.001255 -0.005814 0.026829 -0.007243 0.007153 -0.006915
# 4 0.000222 0.010947 -0.007243 0.031896 0.003095 0.011202
# 5 -0.008601 0.011128 0.007153 0.003095 0.053770 -0.001974
# 6 0.002159 0.009432 -0.006915 0.011202 -0.001974 0.030849
#
#
# Mechanical properties :
#
#
# Convention : Reuss Voigt Hill
#
# Bulk Modulus (GPa) = 30.18051 43.96191 37.07121
# Shear Modulus (GPa) = 24.47101 38.15944 31.31522
#
# Velocity S-wave (km/s) = 3.12822 3.90636 3.53874
# Velocity P-wave (km/s) = 5.01164 6.15842 5.61439
#
# Compressibility (1/GPa) = 0.03313397
#
# Stress axis : x y z
#
# Youngs Moduli (GPa) = 116.55109 51.17800 37.27287
#
# Poissons Ratio (x) = 0.19647 0.04676
# Poissons Ratio (y) = 0.44744 0.21670
# Poissons Ratio (z) = 0.14622 0.29754
#
# Static dielectric constant tensor:
#      x y z
#    x 1.968630 0.034870 -0.017280 
#    y 0.034870 1.950240 0.017180 
#    z -0.017280 0.017180 2.096840 
# 
# From -- ./inp_files/92631.got.cif
#   From: 2010.05.17/outbox.cif.g08.bks.cpg/sg2_47_cif.got.tgz:92631.got - 2010.06.03 11:33:40.
