data_PCOD9105562
_publ_section_title
;
Structure prediction by ZEFSAII (Michael W. Deem and Ramdas Pophale) SiO2 
 PCOD9105562
Probable space group: P -1
;
_chemical_formula_sum "Si O2"
_cell_formula_units_Z 16
_cell_length_a 12.236703
_cell_length_b 7.624216
_cell_length_c 9.562027
_cell_angle_alpha 89.870669
_cell_angle_beta 98.633780
_cell_angle_gamma 51.651772
_cell_volume 686.443616
_symmetry_space_group_name_H-M "P -1"
_symmetry_group_IT_number 2
_symmetry_cell_setting 'triclinic'
loop_
_space_group_symop_operation_xyz
x,y,z
-x,-y,-z
loop_
_atom_site_type_symbol
_atom_site_label
_atom_site_fract_x
_atom_site_fract_y
_atom_site_fract_z
Si Si1 0.478987 0.984698 0.660642
Si Si2 0.876949 0.856413 0.120350
Si Si3 0.608199 0.507227 0.610414
Si Si4 0.731296 0.523759 0.354552
Si Si5 0.768142 0.792673 0.816570
Si Si6 0.179329 0.675151 0.128452
Si Si7 0.004067 0.569149 0.656967
Si Si8 0.653653 0.354812 0.102109
O O1 0.514401 0.744376 0.676281
O O2 0.600145 0.973511 0.764831
O O3 0.500000 0.000000 0.500000
O O4 0.331784 0.217390 0.674937
O O5 0.929608 0.643162 0.226331
O O6 0.012191 0.851765 0.128072
O O7 0.735960 0.091721 0.148960
O O8 0.835125 0.826495 0.959317
O O9 0.500000 0.500000 0.500000
O O10 0.707952 0.498632 0.511520
O O11 0.719854 0.319987 0.743513
O O12 0.892252 0.368507 0.334237
O O13 0.646640 0.475704 0.240327
O O14 0.792058 0.560935 0.844182
O O15 0.850841 0.761922 0.691584
O O16 0.239034 0.662186 0.988552
O O17 0.000000 0.500000 0.500000
O O18 0.500000 0.500000 0.000000
#
# Coordination Sequence:
#
# PCOD9105562 Si02
#       8
#     2   2   2   2   2   2   2   2
#     4   9  19  37  61  88 118 161 207 246 305 377
#     4  11  23  41  63  91 123 167 210 251 314 383
#     4  10  21  39  62  89 122 163 206 253 310 379
#     4  11  22  39  60  89 122 156 202 260 304 356
#     4  10  20  39  65  89 118 165 209 251 308 380
#     4  10  21  41  62  85 122 165 205 249 307 380
#     4  11  22  40  65  94 123 153 203 268 317 364
#     4  12  25  40  59  91 128 162 204 262 310 357
#
# _framework density 23.308541999999999
#
# number of rings (size 3 to 8) (size 9 to 14) (size 15 to 20)
#    0.000    1.500    0.000    7.875    0.000    4.000 
#    0.000    9.375    0.000    0.000    0.000    0.000 
#    0.000    0.000    0.000    0.000    0.000    0.000 
#
# Total GULP energy -89433.285949 kJ/mol
# GULP energy per Si atom -5589.580372 kJ/mol
# Density = 2.325549 g / cm^3
# Si number density = 23.308542 Si / 1000 Ang^3
#
#
#
# Elastic Constant Matrix: (Units=GPa)
#
#
# Indices 1 2 3 4 5 6 
#
# 1 70.8826 -2.8710 7.4666 4.0211 4.1615 -16.6490
# 2 -2.8710 52.9040 -2.2000 12.2885 6.0666 -9.8308
# 3 7.4666 -2.2000 116.8757 13.1495 19.0390 -2.9218
# 4 4.0211 12.2885 13.1495 28.2003 -1.4510 4.7560
# 5 4.1615 6.0666 19.0390 -1.4510 52.7541 5.4829
# 6 -16.6490 -9.8308 -2.9218 4.7560 5.4829 24.0001
#
#
#
# Elastic Compliance Matrix: (Units=1/GPa)
#
#
# Indices 1 2 3 4 5 6 
#
# 1 0.020176 0.008274 0.001545 -0.011039 -0.005591 0.021038
# 2 0.008274 0.030028 0.004460 -0.020977 -0.008866 0.024765
# 3 0.001545 0.004460 0.010568 -0.008572 -0.005425 0.007124
# 4 -0.011039 -0.020977 -0.008572 0.055961 0.011130 -0.030926
# 5 -0.005591 -0.008866 -0.005425 0.011130 0.024337 -0.015936
# 6 0.021038 0.024765 0.007124 -0.030926 -0.015936 0.077042
#
#
# Mechanical properties :
#
#
# Convention : Reuss Voigt Hill
#
# Bulk Modulus (GPa) = 11.19436 27.27260 19.23348
# Shear Modulus (GPa) = 22.79681 36.87535 29.83608
#
# Velocity S-wave (km/s) = 3.13076 3.98182 3.58166
# Velocity P-wave (km/s) = 4.22871 5.73288 5.03726
#
# Compressibility (1/GPa) = 0.08933071
#
# Stress axis : x y z
#
# Youngs Moduli (GPa) = 49.56345 33.30235 94.62951
#
# Poissons Ratio (x) = -0.27554 -0.14625
# Poissons Ratio (y) = -0.41008 -0.42207
# Poissons Ratio (z) = -0.07660 -0.14854
#
# Static dielectric constant tensor:
#      x y z
#    x 1.924880 0.008540 0.046880 
#    y 0.008540 1.888530 0.000580 
#    z 0.046880 0.000580 1.714440 
# 
# From -- ./inp_files/184259.got.cif
#   From: 2010.05.17/outbox.cif.g08.bks.cpg/sg2_93_cif.got.tgz:184259.got - 2010.06.03 11:33:40.
