data_PCOD9105403
_publ_section_title
;
Structure prediction by ZEFSAII (Michael W. Deem and Ramdas Pophale) SiO2 
 PCOD9105403
Probable space group: P -1
;
_chemical_formula_sum "Si O2"
_cell_formula_units_Z 12
_cell_length_a 11.161405
_cell_length_b 7.988467
_cell_length_c 15.479643
_cell_angle_alpha 32.735084
_cell_angle_beta 41.964298
_cell_angle_gamma 35.360685
_cell_volume 424.562091
_symmetry_space_group_name_H-M "P -1"
_symmetry_group_IT_number 2
_symmetry_cell_setting 'triclinic'
loop_
_space_group_symop_operation_xyz
x,y,z
-x,-y,-z
loop_
_atom_site_type_symbol
_atom_site_label
_atom_site_fract_x
_atom_site_fract_y
_atom_site_fract_z
Si Si1 0.332214 0.973826 0.730785
Si Si2 0.047069 0.734799 0.307242
Si Si3 0.909712 0.473289 0.236827
Si Si4 0.221036 0.784227 0.029388
Si Si5 0.335929 0.946129 0.165401
Si Si6 0.413173 0.690939 0.556828
O O1 0.182873 0.369088 0.686889
O O2 0.529616 0.004764 0.586416
O O3 0.185465 0.968880 0.736926
O O4 0.384296 0.678907 0.907757
O O5 0.179781 0.572236 0.216498
O O6 0.189566 0.863730 0.220081
O O7 0.000000 0.500000 0.500000
O O8 0.824969 0.217881 0.362792
O O9 0.789652 0.854789 0.082466
O O10 0.842322 0.720104 0.826466
O O11 0.000000 0.000000 0.000000
O O12 0.464869 0.614409 0.304685
O O13 0.500000 0.000000 0.000000
O O14 0.500000 0.500000 0.500000
#
# Coordination Sequence:
#
# PCOD9105403 Si02
#       6
#     2   2   2   2   2   2
#     4   8  18  39  64  87 125 171 208 250 317 385
#     4  11  20  38  64  93 133 166 204 274 319 362
#     4   9  21  42  69  90 125 174 219 250 321 384
#     4   8  17  35  63  86 123 172 206 251 314 380
#     4  12  26  40  67  96 130 166 218 271 315 372
#     4  10  20  39  64  93 130 165 210 260 317 380
#
# _framework density 28.264417999999999
#
# number of rings (size 3 to 8) (size 9 to 14) (size 15 to 20)
#    1.000    1.333    1.667    1.000    0.000    5.333 
#    0.000    1.667    7.333    0.000    0.000    0.000 
#    0.000    0.000    0.000    0.000    0.000    0.000 
#
# Total GULP energy -67007.240983 kJ/mol
# GULP energy per Si atom -5583.936749 kJ/mol
# Density = 2.820009 g / cm^3
# Si number density = 28.264418 Si / 1000 Ang^3
#
#
#
# Elastic Constant Matrix: (Units=GPa)
#
#
# Indices 1 2 3 4 5 6 
#
# 1 162.6516 19.6683 65.1851 19.8242 -19.1425 -0.8854
# 2 19.6683 134.5372 36.4055 26.3396 -3.5746 -7.2718
# 3 65.1851 36.4055 233.0751 33.0843 5.8236 -25.6350
# 4 19.8242 26.3396 33.0843 45.7233 -13.6981 -12.0381
# 5 -19.1425 -3.5746 5.8236 -13.6981 71.3032 9.5964
# 6 -0.8854 -7.2718 -25.6350 -12.0381 9.5964 35.5618
#
#
#
# Elastic Compliance Matrix: (Units=1/GPa)
#
#
# Indices 1 2 3 4 5 6 
#
# 1 0.007485 -0.000290 -0.002169 -0.001514 0.002224 -0.002549
# 2 -0.000290 0.008502 -0.000610 -0.004495 -0.000451 -0.000108
# 3 -0.002169 -0.000610 0.005816 -0.002563 -0.002079 0.003707
# 4 -0.001514 -0.004495 -0.002563 0.029930 0.004505 0.006111
# 5 0.002224 -0.000451 -0.002079 0.004505 0.016225 -0.004389
# 6 -0.002549 -0.000108 0.003707 0.006111 -0.004389 0.033960
#
#
# Mechanical properties :
#
#
# Convention : Reuss Voigt Hill
#
# Bulk Modulus (GPa) = 63.83165 85.86462 74.84813
# Shear Modulus (GPa) = 44.13966 57.78466 50.96216
#
# Velocity S-wave (km/s) = 3.95608 4.52644 4.25084
# Velocity P-wave (km/s) = 6.59547 7.60021 7.11560
#
# Compressibility (1/GPa) = 0.01566621
#
# Stress axis : x y z
#
# Youngs Moduli (GPa) = 133.60325 117.61458 171.94189
#
# Poissons Ratio (x) = 0.03406 0.37297
# Poissons Ratio (y) = 0.03869 0.10482
# Poissons Ratio (z) = 0.28981 0.07170
#
# Static dielectric constant tensor:
#      x y z
#    x 2.305100 0.036600 -0.088450 
#    y 0.036600 2.322860 0.038810 
#    z -0.088450 0.038810 2.283290 
# 
# From -- ./inp_files/567169.got.cif
#   From: 2010.05.17/outbox.cif.g08.bks.cpg/sg2_284_cif.got.tgz:567169.got - 2010.06.03 11:33:40.
