data_PCOD9105450
_publ_section_title
;
Structure prediction by ZEFSAII (Michael W. Deem and Ramdas Pophale) SiO2 
 PCOD9105450
Probable space group: P -1
;
_chemical_formula_sum "Si O2"
_cell_formula_units_Z 14
_cell_length_a 11.489846
_cell_length_b 9.896727
_cell_length_c 14.543265
_cell_angle_alpha 97.400880
_cell_angle_beta 29.214556
_cell_angle_gamma 115.099611
_cell_volume 612.268466
_symmetry_space_group_name_H-M "P -1"
_symmetry_group_IT_number 2
_symmetry_cell_setting 'triclinic'
loop_
_space_group_symop_operation_xyz
x,y,z
-x,-y,-z
loop_
_atom_site_type_symbol
_atom_site_label
_atom_site_fract_x
_atom_site_fract_y
_atom_site_fract_z
Si Si1 0.906008 0.250545 0.114131
Si Si2 0.614068 0.681540 0.982577
Si Si3 0.559132 0.362206 0.699838
Si Si4 0.938142 0.563780 0.160539
Si Si5 0.027753 0.040802 0.378412
Si Si6 0.284791 0.866961 0.509699
Si Si7 0.760196 0.663313 0.460878
O O1 0.994241 0.423597 0.120365
O O2 0.595171 0.059547 0.342454
O O3 0.198256 0.257334 0.913254
O O4 0.857352 0.290905 0.047036
O O5 0.974817 0.787083 0.774515
O O6 0.500000 0.500000 0.000000
O O7 0.426667 0.650650 0.200839
O O8 0.653690 0.803372 0.882270
O O9 0.667276 0.272814 0.558099
O O10 0.733098 0.561693 0.561996
O O11 0.953510 0.650857 0.251377
O O12 0.586028 0.447215 0.352891
O O13 0.892645 0.860265 0.403981
O O14 0.819437 0.097732 0.509538
O O15 0.000000 0.000000 0.500000
#
# Coordination Sequence:
#
# PCOD9105450 Si02
#       7
#     2   2   2   2   2   2   2
#     4  10  20  39  64  99 138 172 213 261 339 396
#     4  10  24  45  67  91 131 171 225 274 327 384
#     4  11  24  40  66 101 132 178 210 265 337 401
#     4   9  19  35  63  97 131 175 212 271 318 393
#     4  10  22  44  67  91 127 175 221 276 319 383
#     4  10  24  42  65  96 135 168 215 279 321 394
#     4  10  20  39  64  95 133 170 224 265 325 386
#
# _framework density 22.865786
#
# number of rings (size 3 to 8) (size 9 to 14) (size 15 to 20)
#    0.857    1.143    1.429    1.286    4.000    1.143 
#    5.143    0.714    0.000    0.000    0.000    0.000 
#    0.000    0.000    0.000    0.000    0.000    0.000 
#
# Total GULP energy -78162.256806 kJ/mol
# GULP energy per Si atom -5583.018343 kJ/mol
# Density = 2.281374 g / cm^3
# Si number density = 22.865786 Si / 1000 Ang^3
#
#
#
# Elastic Constant Matrix: (Units=GPa)
#
#
# Indices 1 2 3 4 5 6 
#
# 1 59.7566 -2.0172 8.2336 -2.1839 25.2344 -9.4889
# 2 -2.0172 81.6717 26.0597 -2.5506 6.2608 -8.9801
# 3 8.2336 26.0597 75.8693 -11.6490 28.0510 7.8206
# 4 -2.1839 -2.5506 -11.6490 46.2636 -1.9956 0.2031
# 5 25.2344 6.2608 28.0510 -1.9956 39.5562 1.4912
# 6 -9.4889 -8.9801 7.8206 0.2031 1.4912 35.1882
#
#
#
# Elastic Compliance Matrix: (Units=1/GPa)
#
#
# Indices 1 2 3 4 5 6 
#
# 1 0.025676 0.002020 0.002957 0.001214 -0.019021 0.007581
# 2 0.002020 0.014835 -0.006186 -0.000648 0.000503 0.005688
# 3 0.002957 -0.006186 0.022239 0.004719 -0.016249 -0.005063
# 4 0.001214 -0.000648 0.004719 0.022707 -0.002839 -0.000898
# 5 -0.019021 0.000503 -0.016249 -0.002839 0.048844 -0.003443
# 6 0.007581 0.005688 -0.005063 -0.000898 -0.003443 0.033191
#
#
# Mechanical properties :
#
#
# Convention : Reuss Voigt Hill
#
# Bulk Modulus (GPa) = 16.57525 31.31663 23.94594
# Shear Modulus (GPa) = 26.31312 36.53636 31.42474
#
# Velocity S-wave (km/s) = 3.39597 4.00166 3.71119
# Velocity P-wave (km/s) = 4.75831 5.92255 5.37206
#
# Compressibility (1/GPa) = 0.06033091
#
# Stress axis : x y z
#
# Youngs Moduli (GPa) = 38.94728 67.40989 44.96666
#
# Poissons Ratio (x) = -0.13618 -0.13298
# Poissons Ratio (y) = -0.07868 0.27819
# Poissons Ratio (z) = -0.11518 0.41703
#
# Static dielectric constant tensor:
#      x y z
#    x 1.936530 -0.025740 0.009420 
#    y -0.025740 1.781380 0.015930 
#    z 0.009420 0.015930 1.895050 
# 
# From -- ./inp_files/572677.got.cif
#   From: 2010.05.17/outbox.cif.g08.bks.cpg/sg2_287_cif.got.tgz:572677.got - 2010.06.03 11:33:40.
