data_PCOD9105162
_publ_section_title
;
Structure prediction by ZEFSAII (Michael W. Deem and Ramdas Pophale) SiO2 
 PCOD9105162
Probable space group: P -1
;
_chemical_formula_sum "Si O2"
_cell_formula_units_Z 16
_cell_length_a 13.743551
_cell_length_b 8.655845
_cell_length_c 22.887489
_cell_angle_alpha 100.769709
_cell_angle_beta 19.793758
_cell_angle_gamma 110.383470
_cell_volume 774.525820
_symmetry_space_group_name_H-M "P -1"
_symmetry_group_IT_number 2
_symmetry_cell_setting 'triclinic'
loop_
_space_group_symop_operation_xyz
x,y,z
-x,-y,-z
loop_
_atom_site_type_symbol
_atom_site_label
_atom_site_fract_x
_atom_site_fract_y
_atom_site_fract_z
Si Si1 0.567580 0.620397 0.836087
Si Si2 0.217960 0.179600 0.113093
Si Si3 0.092640 0.503040 0.205680
Si Si4 0.629486 0.574577 0.545399
Si Si5 0.400643 0.018042 0.904071
Si Si6 0.907246 0.004954 0.707441
Si Si7 0.081625 0.592846 0.396919
Si Si8 0.903839 0.382295 0.987693
O O1 0.887275 0.823283 0.680473
O O2 0.688804 0.479578 0.764440
O O3 0.272852 0.572588 0.046039
O O4 0.404413 0.610485 0.865830
O O5 0.046801 0.302472 0.225727
O O6 0.129153 0.035796 0.205840
O O7 0.611351 0.336038 0.910612
O O8 0.167113 0.080210 0.072841
O O9 0.766964 0.506598 0.409610
O O10 0.233242 0.472919 0.767567
O O11 0.780341 0.544470 0.518582
O O12 0.788207 0.792984 0.463494
O O13 0.590636 0.991642 0.850680
O O14 0.686478 0.186651 0.717413
O O15 0.218158 0.832909 0.956933
O O16 0.000000 0.500000 0.500000
O O17 0.000000 0.500000 0.000000
#
# Coordination Sequence:
#
# PCOD9105162 Si02
#       8
#     2   2   2   2   2   2   2   2
#     4  10  21  39  62  90 119 160 194 246 314 354
#     4  10  16  33  60  95 123 152 188 246 312 356
#     4  10  18  33  63  89 125 147 194 253 302 359
#     4  11  22  39  60  94 121 154 204 251 294 353
#     4  10  20  38  60  87 120 161 204 237 302 360
#     4   9  19  31  62  92 121 152 196 247 298 362
#     4  11  21  39  66  90 115 156 213 252 283 348
#     4  11  26  44  58  80 127 170 200 244 300 353
#
# _framework density 20.657800000000002
#
# number of rings (size 3 to 8) (size 9 to 14) (size 15 to 20)
#    0.000    1.750    3.750    2.625    3.500    1.500 
#    0.000    9.375    0.000    0.000    0.000    0.000 
#    0.000    0.000    0.000    0.000    0.000    0.000 
#
# Total GULP energy -89220.426402 kJ/mol
# GULP energy per Si atom -5576.276650 kJ/mol
# Density = 2.061078 g / cm^3
# Si number density = 20.657800 Si / 1000 Ang^3
#
#
#
# Elastic Constant Matrix: (Units=GPa)
#
#
# Indices 1 2 3 4 5 6 
#
# 1 78.0639 29.8592 2.1012 -11.7738 21.7506 -3.2149
# 2 29.8592 118.9884 23.1863 -16.7378 3.8028 -1.3525
# 3 2.1012 23.1863 49.9798 -5.6644 3.6201 -7.7598
# 4 -11.7738 -16.7378 -5.6644 21.9539 -4.7858 9.4158
# 5 21.7506 3.8028 3.6201 -4.7858 24.2973 -4.1750
# 6 -3.2149 -1.3525 -7.7598 9.4158 -4.1750 31.5556
#
#
#
# Elastic Compliance Matrix: (Units=1/GPa)
#
#
# Indices 1 2 3 4 5 6 
#
# 1 0.019681 -0.004266 0.002727 0.004887 -0.016594 -0.001161
# 2 -0.004266 0.011280 -0.004956 0.007031 0.003699 -0.002778
# 3 0.002727 -0.004956 0.023352 0.000630 -0.004149 0.005071
# 4 0.004887 0.007031 0.000630 0.061785 0.003680 -0.016995
# 5 -0.016594 0.003699 -0.004149 0.003680 0.057454 0.003951
# 6 -0.001161 -0.002778 0.005071 -0.016995 0.003951 0.038294
#
#
# Mechanical properties :
#
#
# Convention : Reuss Voigt Hill
#
# Bulk Modulus (GPa) = 24.19941 39.70282 31.95112
# Shear Modulus (GPa) = 20.95481 28.35372 24.65427
#
# Velocity S-wave (km/s) = 3.18839 3.70880 3.45840
# Velocity P-wave (km/s) = 5.02934 6.13199 5.60783
#
# Compressibility (1/GPa) = 0.04132332
#
# Stress axis : x y z
#
# Youngs Moduli (GPa) = 50.81074 88.65570 42.82333
#
# Poissons Ratio (x) = 0.37817 -0.11678
# Poissons Ratio (y) = 0.21674 0.21223
# Poissons Ratio (z) = -0.13856 0.43937
#
# Static dielectric constant tensor:
#      x y z
#    x 1.780690 0.008290 0.048000 
#    y 0.008290 1.777440 0.029800 
#    z 0.048000 0.029800 1.743040 
# 
# From -- ./inp_files/495725.got.cif
#   From: 2010.05.17/outbox.cif.g08.bks.cpg/sg2_248_cif.got.tgz:495725.got - 2010.06.03 11:33:40.
