data_PCOD9105985
_publ_section_title
;
Structure prediction by ZEFSAII (Michael W. Deem and Ramdas Pophale) SiO2 
 PCOD9105985
Probable space group: P -1
;
_chemical_formula_sum "Si O2"
_cell_formula_units_Z 13
_cell_length_a 16.375775
_cell_length_b 7.555336
_cell_length_c 7.555942
_cell_angle_alpha 69.725656
_cell_angle_beta 38.174870
_cell_angle_gamma 65.923013
_cell_volume 526.978392
_symmetry_space_group_name_H-M "P -1"
_symmetry_group_IT_number 2
_symmetry_cell_setting 'triclinic'
loop_
_space_group_symop_operation_xyz
x,y,z
-x,-y,-z
loop_
_atom_site_type_symbol
_atom_site_label
_atom_site_fract_x
_atom_site_fract_y
_atom_site_fract_z
Si Si1 0.510607 0.301579 0.661814
Si Si2 0.739559 0.879198 0.955445
Si Si3 0.029634 0.236883 0.688431
Si Si4 0.196174 0.939404 0.745432
Si Si5 0.046854 0.375196 0.139097
Si Si6 0.500000 0.500000 0.000000
Si Si7 0.221475 0.740957 0.386327
O O1 0.500000 0.500000 0.500000
O O2 0.648502 0.139786 0.436803
O O3 0.512088 0.362157 0.844181
O O4 0.386600 0.205919 0.855859
O O5 0.865235 0.805521 0.634019
O O6 0.808637 0.780682 0.051463
O O7 0.712773 0.110116 0.892857
O O8 0.952007 0.454839 0.781484
O O9 0.127643 0.152370 0.717093
O O10 0.911944 0.119937 0.920061
O O11 0.192932 0.818423 0.608143
O O12 0.922486 0.278963 0.432355
O O13 0.000000 0.500000 0.000000
O O14 0.666040 0.457620 0.739290
#
# Coordination Sequence:
#
# PCOD9105985 Si02
#       7
#     2   2   2   2   2   1   2
#     4  11  24  45  70 100 141 180 226 284 341 418
#     4  11  25  42  68  99 135 182 228 279 348 403
#     4  10  20  39  66  98 124 177 223 277 337 413
#     4   9  20  39  66  96 134 171 224 274 350 399
#     4  12  23  39  65  94 134 175 226 280 335 400
#     4  10  24  44  72 100 138 178 228 274 348 402
#     4  10  22  42  66  99 138 177 225 284 334 412
#
# _framework density 24.668942000000001
#
# number of rings (size 3 to 8) (size 9 to 14) (size 15 to 20)
#    0.000    1.538    1.538    2.769    2.154    8.000 
#    2.769    0.769    0.000    0.000    0.000    0.000 
#    0.000    0.000    0.000    0.000    0.000    0.000 
#
# Total GULP energy -72434.159093 kJ/mol
# GULP energy per Si atom -5571.858392 kJ/mol
# Density = 2.461279 g / cm^3
# Si number density = 24.668942 Si / 1000 Ang^3
#
#
#
# Elastic Constant Matrix: (Units=GPa)
#
#
# Indices 1 2 3 4 5 6 
#
# 1 93.2158 -3.5351 47.1367 -8.3483 -28.2385 -18.4202
# 2 -3.5351 44.8881 39.1591 0.7578 -8.0096 -6.5069
# 3 47.1367 39.1591 120.6527 7.8468 -33.1999 -20.3333
# 4 -8.3483 0.7578 7.8468 46.3126 -4.0784 -3.3135
# 5 -28.2385 -8.0096 -33.1999 -4.0784 53.9263 5.6292
# 6 -18.4202 -6.5069 -20.3333 -3.3135 5.6292 29.4302
#
#
#
# Elastic Compliance Matrix: (Units=1/GPa)
#
#
# Indices 1 2 3 4 5 6 
#
# 1 0.019516 0.011194 -0.008541 0.005920 0.006209 0.008268
# 2 0.011194 0.037723 -0.015655 0.004539 0.001677 0.004721
# 3 -0.008541 -0.015655 0.018538 -0.003869 0.004031 0.002794
# 4 0.005920 0.004539 -0.003869 0.023783 0.002754 0.004187
# 5 0.006209 0.001677 0.004031 0.002754 0.024455 0.002674
# 6 0.008268 0.004721 0.002794 0.004187 0.002674 0.042088
#
#
# Mechanical properties :
#
#
# Convention : Reuss Voigt Hill
#
# Bulk Modulus (GPa) = 20.09081 47.14200 33.61640
# Shear Modulus (GPa) = 23.95822 37.66690 30.81256
#
# Velocity S-wave (km/s) = 3.11977 3.91179 3.53801
# Velocity P-wave (km/s) = 4.59773 6.28921 5.50878
#
# Compressibility (1/GPa) = 0.04977399
#
# Stress axis : x y z
#
# Youngs Moduli (GPa) = 51.23953 26.50897 53.94422
#
# Poissons Ratio (x) = -0.29675 0.46074
# Poissons Ratio (y) = -0.57359 0.84449
# Poissons Ratio (z) = 0.43764 0.41499
#
# Static dielectric constant tensor:
#      x y z
#    x 2.137500 -0.075180 0.106980 
#    y -0.075180 2.030810 -0.041310 
#    z 0.106980 -0.041310 1.917300 
# 
# From -- ./inp_files/153242.got.cif
#   From: 2010.05.17/outbox.cif.g08.bks.cpg/sg2_77_cif.got.tgz:153242.got - 2010.06.03 11:33:40.
