data_PCOD9105154
_publ_section_title
;
Structure prediction by ZEFSAII (Michael W. Deem and Ramdas Pophale) SiO2 
 PCOD9105154
Probable space group: P -1
;
_chemical_formula_sum "Si O2"
_cell_formula_units_Z 16
_cell_length_a 5.254807
_cell_length_b 27.950267
_cell_length_c 11.401631
_cell_angle_alpha 151.622153
_cell_angle_beta 93.058746
_cell_angle_gamma 76.606346
_cell_volume 732.126323
_symmetry_space_group_name_H-M "P -1"
_symmetry_group_IT_number 2
_symmetry_cell_setting 'triclinic'
loop_
_space_group_symop_operation_xyz
x,y,z
-x,-y,-z
loop_
_atom_site_type_symbol
_atom_site_label
_atom_site_fract_x
_atom_site_fract_y
_atom_site_fract_z
Si Si1 0.140187 0.540643 0.731251
Si Si2 0.417619 0.268261 0.771640
Si Si3 0.750624 0.702164 0.813703
Si Si4 0.306805 0.288975 0.440245
Si Si5 0.238234 0.719449 0.988055
Si Si6 0.252417 0.515662 0.937281
Si Si7 0.754077 0.271591 0.570674
Si Si8 0.287329 0.120656 0.276197
O O1 0.107686 0.430243 0.454052
O O2 0.288183 0.597899 0.774532
O O3 0.322976 0.502972 0.773259
O O4 0.844817 0.636477 0.968399
O O5 0.518502 0.309272 0.745059
O O6 0.351779 0.169009 0.503318
O O7 0.673973 0.230651 0.787452
O O8 0.742428 0.729524 0.735346
O O9 0.446925 0.727513 0.912127
O O10 0.930091 0.755695 0.006288
O O11 0.137283 0.420030 0.743635
O O12 0.616612 0.281898 0.462910
O O13 0.291729 0.195454 0.324033
O O14 0.500000 0.500000 0.000000
O O15 0.093054 0.646274 0.225799
O O16 0.960180 0.148301 0.333703
O O17 0.500000 0.000000 0.000000
#
# Coordination Sequence:
#
# PCOD9105154 Si02
#       8
#     2   2   2   2   2   2   2   2
#     4  11  21  38  57  95 138 179 225 257 318 399
#     4  11  22  38  64  96 127 173 225 275 328 388
#     4  11  26  38  61  96 140 184 220 264 321 393
#     4   9  23  39  59  96 127 179 207 271 333 398
#     4  12  23  39  62  93 138 183 228 263 313 395
#     4   9  17  35  56  89 134 165 202 256 329 402
#     4  10  20  39  63  93 129 168 215 272 337 399
#     4  11  24  44  68  94 125 169 228 286 337 395
#
# _framework density 21.854151000000002
#
# number of rings (size 3 to 8) (size 9 to 14) (size 15 to 20)
#    0.000    1.500    3.750    0.750    3.500    2.500 
#    9.000    0.000    0.000    1.500    0.000    0.000 
#    0.000    0.000    0.000    0.000    0.000    0.000 
#
# Total GULP energy -89102.778209 kJ/mol
# GULP energy per Si atom -5568.923638 kJ/mol
# Density = 2.180441 g / cm^3
# Si number density = 21.854151 Si / 1000 Ang^3
#
#
#
# Elastic Constant Matrix: (Units=GPa)
#
#
# Indices 1 2 3 4 5 6 
#
# 1 88.5865 20.5187 14.2690 -7.6373 -1.8179 -2.8439
# 2 20.5187 90.1536 1.7707 -12.2466 8.5566 -7.3307
# 3 14.2690 1.7707 56.9812 7.8298 -12.3579 -11.0158
# 4 -7.6373 -12.2466 7.8298 26.5268 -11.4440 10.7706
# 5 -1.8179 8.5566 -12.3579 -11.4440 21.1172 -8.8485
# 6 -2.8439 -7.3307 -11.0158 10.7706 -8.8485 37.3234
#
#
#
# Elastic Compliance Matrix: (Units=1/GPa)
#
#
# Indices 1 2 3 4 5 6 
#
# 1 0.012907 -0.002484 -0.003734 0.005230 0.002087 -0.001621
# 2 -0.002484 0.012561 -0.001168 0.003742 -0.003999 -0.000095
# 3 -0.003734 -0.001168 0.025698 -0.007320 0.016734 0.013150
# 4 0.005230 0.003742 -0.007320 0.056954 0.020205 -0.012672
# 5 0.002087 -0.003999 0.016734 0.020205 0.076901 0.016713
# 6 -0.001621 -0.000095 0.013150 -0.012672 0.016713 0.038151
#
#
# Mechanical properties :
#
#
# Convention : Reuss Voigt Hill
#
# Bulk Modulus (GPa) = 27.47731 34.31535 30.89633
# Shear Modulus (GPa) = 19.99405 30.27100 25.13252
#
# Velocity S-wave (km/s) = 3.02799 3.72578 3.39486
# Velocity P-wave (km/s) = 4.98250 5.85189 5.43461
#
# Compressibility (1/GPa) = 0.03639367
#
# Stress axis : x y z
#
# Youngs Moduli (GPa) = 77.47801 79.61448 38.91297
#
# Poissons Ratio (x) = 0.19774 0.14531
# Poissons Ratio (y) = 0.19243 0.04545
# Poissons Ratio (z) = 0.28933 0.09300
#
# Static dielectric constant tensor:
#      x y z
#    x 1.960240 0.001460 0.000950 
#    y 0.001460 1.878280 0.004690 
#    z 0.000950 0.004690 1.818970 
# 
# From -- ./inp_files/371476.got.cif
#   From: 2010.05.17/outbox.cif.g08.bks.cpg/sg2_186_cif.got.tgz:371476.got - 2010.06.03 11:33:40.
