data_PCOD9105333
_publ_section_title
;
Structure prediction by ZEFSAII (Michael W. Deem and Ramdas Pophale) SiO2 
 PCOD9105333
Probable space group: P -1
;
_chemical_formula_sum "Si O2"
_cell_formula_units_Z 14
_cell_length_a 15.907382
_cell_length_b 11.190373
_cell_length_c 17.997564
_cell_angle_alpha 19.284735
_cell_angle_beta 148.936926
_cell_angle_gamma 144.889942
_cell_volume 545.095999
_symmetry_space_group_name_H-M "P -1"
_symmetry_group_IT_number 2
_symmetry_cell_setting 'triclinic'
loop_
_space_group_symop_operation_xyz
x,y,z
-x,-y,-z
loop_
_atom_site_type_symbol
_atom_site_label
_atom_site_fract_x
_atom_site_fract_y
_atom_site_fract_z
Si Si1 0.502080 0.854404 0.171713
Si Si2 0.029855 0.656264 0.012946
Si Si3 0.957608 0.416738 0.242396
Si Si4 0.728413 0.960987 0.421140
Si Si5 0.262730 0.723952 0.368314
Si Si6 0.785088 0.697940 0.269608
Si Si7 0.449244 0.772608 0.737923
O O1 0.600010 0.000120 0.233996
O O2 0.608843 0.512444 0.439133
O O3 0.500000 0.000000 0.000000
O O4 0.320054 0.948724 0.000422
O O5 0.894578 0.562454 0.030042
O O6 0.174936 0.405674 0.298478
O O7 0.000000 0.500000 0.000000
O O8 0.060529 0.088728 0.775866
O O9 0.101306 0.706523 0.205861
O O10 0.000000 0.000000 0.500000
O O11 0.846761 0.318766 0.287511
O O12 0.650119 0.950783 0.449289
O O13 0.202064 0.517555 0.517756
O O14 0.385172 0.074193 0.267368
O O15 0.677192 0.433527 0.290919
O O16 0.500000 0.500000 0.000000
#
# Coordination Sequence:
#
# PCOD9105333 Si02
#       7
#     2   2   2   2   2   2   2
#     4  10  21  36  68  95 127 162 220 267 328 368
#     4  11  23  40  70  99 127 168 222 269 324 381
#     4  10  20  39  64  90 126 163 211 268 320 368
#     4  11  23  43  65  97 135 167 216 271 325 382
#     4  11  22  42  66  93 126 171 219 272 322 378
#     4  11  23  41  63  96 134 168 217 265 324 388
#     4  12  25  41  63  95 135 175 215 260 327 396
#
# _framework density 25.68355
#
# number of rings (size 3 to 8) (size 9 to 14) (size 15 to 20)
#    0.000    1.143    4.286    3.857    2.000    1.143 
#    0.000    5.714    0.000    0.000    0.000    0.000 
#    0.000    0.000    0.000    0.000    0.000    0.000 
#
# Total GULP energy -77997.949555 kJ/mol
# GULP energy per Si atom -5571.282111 kJ/mol
# Density = 2.562509 g / cm^3
# Si number density = 25.683550 Si / 1000 Ang^3
#
#
#
# Elastic Constant Matrix: (Units=GPa)
#
#
# Indices 1 2 3 4 5 6 
#
# 1 92.0718 26.2932 27.8582 -11.2126 -39.5230 0.7174
# 2 26.2932 114.5161 35.3085 -1.0401 -48.1042 -8.4156
# 3 27.8582 35.3085 60.9794 -5.1016 -21.9569 0.0512
# 4 -11.2126 -1.0401 -5.1016 36.5082 4.8848 -15.2438
# 5 -39.5230 -48.1042 -21.9569 4.8848 61.8717 -11.7540
# 6 0.7174 -8.4156 0.0512 -15.2438 -11.7540 37.6201
#
#
#
# Elastic Compliance Matrix: (Units=1/GPa)
#
#
# Indices 1 2 3 4 5 6 
#
# 1 0.017651 0.003551 -0.004885 0.006006 0.013160 0.007010
# 2 0.003551 0.016545 -0.005705 0.002692 0.014664 0.009313
# 3 -0.004885 -0.005705 0.022039 0.001096 0.000035 -0.000758
# 4 0.006006 0.002692 0.001096 0.035683 0.006740 0.017051
# 5 0.013160 0.014664 0.000035 0.006740 0.038851 0.017899
# 6 0.007010 0.009313 -0.000758 0.017051 0.017899 0.041034
#
#
# Mechanical properties :
#
#
# Convention : Reuss Voigt Hill
#
# Bulk Modulus (GPa) = 23.72050 49.60968 36.66509
# Shear Modulus (GPa) = 25.00869 39.07383 32.04126
#
# Velocity S-wave (km/s) = 3.12384 3.90469 3.53589
# Velocity P-wave (km/s) = 4.71878 6.29972 5.56567
#
# Compressibility (1/GPa) = 0.04215762
#
# Stress axis : x y z
#
# Youngs Moduli (GPa) = 56.65432 60.44260 45.37497
#
# Poissons Ratio (x) = -0.21465 0.22165
# Poissons Ratio (y) = -0.20120 0.25885
# Poissons Ratio (z) = 0.27675 0.34481
#
# Static dielectric constant tensor:
#      x y z
#    x 2.083480 0.161640 0.097310 
#    y 0.161640 1.984160 -0.036210 
#    z 0.097310 -0.036210 2.071960 
# 
# From -- ./inp_files/446765.got.cif
#   From: 2010.05.17/outbox.cif.g08.bks.cpg/sg2_224_cif.got.tgz:446765.got - 2010.06.03 11:33:40.
