data_PCOD9105458
_publ_section_title
;
Structure prediction by ZEFSAII (Michael W. Deem and Ramdas Pophale) SiO2 
 PCOD9105458
Probable space group: P -1
;
_chemical_formula_sum "Si O2"
_cell_formula_units_Z 16
_cell_length_a 17.257001
_cell_length_b 9.044021
_cell_length_c 5.211782
_cell_angle_alpha 104.399327
_cell_angle_beta 123.414981
_cell_angle_gamma 72.768111
_cell_volume 644.742450
_symmetry_space_group_name_H-M "P -1"
_symmetry_group_IT_number 2
_symmetry_cell_setting 'triclinic'
loop_
_space_group_symop_operation_xyz
x,y,z
-x,-y,-z
loop_
_atom_site_type_symbol
_atom_site_label
_atom_site_fract_x
_atom_site_fract_y
_atom_site_fract_z
Si Si1 0.559404 0.180378 0.369266
Si Si2 0.466448 0.672969 0.119154
Si Si3 0.813183 0.937673 0.429314
Si Si4 0.866207 0.249906 0.486199
Si Si5 0.694235 0.892705 0.683541
Si Si6 0.950537 0.656809 0.332853
Si Si7 0.286687 0.668327 0.106012
Si Si8 0.231260 0.441761 0.265300
O O1 0.519608 0.205851 0.023910
O O2 0.598094 0.013751 0.494810
O O3 0.496347 0.285224 0.515364
O O4 0.654641 0.253839 0.547353
O O5 0.356696 0.679581 0.001788
O O6 0.500000 0.500000 0.000000
O O7 0.766123 0.928551 0.613036
O O8 0.898268 0.790369 0.484622
O O9 0.853295 0.094024 0.532990
O O10 0.735635 0.924865 0.054591
O O11 0.817866 0.243618 0.116201
O O12 0.803063 0.406232 0.559740
O O13 0.971619 0.277124 0.658559
O O14 0.696444 0.709394 0.571457
O O15 0.000000 0.500000 0.500000
O O16 0.865636 0.615955 0.993595
O O17 0.274713 0.502016 0.114070
#
# Coordination Sequence:
#
# PCOD9105458 Si02
#       8
#     2   2   2   2   2   2   2   2
#     4  10  20  39  64  96 122 163 199 257 303 371
#     4  10  21  38  67 100 127 155 202 253 311 369
#     4  11  24  40  62  87 121 168 217 269 311 360
#     4  12  22  41  60  90 122 166 223 260 314 366
#     4  11  22  41  62  91 125 162 213 258 314 371
#     4  11  23  41  57  87 127 171 214 268 319 365
#     4  10  21  36  64  89 122 160 207 254 306 365
#     4  11  24  38  62  88 125 170 213 262 314 370
#
# _framework density 24.816109000000001
#
# number of rings (size 3 to 8) (size 9 to 14) (size 15 to 20)
#    0.750    0.500    2.500    4.875    1.750    1.000 
#    0.000    3.750    0.000    1.500    0.000    0.000 
#    0.000    0.000    0.000    0.000    0.000    0.000 
#
# Total GULP energy -89449.426058 kJ/mol
# GULP energy per Si atom -5590.589129 kJ/mol
# Density = 2.475963 g / cm^3
# Si number density = 24.816109 Si / 1000 Ang^3
#
#
#
# Elastic Constant Matrix: (Units=GPa)
#
#
# Indices 1 2 3 4 5 6 
#
# 1 70.5479 23.7210 36.2780 2.1025 1.5888 1.9752
# 2 23.7210 138.2162 12.8282 -5.2671 -6.7740 0.6660
# 3 36.2780 12.8282 79.8384 -3.4025 -9.3305 10.7087
# 4 2.1025 -5.2671 -3.4025 39.9612 6.6125 -5.5408
# 5 1.5888 -6.7740 -9.3305 6.6125 39.9140 1.8630
# 6 1.9752 0.6660 10.7087 -5.5408 1.8630 33.2801
#
#
#
# Elastic Compliance Matrix: (Units=1/GPa)
#
#
# Indices 1 2 3 4 5 6 
#
# 1 0.019967 -0.002786 -0.009314 -0.001414 -0.003296 0.001817
# 2 -0.002786 0.007796 0.000205 0.000978 0.001318 0.000032
# 3 -0.009314 0.000205 0.018036 0.000506 0.004792 -0.005439
# 4 -0.001414 0.000978 0.000506 0.026613 -0.004282 0.004572
# 5 -0.003296 0.001318 0.004792 -0.004282 0.027407 -0.003620
# 6 0.001817 0.000032 -0.005439 0.004572 -0.003620 0.032653
#
#
# Mechanical properties :
#
#
# Convention : Reuss Voigt Hill
#
# Bulk Modulus (GPa) = 45.43985 48.25077 46.84531
# Shear Modulus (GPa) = 30.56247 37.01608 33.78928
#
# Velocity S-wave (km/s) = 3.51316 3.86633 3.69397
# Velocity P-wave (km/s) = 5.89973 6.27829 6.09195
#
# Compressibility (1/GPa) = 0.02200712
#
# Stress axis : x y z
#
# Youngs Moduli (GPa) = 50.08316 128.27157 55.44559
#
# Poissons Ratio (x) = 0.35742 0.51643
# Poissons Ratio (y) = 0.13955 -0.01136
# Poissons Ratio (z) = 0.46648 -0.02628
#
# Static dielectric constant tensor:
#      x y z
#    x 1.948590 -0.024990 -0.019290 
#    y -0.024990 1.998790 0.041120 
#    z -0.019290 0.041120 2.064500 
# 
# From -- ./inp_files/107236.got.cif
#   From: 2010.05.17/outbox.cif.g08.bks.cpg/sg2_54_cif.got.tgz:107236.got - 2010.06.03 11:33:40.
