data_PCOD9105105
_publ_section_title
;
Structure prediction by ZEFSAII (Michael W. Deem and Ramdas Pophale) SiO2 
 PCOD9105105
Probable space group: P -1
;
_chemical_formula_sum "Si O2"
_cell_formula_units_Z 16
_cell_length_a 11.448975
_cell_length_b 14.486675
_cell_length_c 15.619756
_cell_angle_alpha 120.899412
_cell_angle_beta 38.820309
_cell_angle_gamma 149.903740
_cell_volume 700.157164
_symmetry_space_group_name_H-M "P -1"
_symmetry_group_IT_number 2
_symmetry_cell_setting 'triclinic'
loop_
_space_group_symop_operation_xyz
x,y,z
-x,-y,-z
loop_
_atom_site_type_symbol
_atom_site_label
_atom_site_fract_x
_atom_site_fract_y
_atom_site_fract_z
Si Si1 0.853815 0.647666 0.310249
Si Si2 0.790990 0.390934 0.158607
Si Si3 0.347933 0.120772 0.907629
Si Si4 0.967958 0.903409 0.619829
Si Si5 0.454390 0.507527 0.301367
Si Si6 0.842304 0.906033 0.228958
Si Si7 0.495492 0.049791 0.250913
Si Si8 0.803703 0.336951 0.609319
O O1 0.500000 0.500000 0.500000
O O2 0.918812 0.552544 0.222756
O O3 0.746492 0.627070 0.265734
O O4 0.203289 0.880548 0.261171
O O5 0.353084 0.198637 0.299682
O O6 0.803213 0.282741 0.147096
O O7 0.000000 0.500000 0.000000
O O8 0.366818 0.000915 0.827606
O O9 0.705401 0.341914 0.758063
O O10 0.253191 0.103021 0.050306
O O11 0.000000 0.000000 0.000000
O O12 0.734990 0.699947 0.713247
O O13 0.161763 0.077587 0.659968
O O14 0.267476 0.996415 0.431230
O O15 0.651901 0.694220 0.217606
O O16 0.090402 0.386266 0.488267
O O17 0.597013 0.876611 0.309709
O O18 0.000000 0.500000 0.500000
#
# Coordination Sequence:
#
# PCOD9105105 Si02
#       8
#     2   2   2   2   2   2   2   2
#     4  11  22  40  67  94 131 176 218 263 328 393
#     4  11  27  42  61 101 139 168 225 273 324 392
#     4  10  22  43  65  95 126 172 217 270 328 383
#     4  11  23  41  62  97 129 168 219 263 316 400
#     4  10  20  39  63  91 127 164 214 260 319 384
#     4  10  23  37  67  89 131 164 212 269 327 371
#     4  12  24  43  70  91 136 179 216 270 328 390
#     4   9  18  40  66  92 120 166 213 266 315 383
#
# _framework density 22.852011999999998
#
# number of rings (size 3 to 8) (size 9 to 14) (size 15 to 20)
#    0.000    1.500    3.750    1.125    7.000    1.000 
#    0.000    0.000    0.000    5.250    0.000    0.000 
#    0.000    0.000    0.000    0.000    0.000    0.000 
#
# Total GULP energy -89205.860559 kJ/mol
# GULP energy per Si atom -5575.366285 kJ/mol
# Density = 2.280000 g / cm^3
# Si number density = 22.852012 Si / 1000 Ang^3
#
#
#
# Elastic Constant Matrix: (Units=GPa)
#
#
# Indices 1 2 3 4 5 6 
#
# 1 74.8879 10.9418 19.2745 -2.7191 -11.1832 -17.4985
# 2 10.9418 84.7391 21.5874 8.1074 10.7498 -21.0790
# 3 19.2745 21.5874 125.0506 6.4163 8.2006 -10.9359
# 4 -2.7191 8.1074 6.4163 26.2827 -1.3642 2.5239
# 5 -11.1832 10.7498 8.2006 -1.3642 38.9437 -4.6671
# 6 -17.4985 -21.0790 -10.9359 2.5239 -4.6671 26.0463
#
#
#
# Elastic Compliance Matrix: (Units=1/GPa)
#
#
# Indices 1 2 3 4 5 6 
#
# 1 0.017914 0.000328 -0.002267 0.001475 0.007078 0.012474
# 2 0.000328 0.016217 -0.001227 -0.006054 -0.002788 0.012917
# 3 -0.002267 -0.001227 0.008906 -0.002243 -0.002139 0.001057
# 4 0.001475 -0.006054 -0.002243 0.041573 0.003024 -0.008337
# 5 0.007078 -0.002788 -0.002139 0.003024 0.029834 0.006653
# 6 0.012474 0.012917 0.001057 -0.008337 0.006653 0.059671
#
#
# Mechanical properties :
#
#
# Convention : Reuss Voigt Hill
#
# Bulk Modulus (GPa) = 27.24347 43.14278 35.19312
# Shear Modulus (GPa) = 25.94961 33.77947 29.86454
#
# Velocity S-wave (km/s) = 3.37345 3.84889 3.61898
# Velocity P-wave (km/s) = 5.20779 6.21869 5.73556
#
# Compressibility (1/GPa) = 0.03670604
#
# Stress axis : x y z
#
# Youngs Moduli (GPa) = 55.82233 61.66327 112.28630
#
# Poissons Ratio (x) = -0.02025 0.25452
# Poissons Ratio (y) = -0.01833 0.13779
# Poissons Ratio (z) = 0.12653 0.07567
#
# Static dielectric constant tensor:
#      x y z
#    x 1.916530 -0.044480 0.000690 
#    y -0.044480 1.879540 -0.039330 
#    z 0.000690 -0.039330 1.914230 
# 
# From -- ./inp_files/522393.got.cif
#   From: 2010.05.17/outbox.cif.g08.bks.cpg/sg2_262_cif.got.tgz:522393.got - 2010.06.03 11:33:40.
