data_PCOD9105362
_publ_section_title
;
Structure prediction by ZEFSAII (Michael W. Deem and Ramdas Pophale) SiO2 
 PCOD9105362
Probable space group: P -1
;
_chemical_formula_sum "Si O2"
_cell_formula_units_Z 12
_cell_length_a 16.413317
_cell_length_b 5.332909
_cell_length_c 17.231759
_cell_angle_alpha 68.689223
_cell_angle_beta 25.194436
_cell_angle_gamma 85.956246
_cell_volume 453.852609
_symmetry_space_group_name_H-M "P -1"
_symmetry_group_IT_number 2
_symmetry_cell_setting 'triclinic'
loop_
_space_group_symop_operation_xyz
x,y,z
-x,-y,-z
loop_
_atom_site_type_symbol
_atom_site_label
_atom_site_fract_x
_atom_site_fract_y
_atom_site_fract_z
Si Si1 0.540598 0.532861 0.203634
Si Si2 0.067754 0.749294 0.760566
Si Si3 0.979272 0.300135 0.463400
Si Si4 0.538184 0.295319 0.598163
Si Si5 0.792252 0.001102 0.219876
Si Si6 0.526071 0.341450 0.071987
O O1 0.574297 0.796415 0.208931
O O2 0.280732 0.150057 0.498147
O O3 0.517063 0.530401 0.131861
O O4 0.795024 0.591336 0.987057
O O5 0.184725 0.577084 0.650596
O O6 0.082186 0.745042 0.842380
O O7 0.000000 0.500000 0.500000
O O8 0.209880 0.567596 0.177113
O O9 0.000000 0.000000 0.500000
O O10 0.710363 0.075946 0.678806
O O11 0.579307 0.629758 0.490549
O O12 0.363287 0.002469 0.715496
O O13 0.000000 0.000000 0.000000
O O14 0.500000 0.500000 0.000000
#
# Coordination Sequence:
#
# PCOD9105362 Si02
#       6
#     2   2   2   2   2   2
#     4  11  24  44  62  95 137 168 226 276 335 410
#     4  11  24  40  65  96 132 175 218 273 340 398
#     4  10  21  42  70 100 133 171 228 288 347 416
#     4  10  23  40  62  94 131 175 217 275 334 389
#     4  10  20  39  64  91 130 171 224 272 318 410
#     4  10  22  44  69  97 132 178 227 286 347 416
#
# _framework density 26.440301000000002
#
# number of rings (size 3 to 8) (size 9 to 14) (size 15 to 20)
#    0.000    1.667    1.667    2.000    2.333    0.667 
#   18.000    0.000    0.000    0.000    0.000    0.000 
#    0.000    0.000    0.000    0.000    0.000    0.000 
#
# Total GULP energy -67124.791675 kJ/mol
# GULP energy per Si atom -5593.732640 kJ/mol
# Density = 2.638012 g / cm^3
# Si number density = 26.440301 Si / 1000 Ang^3
#
#
#
# Elastic Constant Matrix: (Units=GPa)
#
#
# Indices 1 2 3 4 5 6 
#
# 1 154.0163 47.2008 44.6696 19.1064 21.0988 45.9812
# 2 47.2008 114.3014 37.0632 28.5285 3.2535 39.7610
# 3 44.6696 37.0632 172.6611 11.7722 -10.5022 16.4101
# 4 19.1064 28.5285 11.7722 54.8032 13.7730 9.0621
# 5 21.0988 3.2535 -10.5022 13.7730 43.7703 13.0087
# 6 45.9812 39.7610 16.4101 9.0621 13.0087 42.3236
#
#
#
# Elastic Compliance Matrix: (Units=1/GPa)
#
#
# Indices 1 2 3 4 5 6 
#
# 1 0.010323 -0.000010 -0.001821 -0.001057 -0.002230 -0.009588
# 2 -0.000010 0.015678 -0.001244 -0.006763 0.004919 -0.014300
# 3 -0.001821 -0.001244 0.006787 -0.000880 0.002935 -0.000199
# 4 -0.001057 -0.006763 -0.000880 0.023499 -0.008176 0.005324
# 5 -0.002230 0.004919 0.002935 -0.008176 0.030049 -0.010822
# 6 -0.009588 -0.014300 -0.000199 0.005324 -0.010822 0.049742
#
#
# Mechanical properties :
#
#
# Convention : Reuss Voigt Hill
#
# Bulk Modulus (GPa) = 37.53741 77.64956 57.59349
# Shear Modulus (GPa) = 33.08893 48.98242 41.03568
#
# Velocity S-wave (km/s) = 3.54143 4.30881 3.94383
# Velocity P-wave (km/s) = 5.56329 7.36112 6.52443
#
# Compressibility (1/GPa) = 0.02664009
#
# Stress axis : x y z
#
# Youngs Moduli (GPa) = 96.86999 63.78165 147.33770
#
# Poissons Ratio (x) = 0.00063 0.26829
# Poissons Ratio (y) = 0.00096 0.18322
# Poissons Ratio (z) = 0.17639 0.07932
#
# Static dielectric constant tensor:
#      x y z
#    x 1.981860 0.043290 -0.011850 
#    y 0.043290 2.110740 -0.102080 
#    z -0.011850 -0.102080 2.197460 
# 
# From -- ./inp_files/3455.got.cif
#   From: 2010.05.17/outbox.cif.g08.bks.cpg/sg2_2_cif.got.tgz:3455.got - 2010.06.03 11:33:40.
