data_PCOD9105609
_publ_section_title
;
Structure prediction by ZEFSAII (Michael W. Deem and Ramdas Pophale) SiO2 
 PCOD9105609
Probable space group: P -1
;
_chemical_formula_sum "Si O2"
_cell_formula_units_Z 16
_cell_length_a 9.262809
_cell_length_b 12.755624
_cell_length_c 16.270798
_cell_angle_alpha 26.892955
_cell_angle_beta 76.361163
_cell_angle_gamma 87.934337
_cell_volume 775.812218
_symmetry_space_group_name_H-M "P -1"
_symmetry_group_IT_number 2
_symmetry_cell_setting 'triclinic'
loop_
_space_group_symop_operation_xyz
x,y,z
-x,-y,-z
loop_
_atom_site_type_symbol
_atom_site_label
_atom_site_fract_x
_atom_site_fract_y
_atom_site_fract_z
Si Si1 0.730132 0.597206 0.374708
Si Si2 0.077627 0.133367 0.480527
Si Si3 0.376268 0.620617 0.737943
Si Si4 0.901765 0.475460 0.291261
Si Si5 0.386817 0.601607 0.153479
Si Si6 0.704893 0.096310 0.310725
Si Si7 0.772260 0.091227 0.116196
Si Si8 0.451578 0.719116 0.239544
O O1 0.864116 0.577470 0.310610
O O2 0.597650 0.638338 0.303767
O O3 0.657828 0.353394 0.613646
O O4 0.778013 0.831007 0.267471
O O5 0.246866 0.380063 0.277088
O O6 0.953993 0.240868 0.461103
O O7 0.135691 0.945401 0.653666
O O8 0.000000 0.000000 0.500000
O O9 0.248398 0.592662 0.703035
O O10 0.438199 0.394862 0.892699
O O11 0.308800 0.676863 0.793575
O O12 0.541999 0.857877 0.525615
O O13 0.053017 0.692806 0.075817
O O14 0.362842 0.550858 0.289806
O O15 0.356000 0.849101 0.964287
O O16 0.715456 0.107524 0.204167
O O17 0.500000 0.000000 0.000000
#
# Coordination Sequence:
#
# PCOD9105609 Si02
#       8
#     2   2   2   2   2   2   2   2
#     4  11  23  41  69  98 133 179 216 276 338 389
#     4  10  20  40  62  88 127 177 213 273 337 385
#     4  10  20  39  65  92 123 173 228 281 311 399
#     4  11  23  40  64  99 131 170 228 273 327 402
#     4  10  21  39  63  95 131 169 220 272 330 392
#     4  10  22  40  64  89 129 175 225 268 341 387
#     4  11  24  42  63  93 140 179 213 274 340 401
#     4  11  22  41  70  99 134 172 223 277 334 397
#
# _framework density 20.623548
#
# number of rings (size 3 to 8) (size 9 to 14) (size 15 to 20)
#    0.000    1.500    3.750    1.875    1.750    1.000 
#    2.250    4.375    0.000    0.000    0.000    0.000 
#    0.000    0.000    0.000    0.000    0.000    0.000 
#
# Total GULP energy -89248.985019 kJ/mol
# GULP energy per Si atom -5578.061564 kJ/mol
# Density = 2.057661 g / cm^3
# Si number density = 20.623548 Si / 1000 Ang^3
#
#
#
# Elastic Constant Matrix: (Units=GPa)
#
#
# Indices 1 2 3 4 5 6 
#
# 1 116.2169 45.9078 21.8754 4.0191 17.3165 -6.3111
# 2 45.9078 139.3580 38.0155 21.4471 4.1151 -15.2970
# 3 21.8754 38.0155 54.8130 8.7726 8.5239 -1.5361
# 4 4.0191 21.4471 8.7726 29.1584 2.2551 1.1145
# 5 17.3165 4.1151 8.5239 2.2551 22.9282 -0.4024
# 6 -6.3111 -15.2970 -1.5361 1.1145 -0.4024 46.4052
#
#
#
# Elastic Compliance Matrix: (Units=1/GPa)
#
#
# Indices 1 2 3 4 5 6 
#
# 1 0.011271 -0.003415 -0.001243 0.001912 -0.007621 0.000254
# 2 -0.003415 0.011097 -0.005759 -0.006344 0.003408 0.003185
# 3 -0.001243 -0.005759 0.024119 -0.002275 -0.006792 -0.001273
# 4 0.001912 -0.006344 -0.002275 0.039758 -0.003421 -0.002891
# 5 -0.007621 0.003408 -0.006792 -0.003421 0.051627 0.000392
# 6 0.000254 0.003185 -0.001273 -0.002891 0.000392 0.022664
#
#
# Mechanical properties :
#
#
# Convention : Reuss Voigt Hill
#
# Bulk Modulus (GPa) = 38.98314 57.99838 48.49076
# Shear Modulus (GPa) = 26.32674 33.33765 29.83220
#
# Velocity S-wave (km/s) = 3.57674 4.02491 3.80743
# Velocity P-wave (km/s) = 6.00006 7.05573 6.54920
#
# Compressibility (1/GPa) = 0.02565212
#
# Stress axis : x y z
#
# Youngs Moduli (GPa) = 88.72470 90.11408 41.46138
#
# Poissons Ratio (x) = 0.30774 0.05155
# Poissons Ratio (y) = 0.30300 0.23877
# Poissons Ratio (z) = 0.11032 0.51895
#
# Static dielectric constant tensor:
#      x y z
#    x 1.742130 0.007030 0.010700 
#    y 0.007030 1.785870 -0.061240 
#    z 0.010700 -0.061240 1.775970 
# 
# From -- ./inp_files/499695.got.cif
#   From: 2010.05.17/outbox.cif.g08.bks.cpg/sg2_250_cif.got.tgz:499695.got - 2010.06.03 11:33:40.
