data_PCOD9105719
_publ_section_title
;
Structure prediction by ZEFSAII (Michael W. Deem and Ramdas Pophale) SiO2 
 PCOD9105719
Probable space group: P -1
;
_chemical_formula_sum "Si O2"
_cell_formula_units_Z 14
_cell_length_a 7.803208
_cell_length_b 13.537980
_cell_length_c 22.020747
_cell_angle_alpha 20.273708
_cell_angle_beta 45.449865
_cell_angle_gamma 54.117473
_cell_volume 549.507409
_symmetry_space_group_name_H-M "P -1"
_symmetry_group_IT_number 2
_symmetry_cell_setting 'triclinic'
loop_
_space_group_symop_operation_xyz
x,y,z
-x,-y,-z
loop_
_atom_site_type_symbol
_atom_site_label
_atom_site_fract_x
_atom_site_fract_y
_atom_site_fract_z
Si Si1 0.857806 0.250751 0.312827
Si Si2 0.181281 0.818353 0.110898
Si Si3 0.647581 0.299900 0.743147
Si Si4 0.165260 0.835680 0.967414
Si Si5 0.704799 0.875609 0.792176
Si Si6 0.991912 0.914476 0.290408
Si Si7 0.374684 0.753005 0.760562
O O1 0.727165 0.292658 0.257092
O O2 0.975993 0.566285 0.133727
O O3 0.096295 0.131401 0.305428
O O4 0.640666 0.009823 0.542944
O O5 0.304784 0.649363 0.226276
O O6 0.178793 0.715775 0.102091
O O7 0.370602 0.154170 0.873659
O O8 0.924706 0.871146 0.167239
O O9 0.784501 0.609849 0.500840
O O10 0.794476 0.059524 0.827352
O O11 0.438143 0.925059 0.816312
O O12 0.624752 0.551363 0.031956
O O13 0.859067 0.099484 0.676048
O O14 0.837033 0.142201 0.210991
#
# Coordination Sequence:
#
# PCOD9105719 Si02
#       7
#     2   2   2   2   2   2   2
#     4  10  22  41  63  93 126 167 207 265 308 372
#     4  10  23  40  64  94 119 175 209 260 312 373
#     4  10  21  40  69  89 121 166 216 267 304 360
#     4  11  23  39  61  92 139 160 209 254 321 381
#     4  11  23  41  64  96 129 167 205 262 313 386
#     4  10  20  39  65  96 122 154 219 268 303 368
#     4  10  23  40  68  96 121 166 217 259 312 372
#
# _framework density 25.477366
#
# number of rings (size 3 to 8) (size 9 to 14) (size 15 to 20)
#    0.000    1.714    1.429    3.000    4.000    4.000 
#    0.000    2.143    3.143    0.000    0.000    0.000 
#    0.000    0.000    0.000    0.000    0.000    0.000 
#
# Total GULP energy -78333.030625 kJ/mol
# GULP energy per Si atom -5595.216473 kJ/mol
# Density = 2.541938 g / cm^3
# Si number density = 25.477366 Si / 1000 Ang^3
#
#
#
# Elastic Constant Matrix: (Units=GPa)
#
#
# Indices 1 2 3 4 5 6 
#
# 1 82.0583 29.9223 11.3294 -1.0490 -20.7610 13.7411
# 2 29.9223 111.6185 18.0929 9.6715 -9.8217 -10.8896
# 3 11.3294 18.0929 98.6249 17.8143 -27.8652 -13.4029
# 4 -1.0490 9.6715 17.8143 32.7435 0.0291 -12.5855
# 5 -20.7610 -9.8217 -27.8652 0.0291 26.4578 2.1765
# 6 13.7411 -10.8896 -13.4029 -12.5855 2.1765 42.2489
#
#
#
# Elastic Compliance Matrix: (Units=1/GPa)
#
#
# Indices 1 2 3 4 5 6 
#
# 1 0.019113 -0.004657 0.002810 -0.002709 0.016906 -0.008203
# 2 -0.004657 0.010753 -0.000969 -0.001410 -0.000979 0.003609
# 3 0.002810 -0.000969 0.017351 -0.008821 0.020073 0.000679
# 4 -0.002709 -0.001410 -0.008821 0.039591 -0.012819 0.010173
# 5 0.016906 -0.000979 0.020073 -0.012819 0.072424 -0.006932
# 6 -0.008203 0.003609 0.000679 0.010173 -0.006932 0.030871
#
#
# Mechanical properties :
#
#
# Convention : Reuss Voigt Hill
#
# Bulk Modulus (GPa) = 24.04733 45.66567 34.85650
# Shear Modulus (GPa) = 23.85530 35.82053 29.83792
#
# Velocity S-wave (km/s) = 3.06328 3.75370 3.42593
# Velocity P-wave (km/s) = 4.68730 6.06217 5.41852
#
# Compressibility (1/GPa) = 0.04158465
#
# Stress axis : x y z
#
# Youngs Moduli (GPa) = 52.32029 92.99886 57.63201
#
# Poissons Ratio (x) = 0.43311 -0.16194
# Poissons Ratio (y) = 0.24367 0.05584
# Poissons Ratio (z) = -0.14701 0.09011
#
# Static dielectric constant tensor:
#      x y z
#    x 2.080980 -0.034340 0.034050 
#    y -0.034340 2.045320 -0.010810 
#    z 0.034050 -0.010810 1.975820 
# 
# From -- ./inp_files/320648.got.cif
#   From: 2010.05.17/outbox.cif.g08.bks.cpg/sg2_161_cif.got.tgz:320648.got - 2010.06.03 11:33:40.
