data_PCOD9105894
_publ_section_title
;
Structure prediction by ZEFSAII (Michael W. Deem and Ramdas Pophale) SiO2 
 PCOD9105894
Probable space group: P -1
;
_chemical_formula_sum "Si O2"
_cell_formula_units_Z 16
_cell_length_a 5.172033
_cell_length_b 8.684645
_cell_length_c 19.783053
_cell_angle_alpha 77.915979
_cell_angle_beta 96.475672
_cell_angle_gamma 121.339488
_cell_volume 742.129150
_symmetry_space_group_name_H-M "P -1"
_symmetry_group_IT_number 2
_symmetry_cell_setting 'triclinic'
loop_
_space_group_symop_operation_xyz
x,y,z
-x,-y,-z
loop_
_atom_site_type_symbol
_atom_site_label
_atom_site_fract_x
_atom_site_fract_y
_atom_site_fract_z
Si Si1 0.892267 0.194379 0.349199
Si Si2 0.780231 0.368372 0.095500
Si Si3 0.861249 0.128198 0.499648
Si Si4 0.171735 0.942663 0.350036
Si Si5 0.797340 0.963923 0.900185
Si Si6 0.004434 0.743139 0.018654
Si Si7 0.190035 0.242043 0.779077
Si Si8 0.896522 0.481124 0.780240
O O1 0.943942 0.254977 0.424376
O O2 0.534907 0.044735 0.343700
O O3 0.083636 0.096915 0.347710
O O4 0.992002 0.360346 0.286179
O O5 0.495783 0.187606 0.133920
O O6 0.765116 0.550009 0.063078
O O7 0.052934 0.436168 0.150203
O O8 0.829662 0.302760 0.030525
O O9 0.500000 0.000000 0.500000
O O10 0.933871 0.187668 0.574283
O O11 0.000000 0.000000 0.500000
O O12 0.993250 0.837266 0.288173
O O13 0.777243 0.116136 0.930708
O O14 0.066186 0.080236 0.845573
O O15 0.857545 0.842673 0.965877
O O16 0.546522 0.334107 0.772282
O O17 0.101917 0.389182 0.788223
#
# Coordination Sequence:
#
# PCOD9105894 Si02
#       8
#     2   2   2   2   2   2   2   2
#     4  10  20  39  66  93 125 168 218 262 321 380
#     4  11  24  42  68  92 128 167 214 264 331 381
#     4   8  16  32  60  94 122 158 212 268 308 377
#     4  10  20  39  66  93 125 168 218 262 321 380
#     4  11  24  42  68  92 128 167 214 264 331 381
#     4  10  24  42  66  98 124 158 220 266 326 388
#     4  12  27  43  62  93 134 169 215 267 319 380
#     4  12  27  43  62  93 134 169 215 267 319 380
#
# _framework density 21.55959
#
# number of rings (size 3 to 8) (size 9 to 14) (size 15 to 20)
#    0.000    1.500    1.250    3.000    5.250    4.000 
#    0.000    1.250    0.000    0.000    0.000    0.000 
#    0.000    0.000    0.000    0.000    0.000    0.000 
#
# Total GULP energy -89354.713659 kJ/mol
# GULP energy per Si atom -5584.669604 kJ/mol
# Density = 2.151052 g / cm^3
# Si number density = 21.559590 Si / 1000 Ang^3
#
#
#
# Elastic Constant Matrix: (Units=GPa)
#
#
# Indices 1 2 3 4 5 6 
#
# 1 52.5961 -6.7256 -8.0863 -5.1779 1.7401 -1.5831
# 2 -6.7256 81.0435 40.6436 -5.5889 1.9413 1.6685
# 3 -8.0863 40.6436 146.3198 -0.9342 7.0566 5.5811
# 4 -5.1779 -5.5889 -0.9342 26.6912 6.5340 1.8620
# 5 1.7401 1.9413 7.0566 6.5340 29.5890 2.5447
# 6 -1.5831 1.6685 5.5811 1.8620 2.5447 29.1102
#
#
#
# Elastic Compliance Matrix: (Units=1/GPa)
#
#
# Indices 1 2 3 4 5 6 
#
# 1 0.019925 0.001646 0.000771 0.004819 -0.002593 0.000760
# 2 0.001646 0.014708 -0.003924 0.003488 -0.000884 -0.000147
# 3 0.000771 -0.003924 0.008090 0.000092 -0.001639 -0.001147
# 4 0.004819 0.003488 0.000092 0.041600 -0.009567 -0.001780
# 5 -0.002593 -0.000884 -0.001639 -0.009567 0.036715 -0.002374
# 6 0.000760 -0.000147 -0.001147 -0.001780 -0.002374 0.034943
#
#
# Mechanical properties :
#
#
# Convention : Reuss Voigt Hill
#
# Bulk Modulus (GPa) = 25.18364 36.84696 31.01530
# Shear Modulus (GPa) = 29.03049 34.01994 31.52521
#
# Velocity S-wave (km/s) = 3.67348 3.97665 3.82807
# Velocity P-wave (km/s) = 5.44967 6.18165 5.82717
#
# Compressibility (1/GPa) = 0.03970832
#
# Stress axis : x y z
#
# Youngs Moduli (GPa) = 50.18868 67.98872 123.60424
#
# Poissons Ratio (x) = -0.11189 -0.09528
# Poissons Ratio (y) = -0.08260 0.48504
# Poissons Ratio (z) = -0.03869 0.26680
#
# Static dielectric constant tensor:
#      x y z
#    x 1.787550 0.010770 -0.002580 
#    y 0.010770 1.791530 0.015890 
#    z -0.002580 0.015890 1.819640 
# 
# From -- ./inp_files/548041.got.cif
#   From: 2010.05.17/outbox.cif.g08.bks.cpg/sg2_275_cif.got.tgz:548041.got - 2010.06.03 11:33:40.
