data_PCOD9105783
_publ_section_title
;
Structure prediction by ZEFSAII (Michael W. Deem and Ramdas Pophale) SiO2 
 PCOD9105783
Probable space group: P -1
;
_chemical_formula_sum "Si O2"
_cell_formula_units_Z 16
_cell_length_a 18.842851
_cell_length_b 27.526754
_cell_length_c 14.734438
_cell_angle_alpha 160.677637
_cell_angle_beta 149.578645
_cell_angle_gamma 18.322584
_cell_volume 752.594280
_symmetry_space_group_name_H-M "P -1"
_symmetry_group_IT_number 2
_symmetry_cell_setting 'triclinic'
loop_
_space_group_symop_operation_xyz
x,y,z
-x,-y,-z
loop_
_atom_site_type_symbol
_atom_site_label
_atom_site_fract_x
_atom_site_fract_y
_atom_site_fract_z
Si Si1 0.548034 0.115589 0.628004
Si Si2 0.813265 0.630434 0.103937
Si Si3 0.981626 0.186760 0.287120
Si Si4 0.252689 0.631871 0.468294
Si Si5 0.135096 0.479371 0.536129
Si Si6 0.345444 0.877002 0.445216
Si Si7 0.096646 0.812303 0.998344
Si Si8 0.005990 0.595519 0.918381
O O1 0.649736 0.069648 0.560107
O O2 0.277504 0.398548 0.836582
O O3 0.572528 0.920021 0.324709
O O4 0.746584 0.995937 0.710240
O O5 0.950773 0.553520 0.212605
O O6 0.756333 0.510006 0.846923
O O7 0.000000 0.500000 0.000000
O O8 0.808779 0.376979 0.514576
O O9 0.871517 0.286773 0.241550
O O10 0.000000 0.000000 0.000000
O O11 0.500000 0.500000 0.500000
O O12 0.081537 0.902726 0.718269
O O13 0.401289 0.294546 0.535155
O O14 0.021527 0.736267 0.841696
O O15 0.125576 0.382731 0.267294
O O16 0.000000 0.500000 0.500000
O O17 0.299591 0.740709 0.143622
O O18 0.148698 0.134991 0.741343
#
# Coordination Sequence:
#
# PCOD9105783 Si02
#       8
#     2   2   2   2   2   2   2   2
#     4  12  23  42  72 104 146 182 230 287 357 422
#     4  12  22  42  70 108 145 181 226 285 360 438
#     4  10  20  39  66 104 140 181 222 276 362 434
#     4  11  24  38  66 109 149 176 225 279 355 440
#     4  12  28  48  74 102 135 189 254 296 342 405
#     4  12  24  50  71 101 140 188 241 294 337 421
#     4  11  24  46  71  98 146 187 227 294 357 409
#     4  12  26  45  74 100 143 187 232 294 357 407
#
# _framework density 21.259795
#
# number of rings (size 3 to 8) (size 9 to 14) (size 15 to 20)
#    0.000    0.500    7.500    1.875    5.250    0.000 
#    0.000    1.875    0.000    0.000    0.000    0.000 
#    0.000    0.000    0.000    0.000    0.000    0.000 
#
# Total GULP energy -89145.701904 kJ/mol
# GULP energy per Si atom -5571.606369 kJ/mol
# Density = 2.121141 g / cm^3
# Si number density = 21.259795 Si / 1000 Ang^3
#
#
#
# Elastic Constant Matrix: (Units=GPa)
#
#
# Indices 1 2 3 4 5 6 
#
# 1 113.8772 45.6007 54.7677 -9.4185 6.8863 2.7937
# 2 45.6007 140.9447 51.7772 -21.9471 -10.1138 -10.6516
# 3 54.7677 51.7772 116.8106 -17.9806 6.2610 0.1769
# 4 -9.4185 -21.9471 -17.9806 38.4520 3.4070 -4.3695
# 5 6.8863 -10.1138 6.2610 3.4070 36.4515 -2.1667
# 6 2.7937 -10.6516 0.1769 -4.3695 -2.1667 34.1831
#
#
#
# Elastic Compliance Matrix: (Units=1/GPa)
#
#
# Indices 1 2 3 4 5 6 
#
# 1 0.012156 -0.002722 -0.004471 -0.000693 -0.002341 -0.002055
# 2 -0.002722 0.010223 -0.002848 0.003981 0.003716 0.004167
# 3 -0.004471 -0.002848 0.012564 0.003334 -0.002434 -0.000315
# 4 -0.000693 0.003981 0.003334 0.030408 -0.001879 0.005048
# 5 -0.002341 0.003716 -0.002434 -0.001879 0.029679 0.003003
# 6 -0.002055 0.004167 -0.000315 0.005048 0.003003 0.031558
#
#
# Mechanical properties :
#
#
# Convention : Reuss Voigt Hill
#
# Bulk Modulus (GPa) = 67.28871 75.10263 71.19567
# Shear Modulus (GPa) = 32.97624 36.44979 34.71302
#
# Velocity S-wave (km/s) = 3.94268 4.14514 4.04518
# Velocity P-wave (km/s) = 7.24194 7.63625 7.44171
#
# Compressibility (1/GPa) = 0.01486133
#
# Stress axis : x y z
#
# Youngs Moduli (GPa) = 82.26173 97.81614 79.59343
#
# Poissons Ratio (x) = 0.26622 0.35588
# Poissons Ratio (y) = 0.22389 0.22669
# Poissons Ratio (z) = 0.36781 0.27859
#
# Static dielectric constant tensor:
#      x y z
#    x 1.701720 0.045740 0.002290 
#    y 0.045740 1.867730 -0.054700 
#    z 0.002290 -0.054700 1.908460 
# 
# From -- ./inp_files/539413.got.cif
#   From: 2010.05.17/outbox.cif.g08.bks.cpg/sg2_270_cif.got.tgz:539413.got - 2010.06.03 11:33:40.
