data_PCOD9105234
_publ_section_title
;
Structure prediction by ZEFSAII (Michael W. Deem and Ramdas Pophale) SiO2 
 PCOD9105234
Probable space group: P -1
;
_chemical_formula_sum "Si O2"
_cell_formula_units_Z 14
_cell_length_a 11.856685
_cell_length_b 9.361346
_cell_length_c 5.651570
_cell_angle_alpha 95.996815
_cell_angle_beta 71.742607
_cell_angle_gamma 70.966422
_cell_volume 548.023723
_symmetry_space_group_name_H-M "P -1"
_symmetry_group_IT_number 2
_symmetry_cell_setting 'triclinic'
loop_
_space_group_symop_operation_xyz
x,y,z
-x,-y,-z
loop_
_atom_site_type_symbol
_atom_site_label
_atom_site_fract_x
_atom_site_fract_y
_atom_site_fract_z
Si Si1 0.638665 0.685787 0.542653
Si Si2 0.148053 0.031317 0.685102
Si Si3 0.396589 0.000204 0.782786
Si Si4 0.443413 0.312018 0.894048
Si Si5 0.114299 0.755172 0.947989
Si Si6 0.716881 0.182756 0.820475
Si Si7 0.075865 0.486853 0.694185
O O1 0.533259 0.863112 0.609848
O O2 0.622025 0.608772 0.292664
O O3 0.788548 0.657347 0.448281
O O4 0.601304 0.623566 0.801691
O O5 0.282228 0.040192 0.674545
O O6 0.129223 0.903743 0.846566
O O7 0.166448 0.950635 0.406665
O O8 0.024034 0.186169 0.823233
O O9 0.412329 0.153673 0.894974
O O10 0.344150 0.913989 0.997339
O O11 0.594442 0.275688 0.756834
O O12 0.117436 0.634112 0.724808
O O13 0.226327 0.708151 0.060138
O O14 0.000000 0.500000 0.500000
O O15 0.000000 0.500000 0.000000
#
# Coordination Sequence:
#
# PCOD9105234 Si02
#       7
#     2   2   2   2   2   2   2
#     4  11  23  43  65  98 137 172 232 277 345 393
#     4  10  21  41  68  98 139 174 232 282 354 392
#     4  10  22  36  65 105 136 175 225 288 341 398
#     4  11  23  39  68 106 140 176 227 287 337 405
#     4  10  25  43  65  99 137 186 229 284 339 415
#     4  10  20  39  64 101 139 177 224 280 351 404
#     4  12  30  51  71  99 138 190 235 279 340 418
#
# _framework density 25.546339
#
# number of rings (size 3 to 8) (size 9 to 14) (size 15 to 20)
#    0.000    1.429    1.429    3.429    8.000    0.000 
#    2.571    7.143    0.000    0.000    0.000    0.000 
#    0.000    0.000    0.000    0.000    0.000    0.000 
#
# Total GULP energy -78229.412827 kJ/mol
# GULP energy per Si atom -5587.815202 kJ/mol
# Density = 2.548819 g / cm^3
# Si number density = 25.546339 Si / 1000 Ang^3
#
#
#
# Elastic Constant Matrix: (Units=GPa)
#
#
# Indices 1 2 3 4 5 6 
#
# 1 175.0332 47.2749 68.4338 16.3539 20.8151 -12.8693
# 2 47.2749 64.3763 41.1773 22.5857 11.1874 -13.9685
# 3 68.4338 41.1773 142.5968 6.3409 7.2791 -13.9032
# 4 16.3539 22.5857 6.3409 32.0288 -4.9721 6.5413
# 5 20.8151 11.1874 7.2791 -4.9721 63.6868 2.0095
# 6 -12.8693 -13.9685 -13.9032 6.5413 2.0095 28.0252
#
#
#
# Elastic Compliance Matrix: (Units=1/GPa)
#
#
# Indices 1 2 3 4 5 6 
#
# 1 0.008099 -0.002539 -0.002755 -0.002504 -0.002139 0.001825
# 2 -0.002539 0.038095 -0.005807 -0.030321 -0.008279 0.022612
# 3 -0.002755 -0.005807 0.009758 0.003800 0.001111 -0.000285
# 4 -0.002504 -0.030321 0.003800 0.060905 0.011393 -0.029410
# 5 -0.002139 -0.008279 0.001111 0.011393 0.018888 -0.008571
# 6 0.001825 0.022612 -0.000285 -0.029410 -0.008571 0.055128
#
#
# Mechanical properties :
#
#
# Convention : Reuss Voigt Hill
#
# Bulk Modulus (GPa) = 29.62879 77.30869 53.46874
# Shear Modulus (GPa) = 22.28916 39.75617 31.02267
#
# Velocity S-wave (km/s) = 2.95701 3.94920 3.48856
# Velocity P-wave (km/s) = 4.82512 7.15001 6.09937
#
# Compressibility (1/GPa) = 0.03375095
#
# Stress axis : x y z
#
# Youngs Moduli (GPa) = 123.47871 26.25016 102.47745
#
# Poissons Ratio (x) = 0.06664 0.28233
# Poissons Ratio (y) = 0.31349 0.59504
# Poissons Ratio (z) = 0.34019 0.15242
#
# Static dielectric constant tensor:
#      x y z
#    x 2.017960 -0.000020 -0.002220 
#    y -0.000020 2.033110 -0.059810 
#    z -0.002220 -0.059810 2.112100 
# 
# From -- ./inp_files/67561.got.cif
#   From: 2010.05.17/outbox.cif.g08.bks.cpg/sg2_34_cif.got.tgz:67561.got - 2010.06.03 11:33:40.
