data_PCOD9105722
_publ_section_title
;
Structure prediction by ZEFSAII (Michael W. Deem and Ramdas Pophale) SiO2 
 PCOD9105722
Probable space group: P -1
;
_chemical_formula_sum "Si O2"
_cell_formula_units_Z 15
_cell_length_a 15.550555
_cell_length_b 12.398388
_cell_length_c 4.949730
_cell_angle_alpha 90.195260
_cell_angle_beta 75.773182
_cell_angle_gamma 142.098424
_cell_volume 538.394261
_symmetry_space_group_name_H-M "P -1"
_symmetry_group_IT_number 2
_symmetry_cell_setting 'triclinic'
loop_
_space_group_symop_operation_xyz
x,y,z
-x,-y,-z
loop_
_atom_site_type_symbol
_atom_site_label
_atom_site_fract_x
_atom_site_fract_y
_atom_site_fract_z
Si Si1 0.500000 0.500000 0.000000
Si Si2 0.938351 0.797870 0.291018
Si Si3 0.769670 0.758033 0.977998
Si Si4 0.468092 0.845625 0.634336
Si Si5 0.397577 0.243521 0.564625
Si Si6 0.936998 0.171205 0.301993
Si Si7 0.175079 0.652159 0.795800
Si Si8 0.749486 0.160389 0.758542
O O1 0.677253 0.624110 0.795868
O O2 0.479342 0.383441 0.261490
O O3 0.938484 0.759960 0.598749
O O4 0.813940 0.730057 0.196060
O O5 0.996573 0.757697 0.049317
O O6 0.081082 0.024074 0.192540
O O7 0.623919 0.698793 0.158348
O O8 0.521601 0.790467 0.440094
O O9 0.285981 0.666845 0.814932
O O10 0.500000 0.000000 0.500000
O O11 0.580464 0.956140 0.806897
O O12 0.220585 0.050500 0.616510
O O13 0.874567 0.208464 0.523056
O O14 0.210717 0.693929 0.449506
O O15 0.239117 0.814570 0.933153
O O16 0.000000 0.500000 0.000000
#
# Coordination Sequence:
#
# PCOD9105722 Si02
#       8
#     1   2   2   2   2   2   2   2
#     4  12  22  42  58  94 132 174 214 262 336 392
#     4  10  21  38  64  92 124 169 219 270 317 372
#     4  10  23  38  63  86 132 172 215 267 320 391
#     4   9  21  44  69  95 125 172 232 269 320 396
#     4  10  22  41  64  93 128 176 216 272 322 390
#     4  10  20  39  65  96 123 169 225 266 312 387
#     4  11  22  41  64  97 134 166 205 283 340 389
#     4  10  21  40  67  92 128 174 221 263 326 396
#
# _framework density 27.860620999999998
#
# number of rings (size 3 to 8) (size 9 to 14) (size 15 to 20)
#    0.000    1.867    1.333    2.000    1.867    2.667 
#    9.600    0.000    0.000    0.000    0.000    0.000 
#    0.000    0.000    0.000    0.000    0.000    0.000 
#
# Total GULP energy -83604.518521 kJ/mol
# GULP energy per Si atom -5573.634568 kJ/mol
# Density = 2.779721 g / cm^3
# Si number density = 27.860621 Si / 1000 Ang^3
#
#
#
# Elastic Constant Matrix: (Units=GPa)
#
#
# Indices 1 2 3 4 5 6 
#
# 1 144.9972 52.1839 34.2827 0.8472 -22.2572 34.7829
# 2 52.1839 116.9149 11.5213 -7.9679 -3.0819 39.9642
# 3 34.2827 11.5213 136.6302 26.9297 9.5324 -5.7377
# 4 0.8472 -7.9679 26.9297 39.1324 4.9581 -7.5369
# 5 -22.2572 -3.0819 9.5324 4.9581 42.8599 -1.1540
# 6 34.7829 39.9642 -5.7377 -7.5369 -1.1540 60.7419
#
#
#
# Elastic Compliance Matrix: (Units=1/GPa)
#
#
# Indices 1 2 3 4 5 6 
#
# 1 0.010554 -0.002779 -0.002936 -0.000369 0.005857 -0.004427
# 2 -0.002779 0.012142 -0.000945 0.002077 -0.000768 -0.006244
# 3 -0.002936 -0.000945 0.009607 -0.005896 -0.002982 0.002422
# 4 -0.000369 0.002077 -0.005896 0.030721 -0.002229 0.002057
# 5 0.005857 -0.000768 -0.002982 -0.002229 0.027162 -0.002891
# 6 -0.004427 -0.006244 0.002422 0.002057 -0.002891 0.023535
#
#
# Mechanical properties :
#
#
# Convention : Reuss Voigt Hill
#
# Bulk Modulus (GPa) = 52.67357 66.05756 59.36557
# Shear Modulus (GPa) = 37.49012 48.58379 43.03696
#
# Velocity S-wave (km/s) = 3.67226 4.18043 3.93456
# Velocity P-wave (km/s) = 6.07683 6.86024 6.48038
#
# Compressibility (1/GPa) = 0.01898485
#
# Stress axis : x y z
#
# Youngs Moduli (GPa) = 94.74881 82.35764 104.08934
#
# Poissons Ratio (x) = 0.22886 0.30558
# Poissons Ratio (y) = 0.26330 0.09833
# Poissons Ratio (z) = 0.27816 0.07780
#
# Static dielectric constant tensor:
#      x y z
#    x 2.380170 -0.032970 -0.118050 
#    y -0.032970 2.352860 -0.028790 
#    z -0.118050 -0.028790 2.167700 
# 
# From -- ./inp_files/46595.got.cif
#   From: 2010.05.17/outbox.cif.g08.bks.cpg/sg2_24_cif.got.tgz:46595.got - 2010.06.03 11:33:40.
