data_PCOD9105759
_publ_section_title
;
Structure prediction by ZEFSAII (Michael W. Deem and Ramdas Pophale) SiO2 
 PCOD9105759
Probable space group: P -1
;
_chemical_formula_sum "Si O2"
_cell_formula_units_Z 14
_cell_length_a 12.526676
_cell_length_b 15.754837
_cell_length_c 7.072093
_cell_angle_alpha 33.277106
_cell_angle_beta 53.555694
_cell_angle_gamma 42.538349
_cell_volume 516.846500
_symmetry_space_group_name_H-M "P -1"
_symmetry_group_IT_number 2
_symmetry_cell_setting 'triclinic'
loop_
_space_group_symop_operation_xyz
x,y,z
-x,-y,-z
loop_
_atom_site_type_symbol
_atom_site_label
_atom_site_fract_x
_atom_site_fract_y
_atom_site_fract_z
Si Si1 0.185943 0.452637 0.599212
Si Si2 0.696340 0.958973 0.754427
Si Si3 0.289314 0.928053 0.063395
Si Si4 0.995437 0.080221 0.566597
Si Si5 0.475682 0.207419 0.239426
Si Si6 0.868334 0.509053 0.866637
Si Si7 0.530941 0.514492 0.720184
O O1 0.273266 0.237593 0.955271
O O2 0.164635 0.476987 0.349937
O O3 0.295920 0.522059 0.418348
O O4 0.009861 0.539218 0.700510
O O5 0.730320 0.955373 0.947285
O O6 0.526607 0.115792 0.563963
O O7 0.821002 0.995338 0.452742
O O8 0.395835 0.719508 0.419302
O O9 0.118514 0.966343 0.115592
O O10 0.400055 0.937712 0.772900
O O11 0.000000 0.000000 0.500000
O O12 0.916688 0.301420 0.247235
O O13 0.290149 0.328894 0.174422
O O14 0.515534 0.364922 0.907052
O O15 0.500000 0.500000 0.000000
#
# Coordination Sequence:
#
# PCOD9105759 Si02
#       7
#     2   2   2   2   2   2   2
#     4  10  22  41  70  93 134 178 216 268 336 383
#     4  10  23  43  67  97 135 175 218 271 326 391
#     4  11  22  40  68  99 133 176 220 269 332 381
#     4   9  19  37  65  96 130 169 219 269 321 386
#     4  12  24  40  73  99 133 171 225 271 321 396
#     4  10  20  39  65  98 127 175 222 264 326 397
#     4  12  21  40  69  99 126 171 223 270 322 387
#
# _framework density 27.087344999999999
#
# number of rings (size 3 to 8) (size 9 to 14) (size 15 to 20)
#    0.000    1.429    4.286    0.429    2.000    2.857 
#    0.000    3.571    0.000    0.000    0.000    0.000 
#    0.000    0.000    0.000    0.000    0.000    0.000 
#
# Total GULP energy -78527.220215 kJ/mol
# GULP energy per Si atom -5609.087158 kJ/mol
# Density = 2.702569 g / cm^3
# Si number density = 27.087345 Si / 1000 Ang^3
#
#
#
# Elastic Constant Matrix: (Units=GPa)
#
#
# Indices 1 2 3 4 5 6 
#
# 1 92.9907 65.7147 19.1734 16.0642 -25.5658 -17.6082
# 2 65.7147 157.3328 29.6839 31.9743 -28.6327 -28.5620
# 3 19.1734 29.6839 61.7966 20.3105 -18.0434 -5.2929
# 4 16.0642 31.9743 20.3105 60.1376 -1.5725 -7.6975
# 5 -25.5658 -28.6327 -18.0434 -1.5725 41.4237 20.7525
# 6 -17.6082 -28.5620 -5.2929 -7.6975 20.7525 54.2501
#
#
#
# Elastic Compliance Matrix: (Units=1/GPa)
#
#
# Indices 1 2 3 4 5 6 
#
# 1 0.016648 -0.005511 -0.000244 -0.001286 0.006384 -0.000146
# 2 -0.005511 0.010340 -0.001489 -0.003171 0.001786 0.002377
# 3 -0.000244 -0.001489 0.021711 -0.006658 0.009734 -0.003414
# 4 -0.001286 -0.003171 -0.006658 0.021087 -0.006450 0.002722
# 5 0.006384 0.001786 0.009734 -0.006450 0.039319 -0.011994
# 6 -0.000146 0.002377 -0.003414 0.002722 -0.011994 0.024278
#
#
# Mechanical properties :
#
#
# Convention : Reuss Voigt Hill
#
# Bulk Modulus (GPa) = 29.23059 60.14047 44.68553
# Shear Modulus (GPa) = 31.39206 44.33215 37.86210
#
# Velocity S-wave (km/s) = 3.40798 4.04993 3.74274
# Velocity P-wave (km/s) = 5.12840 6.64228 5.93381
#
# Compressibility (1/GPa) = 0.03421074
#
# Stress axis : x y z
#
# Youngs Moduli (GPa) = 60.06682 96.71418 46.05867
#
# Poissons Ratio (x) = 0.53298 0.01124
# Poissons Ratio (y) = 0.33102 0.06860
# Poissons Ratio (z) = 0.01465 0.14405
#
# Static dielectric constant tensor:
#      x y z
#    x 2.123790 0.052350 0.010030 
#    y 0.052350 2.126110 0.081160 
#    z 0.010030 0.081160 2.088670 
# 
# From -- ./inp_files/319718.got.cif
#   From: 2010.05.17/outbox.cif.g08.bks.cpg/sg2_160_cif.got.tgz:319718.got - 2010.06.03 11:33:40.
