data_PCOD9105272
_publ_section_title
;
Structure prediction by ZEFSAII (Michael W. Deem and Ramdas Pophale) SiO2 
 PCOD9105272
Probable space group: P -1
;
_chemical_formula_sum "Si O2"
_cell_formula_units_Z 15
_cell_length_a 13.364673
_cell_length_b 7.923951
_cell_length_c 9.216042
_cell_angle_alpha 74.807385
_cell_angle_beta 65.389742
_cell_angle_gamma 117.203275
_cell_volume 654.079414
_symmetry_space_group_name_H-M "P -1"
_symmetry_group_IT_number 2
_symmetry_cell_setting 'triclinic'
loop_
_space_group_symop_operation_xyz
x,y,z
-x,-y,-z
loop_
_atom_site_type_symbol
_atom_site_label
_atom_site_fract_x
_atom_site_fract_y
_atom_site_fract_z
Si Si1 0.924789 0.135632 0.371513
Si Si2 0.751048 0.438863 0.452995
Si Si3 0.040808 0.864276 0.316281
Si Si4 0.000000 0.500000 0.000000
Si Si5 0.760506 0.018555 0.083095
Si Si6 0.657487 0.720806 0.479094
Si Si7 0.583942 0.259881 0.329196
Si Si8 0.496123 0.993431 0.831815
O O1 0.947910 0.192682 0.514371
O O2 0.003457 0.032350 0.308723
O O3 0.976150 0.341624 0.190066
O O4 0.757456 0.921718 0.489755
O O5 0.667685 0.526169 0.540275
O O6 0.734213 0.410055 0.293865
O O7 0.658877 0.188470 0.632971
O O8 0.911111 0.630826 0.366004
O O9 0.179264 0.979689 0.107488
O O10 0.126750 0.738264 0.960858
O O11 0.734553 0.835994 0.252811
O O12 0.609520 0.959559 0.164664
O O13 0.505012 0.660457 0.588980
O O14 0.500000 0.000000 0.500000
O O15 0.576126 0.237814 0.165525
O O16 0.500000 0.000000 0.000000
#
# Coordination Sequence:
#
# PCOD9105272 Si02
#       8
#     2   2   2   1   2   2   2   2
#     4   9  22  43  64  95 133 171 214 265 327 384
#     4  10  22  41  69  91 124 171 215 258 330 387
#     4  10  23  43  68  95 131 174 212 270 323 383
#     4  10  24  38  64  96 130 164 222 256 322 384
#     4  11  24  41  64  97 129 165 219 271 311 387
#     4  10  20  41  67  95 123 168 218 263 314 392
#     4  10  20  39  64  87 125 166 206 259 322 376
#     4  11  26  43  61  95 133 165 216 271 322 382
#
# _framework density 22.932994999999998
#
# number of rings (size 3 to 8) (size 9 to 14) (size 15 to 20)
#    0.000    1.867    2.667    0.400    5.600    6.400 
#    0.000    0.667    0.000    0.000    0.000    0.000 
#    0.000    0.000    0.000    0.000    0.000    0.000 
#
# Total GULP energy -83631.597203 kJ/mol
# GULP energy per Si atom -5575.439814 kJ/mol
# Density = 2.288080 g / cm^3
# Si number density = 22.932995 Si / 1000 Ang^3
#
#
#
# Elastic Constant Matrix: (Units=GPa)
#
#
# Indices 1 2 3 4 5 6 
#
# 1 60.9489 23.6261 27.4887 6.0988 12.5628 4.8864
# 2 23.6261 125.0360 54.1513 7.4726 16.3330 25.0489
# 3 27.4887 54.1513 84.4470 30.8942 11.8326 11.6736
# 4 6.0988 7.4726 30.8942 40.4276 4.8639 2.1299
# 5 12.5628 16.3330 11.8326 4.8639 36.2373 10.3822
# 6 4.8864 25.0489 11.6736 2.1299 10.3822 39.8809
#
#
#
# Elastic Compliance Matrix: (Units=1/GPa)
#
#
# Indices 1 2 3 4 5 6 
#
# 1 0.020373 -0.000693 -0.006570 0.002652 -0.005275 0.001094
# 2 -0.000693 0.013011 -0.008985 0.005067 -0.001869 -0.005241
# 3 -0.006570 -0.008985 0.026079 -0.017288 0.000224 -0.000320
# 4 0.002652 0.005067 -0.017288 0.036907 -0.002585 0.000255
# 5 -0.005275 -0.001869 0.000224 -0.002585 0.032416 -0.006546
# 6 0.001094 -0.005241 -0.000320 0.000255 -0.006546 0.030017
#
#
# Mechanical properties :
#
#
# Convention : Reuss Voigt Hill
#
# Bulk Modulus (GPa) = 37.08073 53.44047 45.26060
# Shear Modulus (GPa) = 24.96384 34.32019 29.64202
#
# Velocity S-wave (km/s) = 3.30291 3.87271 3.59910
# Velocity P-wave (km/s) = 5.54525 6.58412 6.08689
#
# Compressibility (1/GPa) = 0.02696818
#
# Stress axis : x y z
#
# Youngs Moduli (GPa) = 49.08466 76.85622 38.34437
#
# Poissons Ratio (x) = 0.05325 0.25191
# Poissons Ratio (y) = 0.03401 0.34453
# Poissons Ratio (z) = 0.32247 0.69057
#
# Static dielectric constant tensor:
#      x y z
#    x 1.881230 -0.030610 -0.027890 
#    y -0.030610 1.959080 0.039920 
#    z -0.027890 0.039920 1.837290 
# 
# From -- ./inp_files/238419.got.cif
#   From: 2010.05.17/outbox.cif.g08.bks.cpg/sg2_120_cif.got.tgz:238419.got - 2010.06.03 11:33:40.
