data_PCOD9105813
_publ_section_title
;
Structure prediction by ZEFSAII (Michael W. Deem and Ramdas Pophale) SiO2 
 PCOD9105813
Probable space group: P -1
;
_chemical_formula_sum "Si O2"
_cell_formula_units_Z 14
_cell_length_a 14.781480
_cell_length_b 7.103645
_cell_length_c 12.345592
_cell_angle_alpha 84.891146
_cell_angle_beta 124.964241
_cell_angle_gamma 48.645461
_cell_volume 518.019653
_symmetry_space_group_name_H-M "P -1"
_symmetry_group_IT_number 2
_symmetry_cell_setting 'triclinic'
loop_
_space_group_symop_operation_xyz
x,y,z
-x,-y,-z
loop_
_atom_site_type_symbol
_atom_site_label
_atom_site_fract_x
_atom_site_fract_y
_atom_site_fract_z
Si Si1 0.172373 0.142308 0.756448
Si Si2 0.265312 0.726955 0.656193
Si Si3 0.723563 0.218407 0.947751
Si Si4 0.484155 0.110152 0.601773
Si Si5 0.257343 0.924142 0.260928
Si Si6 0.966259 0.954820 0.725767
Si Si7 0.674874 0.806451 0.305420
O O1 0.331718 0.063102 0.816179
O O2 0.908103 0.545325 0.527378
O O3 0.238310 0.855465 0.748511
O O4 0.200653 0.066381 0.906385
O O5 0.458884 0.566608 0.742564
O O6 0.052494 0.068028 0.412055
O O7 0.317637 0.427205 0.706682
O O8 0.808625 0.094907 0.889828
O O9 0.817181 0.257064 0.075212
O O10 0.692401 0.943570 0.756860
O O11 0.246620 0.581363 0.425103
O O12 0.481187 0.968079 0.705822
O O13 0.500000 0.000000 0.500000
O O14 0.500000 0.500000 0.500000
O O15 0.084597 0.145748 0.227167
#
# Coordination Sequence:
#
# PCOD9105813 Si02
#       7
#     2   2   2   2   2   2   2
#     4  11  24  39  71  98 133 182 215 265 333 396
#     4  11  22  43  67  96 134 172 219 267 330 390
#     4  12  21  40  67  97 130 167 228 270 323 402
#     4  10  20  39  66  88 128 174 215 266 330 385
#     4  10  20  40  64  89 126 172 207 278 332 369
#     4  10  22  40  65  94 130 167 216 275 325 389
#     4  10  22  44  64  96 138 174 212 277 326 383
#
# _framework density 27.026004
#
# number of rings (size 3 to 8) (size 9 to 14) (size 15 to 20)
#    0.000    1.429    7.143    1.286    2.000    0.571 
#    0.000    0.714    3.143    0.000    0.000    0.000 
#    0.000    0.000    0.000    0.000    0.000    0.000 
#
# Total GULP energy -78341.043796 kJ/mol
# GULP energy per Si atom -5595.788843 kJ/mol
# Density = 2.696449 g / cm^3
# Si number density = 27.026004 Si / 1000 Ang^3
#
#
#
# Elastic Constant Matrix: (Units=GPa)
#
#
# Indices 1 2 3 4 5 6 
#
# 1 207.2630 14.8270 57.0953 8.8390 10.8641 -5.3187
# 2 14.8270 88.9806 24.9801 18.6226 -8.8749 0.3773
# 3 57.0953 24.9801 123.4168 26.1196 -7.9256 5.7384
# 4 8.8390 18.6226 26.1196 35.1498 -0.7948 -1.1474
# 5 10.8641 -8.8749 -7.9256 -0.7948 55.5968 14.0932
# 6 -5.3187 0.3773 5.7384 -1.1474 14.0932 28.9793
#
#
#
# Elastic Compliance Matrix: (Units=1/GPa)
#
#
# Indices 1 2 3 4 5 6 
#
# 1 0.005887 -0.000607 -0.003152 0.001225 -0.002424 0.002940
# 2 -0.000607 0.013111 -0.000845 -0.006161 0.002388 -0.001520
# 3 -0.003152 -0.000845 0.011770 -0.007588 0.003264 -0.004786
# 4 0.001225 -0.006161 -0.007588 0.037132 -0.002971 0.004723
# 5 -0.002424 0.002388 0.003264 -0.002971 0.022332 -0.012100
# 6 0.002940 -0.001520 -0.004786 0.004723 -0.012100 0.042086
#
#
# Mechanical properties :
#
#
# Convention : Reuss Voigt Hill
#
# Bulk Modulus (GPa) = 46.38193 68.16281 57.27237
# Shear Modulus (GPa) = 33.62218 45.46237 39.54228
#
# Velocity S-wave (km/s) = 3.53096 4.10588 3.82922
# Velocity P-wave (km/s) = 5.81574 6.91040 6.38656
#
# Compressibility (1/GPa) = 0.02156012
#
# Stress axis : x y z
#
# Youngs Moduli (GPa) = 169.87178 76.27270 84.96196
#
# Poissons Ratio (x) = 0.04626 0.26781
# Poissons Ratio (y) = 0.10303 0.07180
# Poissons Ratio (z) = 0.53546 0.06446
#
# Static dielectric constant tensor:
#      x y z
#    x 2.118730 0.067110 -0.052680 
#    y 0.067110 2.240030 -0.096630 
#    z -0.052680 -0.096630 2.131380 
# 
# From -- ./inp_files/445886.got.cif
#   From: 2010.05.17/outbox.cif.g08.bks.cpg/sg2_223_cif.got.tgz:445886.got - 2010.06.03 11:33:40.
