data_PCOD9105925
_publ_section_title
;
Structure prediction by ZEFSAII (Michael W. Deem and Ramdas Pophale) SiO2 
 PCOD9105925
Probable space group: P -1
;
_chemical_formula_sum "Si O2"
_cell_formula_units_Z 14
_cell_length_a 8.903000
_cell_length_b 12.536171
_cell_length_c 8.740530
_cell_angle_alpha 109.647750
_cell_angle_beta 115.316893
_cell_angle_gamma 113.756989
_cell_volume 636.667738
_symmetry_space_group_name_H-M "P -1"
_symmetry_group_IT_number 2
_symmetry_cell_setting 'triclinic'
loop_
_space_group_symop_operation_xyz
x,y,z
-x,-y,-z
loop_
_atom_site_type_symbol
_atom_site_label
_atom_site_fract_x
_atom_site_fract_y
_atom_site_fract_z
Si Si1 0.588936 0.599512 0.437741
Si Si2 0.139356 0.635430 0.004141
Si Si3 0.410483 0.903685 0.761434
Si Si4 0.784600 0.926620 0.771244
Si Si5 0.834347 0.151271 0.666274
Si Si6 0.991289 0.624679 0.605967
Si Si7 0.295700 0.471681 0.970838
O O1 0.500000 0.500000 0.500000
O O2 0.697516 0.768605 0.595679
O O3 0.379521 0.521283 0.204274
O O4 0.775096 0.597477 0.454854
O O5 0.243325 0.779042 0.222950
O O6 0.274075 0.592297 0.964598
O O7 0.024777 0.645619 0.814757
O O8 0.000000 0.500000 0.000000
O O9 0.592667 0.897526 0.775592
O O10 0.324739 0.932522 0.587729
O O11 0.189999 0.757967 0.661075
O O12 0.500000 0.000000 0.000000
O O13 0.840261 0.040524 0.716213
O O14 0.000000 0.000000 0.000000
O O15 0.073962 0.301373 0.791027
O O16 0.000000 0.500000 0.500000
O O17 0.500000 0.500000 0.000000
#
# Coordination Sequence:
#
# PCOD9105925 Si02
#       7
#     2   2   2   2   2   2   2
#     4  12  24  43  68 100 135 177 225 280 342 413
#     4  10  20  39  66  94 129 179 224 269 331 410
#     4  12  26  45  68  99 136 181 231 287 349 413
#     4  12  26  46  71 101 138 184 232 286 350 420
#     4  11  24  47  69  96 139 186 233 281 344 426
#     4  12  24  43  69 101 138 177 229 287 341 408
#     4  11  23  41  68 101 134 172 225 284 339 394
#
# _framework density 21.989493
#
# number of rings (size 3 to 8) (size 9 to 14) (size 15 to 20)
#    0.000    0.571    0.000   10.714    0.000    2.286 
#    0.000    6.429    0.000    0.000    0.000    0.000 
#    0.000    0.000    0.000    0.000    0.000    0.000 
#
# Total GULP energy -78210.162908 kJ/mol
# GULP energy per Si atom -5586.440208 kJ/mol
# Density = 2.193944 g / cm^3
# Si number density = 21.989493 Si / 1000 Ang^3
#
#
#
# Elastic Constant Matrix: (Units=GPa)
#
#
# Indices 1 2 3 4 5 6 
#
# 1 148.9628 38.9777 33.7718 7.2888 21.8054 -5.0330
# 2 38.9777 140.3178 60.1621 -1.5487 4.0640 -6.3990
# 3 33.7718 60.1621 145.9107 -23.3819 6.5243 -6.7670
# 4 7.2888 -1.5487 -23.3819 44.3462 -2.7277 2.8922
# 5 21.8054 4.0640 6.5243 -2.7277 44.7185 4.7935
# 6 -5.0330 -6.3990 -6.7670 2.8922 4.7935 41.1324
#
#
#
# Elastic Compliance Matrix: (Units=1/GPa)
#
#
# Indices 1 2 3 4 5 6 
#
# 1 0.008166 -0.001516 -0.001432 -0.002466 -0.003910 0.001157
# 2 -0.001516 0.009100 -0.003599 -0.001359 0.000279 0.000701
# 3 -0.001432 -0.003599 0.009511 0.005086 -0.000104 0.000484
# 4 -0.002466 -0.001359 0.005086 0.025849 0.002350 -0.001768
# 5 -0.003910 0.000279 -0.000104 0.002350 0.024777 -0.003505
# 6 0.001157 0.000701 0.000484 -0.001768 -0.003505 0.025175
#
#
# Mechanical properties :
#
#
# Convention : Reuss Voigt Hill
#
# Bulk Modulus (GPa) = 73.07825 77.89050 75.48437
# Shear Modulus (GPa) = 41.58581 46.19139 43.88860
#
# Velocity S-wave (km/s) = 4.35347 4.58822 4.47238
# Velocity P-wave (km/s) = 7.65348 7.97293 7.81483
#
# Compressibility (1/GPa) = 0.01368396
#
# Stress axis : x y z
#
# Youngs Moduli (GPa) = 122.45277 109.89391 105.14095
#
# Poissons Ratio (x) = 0.16657 0.15055
# Poissons Ratio (y) = 0.18561 0.37840
# Poissons Ratio (z) = 0.17534 0.39550
#
# Static dielectric constant tensor:
#      x y z
#    x 1.885160 0.028600 -0.041280 
#    y 0.028600 1.824790 -0.090090 
#    z -0.041280 -0.090090 1.883670 
# 
# From -- ./inp_files/156812.got.cif
#   From: 2010.05.17/outbox.cif.g08.bks.cpg/sg2_79_cif.got.tgz:156812.got - 2010.06.03 11:33:40.
