data_PCOD9105452
_publ_section_title
;
Structure prediction by ZEFSAII (Michael W. Deem and Ramdas Pophale) SiO2 
 PCOD9105452
Probable space group: P -1
;
_chemical_formula_sum "Si O2"
_cell_formula_units_Z 14
_cell_length_a 15.010204
_cell_length_b 22.253769
_cell_length_c 12.367375
_cell_angle_alpha 153.997212
_cell_angle_beta 150.009485
_cell_angle_gamma 17.779292
_cell_volume 551.407995
_symmetry_space_group_name_H-M "P -1"
_symmetry_group_IT_number 2
_symmetry_cell_setting 'triclinic'
loop_
_space_group_symop_operation_xyz
x,y,z
-x,-y,-z
loop_
_atom_site_type_symbol
_atom_site_label
_atom_site_fract_x
_atom_site_fract_y
_atom_site_fract_z
Si Si1 0.292124 0.169825 0.959837
Si Si2 0.456098 0.683653 0.014327
Si Si3 0.954551 0.954471 0.491182
Si Si4 0.141159 0.270143 0.739720
Si Si5 0.411619 0.458982 0.741089
Si Si6 0.862817 0.149412 0.259524
Si Si7 0.904354 0.637849 0.392686
O O1 0.375509 0.105315 0.816766
O O2 0.032012 0.217322 0.775370
O O3 0.177187 0.389466 0.223678
O O4 0.500000 0.000000 0.000000
O O5 0.695800 0.650154 0.243479
O O6 0.502236 0.498386 0.797952
O O7 0.395875 0.731269 0.899859
O O8 0.156753 0.907784 0.124211
O O9 0.615014 0.202607 0.559012
O O10 0.000000 0.000000 0.500000
O O11 0.148132 0.887429 0.686704
O O12 0.238712 0.211081 0.621903
O O13 0.915120 0.281305 0.525565
O O14 0.000000 0.500000 0.000000
O O15 0.070600 0.632612 0.644007
O O16 0.500000 0.500000 0.000000
#
# Coordination Sequence:
#
# PCOD9105452 Si02
#       7
#     2   2   2   2   2   2   2
#     4  10  20  39  64  95 134 171 219 280 330 393
#     4  11  24  43  70  96 134 180 228 273 339 406
#     4  11  23  42  68  98 132 180 224 274 345 398
#     4   9  20  39  64  92 131 173 216 273 339 386
#     4  12  24  45  69  97 142 174 221 286 338 399
#     4  10  22  45  65  96 139 173 228 287 321 405
#     4  11  23  43  68  98 132 181 223 274 342 402
#
# _framework density 25.389551000000001
#
# number of rings (size 3 to 8) (size 9 to 14) (size 15 to 20)
#    0.000    1.429    4.286    0.857    0.000    2.286 
#    2.571    5.714    0.000    0.000    0.000    0.000 
#    0.000    0.000    0.000    0.000    0.000    0.000 
#
# Total GULP energy -78212.080668 kJ/mol
# GULP energy per Si atom -5586.577191 kJ/mol
# Density = 2.533176 g / cm^3
# Si number density = 25.389551 Si / 1000 Ang^3
#
#
#
# Elastic Constant Matrix: (Units=GPa)
#
#
# Indices 1 2 3 4 5 6 
#
# 1 58.3953 39.5175 18.0229 -12.3197 -8.3513 32.6717
# 2 39.5175 80.8242 33.8151 -21.7432 -13.6552 22.7339
# 3 18.0229 33.8151 125.0598 -22.7875 0.5176 8.8225
# 4 -12.3197 -21.7432 -22.7875 48.9769 9.4385 -7.5679
# 5 -8.3513 -13.6552 0.5176 9.4385 44.1424 -12.1680
# 6 32.6717 22.7339 8.8225 -7.5679 -12.1680 40.7554
#
#
#
# Elastic Compliance Matrix: (Units=1/GPa)
#
#
# Indices 1 2 3 4 5 6 
#
# 1 0.039701 -0.012347 -0.000359 0.001059 -0.003628 -0.025748
# 2 -0.012347 0.021375 -0.003277 0.004257 0.003552 0.000535
# 3 -0.000359 -0.003277 0.009529 0.003263 -0.001863 0.000102
# 4 0.001059 0.004257 0.003263 0.024777 -0.003960 -0.000511
# 5 -0.003628 0.003552 -0.001863 -0.003960 0.026260 0.008435
# 6 -0.025748 0.000535 0.000102 -0.000511 0.008435 0.047281
#
#
# Mechanical properties :
#
#
# Convention : Reuss Voigt Hill
#
# Bulk Modulus (GPa) = 25.87964 49.66559 37.77262
# Shear Modulus (GPa) = 23.38981 38.30318 30.84650
#
# Velocity S-wave (km/s) = 3.03848 3.88831 3.48936
# Velocity P-wave (km/s) = 4.74605 6.30575 5.58066
#
# Compressibility (1/GPa) = 0.03864041
#
# Stress axis : x y z
#
# Youngs Moduli (GPa) = 25.18813 46.78302 104.94218
#
# Poissons Ratio (x) = 0.57763 0.03763
# Poissons Ratio (y) = 0.31100 0.34390
# Poissons Ratio (z) = 0.00903 0.15331
#
# Static dielectric constant tensor:
#      x y z
#    x 2.049600 -0.003810 -0.037350 
#    y -0.003810 2.175260 0.037270 
#    z -0.037350 0.037270 2.013350 
# 
# From -- ./inp_files/174453.got.cif
#   From: 2010.05.17/outbox.cif.g08.bks.cpg/sg2_88_cif.got.tgz:174453.got - 2010.06.03 11:33:40.
