data_PCOD9105899
_publ_section_title
;
Structure prediction by ZEFSAII (Michael W. Deem and Ramdas Pophale) SiO2 
 PCOD9105899
Probable space group: P -1
;
_chemical_formula_sum "Si O2"
_cell_formula_units_Z 16
_cell_length_a 9.525130
_cell_length_b 11.706894
_cell_length_c 11.355808
_cell_angle_alpha 103.455569
_cell_angle_beta 138.514952
_cell_angle_gamma 59.864104
_cell_volume 702.342391
_symmetry_space_group_name_H-M "P -1"
_symmetry_group_IT_number 2
_symmetry_cell_setting 'triclinic'
loop_
_space_group_symop_operation_xyz
x,y,z
-x,-y,-z
loop_
_atom_site_type_symbol
_atom_site_label
_atom_site_fract_x
_atom_site_fract_y
_atom_site_fract_z
Si Si1 0.707039 0.929427 0.480352
Si Si2 0.919445 0.119668 0.074750
Si Si3 0.468264 0.210500 0.503544
Si Si4 0.767045 0.661844 0.996061
Si Si5 0.992164 0.872571 0.416793
Si Si6 0.647740 0.075214 0.082873
Si Si7 0.731552 0.349513 0.612037
Si Si8 0.000246 0.358890 0.112434
O O1 0.543966 0.867248 0.408210
O O2 0.819407 0.867688 0.408870
O O3 0.905264 0.900314 0.703686
O O4 0.545910 0.093888 0.422639
O O5 0.687221 0.125843 0.995838
O O6 0.903268 0.253235 0.037938
O O7 0.000000 0.000000 0.000000
O O8 0.647880 0.269978 0.629420
O O9 0.189776 0.329039 0.330875
O O10 0.008005 0.658878 0.204679
O O11 0.793711 0.517108 0.009754
O O12 0.507104 0.788138 0.903877
O O13 0.827653 0.667689 0.899596
O O14 0.225541 0.727474 0.504391
O O15 0.903622 0.940364 0.248185
O O16 0.000000 0.000000 0.500000
O O17 0.500000 0.000000 0.000000
O O18 0.500000 0.500000 0.500000
#
# Coordination Sequence:
#
# PCOD9105899 Si02
#       8
#     2   2   2   2   2   2   2   2
#     4  10  22  40  66  98 128 169 226 276 329 389
#     4  11  24  42  66  99 133 171 221 276 334 399
#     4  10  20  39  66  93 128 171 213 275 329 388
#     4  11  24  43  64  97 132 176 222 271 336 393
#     4  12  23  42  70  98 131 173 225 273 332 391
#     4  12  24  41  67  98 134 170 220 278 327 393
#     4  12  24  42  67  97 136 175 224 273 329 401
#     4  10  23  41  66  92 132 175 219 269 338 398
#
# _framework density 22.780912000000001
#
# number of rings (size 3 to 8) (size 9 to 14) (size 15 to 20)
#    0.000    1.000    5.000    1.500    1.750    2.500 
#    0.000    0.625    0.000    0.000    0.000    0.000 
#    0.000    0.000    0.000    0.000    0.000    0.000 
#
# Total GULP energy -89085.166359 kJ/mol
# GULP energy per Si atom -5567.822897 kJ/mol
# Density = 2.272906 g / cm^3
# Si number density = 22.780912 Si / 1000 Ang^3
#
#
#
# Elastic Constant Matrix: (Units=GPa)
#
#
# Indices 1 2 3 4 5 6 
#
# 1 143.5440 75.5480 9.9950 2.8307 3.9260 14.4230
# 2 75.5480 174.9491 22.8233 -19.6122 -4.6181 9.4019
# 3 9.9950 22.8233 50.8252 -4.6981 -3.1015 6.8346
# 4 2.8307 -19.6122 -4.6981 27.3220 6.8428 10.8533
# 5 3.9260 -4.6181 -3.1015 6.8428 17.5237 0.5183
# 6 14.4230 9.4019 6.8346 10.8533 0.5183 56.2277
#
#
#
# Elastic Compliance Matrix: (Units=1/GPa)
#
#
# Indices 1 2 3 4 5 6 
#
# 1 0.009557 -0.004476 -0.000162 -0.003317 -0.002024 -0.001024
# 2 -0.004476 0.008791 -0.002230 0.006868 0.000284 -0.001379
# 3 -0.000162 -0.002230 0.021456 0.002607 0.002308 -0.002718
# 4 -0.003317 0.006868 0.002607 0.050484 -0.016397 -0.010208
# 5 -0.002024 0.000284 0.002308 -0.016397 0.064323 0.002763
# 6 -0.001024 -0.001379 -0.002718 -0.010208 0.002763 0.020553
#
#
# Mechanical properties :
#
#
# Convention : Reuss Voigt Hill
#
# Bulk Modulus (GPa) = 38.36047 65.11676 51.73862
# Shear Modulus (GPa) = 25.30483 37.61148 31.45816
#
# Velocity S-wave (km/s) = 3.33647 4.06767 3.72008
# Velocity P-wave (km/s) = 5.63188 7.12090 6.41971
#
# Compressibility (1/GPa) = 0.02606850
#
# Stress axis : x y z
#
# Youngs Moduli (GPa) = 104.63127 113.74859 46.60741
#
# Poissons Ratio (x) = 0.50917 0.00754
# Poissons Ratio (y) = 0.46836 0.10393
# Poissons Ratio (z) = 0.01693 0.25365
#
# Static dielectric constant tensor:
#      x y z
#    x 1.985490 -0.020290 0.038740 
#    y -0.020290 1.872770 0.071860 
#    z 0.038740 0.071860 1.982350 
# 
# From -- ./inp_files/390515.got.cif
#   From: 2010.05.17/outbox.cif.g08.bks.cpg/sg2_196_cif.got.tgz:390515.got - 2010.06.03 11:33:40.
