data_PCOD9105200
_publ_section_title
;
Structure prediction by ZEFSAII (Michael W. Deem and Ramdas Pophale) SiO2 
 PCOD9105200
Probable space group: P -1
;
_chemical_formula_sum "Si O2"
_cell_formula_units_Z 16
_cell_length_a 11.911025
_cell_length_b 8.926311
_cell_length_c 18.677571
_cell_angle_alpha 149.837702
_cell_angle_beta 47.152289
_cell_angle_gamma 132.375502
_cell_volume 711.318358
_symmetry_space_group_name_H-M "P -1"
_symmetry_group_IT_number 2
_symmetry_cell_setting 'triclinic'
loop_
_space_group_symop_operation_xyz
x,y,z
-x,-y,-z
loop_
_atom_site_type_symbol
_atom_site_label
_atom_site_fract_x
_atom_site_fract_y
_atom_site_fract_z
Si Si1 0.025864 0.462918 0.365810
Si Si2 0.496716 0.847089 0.622107
Si Si3 0.218495 0.346087 0.359540
Si Si4 0.752506 0.900438 0.254495
Si Si5 0.742290 0.308924 0.927951
Si Si6 0.572561 0.963994 0.120839
Si Si7 0.122800 0.304085 0.102369
Si Si8 0.420857 0.357277 0.635327
O O1 0.907248 0.668641 0.527746
O O2 0.166136 0.512761 0.382638
O O3 0.070957 0.443796 0.255799
O O4 0.918344 0.125293 0.290238
O O5 0.500000 0.500000 0.500000
O O6 0.607914 0.870293 0.514279
O O7 0.338665 0.930643 0.693663
O O8 0.520938 0.035650 0.762967
O O9 0.390801 0.514269 0.382397
O O10 0.221111 0.005996 0.194150
O O11 0.652153 0.815942 0.334415
O O12 0.773755 0.583269 0.082882
O O13 0.555924 0.217561 0.953233
O O14 0.840762 0.441129 0.869673
O O15 0.632914 0.324632 0.223608
O O16 0.716667 0.806718 0.999988
O O17 0.000000 0.000000 0.000000
#
# Coordination Sequence:
#
# PCOD9105200 Si02
#       8
#     2   2   2   2   2   2   2   2
#     4  11  25  44  67  91 136 171 211 261 329 392
#     4  10  20  39  63  95 131 163 208 268 318 373
#     4  10  25  46  64  96 130 170 212 274 320 379
#     4  12  23  41  67 100 127 169 217 266 318 386
#     4  11  25  43  68  96 129 165 224 272 312 380
#     4  10  23  42  64 100 127 167 216 270 319 376
#     4  12  24  43  66  94 132 176 208 264 328 387
#     4  10  23  40  72  93 129 168 219 268 319 372
#
# _framework density 22.493444
#
# number of rings (size 3 to 8) (size 9 to 14) (size 15 to 20)
#    0.000    1.250    3.750    0.750    3.500    3.000 
#    2.250    0.000    0.000    0.000    0.000    0.000 
#    0.000    0.000    0.000    0.000    0.000    0.000 
#
# Total GULP energy -89417.471949 kJ/mol
# GULP energy per Si atom -5588.591997 kJ/mol
# Density = 2.244225 g / cm^3
# Si number density = 22.493444 Si / 1000 Ang^3
#
#
#
# Elastic Constant Matrix: (Units=GPa)
#
#
# Indices 1 2 3 4 5 6 
#
# 1 35.4136 13.0051 11.1177 -1.9570 -2.4841 -6.6185
# 2 13.0051 69.6971 15.8382 -6.6609 -14.8340 -13.3235
# 3 11.1177 15.8382 112.9678 -5.1774 0.2421 -2.3243
# 4 -1.9570 -6.6609 -5.1774 39.7279 -1.0491 11.7957
# 5 -2.4841 -14.8340 0.2421 -1.0491 19.0549 -2.8742
# 6 -6.6185 -13.3235 -2.3243 11.7957 -2.8742 19.4621
#
#
#
# Elastic Compliance Matrix: (Units=1/GPa)
#
#
# Indices 1 2 3 4 5 6 
#
# 1 0.032220 -0.002864 -0.002664 -0.002290 0.003475 0.010579
# 2 -0.002864 0.023269 -0.002714 -0.001579 0.020497 0.018616
# 3 -0.002664 -0.002714 0.009507 0.001448 -0.002945 -0.002941
# 4 -0.002290 -0.001579 0.001448 0.031139 -0.003000 -0.021003
# 5 0.003475 0.020497 -0.002945 -0.003000 0.072902 0.027446
# 6 0.010579 0.018616 -0.002941 -0.021003 0.027446 0.084156
#
#
# Mechanical properties :
#
#
# Convention : Reuss Voigt Hill
#
# Bulk Modulus (GPa) = 20.61303 33.11117 26.86210
# Shear Modulus (GPa) = 17.49190 27.52348 22.50769
#
# Velocity S-wave (km/s) = 2.79165 3.50183 3.16671
# Velocity P-wave (km/s) = 4.42437 5.57698 5.03377
#
# Compressibility (1/GPa) = 0.04851301
#
# Stress axis : x y z
#
# Youngs Moduli (GPa) = 31.03643 42.97567 105.18656
#
# Poissons Ratio (x) = 0.12306 0.28024
# Poissons Ratio (y) = 0.08887 0.28545
# Poissons Ratio (z) = 0.08269 0.11663
#
# Static dielectric constant tensor:
#      x y z
#    x 1.830640 -0.009370 0.001760 
#    y -0.009370 1.817130 -0.004170 
#    z 0.001760 -0.004170 1.841270 
# 
# From -- ./inp_files/283062.got.cif
#   From: 2010.05.17/outbox.cif.g08.bks.cpg/sg2_142_cif.got.tgz:283062.got - 2010.06.03 11:33:40.
