data_PCOD9105347
_publ_section_title
;
Structure prediction by ZEFSAII (Michael W. Deem and Ramdas Pophale) SiO2 
 PCOD9105347
Probable space group: P -1
;
_chemical_formula_sum "Si O2"
_cell_formula_units_Z 16
_cell_length_a 8.181272
_cell_length_b 16.197712
_cell_length_c 8.768202
_cell_angle_alpha 111.522914
_cell_angle_beta 51.034228
_cell_angle_gamma 124.190780
_cell_volume 747.132103
_symmetry_space_group_name_H-M "P -1"
_symmetry_group_IT_number 2
_symmetry_cell_setting 'triclinic'
loop_
_space_group_symop_operation_xyz
x,y,z
-x,-y,-z
loop_
_atom_site_type_symbol
_atom_site_label
_atom_site_fract_x
_atom_site_fract_y
_atom_site_fract_z
Si Si1 0.677140 0.402818 0.298684
Si Si2 0.316254 0.738707 0.036953
Si Si3 0.369717 0.061554 0.183793
Si Si4 0.547760 0.768173 0.242477
Si Si5 0.949286 0.068753 0.959234
Si Si6 0.452866 0.916857 0.597789
Si Si7 0.137393 0.617695 0.513410
Si Si8 0.144374 0.362725 0.584048
O O1 0.718625 0.364122 0.086736
O O2 0.795039 0.363481 0.334400
O O3 0.391232 0.357918 0.447783
O O4 0.787884 0.522614 0.331601
O O5 0.456593 0.825365 0.891291
O O6 0.487601 0.773559 0.106074
O O7 0.059403 0.715657 0.238578
O O8 0.344474 0.052864 0.373071
O O9 0.132922 0.003368 0.188178
O O10 0.500000 0.000000 0.000000
O O11 0.433294 0.822370 0.453016
O O12 0.392578 0.655079 0.306686
O O13 0.824557 0.828327 0.142835
O O14 0.764823 0.095137 0.176506
O O15 0.000000 0.000000 0.000000
O O16 0.500000 0.000000 0.500000
O O17 0.000000 0.500000 0.500000
O O18 0.977767 0.653104 0.524703
#
# Coordination Sequence:
#
# PCOD9105347 Si02
#       8
#     2   2   2   2   2   2   2   2
#     4  10  20  39  64  91 122 159 205 253 307 372
#     4  11  21  38  61  88 123 160 202 251 306 368
#     4  10  22  39  59  86 122 158 202 252 302 361
#     4  11  22  38  61  88 120 160 198 246 308 355
#     4  11  21  41  59  86 119 153 202 249 293 362
#     4  11  22  39  60  83 123 161 196 252 303 355
#     4   9  20  40  62  90 126 158 202 256 305 369
#     4   9  21  39  63  91 122 159 201 255 313 364
#
# _framework density 21.415223999999998
#
# number of rings (size 3 to 8) (size 9 to 14) (size 15 to 20)
#    0.000    1.750    2.500    1.875    0.000    4.500 
#    0.000    2.500    0.000   13.500    0.000    0.000 
#    0.000    0.000    0.000    0.000    0.000    0.000 
#
# Total GULP energy -89136.579381 kJ/mol
# GULP energy per Si atom -5571.036211 kJ/mol
# Density = 2.136648 g / cm^3
# Si number density = 21.415224 Si / 1000 Ang^3
#
#
#
# Elastic Constant Matrix: (Units=GPa)
#
#
# Indices 1 2 3 4 5 6 
#
# 1 108.0161 32.8012 45.5713 4.2982 26.5187 33.0379
# 2 32.8012 72.5551 37.9436 -19.1283 5.6961 22.3577
# 3 45.5713 37.9436 97.1448 -3.8517 4.9401 15.7874
# 4 4.2982 -19.1283 -3.8517 50.4109 11.0291 -2.1584
# 5 26.5187 5.6961 4.9401 11.0291 40.4625 0.8608
# 6 33.0379 22.3577 15.7874 -2.1584 0.8608 32.7844
#
#
#
# Elastic Compliance Matrix: (Units=1/GPa)
#
#
# Indices 1 2 3 4 5 6 
#
# 1 0.019854 0.000343 -0.006083 -0.000149 -0.011915 -0.017009
# 2 0.000343 0.023848 -0.006818 0.009041 -0.004946 -0.012601
# 3 -0.006083 -0.006818 0.015029 -0.001533 0.003458 0.003351
# 4 -0.000149 0.009041 -0.001533 0.024688 -0.007644 -0.003452
# 5 -0.011915 -0.004946 0.003458 -0.007644 0.034619 0.012303
# 6 -0.017009 -0.012601 0.003351 -0.003452 0.012303 0.054072
#
#
# Mechanical properties :
#
#
# Convention : Reuss Voigt Hill
#
# Bulk Modulus (GPa) = 29.74873 56.70536 43.22704
# Shear Modulus (GPa) = 23.98878 35.49156 29.74017
#
# Velocity S-wave (km/s) = 3.35053 4.07542 3.73062
# Velocity P-wave (km/s) = 5.37491 6.97724 6.22782
#
# Compressibility (1/GPa) = 0.03361488
#
# Stress axis : x y z
#
# Youngs Moduli (GPa) = 50.36870 41.93250 66.53608
#
# Poissons Ratio (x) = -0.01439 0.40476
# Poissons Ratio (y) = -0.01729 0.45363
# Poissons Ratio (z) = 0.30641 0.28589
#
# Static dielectric constant tensor:
#      x y z
#    x 1.918640 0.078010 -0.016570 
#    y 0.078010 2.247430 -0.197100 
#    z -0.016570 -0.197100 1.814930 
# 
# From -- ./inp_files/215333.got.cif
#   From: 2010.05.17/outbox.cif.g08.bks.cpg/sg2_108_cif.got.tgz:215333.got - 2010.06.03 11:33:40.
