data_PCOD9105314
_publ_section_title
;
Structure prediction by ZEFSAII (Michael W. Deem and Ramdas Pophale) SiO2 
 PCOD9105314
Probable space group: P -1
;
_chemical_formula_sum "Si O2"
_cell_formula_units_Z 15
_cell_length_a 22.923115
_cell_length_b 12.889699
_cell_length_c 5.309230
_cell_angle_alpha 56.888469
_cell_angle_beta 52.508901
_cell_angle_gamma 26.382735
_cell_volume 553.101229
_symmetry_space_group_name_H-M "P -1"
_symmetry_group_IT_number 2
_symmetry_cell_setting 'triclinic'
loop_
_space_group_symop_operation_xyz
x,y,z
-x,-y,-z
loop_
_atom_site_type_symbol
_atom_site_label
_atom_site_fract_x
_atom_site_fract_y
_atom_site_fract_z
Si Si1 0.500000 0.500000 0.500000
Si Si2 0.916029 0.365722 0.884800
Si Si3 0.440418 0.821676 0.473961
Si Si4 0.674805 0.573326 0.571398
Si Si5 0.884526 0.651356 0.884489
Si Si6 0.879746 0.081834 0.799132
Si Si7 0.296570 0.252935 0.432058
Si Si8 0.735770 0.099190 0.787763
O O1 0.477432 0.685074 0.320532
O O2 0.624685 0.331448 0.606690
O O3 0.937443 0.476160 0.776269
O O4 0.842298 0.483616 0.655859
O O5 0.798466 0.466574 0.233303
O O6 0.053021 0.088075 0.921141
O O7 0.565599 0.682609 0.510817
O O8 0.361393 0.064702 0.312646
O O9 0.346470 0.857171 0.832157
O O10 0.746273 0.358073 0.816394
O O11 0.615316 0.760777 0.670593
O O12 0.823141 0.874093 0.699369
O O13 0.752862 0.768520 0.194036
O O14 0.000000 0.500000 0.000000
O O15 0.837115 0.044349 0.748871
O O16 0.000000 0.000000 0.500000
#
# Coordination Sequence:
#
# PCOD9105314 Si02
#       8
#     1   2   2   2   2   2   2   2
#     4  12  24  40  66  92 126 164 206 260 314 384
#     4  10  21  40  62  95 124 165 217 254 312 377
#     4  11  24  43  64  95 127 164 210 262 319 369
#     4  10  22  41  63  88 132 167 204 265 312 366
#     4  10  20  39  64  89 132 168 200 268 314 362
#     4  10  21  41  64  88 131 166 205 263 311 366
#     4  10  23  40  64  95 121 169 217 252 312 379
#     4  11  23  43  63  95 128 164 211 259 318 373
#
# _framework density 27.119812
#
# number of rings (size 3 to 8) (size 9 to 14) (size 15 to 20)
#    0.000    1.600    2.667    1.600    0.000    2.667 
#    2.400    0.000    0.000    0.000    0.000    0.000 
#    0.000    0.000    0.000    0.000    0.000    0.000 
#
# Total GULP energy -83835.948993 kJ/mol
# GULP energy per Si atom -5589.063266 kJ/mol
# Density = 2.705809 g / cm^3
# Si number density = 27.119812 Si / 1000 Ang^3
#
#
#
# Elastic Constant Matrix: (Units=GPa)
#
#
# Indices 1 2 3 4 5 6 
#
# 1 191.8064 42.8503 17.7197 -12.7210 -26.0582 0.5328
# 2 42.8503 127.4065 36.2350 -32.4593 -11.9720 -5.3593
# 3 17.7197 36.2350 87.7768 -6.2697 -17.2213 -4.4127
# 4 -12.7210 -32.4593 -6.2697 58.3836 -7.0272 1.2200
# 5 -26.0582 -11.9720 -17.2213 -7.0272 28.7357 -15.8092
# 6 0.5328 -5.3593 -4.4127 1.2200 -15.8092 48.9654
#
#
#
# Elastic Compliance Matrix: (Units=1/GPa)
#
#
# Indices 1 2 3 4 5 6 
#
# 1 0.006551 -0.001203 0.000925 0.001735 0.007695 0.002322
# 2 -0.001203 0.011175 -0.002917 0.006141 0.004584 0.002300
# 3 0.000925 -0.002917 0.015030 0.001491 0.011600 0.004733
# 4 0.001735 0.006141 0.001491 0.022549 0.012968 0.004413
# 5 0.007695 0.004584 0.011600 0.012968 0.066196 0.022513
# 6 0.002322 0.002300 0.004733 0.004413 0.022513 0.028234
#
#
# Mechanical properties :
#
#
# Convention : Reuss Voigt Hill
#
# Bulk Modulus (GPa) = 37.92814 66.73331 52.33073
# Shear Modulus (GPa) = 30.31856 47.89592 39.10724
#
# Velocity S-wave (km/s) = 3.34720 4.20704 3.80151
# Velocity P-wave (km/s) = 5.38090 6.94688 6.21343
#
# Compressibility (1/GPa) = 0.02636565
#
# Stress axis : x y z
#
# Youngs Moduli (GPa) = 152.64644 89.48314 66.53314
#
# Poissons Ratio (x) = 0.10769 -0.06152
# Poissons Ratio (y) = 0.18371 0.19405
# Poissons Ratio (z) = -0.14115 0.26099
#
# Static dielectric constant tensor:
#      x y z
#    x 2.061160 0.059370 -0.002910 
#    y 0.059370 2.201170 0.101150 
#    z -0.002910 0.101150 2.150900 
# 
# From -- ./inp_files/66632.got.cif
#   From: 2010.05.17/outbox.cif.g08.bks.cpg/sg2_34_cif.got.tgz:66632.got - 2010.06.03 11:33:40.
