data_PCOD9105929
_publ_section_title
;
Structure prediction by ZEFSAII (Michael W. Deem and Ramdas Pophale) SiO2 
 PCOD9105929
Probable space group: P -1
;
_chemical_formula_sum "Si O2"
_cell_formula_units_Z 16
_cell_length_a 9.447185
_cell_length_b 14.356241
_cell_length_c 21.673228
_cell_angle_alpha 152.725913
_cell_angle_beta 145.820957
_cell_angle_gamma 39.835190
_cell_volume 750.633977
_symmetry_space_group_name_H-M "P -1"
_symmetry_group_IT_number 2
_symmetry_cell_setting 'triclinic'
loop_
_space_group_symop_operation_xyz
x,y,z
-x,-y,-z
loop_
_atom_site_type_symbol
_atom_site_label
_atom_site_fract_x
_atom_site_fract_y
_atom_site_fract_z
Si Si1 0.717635 0.935770 0.874268
Si Si2 0.713464 0.584085 0.429156
Si Si3 0.010047 0.774163 0.397605
Si Si4 0.412858 0.345069 0.449076
Si Si5 0.919591 0.625373 0.400788
Si Si6 0.388478 0.646857 0.951035
Si Si7 0.835490 0.417112 0.041218
Si Si8 0.374800 0.213991 0.110100
O O1 0.642257 0.804128 0.712765
O O2 0.673761 0.826778 0.858683
O O3 0.537279 0.151367 0.934760
O O4 0.000000 0.000000 0.000000
O O5 0.633497 0.735120 0.545838
O O6 0.737032 0.669849 0.419816
O O7 0.545221 0.395832 0.263920
O O8 0.000000 0.500000 0.500000
O O9 0.287780 0.647701 0.436296
O O10 0.899769 0.791645 0.437544
O O11 0.886839 0.628631 0.219057
O O12 0.000000 0.000000 0.500000
O O13 0.207998 0.547014 0.481928
O O14 0.818714 0.437724 0.216975
O O15 0.274167 0.699960 0.009486
O O16 0.622380 0.475513 0.947835
O O17 0.089888 0.297053 0.034842
O O18 0.500000 0.000000 0.000000
#
# Coordination Sequence:
#
# PCOD9105929 Si02
#       8
#     2   2   2   2   2   2   2   2
#     4  12  22  38  64 105 127 166 234 286 323 399
#     4  10  24  41  63  94 135 176 214 273 343 393
#     4  11  22  39  64  99 129 170 224 277 328 402
#     4  11  22  38  70  89 131 171 223 277 331 387
#     4  10  21  40  64  92 127 175 220 267 336 391
#     4  10  20  39  66  94 132 169 215 275 337 396
#     4  10  21  40  63  95 134 175 213 271 340 401
#     4  12  25  42  68  99 138 173 230 280 336 402
#
# _framework density 21.315315999999999
#
# number of rings (size 3 to 8) (size 9 to 14) (size 15 to 20)
#    0.000    1.250    3.750    2.625    5.250    0.000 
#    0.000    3.125    0.000    0.000    0.000    0.000 
#    0.000    0.000    0.000    0.000    0.000    0.000 
#
# Total GULP energy -89219.000313 kJ/mol
# GULP energy per Si atom -5576.187520 kJ/mol
# Density = 2.126680 g / cm^3
# Si number density = 21.315316 Si / 1000 Ang^3
#
#
#
# Elastic Constant Matrix: (Units=GPa)
#
#
# Indices 1 2 3 4 5 6 
#
# 1 138.8343 34.9817 24.7696 4.4939 -6.3844 16.7110
# 2 34.9817 92.3739 21.7824 -4.2356 8.7501 2.5201
# 3 24.7696 21.7824 52.8820 -9.9850 -2.5401 2.1520
# 4 4.4939 -4.2356 -9.9850 29.2659 -0.7578 11.3624
# 5 -6.3844 8.7501 -2.5401 -0.7578 30.4115 -3.1581
# 6 16.7110 2.5201 2.1520 11.3624 -3.1581 43.4069
#
#
#
# Elastic Compliance Matrix: (Units=1/GPa)
#
#
# Indices 1 2 3 4 5 6 
#
# 1 0.008943 -0.002862 -0.003155 -0.001845 0.002134 -0.002482
# 2 -0.002862 0.013406 -0.004257 0.000814 -0.004796 -0.000027
# 3 -0.003155 -0.004257 0.024012 0.008849 0.002596 -0.001856
# 4 -0.001845 0.000814 0.008849 0.041745 0.000047 -0.010700
# 5 0.002134 -0.004796 0.002596 0.000047 0.035123 0.001871
# 6 -0.002482 -0.000027 -0.001856 -0.010700 0.001871 0.027024
#
#
# Mechanical properties :
#
#
# Convention : Reuss Voigt Hill
#
# Bulk Modulus (GPa) = 38.73943 49.68418 44.21180
# Shear Modulus (GPa) = 27.86993 34.12063 30.99528
#
# Velocity S-wave (km/s) = 3.61987 4.00529 3.81745
# Velocity P-wave (km/s) = 5.97371 6.68951 6.34171
#
# Compressibility (1/GPa) = 0.02581349
#
# Stress axis : x y z
#
# Youngs Moduli (GPa) = 111.81351 74.59617 41.64530
#
# Poissons Ratio (x) = 0.21348 0.13140
# Poissons Ratio (y) = 0.31999 0.17728
# Poissons Ratio (z) = 0.35278 0.31755
#
# Static dielectric constant tensor:
#      x y z
#    x 1.948320 -0.037810 -0.019280 
#    y -0.037810 1.804580 0.018160 
#    z -0.019280 0.018160 1.790300 
# 
# From -- ./inp_files/590328.got.cif
#   From: 2010.05.17/outbox.cif.g08.bks.cpg/sg2_296_cif.got.tgz:590328.got - 2010.06.03 11:33:40.
