data_PCOD9105275
_publ_section_title
;
Structure prediction by ZEFSAII (Michael W. Deem and Ramdas Pophale) SiO2 
 PCOD9105275
Probable space group: P -1
;
_chemical_formula_sum "Si O2"
_cell_formula_units_Z 12
_cell_length_a 5.649940
_cell_length_b 28.216045
_cell_length_c 14.811140
_cell_angle_alpha 166.651677
_cell_angle_beta 57.175575
_cell_angle_gamma 121.218321
_cell_volume 457.582038
_symmetry_space_group_name_H-M "P -1"
_symmetry_group_IT_number 2
_symmetry_cell_setting 'triclinic'
loop_
_space_group_symop_operation_xyz
x,y,z
-x,-y,-z
loop_
_atom_site_type_symbol
_atom_site_label
_atom_site_fract_x
_atom_site_fract_y
_atom_site_fract_z
Si Si1 0.856345 0.372515 0.370534
Si Si2 0.135720 0.856210 0.784908
Si Si3 0.331582 0.185881 0.498340
Si Si4 0.675414 0.805467 0.286034
Si Si5 0.796099 0.225766 0.796507
Si Si6 0.706580 0.688584 0.694428
O O1 0.612841 0.244197 0.138444
O O2 0.000000 0.500000 0.500000
O O3 0.096612 0.246562 0.143382
O O4 0.713028 0.553025 0.798979
O O5 0.408942 0.727525 0.451060
O O6 0.891617 0.729421 0.643768
O O7 0.254470 0.991475 0.093216
O O8 0.000000 0.000000 0.000000
O O9 0.461031 0.152362 0.509635
O O10 0.019471 0.270346 0.751136
O O11 0.995645 0.871077 0.351211
O O12 0.469793 0.876849 0.381250
O O13 0.686553 0.444826 0.263431
#
# Coordination Sequence:
#
# PCOD9105275 Si02
#       6
#     2   2   2   2   2   2
#     4  10  20  39  64  88 112 146 191 253 299 330
#     4  11  23  36  55  86 123 164 189 224 283 350
#     4   9  20  35  56  78 121 159 189 226 285 339
#     4   8  16  33  55  82 108 144 185 235 285 334
#     4   8  16  34  53  79 107 149 186 236 274 327
#     4  10  22  37  60  90 117 145 197 241 282 348
#
# _framework density 26.224805
#
# number of rings (size 3 to 8) (size 9 to 14) (size 15 to 20)
#    1.000    1.667    0.000    1.500    4.667    0.667 
#    0.000    2.500    0.000    2.000    0.000    0.000 
#    0.000    0.000    0.000    0.000    0.000    0.000 
#
# Total GULP energy -66932.349580 kJ/mol
# GULP energy per Si atom -5577.695798 kJ/mol
# Density = 2.616512 g / cm^3
# Si number density = 26.224805 Si / 1000 Ang^3
#
#
#
# Elastic Constant Matrix: (Units=GPa)
#
#
# Indices 1 2 3 4 5 6 
#
# 1 288.7009 46.4127 43.9323 10.2560 6.5741 8.5083
# 2 46.4127 107.2345 7.6804 3.9100 8.8348 7.7426
# 3 43.9323 7.6804 82.3898 -14.1908 -13.0130 -7.3654
# 4 10.2560 3.9100 -14.1908 25.4794 0.2810 1.8473
# 5 6.5741 8.8348 -13.0130 0.2810 31.6278 0.8204
# 6 8.5083 7.7426 -7.3654 1.8473 0.8204 43.1200
#
#
#
# Elastic Compliance Matrix: (Units=1/GPa)
#
#
# Indices 1 2 3 4 5 6 
#
# 1 0.004329 -0.001321 -0.003095 -0.003173 -0.001751 -0.000976
# 2 -0.001321 0.010411 -0.001168 -0.001561 -0.003057 -0.001683
# 3 -0.003095 -0.001168 0.017275 0.010730 0.007900 0.003161
# 4 -0.003173 -0.001561 0.010730 0.046638 0.005079 0.000645
# 5 -0.001751 -0.003057 0.007900 0.005079 0.036006 0.001341
# 6 -0.000976 -0.001683 0.003161 0.000645 0.001341 0.024173
#
#
# Mechanical properties :
#
#
# Convention : Reuss Voigt Hill
#
# Bulk Modulus (GPa) = 47.97119 74.93067 61.45093
# Shear Modulus (GPa) = 31.85730 45.39877 38.62804
#
# Velocity S-wave (km/s) = 3.48915 4.16521 3.84208
# Velocity P-wave (km/s) = 5.87913 7.19489 6.57003
#
# Compressibility (1/GPa) = 0.02084584
#
# Stress axis : x y z
#
# Youngs Moduli (GPa) = 231.02073 96.05068 57.88571
#
# Poissons Ratio (x) = 0.12692 0.17918
# Poissons Ratio (y) = 0.30526 0.06761
# Poissons Ratio (z) = 0.71509 0.11219
#
# Static dielectric constant tensor:
#      x y z
#    x 2.109440 0.013570 -0.015270 
#    y 0.013570 1.989920 -0.044840 
#    z -0.015270 -0.044840 2.101460 
# 
# From -- ./inp_files/50023.got.cif
#   From: 2010.05.17/outbox.cif.g08.bks.cpg/sg2_26_cif.got.tgz:50023.got - 2010.06.03 11:33:40.
