data_PCOD9105869
_publ_section_title
;
Structure prediction by ZEFSAII (Michael W. Deem and Ramdas Pophale) SiO2 
 PCOD9105869
Probable space group: P -1
;
_chemical_formula_sum "Si O2"
_cell_formula_units_Z 12
_cell_length_a 8.293106
_cell_length_b 9.023361
_cell_length_c 16.059913
_cell_angle_alpha 59.655767
_cell_angle_beta 32.429582
_cell_angle_gamma 66.406723
_cell_volume 555.296118
_symmetry_space_group_name_H-M "P -1"
_symmetry_group_IT_number 2
_symmetry_cell_setting 'triclinic'
loop_
_space_group_symop_operation_xyz
x,y,z
-x,-y,-z
loop_
_atom_site_type_symbol
_atom_site_label
_atom_site_fract_x
_atom_site_fract_y
_atom_site_fract_z
Si Si1 0.844475 0.943490 0.172092
Si Si2 0.339736 0.150579 0.980078
Si Si3 0.724838 0.076387 0.677350
Si Si4 0.156422 0.450528 0.685862
Si Si5 0.222811 0.270249 0.311881
Si Si6 0.704860 0.508036 0.993098
O O1 0.490892 0.928164 0.309354
O O2 0.918522 0.754077 0.225696
O O3 0.000000 0.000000 0.000000
O O4 0.999876 0.079619 0.128546
O O5 0.535878 0.163754 0.806003
O O6 0.341065 0.323720 0.982078
O O7 0.500000 0.000000 0.000000
O O8 0.039477 0.176608 0.492654
O O9 0.777111 0.873213 0.721400
O O10 0.500000 0.500000 0.500000
O O11 0.967401 0.566658 0.674087
O O12 0.042130 0.497118 0.815325
O O13 0.565271 0.343601 0.151321
O O14 0.500000 0.500000 0.000000
#
# Coordination Sequence:
#
# PCOD9105869 Si02
#       6
#     2   2   2   2   2   2
#     4  10  21  40  64  94 128 163 209 263 323 373
#     4  11  21  38  65  94 128 169 215 261 321 385
#     4  10  21  39  66  94 128 168 210 268 320 378
#     4  11  20  38  67  93 125 166 215 260 320 376
#     4  10  20  39  66  91 129 170 213 255 325 384
#     4  10  21  37  61  88 121 167 210 255 312 373
#
# _framework density 21.610091000000001
#
# number of rings (size 3 to 8) (size 9 to 14) (size 15 to 20)
#    0.000    1.667    1.667    6.000    0.000    0.667 
#    0.000    8.333   14.667    0.000    0.000    0.000 
#    0.000    0.000    0.000    0.000    0.000    0.000 
#
# Total GULP energy -66914.484995 kJ/mol
# GULP energy per Si atom -5576.207083 kJ/mol
# Density = 2.156091 g / cm^3
# Si number density = 21.610091 Si / 1000 Ang^3
#
#
#
# Elastic Constant Matrix: (Units=GPa)
#
#
# Indices 1 2 3 4 5 6 
#
# 1 53.8444 35.8091 17.8507 -4.4510 -8.9123 8.1338
# 2 35.8091 146.1939 76.5484 -14.0474 5.7587 24.5518
# 3 17.8507 76.5484 165.7915 2.3165 2.8759 18.9803
# 4 -4.4510 -14.0474 2.3165 44.2932 -5.6186 1.5416
# 5 -8.9123 5.7587 2.8759 -5.6186 12.8075 0.5050
# 6 8.1338 24.5518 18.9803 1.5416 0.5050 43.6444
#
#
#
# Elastic Compliance Matrix: (Units=1/GPa)
#
#
# Indices 1 2 3 4 5 6 
#
# 1 0.027913 -0.007189 0.000022 0.003664 0.024321 -0.001578
# 2 -0.007189 0.011966 -0.004236 0.002370 -0.008253 -0.003538
# 3 0.000022 -0.004236 0.008147 -0.001813 -0.000662 -0.001092
# 4 0.003664 0.002370 -0.001813 0.025544 0.013187 -0.002283
# 5 0.024321 -0.008253 -0.000662 0.013187 0.104698 -0.001279
# 6 -0.001578 -0.003538 -0.001092 -0.002283 -0.001279 0.025767
#
#
# Mechanical properties :
#
#
# Convention : Reuss Voigt Hill
#
# Bulk Modulus (GPa) = 39.65284 69.58293 54.61789
# Shear Modulus (GPa) = 21.25419 35.85714 28.55566
#
# Velocity S-wave (km/s) = 3.13953 4.07784 3.63906
# Velocity P-wave (km/s) = 5.61527 7.37841 6.55638
#
# Compressibility (1/GPa) = 0.02521887
#
# Stress axis : x y z
#
# Youngs Moduli (GPa) = 35.82577 83.56952 122.74504
#
# Poissons Ratio (x) = 0.60081 -0.00266
# Poissons Ratio (y) = 0.25756 0.51992
# Poissons Ratio (z) = -0.00078 0.35398
#
# Static dielectric constant tensor:
#      x y z
#    x 1.852740 -0.051110 0.012050 
#    y -0.051110 1.827980 0.002640 
#    z 0.012050 0.002640 1.873420 
# 
# From -- ./inp_files/204356.got.cif
#   From: 2010.05.17/outbox.cif.g08.bks.cpg/sg2_103_cif.got.tgz:204356.got - 2010.06.03 11:33:40.
