data_PCOD9105503
_publ_section_title
;
Structure prediction by ZEFSAII (Michael W. Deem and Ramdas Pophale) SiO2 
 PCOD9105503
Probable space group: P -1
;
_chemical_formula_sum "Si O2"
_cell_formula_units_Z 16
_cell_length_a 8.920270
_cell_length_b 18.469658
_cell_length_c 9.094554
_cell_angle_alpha 138.887377
_cell_angle_beta 55.945528
_cell_angle_gamma 131.671657
_cell_volume 730.600357
_symmetry_space_group_name_H-M "P -1"
_symmetry_group_IT_number 2
_symmetry_cell_setting 'triclinic'
loop_
_space_group_symop_operation_xyz
x,y,z
-x,-y,-z
loop_
_atom_site_type_symbol
_atom_site_label
_atom_site_fract_x
_atom_site_fract_y
_atom_site_fract_z
Si Si1 0.680069 0.386927 0.445096
Si Si2 0.027684 0.341526 0.346429
Si Si3 0.078263 0.141914 0.844595
Si Si4 0.378874 0.981022 0.186317
Si Si5 0.607606 0.921118 0.384104
Si Si6 0.619295 0.240243 0.972505
Si Si7 0.865894 0.376496 0.795425
Si Si8 0.471134 0.359920 0.809336
O O1 0.774932 0.534686 0.616893
O O2 0.506769 0.331899 0.577807
O O3 0.853227 0.349612 0.352057
O O4 0.629422 0.342128 0.236780
O O5 0.979724 0.353240 0.560534
O O6 0.042872 0.217649 0.113280
O O7 0.155647 0.038847 0.675723
O O8 0.256272 0.253413 0.823050
O O9 0.858303 0.068666 0.783825
O O10 0.398799 0.870563 0.087519
O O11 0.461158 0.093951 0.430330
O O12 0.500000 0.000000 0.000000
O O13 0.558344 0.811506 0.127238
O O14 0.500000 0.000000 0.500000
O O15 0.802666 0.280077 0.816921
O O16 0.663121 0.372745 0.824816
O O17 0.000000 0.500000 0.000000
O O18 0.500000 0.500000 0.000000
#
# Coordination Sequence:
#
# PCOD9105503 Si02
#       8
#     2   2   2   2   2   2   2   2
#     4  10  20  39  64  99 143 185 224 268 344 438
#     4  10  21  37  66 103 139 181 233 268 338 446
#     4  12  23  44  73 103 138 184 236 293 356 419
#     4  11  27  46  76  97 129 186 254 300 351 418
#     4  10  25  49  68  94 136 178 236 311 352 401
#     4  11  22  43  69  97 139 186 225 292 366 402
#     4  11  23  40  68 100 148 194 222 275 359 420
#     4  11  24  40  67 105 146 185 229 279 341 441
#
# _framework density 21.899795999999998
#
# number of rings (size 3 to 8) (size 9 to 14) (size 15 to 20)
#    0.000    1.250    5.000    0.375    5.250    0.000 
#    2.250    4.375    0.000    0.000    0.000    0.000 
#    0.000    0.000    0.000    0.000    0.000    0.000 
#
# Total GULP energy -89114.976256 kJ/mol
# GULP energy per Si atom -5569.686016 kJ/mol
# Density = 2.184995 g / cm^3
# Si number density = 21.899796 Si / 1000 Ang^3
#
#
#
# Elastic Constant Matrix: (Units=GPa)
#
#
# Indices 1 2 3 4 5 6 
#
# 1 65.8207 38.8196 63.6483 -9.0960 11.5205 6.1592
# 2 38.8196 102.1049 27.4666 -29.2121 10.5075 -5.8368
# 3 63.6483 27.4666 152.1278 -20.7988 33.8100 -3.5729
# 4 -9.0960 -29.2121 -20.7988 40.2076 -8.6325 1.2972
# 5 11.5205 10.5075 33.8100 -8.6325 43.3984 6.5019
# 6 6.1592 -5.8368 -3.5729 1.2972 6.5019 33.4625
#
#
#
# Elastic Compliance Matrix: (Units=1/GPa)
#
#
# Indices 1 2 3 4 5 6 
#
# 1 0.037603 -0.013563 -0.015967 -0.007951 0.005933 -0.011837
# 2 -0.013563 0.017560 0.004903 0.011347 -0.003151 0.006255
# 3 -0.015967 0.004903 0.015255 0.005746 -0.008723 0.006895
# 4 -0.007951 0.011347 0.005746 0.034507 0.001384 0.002450
# 5 0.005933 -0.003151 -0.008723 0.001384 0.030585 -0.008569
# 6 -0.011837 0.006255 0.006895 0.002450 -0.008569 0.035460
#
#
# Mechanical properties :
#
#
# Convention : Reuss Voigt Hill
#
# Bulk Modulus (GPa) = 47.25453 64.43583 55.84518
# Shear Modulus (GPa) = 21.99943 36.08830 29.04387
#
# Velocity S-wave (km/s) = 3.17290 4.06382 3.64568
# Velocity P-wave (km/s) = 5.92010 7.17679 6.57852
#
# Compressibility (1/GPa) = 0.02116199
#
# Stress axis : x y z
#
# Youngs Moduli (GPa) = 26.59386 56.94822 65.55257
#
# Poissons Ratio (x) = 0.77239 1.04670
# Poissons Ratio (y) = 0.36069 -0.32138
# Poissons Ratio (z) = 0.42463 -0.27920
#
# Static dielectric constant tensor:
#      x y z
#    x 1.566320 -0.265960 0.075790 
#    y -0.265960 1.549380 0.129120 
#    z 0.075790 0.129120 1.851000 
# 
# From -- ./inp_files/218546.got.cif
#   From: 2010.05.17/outbox.cif.g08.bks.cpg/sg2_110_cif.got.tgz:218546.got - 2010.06.03 11:33:40.
