data_PCOD9105913
_publ_section_title
;
Structure prediction by ZEFSAII (Michael W. Deem and Ramdas Pophale) SiO2 
 PCOD9105913
Probable space group: P -1
;
_chemical_formula_sum "Si O2"
_cell_formula_units_Z 16
_cell_length_a 17.189768
_cell_length_b 9.206941
_cell_length_c 10.986276
_cell_angle_alpha 82.551107
_cell_angle_beta 137.857293
_cell_angle_gamma 65.565051
_cell_volume 743.330969
_symmetry_space_group_name_H-M "P -1"
_symmetry_group_IT_number 2
_symmetry_cell_setting 'triclinic'
loop_
_space_group_symop_operation_xyz
x,y,z
-x,-y,-z
loop_
_atom_site_type_symbol
_atom_site_label
_atom_site_fract_x
_atom_site_fract_y
_atom_site_fract_z
Si Si1 0.243337 0.611422 0.310361
Si Si2 0.510449 0.585949 0.711744
Si Si3 0.955701 0.979402 0.133441
Si Si4 0.755190 0.065533 0.429176
Si Si5 0.362872 0.270475 0.303645
Si Si6 0.209441 0.763800 0.745176
Si Si7 0.954207 0.325670 0.545334
Si Si8 0.996705 0.415307 0.313611
O O1 0.413447 0.526517 0.578160
O O2 0.073579 0.781591 0.187628
O O3 0.278341 0.418319 0.314546
O O4 0.196520 0.778119 0.134086
O O5 0.401795 0.768307 0.675153
O O6 0.525579 0.694743 0.615612
O O7 0.704695 0.364039 0.015451
O O8 0.089147 0.973703 0.341701
O O9 0.909209 0.908473 0.192568
O O10 0.700824 0.185203 0.222352
O O11 0.850960 0.817731 0.558538
O O12 0.500000 0.000000 0.500000
O O13 0.195269 0.403186 0.000646
O O14 0.215077 0.619071 0.675923
O O15 0.000000 0.000000 0.500000
O O16 0.990064 0.340797 0.446404
O O17 0.939375 0.484356 0.590394
#
# Coordination Sequence:
#
# PCOD9105913 Si02
#       8
#     2   2   2   2   2   2   2   2
#     4  10  22  42  63  94 127 157 210 254 311 371
#     4  11  24  40  62  96 124 159 210 259 306 366
#     4   9  20  39  69  94 118 160 207 265 306 365
#     4  10  20  39  66  94 123 157 205 261 314 362
#     4  12  26  42  60  90 132 168 205 253 311 376
#     4  11  20  39  65  91 120 160 201 258 307 363
#     4  10  22  37  66  91 119 159 213 249 310 368
#     4  11  22  42  62  90 123 168 207 250 309 378
#
# _framework density 21.524733000000001
#
# number of rings (size 3 to 8) (size 9 to 14) (size 15 to 20)
#    0.000    1.500    3.750    0.750    3.500    2.000 
#    0.000    1.875    0.000    0.000    0.000    0.000 
#    0.000    0.000    0.000    0.000    0.000    0.000 
#
# Total GULP energy -89245.135907 kJ/mol
# GULP energy per Si atom -5577.820994 kJ/mol
# Density = 2.147574 g / cm^3
# Si number density = 21.524733 Si / 1000 Ang^3
#
#
#
# Elastic Constant Matrix: (Units=GPa)
#
#
# Indices 1 2 3 4 5 6 
#
# 1 39.8378 21.0109 19.8548 -12.0706 -7.2776 -9.7205
# 2 21.0109 173.4196 50.8612 -17.4760 -4.4761 -9.2417
# 3 19.8548 50.8612 83.8384 -13.8340 -14.7804 0.3513
# 4 -12.0706 -17.4760 -13.8340 28.1658 -0.5161 -1.4944
# 5 -7.2776 -4.4761 -14.7804 -0.5161 26.0450 -2.0378
# 6 -9.7205 -9.2417 0.3513 -1.4944 -2.0378 30.5933
#
#
#
# Elastic Compliance Matrix: (Units=1/GPa)
#
#
# Indices 1 2 3 4 5 6 
#
# 1 0.036654 -0.000859 -0.004356 0.013873 0.008891 0.012707
# 2 -0.000859 0.007384 -0.004100 0.002288 -0.001092 0.002044
# 3 -0.004356 -0.004100 0.017561 0.004250 0.007965 -0.002086
# 4 0.013873 0.002288 0.004250 0.045522 0.008195 0.007820
# 5 0.008891 -0.001092 0.007965 0.008195 0.045833 0.005857
# 6 0.012707 0.002044 -0.002086 0.007820 0.005857 0.038138
#
#
# Mechanical properties :
#
#
# Convention : Reuss Voigt Hill
#
# Bulk Modulus (GPa) = 23.27233 53.39439 38.33336
# Shear Modulus (GPa) = 22.31716 30.65207 26.48462
#
# Velocity S-wave (km/s) = 3.22345 3.77774 3.51155
# Velocity P-wave (km/s) = 4.96886 6.62483 5.85568
#
# Compressibility (1/GPa) = 0.04296949
#
# Stress axis : x y z
#
# Youngs Moduli (GPa) = 27.28230 135.42540 56.94542
#
# Poissons Ratio (x) = 0.11627 0.24806
# Poissons Ratio (y) = 0.02342 0.23347
# Poissons Ratio (z) = 0.11885 0.55522
#
# Static dielectric constant tensor:
#      x y z
#    x 1.842260 -0.041970 -0.059700 
#    y -0.041970 1.827200 0.014340 
#    z -0.059700 0.014340 1.825810 
# 
# From -- ./inp_files/399542.got.cif
#   From: 2010.05.17/outbox.cif.g08.bks.cpg/sg2_200_cif.got.tgz:399542.got - 2010.06.03 11:33:40.
