data_PCOD9105898
_publ_section_title
;
Structure prediction by ZEFSAII (Michael W. Deem and Ramdas Pophale) SiO2 
 PCOD9105898
Probable space group: P -1
;
_chemical_formula_sum "Si O2"
_cell_formula_units_Z 16
_cell_length_a 19.918751
_cell_length_b 11.405483
_cell_length_c 11.708471
_cell_angle_alpha 31.748819
_cell_angle_beta 149.350241
_cell_angle_gamma 144.437985
_cell_volume 679.446592
_symmetry_space_group_name_H-M "P -1"
_symmetry_group_IT_number 2
_symmetry_cell_setting 'triclinic'
loop_
_space_group_symop_operation_xyz
x,y,z
-x,-y,-z
loop_
_atom_site_type_symbol
_atom_site_label
_atom_site_fract_x
_atom_site_fract_y
_atom_site_fract_z
Si Si1 0.662513 0.241986 0.687520
Si Si2 0.978054 0.789923 0.977691
Si Si3 0.610919 0.672056 0.847956
Si Si4 0.584737 0.318674 0.748749
Si Si5 0.809526 0.879686 0.165882
Si Si6 0.936788 0.551081 0.744844
Si Si7 0.611438 0.216710 0.120088
Si Si8 0.183184 0.986953 0.308934
O O1 0.514119 0.214537 0.436575
O O2 0.666248 0.377366 0.700658
O O3 0.778759 0.383561 0.653255
O O4 0.715725 0.019444 0.973502
O O5 0.970530 0.531105 0.143265
O O6 0.051541 0.840217 0.166014
O O7 0.847426 0.880041 0.733952
O O8 0.079728 0.953862 0.897559
O O9 0.721328 0.816137 0.797138
O O10 0.695729 0.699563 0.067242
O O11 0.553797 0.405494 0.941918
O O12 0.500000 0.500000 0.500000
O O13 0.488211 0.050318 0.808212
O O14 0.655800 0.301413 0.986731
O O15 0.904639 0.786224 0.467885
O O16 0.000000 0.500000 0.000000
O O17 0.741094 0.199112 0.393949
#
# Coordination Sequence:
#
# PCOD9105898 Si02
#       8
#     2   2   2   2   2   2   2   2
#     4  11  24  42  65  94 132 170 211 268 324 387
#     4   9  22  42  62  93 125 166 219 265 314 381
#     4  11  22  41  66 101 132 160 215 273 328 386
#     4  11  23  40  57  92 133 164 210 253 315 388
#     4  10  24  43  67  93 127 174 217 268 324 381
#     4  11  26  43  63  89 128 173 221 265 311 384
#     4  11  22  36  65  93 129 172 201 263 326 384
#     4  10  20  39  66  93 128 163 210 270 324 374
#
# _framework density 23.548577000000002
#
# number of rings (size 3 to 8) (size 9 to 14) (size 15 to 20)
#    0.000    1.500    2.500    1.125    1.750    7.500 
#    0.000    3.750    0.000    0.000    0.000    0.000 
#    0.000    0.000    0.000    0.000    0.000    0.000 
#
# Total GULP energy -89296.880753 kJ/mol
# GULP energy per Si atom -5581.055047 kJ/mol
# Density = 2.349498 g / cm^3
# Si number density = 23.548577 Si / 1000 Ang^3
#
#
#
# Elastic Constant Matrix: (Units=GPa)
#
#
# Indices 1 2 3 4 5 6 
#
# 1 84.3161 10.3968 36.2240 -8.9993 27.0578 -19.2543
# 2 10.3968 53.2494 25.2105 -5.5199 11.3977 -19.1108
# 3 36.2240 25.2105 160.3096 -11.3467 8.1284 -28.7019
# 4 -8.9993 -5.5199 -11.3467 26.8194 -8.0946 7.9876
# 5 27.0578 11.3977 8.1284 -8.0946 38.0796 -2.0780
# 6 -19.2543 -19.1108 -28.7019 7.9876 -2.0780 35.0873
#
#
#
# Elastic Compliance Matrix: (Units=1/GPa)
#
#
# Indices 1 2 3 4 5 6 
#
# 1 0.019064 0.003892 -0.002510 -0.001002 -0.013846 0.009936
# 2 0.003892 0.026073 -0.002003 -0.001389 -0.009649 0.014443
# 3 -0.002510 -0.002003 0.007814 0.001312 0.001195 0.003696
# 4 -0.001002 -0.001389 0.001312 0.042881 0.009448 -0.009436
# 5 -0.013846 -0.009649 0.001195 0.009448 0.040105 -0.011651
# 6 0.009936 0.014443 0.003696 -0.009436 -0.011651 0.046301
#
#
# Mechanical properties :
#
#
# Convention : Reuss Voigt Hill
#
# Bulk Modulus (GPa) = 19.33897 49.05975 34.19936
# Shear Modulus (GPa) = 24.91099 35.06686 29.98893
#
# Velocity S-wave (km/s) = 3.25600 3.86311 3.57247
# Velocity P-wave (km/s) = 4.72922 6.38567 5.61882
#
# Compressibility (1/GPa) = 0.05170907
#
# Stress axis : x y z
#
# Youngs Moduli (GPa) = 52.45556 38.35437 127.97615
#
# Poissons Ratio (x) = -0.14927 0.32117
# Poissons Ratio (y) = -0.20415 0.25631
# Poissons Ratio (z) = 0.13164 0.07682
#
# Static dielectric constant tensor:
#      x y z
#    x 1.919240 0.007600 0.029170 
#    y 0.007600 1.990490 -0.021990 
#    z 0.029170 -0.021990 1.923620 
# 
# From -- ./inp_files/77000.got.cif
#   From: 2010.05.17/outbox.cif.g08.bks.cpg/sg2_39_cif.got.tgz:77000.got - 2010.06.03 11:33:40.
