data_PCOD9105296
_publ_section_title
;
Structure prediction by ZEFSAII (Michael W. Deem and Ramdas Pophale) SiO2 
 PCOD9105296
Probable space group: P -1
;
_chemical_formula_sum "Si O2"
_cell_formula_units_Z 16
_cell_length_a 7.841029
_cell_length_b 15.311228
_cell_length_c 9.598715
_cell_angle_alpha 63.277093
_cell_angle_beta 104.636353
_cell_angle_gamma 60.570268
_cell_volume 711.170294
_symmetry_space_group_name_H-M "P -1"
_symmetry_group_IT_number 2
_symmetry_cell_setting 'triclinic'
loop_
_space_group_symop_operation_xyz
x,y,z
-x,-y,-z
loop_
_atom_site_type_symbol
_atom_site_label
_atom_site_fract_x
_atom_site_fract_y
_atom_site_fract_z
Si Si1 0.027936 0.551035 0.648749
Si Si2 0.048211 0.325402 0.941579
Si Si3 0.733275 0.124869 0.692537
Si Si4 0.387475 0.042127 0.099167
Si Si5 0.733552 0.067090 0.198238
Si Si6 0.576099 0.695212 0.266173
Si Si7 0.258234 0.540973 0.968425
Si Si8 0.520601 0.757765 0.733906
O O1 0.997045 0.450065 0.769571
O O2 0.275251 0.449187 0.677245
O O3 0.071102 0.601991 0.755382
O O4 0.793697 0.663945 0.422588
O O5 0.147749 0.204567 0.946601
O O6 0.272677 0.253779 0.148446
O O7 0.834673 0.377541 0.965047
O O8 0.636012 0.237567 0.710002
O O9 0.558609 0.193911 0.472954
O O10 0.698474 0.030986 0.818826
O O11 0.006004 0.037728 0.750972
O O12 0.616427 0.006329 0.252208
O O13 0.500000 0.000000 0.000000
O O14 0.711675 0.139821 0.282316
O O15 0.544997 0.193847 0.961000
O O16 0.500000 0.500000 0.000000
O O17 0.345507 0.397674 0.121001
#
# Coordination Sequence:
#
# PCOD9105296 Si02
#       8
#     2   2   2   2   2   2   2   2
#     4  10  20  40  68  87 128 168 216 269 322 395
#     4  10  20  39  64  88 126 169 210 265 325 384
#     4  12  24  40  69  93 134 173 216 270 327 388
#     4  11  23  41  63  95 127 170 221 259 328 393
#     4  11  23  43  63  97 132 173 217 271 324 394
#     4  11  20  38  69  95 119 178 216 260 337 387
#     4  11  22  39  64  96 133 164 216 277 325 385
#     4  10  22  44  62  94 128 171 222 260 334 386
#
# _framework density 22.498125999999999
#
# number of rings (size 3 to 8) (size 9 to 14) (size 15 to 20)
#    0.000    1.250    5.000    3.750    1.750    2.000 
#    4.500    0.000    2.750    3.000    0.000    0.000 
#    0.000    0.000    0.000    0.000    0.000    0.000 
#
# Total GULP energy -89312.343607 kJ/mol
# GULP energy per Si atom -5582.021475 kJ/mol
# Density = 2.244692 g / cm^3
# Si number density = 22.498126 Si / 1000 Ang^3
#
#
#
# Elastic Constant Matrix: (Units=GPa)
#
#
# Indices 1 2 3 4 5 6 
#
# 1 57.2456 10.5283 -5.4833 -4.3823 -6.3956 -25.9063
# 2 10.5283 129.3267 -1.4988 20.6277 -14.1916 -39.0728
# 3 -5.4833 -1.4988 63.5219 19.1420 5.6850 3.5602
# 4 -4.3823 20.6277 19.1420 30.6697 -11.9705 -0.4021
# 5 -6.3956 -14.1916 5.6850 -11.9705 15.1164 6.0347
# 6 -25.9063 -39.0728 3.5602 -0.4021 6.0347 39.4239
#
#
#
# Elastic Compliance Matrix: (Units=1/GPa)
#
#
# Indices 1 2 3 4 5 6 
#
# 1 0.028338 0.004074 -0.003168 0.010136 0.016861 0.020467
# 2 0.004074 0.014050 0.003491 -0.011716 -0.002270 0.016515
# 3 -0.003168 0.003491 0.030375 -0.037794 -0.041236 0.004562
# 4 0.010136 -0.011716 -0.037794 0.102157 0.094364 -0.014941
# 5 0.016861 -0.002270 -0.041236 0.094364 0.166147 -0.011916
# 6 0.020467 0.016515 0.004562 -0.014941 -0.011916 0.056442
#
#
# Mechanical properties :
#
#
# Convention : Reuss Voigt Hill
#
# Bulk Modulus (GPa) = 12.26141 28.57629 20.41885
# Shear Modulus (GPa) = 12.02203 33.47853 22.75028
#
# Velocity S-wave (km/s) = 2.31412 3.86172 3.18340
# Velocity P-wave (km/s) = 3.54993 5.71078 4.75474
#
# Compressibility (1/GPa) = 0.08155666
#
# Stress axis : x y z
#
# Youngs Moduli (GPa) = 35.28815 71.17234 32.92144
#
# Poissons Ratio (x) = -0.28992 0.10431
# Poissons Ratio (y) = -0.14375 -0.11494
# Poissons Ratio (z) = 0.11181 -0.24848
#
# Static dielectric constant tensor:
#      x y z
#    x 1.831810 -0.030810 0.041500 
#    y -0.030810 1.954590 0.018210 
#    z 0.041500 0.018210 1.812170 
# 
# From -- ./inp_files/217059.got.cif
#   From: 2010.05.17/outbox.cif.g08.bks.cpg/sg2_109_cif.got.tgz:217059.got - 2010.06.03 11:33:40.
