data_PCOD9105487
_publ_section_title
;
Structure prediction by ZEFSAII (Michael W. Deem and Ramdas Pophale) SiO2 
 PCOD9105487
Probable space group: P -1
;
_chemical_formula_sum "Si O2"
_cell_formula_units_Z 14
_cell_length_a 12.610176
_cell_length_b 11.433026
_cell_length_c 7.366066
_cell_angle_alpha 110.114596
_cell_angle_beta 127.097464
_cell_angle_gamma 47.589973
_cell_volume 621.830843
_symmetry_space_group_name_H-M "P -1"
_symmetry_group_IT_number 2
_symmetry_cell_setting 'triclinic'
loop_
_space_group_symop_operation_xyz
x,y,z
-x,-y,-z
loop_
_atom_site_type_symbol
_atom_site_label
_atom_site_fract_x
_atom_site_fract_y
_atom_site_fract_z
Si Si1 0.907355 0.480411 0.631123
Si Si2 0.581994 0.320577 0.944535
Si Si3 0.092422 0.739274 0.781405
Si Si4 0.524185 0.338580 0.470904
Si Si5 0.697538 0.005002 0.537872
Si Si6 0.178970 0.504540 0.042792
Si Si7 0.424249 0.181541 0.677459
O O1 0.902291 0.367404 0.429312
O O2 0.748724 0.665686 0.518922
O O3 0.077919 0.463695 0.795520
O O4 0.905778 0.433288 0.812534
O O5 0.494528 0.253512 0.911957
O O6 0.500000 0.500000 0.000000
O O7 0.783768 0.218760 0.119415
O O8 0.175460 0.631436 0.989752
O O9 0.898469 0.878508 0.704338
O O10 0.500000 0.500000 0.500000
O O11 0.672371 0.151836 0.488319
O O12 0.367276 0.364850 0.224624
O O13 0.524088 0.336823 0.686690
O O14 0.583586 0.067035 0.640009
O O15 0.629367 0.915572 0.333277
#
# Coordination Sequence:
#
# PCOD9105487 Si02
#       7
#     2   2   2   2   2   2   2
#     4  11  22  39  68  98 134 180 227 275 326 409
#     4  11  21  38  68  99 130 175 223 272 330 402
#     4  12  23  40  72 100 130 177 234 271 334 400
#     4  11  22  42  65  92 130 175 219 273 341 402
#     4  10  23  40  66  98 134 176 222 283 334 395
#     4  11  22  39  68  96 130 180 230 271 329 403
#     4  10  20  39  64  97 139 173 218 274 339 391
#
# _framework density 22.514161999999999
#
# number of rings (size 3 to 8) (size 9 to 14) (size 15 to 20)
#    0.000    1.143    7.143    0.429    0.000    2.286 
#    0.000    0.714    9.429    1.714    0.000    0.000 
#    0.000    0.000    0.000    0.000    0.000    0.000 
#
# Total GULP energy -77972.282587 kJ/mol
# GULP energy per Si atom -5569.448756 kJ/mol
# Density = 2.246292 g / cm^3
# Si number density = 22.514162 Si / 1000 Ang^3
#
#
#
# Elastic Constant Matrix: (Units=GPa)
#
#
# Indices 1 2 3 4 5 6 
#
# 1 46.4554 16.6955 42.4043 8.1338 5.0482 3.0575
# 2 16.6955 91.7578 37.5497 5.5507 8.1587 -1.2279
# 3 42.4043 37.5497 126.3568 -2.0285 17.8218 -12.9334
# 4 8.1338 5.5507 -2.0285 32.9215 0.9467 19.0552
# 5 5.0482 8.1587 17.8218 0.9467 32.9922 -2.7692
# 6 3.0575 -1.2279 -12.9334 19.0552 -2.7692 30.9237
#
#
#
# Elastic Compliance Matrix: (Units=1/GPa)
#
#
# Indices 1 2 3 4 5 6 
#
# 1 0.033963 -0.001136 -0.011774 -0.006541 0.001281 -0.004182
# 2 -0.001136 0.012666 -0.003198 -0.002401 -0.001107 0.000658
# 3 -0.011774 -0.003198 0.014075 0.001048 -0.004548 0.005871
# 4 -0.006541 -0.002401 0.001048 0.049933 -0.002926 -0.030041
# 5 0.001281 -0.001107 -0.004548 -0.002926 0.033155 0.002699
# 6 -0.004182 0.000658 0.005871 -0.030041 0.002699 0.053986
#
#
# Mechanical properties :
#
#
# Convention : Reuss Voigt Hill
#
# Bulk Modulus (GPa) = 35.10159 50.87434 42.98796
# Shear Modulus (GPa) = 20.87786 30.56218 25.72002
#
# Velocity S-wave (km/s) = 3.04850 3.68838 3.38360
# Velocity P-wave (km/s) = 5.29300 6.38627 5.86517
#
# Compressibility (1/GPa) = 0.02848874
#
# Stress axis : x y z
#
# Youngs Moduli (GPa) = 29.44422 78.95130 71.04896
#
# Poissons Ratio (x) = 0.08965 0.83651
# Poissons Ratio (y) = 0.03344 0.22721
# Poissons Ratio (z) = 0.34667 0.25249
#
# Static dielectric constant tensor:
#      x y z
#    x 2.011180 -0.011160 0.042350 
#    y -0.011160 2.016700 0.133840 
#    z 0.042350 0.133840 1.872270 
# 
# From -- ./inp_files/464051.got.cif
#   From: 2010.05.17/outbox.cif.g08.bks.cpg/sg2_233_cif.got.tgz:464051.got - 2010.06.03 11:33:40.
