data_PCOD9105852
_publ_section_title
;
Structure prediction by ZEFSAII (Michael W. Deem and Ramdas Pophale) SiO2 
 PCOD9105852
Probable space group: P -1
;
_chemical_formula_sum "Si O2"
_cell_formula_units_Z 16
_cell_length_a 10.287173
_cell_length_b 9.770934
_cell_length_c 12.796486
_cell_angle_alpha 131.742593
_cell_angle_beta 59.228493
_cell_angle_gamma 124.429148
_cell_volume 772.268743
_symmetry_space_group_name_H-M "P -1"
_symmetry_group_IT_number 2
_symmetry_cell_setting 'triclinic'
loop_
_space_group_symop_operation_xyz
x,y,z
-x,-y,-z
loop_
_atom_site_type_symbol
_atom_site_label
_atom_site_fract_x
_atom_site_fract_y
_atom_site_fract_z
Si Si1 0.779616 0.929965 0.408566
Si Si2 0.044660 0.338270 0.267402
Si Si3 0.479308 0.283577 0.440984
Si Si4 0.995942 0.397013 0.077554
Si Si5 0.740984 0.526395 0.145046
Si Si6 0.259668 0.693828 0.481962
Si Si7 0.527855 0.832425 0.835006
Si Si8 0.099473 0.012689 0.210279
O O1 0.699295 0.843064 0.507618
O O2 0.727474 0.739110 0.257841
O O3 0.720786 0.102411 0.480235
O O4 0.973224 0.004697 0.350865
O O5 0.013471 0.347799 0.163657
O O6 0.200848 0.518063 0.333544
O O7 0.061868 0.137718 0.196097
O O8 0.889890 0.349680 0.398523
O O9 0.500000 0.500000 0.500000
O O10 0.591048 0.298063 0.503059
O O11 0.528069 0.180637 0.269077
O O12 0.873410 0.513796 0.170307
O O13 0.173771 0.508323 0.013022
O O14 0.925870 0.200758 0.935490
O O15 0.573947 0.366890 0.166056
O O16 0.717908 0.877279 0.775263
O O17 0.500000 0.000000 0.000000
#
# Coordination Sequence:
#
# PCOD9105852 Si02
#       8
#     2   2   2   2   2   2   2   2
#     4  10  23  44  66  94 130 172 218 267 326 386
#     4  10  21  39  66  93 128 173 219 260 330 386
#     4  12  24  42  71  93 129 177 214 269 332 383
#     4  10  20  39  66  90 132 172 212 268 327 386
#     4  10  21  40  62  94 131 169 218 268 320 386
#     4  10  23  42  63  97 131 167 217 275 317 392
#     4  12  24  41  64  99 132 168 219 272 325 385
#     4  10  22  41  64  96 134 167 217 270 320 396
#
# _framework density 20.718177000000001
#
# number of rings (size 3 to 8) (size 9 to 14) (size 15 to 20)
#    0.000    1.500    2.500    2.250    0.000    1.500 
#    0.000    0.625    0.000    0.000    0.000    0.000 
#    0.000    0.000    0.000    0.000    0.000    0.000 
#
# Total GULP energy -89337.491594 kJ/mol
# GULP energy per Si atom -5583.593225 kJ/mol
# Density = 2.067102 g / cm^3
# Si number density = 20.718177 Si / 1000 Ang^3
#
#
#
# Elastic Constant Matrix: (Units=GPa)
#
#
# Indices 1 2 3 4 5 6 
#
# 1 65.4692 42.1416 9.3229 -4.4577 -5.9528 7.8632
# 2 42.1416 147.6598 38.0194 -15.0068 -8.0160 5.7765
# 3 9.3229 38.0194 60.5151 -5.1524 -0.6402 -3.2494
# 4 -4.4577 -15.0068 -5.1524 35.8941 -4.3179 -5.9968
# 5 -5.9528 -8.0160 -0.6402 -4.3179 19.2546 1.5361
# 6 7.8632 5.7765 -3.2494 -5.9968 1.5361 30.5932
#
#
#
# Elastic Compliance Matrix: (Units=1/GPa)
#
#
# Indices 1 2 3 4 5 6 
#
# 1 0.019495 -0.005182 0.000076 0.000068 0.004225 -0.004223
# 2 -0.005182 0.010133 -0.005308 0.003098 0.003191 -0.000698
# 3 0.000076 -0.005308 0.020104 0.001058 -0.001552 0.003403
# 4 0.000068 0.003098 0.001058 0.031139 0.007913 0.005216
# 5 0.004225 0.003191 -0.001552 0.007913 0.056544 -0.003141
# 6 -0.004223 -0.000698 0.003403 0.005216 -0.003141 0.035446
#
#
# Mechanical properties :
#
#
# Convention : Reuss Voigt Hill
#
# Bulk Modulus (GPa) = 34.59635 50.29021 42.44328
# Shear Modulus (GPa) = 24.59132 29.42573 27.00852
#
# Velocity S-wave (km/s) = 3.44894 3.77276 3.61448
# Velocity P-wave (km/s) = 5.70921 6.58061 6.16034
#
# Compressibility (1/GPa) = 0.02890478
#
# Stress axis : x y z
#
# Youngs Moduli (GPa) = 51.29517 98.68425 49.74055
#
# Poissons Ratio (x) = 0.51137 -0.00378
# Poissons Ratio (y) = 0.26581 0.26402
# Poissons Ratio (z) = -0.00390 0.52382
#
# Static dielectric constant tensor:
#      x y z
#    x 1.742720 0.042210 -0.031150 
#    y 0.042210 1.765760 0.008230 
#    z -0.031150 0.008230 1.749720 
# 
# From -- ./inp_files/270489.got.cif
#   From: 2010.05.17/outbox.cif.g08.bks.cpg/sg2_136_cif.got.tgz:270489.got - 2010.06.03 11:33:40.
