data_PCOD9105688
_publ_section_title
;
Structure prediction by ZEFSAII (Michael W. Deem and Ramdas Pophale) SiO2 
 PCOD9105688
Probable space group: P -1
;
_chemical_formula_sum "Si O2"
_cell_formula_units_Z 16
_cell_length_a 16.323265
_cell_length_b 10.249599
_cell_length_c 9.224284
_cell_angle_alpha 64.245026
_cell_angle_beta 65.348842
_cell_angle_gamma 32.623950
_cell_volume 745.203286
_symmetry_space_group_name_H-M "P -1"
_symmetry_group_IT_number 2
_symmetry_cell_setting 'triclinic'
loop_
_space_group_symop_operation_xyz
x,y,z
-x,-y,-z
loop_
_atom_site_type_symbol
_atom_site_label
_atom_site_fract_x
_atom_site_fract_y
_atom_site_fract_z
Si Si1 0.963565 0.800094 0.695507
Si Si2 0.770413 0.598312 0.116065
Si Si3 0.923294 0.181903 0.651451
Si Si4 0.151827 0.812466 0.879445
Si Si5 0.486660 0.386911 0.912338
Si Si6 0.684759 0.950755 0.774021
Si Si7 0.483662 0.133573 0.579965
Si Si8 0.598658 0.557555 0.759303
O O1 0.824202 0.883038 0.706829
O O2 0.065694 0.584560 0.841854
O O3 0.074829 0.702342 0.530491
O O4 0.917139 0.022086 0.678709
O O5 0.800610 0.406859 0.106291
O O6 0.645810 0.741430 0.267310
O O7 0.721623 0.776163 0.945267
O O8 0.766330 0.401150 0.747313
O O9 0.082707 0.990305 0.709672
O O10 0.310162 0.667243 0.894423
O O11 0.000000 0.000000 0.000000
O O12 0.589537 0.395883 0.839504
O O13 0.540122 0.223847 0.816536
O O14 0.502387 0.276853 0.103975
O O15 0.635245 0.957816 0.650045
O O16 0.445333 0.327677 0.421873
O O17 0.500000 0.000000 0.500000
#
# Coordination Sequence:
#
# PCOD9105688 Si02
#       8
#     2   2   2   2   2   2   2   2
#     4  10  22  41  66 100 130 176 221 281 337 402
#     4  11  24  44  70  98 133 185 226 275 343 410
#     4  10  20  39  65  94 136 167 219 274 342 397
#     4  11  23  39  68 100 133 176 224 277 341 409
#     4  11  24  41  69 105 133 175 229 286 338 407
#     4  12  25  43  70 101 136 181 236 278 335 412
#     4  12  27  44  66  99 140 184 228 283 342 402
#     4  11  23  42  66  98 138 175 222 286 341 399
#
# _framework density 21.470652999999999
#
# number of rings (size 3 to 8) (size 9 to 14) (size 15 to 20)
#    0.000    1.000    5.000    1.500    3.500    0.500 
#    0.000    1.875    0.000    0.000    0.000    0.000 
#    0.000    0.000    0.000    0.000    0.000    0.000 
#
# Total GULP energy -89272.748922 kJ/mol
# GULP energy per Si atom -5579.546808 kJ/mol
# Density = 2.142179 g / cm^3
# Si number density = 21.470653 Si / 1000 Ang^3
#
#
#
# Elastic Constant Matrix: (Units=GPa)
#
#
# Indices 1 2 3 4 5 6 
#
# 1 91.1704 44.3120 51.5529 -1.9564 24.0184 -24.7435
# 2 44.3120 69.8230 33.6013 0.0834 -0.6512 -18.4321
# 3 51.5529 33.6013 121.9932 -10.2392 -3.4927 -10.6448
# 4 -1.9564 0.0834 -10.2392 42.9079 -3.3583 10.7480
# 5 24.0184 -0.6512 -3.4927 -3.3583 28.6924 1.1108
# 6 -24.7435 -18.4321 -10.6448 10.7480 1.1108 41.2899
#
#
#
# Elastic Compliance Matrix: (Units=1/GPa)
#
#
# Indices 1 2 3 4 5 6 
#
# 1 0.039433 -0.014691 -0.012889 -0.008344 -0.036542 0.016905
# 2 -0.014691 0.024189 0.000048 -0.000131 0.012772 0.001697
# 3 -0.012889 0.000048 0.013943 0.005243 0.013327 -0.005831
# 4 -0.008344 -0.000131 0.005243 0.027886 0.011320 -0.011270
# 5 -0.036542 0.012772 0.013327 0.011320 0.069360 -0.017574
# 6 0.016905 0.001697 -0.005831 -0.011270 -0.017574 0.037010
#
#
# Mechanical properties :
#
#
# Convention : Reuss Voigt Hill
#
# Bulk Modulus (GPa) = 44.43941 60.21321 52.32631
# Shear Modulus (GPa) = 18.22257 32.81272 25.51765
#
# Velocity S-wave (km/s) = 2.91644 3.91354 3.45119
# Velocity P-wave (km/s) = 5.66423 6.96608 6.34862
#
# Compressibility (1/GPa) = 0.02250255
#
# Stress axis : x y z
#
# Youngs Moduli (GPa) = 25.35967 41.34030 71.71876
#
# Poissons Ratio (x) = 0.60733 0.92437
# Poissons Ratio (y) = 0.37256 -0.00347
# Poissons Ratio (z) = 0.32686 -0.00200
#
# Static dielectric constant tensor:
#      x y z
#    x 1.788770 -0.009010 0.052990 
#    y -0.009010 1.815430 -0.015370 
#    z 0.052990 -0.015370 1.832450 
# 
# From -- ./inp_files/331688.got.cif
#   From: 2010.05.17/outbox.cif.g08.bks.cpg/sg2_166_cif.got.tgz:331688.got - 2010.06.03 11:33:40.
