data_PCOD9105801
_publ_section_title
;
Structure prediction by ZEFSAII (Michael W. Deem and Ramdas Pophale) SiO2 
 PCOD9105801
Probable space group: P -1
;
_chemical_formula_sum "Si O2"
_cell_formula_units_Z 16
_cell_length_a 33.204611
_cell_length_b 16.266771
_cell_length_c 9.659515
_cell_angle_alpha 45.824947
_cell_angle_beta 143.163459
_cell_angle_gamma 163.695698
_cell_volume 795.446160
_symmetry_space_group_name_H-M "P -1"
_symmetry_group_IT_number 2
_symmetry_cell_setting 'triclinic'
loop_
_space_group_symop_operation_xyz
x,y,z
-x,-y,-z
loop_
_atom_site_type_symbol
_atom_site_label
_atom_site_fract_x
_atom_site_fract_y
_atom_site_fract_z
Si Si1 0.322997 0.997589 0.835156
Si Si2 0.436516 0.224715 0.197599
Si Si3 0.959616 0.259886 0.646767
Si Si4 0.104813 0.255385 0.090147
Si Si5 0.486010 0.080308 0.685387
Si Si6 0.014931 0.978677 0.412299
Si Si7 0.406504 0.706201 0.964079
Si Si8 0.187934 0.037857 0.700001
O O1 0.226926 0.964902 0.566138
O O2 0.146661 0.628304 0.771442
O O3 0.394941 0.125297 0.040217
O O4 0.490017 0.218166 0.939251
O O5 0.423994 0.092089 0.413281
O O6 0.640382 0.614068 0.305495
O O7 0.284087 0.080585 0.983192
O O8 0.946970 0.219233 0.493813
O O9 0.976712 0.161822 0.871937
O O10 0.297702 0.598084 0.143122
O O11 0.150110 0.268277 0.345368
O O12 0.000000 0.000000 0.000000
O O13 0.388387 0.801104 0.727447
O O14 0.478086 0.095477 0.808973
O O15 0.805884 0.664242 0.145001
O O16 0.000000 0.000000 0.500000
O O17 0.080520 0.952622 0.606051
#
# Coordination Sequence:
#
# PCOD9105801 Si02
#       8
#     2   2   2   2   2   2   2   2
#     4  10  22  39  63  92 127 155 207 265 306 360
#     4  10  21  39  65  91 116 168 211 251 305 374
#     4  10  20  39  67  90 116 169 211 246 306 383
#     4  12  20  40  67  88 117 171 218 242 305 391
#     4  11  22  39  64  88 121 169 207 244 310 382
#     4  12  25  40  61  94 128 156 206 272 310 353
#     4  11  24  39  60  93 127 159 203 265 310 354
#     4  10  20  39  66  87 124 162 208 254 308 377
#
# _framework density 20.114495999999999
#
# number of rings (size 3 to 8) (size 9 to 14) (size 15 to 20)
#    0.000    1.250    5.000    0.750    1.750    1.500 
#    2.250    1.250    0.000    0.000    0.000    0.000 
#    0.000    0.000    0.000    0.000    0.000    0.000 
#
# Total GULP energy -89333.503250 kJ/mol
# GULP energy per Si atom -5583.343953 kJ/mol
# Density = 2.006871 g / cm^3
# Si number density = 20.114496 Si / 1000 Ang^3
#
#
#
# Elastic Constant Matrix: (Units=GPa)
#
#
# Indices 1 2 3 4 5 6 
#
# 1 137.3856 5.9022 44.4309 -8.8127 27.7289 -0.4106
# 2 5.9022 47.5984 9.4019 -6.5650 2.6059 -4.3361
# 3 44.4309 9.4019 101.7205 -22.6806 31.0928 -2.4639
# 4 -8.8127 -6.5650 -22.6806 33.5296 -9.1274 0.0366
# 5 27.7289 2.6059 31.0928 -9.1274 41.4104 1.3060
# 6 -0.4106 -4.3361 -2.4639 0.0366 1.3060 26.7835
#
#
#
# Elastic Compliance Matrix: (Units=1/GPa)
#
#
# Indices 1 2 3 4 5 6 
#
# 1 0.008973 -0.000437 -0.002808 -0.000724 -0.004033 0.000006
# 2 -0.000437 0.022063 -0.001092 0.003572 0.000403 0.003440
# 3 -0.002808 -0.001092 0.015228 0.007183 -0.007951 0.001559
# 4 -0.000724 0.003572 0.007183 0.035941 0.002756 0.001045
# 5 -0.004033 0.000403 -0.007951 0.002756 0.033475 -0.002364
# 6 0.000006 0.003440 0.001559 0.001045 -0.002364 0.038151
#
#
# Mechanical properties :
#
#
# Convention : Reuss Voigt Hill
#
# Bulk Modulus (GPa) = 26.60151 45.13052 35.86602
# Shear Modulus (GPa) = 28.56593 35.47602 32.02097
#
# Velocity S-wave (km/s) = 3.77260 4.20420 3.99423
# Velocity P-wave (km/s) = 5.67718 6.78621 6.25632
#
# Compressibility (1/GPa) = 0.03759184
#
# Stress axis : x y z
#
# Youngs Moduli (GPa) = 111.44510 45.32484 65.66932
#
# Poissons Ratio (x) = 0.01979 0.18438
# Poissons Ratio (y) = 0.04866 0.07169
# Poissons Ratio (z) = 0.31290 0.04948
#
# Static dielectric constant tensor:
#      x y z
#    x 1.703370 -0.028260 0.013310 
#    y -0.028260 1.697380 0.011190 
#    z 0.013310 0.011190 1.743550 
# 
# From -- ./inp_files/207647.got.cif
#   From: 2010.05.17/outbox.cif.g08.bks.cpg/sg2_104_cif.got.tgz:207647.got - 2010.06.03 11:33:40.
