data_PCOD9105376
_publ_section_title
;
Structure prediction by ZEFSAII (Michael W. Deem and Ramdas Pophale) SiO2 
 PCOD9105376
Probable space group: P -1
;
_chemical_formula_sum "Si O2"
_cell_formula_units_Z 16
_cell_length_a 9.727613
_cell_length_b 17.126732
_cell_length_c 11.119005
_cell_angle_alpha 42.928644
_cell_angle_beta 74.881488
_cell_angle_gamma 108.572555
_cell_volume 769.956888
_symmetry_space_group_name_H-M "P -1"
_symmetry_group_IT_number 2
_symmetry_cell_setting 'triclinic'
loop_
_space_group_symop_operation_xyz
x,y,z
-x,-y,-z
loop_
_atom_site_type_symbol
_atom_site_label
_atom_site_fract_x
_atom_site_fract_y
_atom_site_fract_z
Si Si1 0.394862 0.465916 0.192873
Si Si2 0.124552 0.198344 0.231198
Si Si3 0.938729 0.210392 0.489512
Si Si4 0.958841 0.804966 0.010051
Si Si5 0.844532 0.398560 0.269127
Si Si6 0.359302 0.190195 0.596026
Si Si7 0.343023 0.167839 0.901230
Si Si8 0.878832 0.497931 0.424387
O O1 0.330631 0.307027 0.450249
O O2 0.159006 0.382312 0.323947
O O3 0.500000 0.500000 0.000000
O O4 0.606377 0.655551 0.995304
O O5 0.058905 0.219857 0.100177
O O6 0.046215 0.232612 0.316444
O O7 0.000000 0.000000 0.500000
O O8 0.789533 0.229651 0.489193
O O9 0.801795 0.017432 0.788231
O O10 0.757542 0.768083 0.127708
O O11 0.942742 0.671972 0.225546
O O12 0.189961 0.014796 0.749509
O O13 0.621031 0.327463 0.364463
O O14 0.925175 0.490878 0.280360
O O15 0.000000 0.500000 0.000000
O O16 0.307201 0.123394 0.818868
O O17 0.606768 0.321802 0.696776
O O18 0.000000 0.500000 0.500000
#
# Coordination Sequence:
#
# PCOD9105376 Si02
#       8
#     2   2   2   2   2   2   2   2
#     4  10  20  39  64  92 125 169 220 264 318 388
#     4  11  21  40  65 103 136 163 220 287 333 378
#     4  11  23  41  69  96 127 179 223 266 329 409
#     4  12  23  44  67  99 134 169 225 284 335 385
#     4  11  25  47  67  93 135 183 225 265 334 410
#     4  11  24  42  67  96 130 178 223 267 327 404
#     4  11  24  44  67  96 131 176 224 269 337 401
#     4  11  28  45  67 100 138 178 219 281 342 397
#
# _framework density 20.780384000000002
#
# number of rings (size 3 to 8) (size 9 to 14) (size 15 to 20)
#    0.000    1.000    2.500    5.250    3.500    2.000 
#    2.250    1.250    0.000    0.000    0.000    0.000 
#    0.000    0.000    0.000    0.000    0.000    0.000 
#
# Total GULP energy -89375.377446 kJ/mol
# GULP energy per Si atom -5585.961090 kJ/mol
# Density = 2.073309 g / cm^3
# Si number density = 20.780384 Si / 1000 Ang^3
#
#
#
# Elastic Constant Matrix: (Units=GPa)
#
#
# Indices 1 2 3 4 5 6 
#
# 1 75.4061 23.0120 19.7128 3.3222 17.6958 6.5295
# 2 23.0120 82.1298 39.2561 3.1406 -8.2662 13.5280
# 3 19.7128 39.2561 90.1159 -3.9907 7.1384 12.1809
# 4 3.3222 3.1406 -3.9907 40.6084 -5.6569 -0.7053
# 5 17.6958 -8.2662 7.1384 -5.6569 27.9097 -4.4033
# 6 6.5295 13.5280 12.1809 -0.7053 -4.4033 38.2002
#
#
#
# Elastic Compliance Matrix: (Units=1/GPa)
#
#
# Indices 1 2 3 4 5 6 
#
# 1 0.019103 -0.006273 -0.000012 -0.003227 -0.015068 -0.002836
# 2 -0.006273 0.018986 -0.007526 -0.000172 0.011180 -0.001966
# 3 -0.000012 -0.007526 0.015330 0.001151 -0.006372 -0.002934
# 4 -0.003227 -0.000172 0.001151 0.026050 0.007227 0.001559
# 5 -0.015068 0.011180 -0.006372 0.007227 0.052874 0.006876
# 6 -0.002836 -0.001966 -0.002934 0.001559 0.006876 0.029116
#
#
# Mechanical properties :
#
#
# Convention : Reuss Voigt Hill
#
# Bulk Modulus (GPa) = 38.76311 45.73485 42.24898
# Shear Modulus (GPa) = 25.29328 32.38837 28.84082
#
# Velocity S-wave (km/s) = 3.49258 3.95220 3.72948
# Velocity P-wave (km/s) = 5.91256 6.54851 6.23864
#
# Compressibility (1/GPa) = 0.02579772
#
# Stress axis : x y z
#
# Youngs Moduli (GPa) = 52.34818 52.66924 65.23000
#
# Poissons Ratio (x) = 0.33037 0.00080
# Poissons Ratio (y) = 0.32836 0.49093
# Poissons Ratio (z) = 0.00064 0.39640
#
# Static dielectric constant tensor:
#      x y z
#    x 1.705590 -0.000400 -0.027740 
#    y -0.000400 1.788120 0.011720 
#    z -0.027740 0.011720 1.738240 
# 
# From -- ./inp_files/186047.got.cif
#   From: 2010.05.17/outbox.cif.g08.bks.cpg/sg2_94_cif.got.tgz:186047.got - 2010.06.03 11:33:40.
