data_PCOD9105055
_publ_section_title
;
Structure prediction by ZEFSAII (Michael W. Deem and Ramdas Pophale) SiO2 
 PCOD9105055
Probable space group: P -1
;
_chemical_formula_sum "Si O2"
_cell_formula_units_Z 12
_cell_length_a 8.932804
_cell_length_b 13.650273
_cell_length_c 8.417706
_cell_angle_alpha 128.351898
_cell_angle_beta 104.582677
_cell_angle_gamma 45.901178
_cell_volume 547.724950
_symmetry_space_group_name_H-M "P -1"
_symmetry_group_IT_number 2
_symmetry_cell_setting 'triclinic'
loop_
_space_group_symop_operation_xyz
x,y,z
-x,-y,-z
loop_
_atom_site_type_symbol
_atom_site_label
_atom_site_fract_x
_atom_site_fract_y
_atom_site_fract_z
Si Si1 0.928675 0.043826 0.838658
Si Si2 0.755789 0.888447 0.482450
Si Si3 0.485182 0.593290 0.827342
Si Si4 0.419729 0.737197 0.609499
Si Si5 0.917328 0.413302 0.953974
Si Si6 0.823562 0.611126 0.428759
O O1 0.807160 0.990273 0.683479
O O2 0.745652 0.256144 0.992180
O O3 0.166064 0.916358 0.692319
O O4 0.000000 0.000000 0.000000
O O5 0.846236 0.728894 0.463173
O O6 0.898077 0.789870 0.260172
O O7 0.500000 0.000000 0.500000
O O8 0.471137 0.690476 0.764524
O O9 0.528349 0.429146 0.614521
O O10 0.688024 0.514934 0.910905
O O11 0.583062 0.737759 0.568175
O O12 0.870784 0.469356 0.180344
O O13 0.000000 0.500000 0.000000
O O14 0.000000 0.500000 0.500000
#
# Coordination Sequence:
#
# PCOD9105055 Si02
#       6
#     2   2   2   2   2   2
#     4  10  21  38  67  97 127 178 222 262 329 405
#     4  11  23  45  67  96 135 179 221 273 337 405
#     4  10  20  39  68  90 133 178 216 260 342 397
#     4  10  21  40  65  97 129 171 223 277 320 396
#     4  10  20  39  63  89 128 176 212 262 336 394
#     4  11  25  41  68  98 131 171 227 277 331 391
#
# _framework density 21.908806999999999
#
# number of rings (size 3 to 8) (size 9 to 14) (size 15 to 20)
#    0.000    1.667    1.667    4.000    4.667    2.000 
#    3.000    5.833    0.000    0.000    0.000    0.000 
#    0.000    0.000    0.000    0.000    0.000    0.000 
#
# Total GULP energy -67064.164190 kJ/mol
# GULP energy per Si atom -5588.680349 kJ/mol
# Density = 2.185894 g / cm^3
# Si number density = 21.908807 Si / 1000 Ang^3
#
#
#
# Elastic Constant Matrix: (Units=GPa)
#
#
# Indices 1 2 3 4 5 6 
#
# 1 68.1168 28.8548 37.9212 2.5056 -12.5821 -22.6034
# 2 28.8548 116.1589 63.7336 2.5083 -3.5518 -40.8498
# 3 37.9212 63.7336 143.8867 9.7052 -4.5861 -28.1970
# 4 2.5056 2.5083 9.7052 42.6156 -18.9053 -2.8860
# 5 -12.5821 -3.5518 -4.5861 -18.9053 35.3759 7.3468
# 6 -22.6034 -40.8498 -28.1970 -2.8860 7.3468 49.6265
#
#
#
# Elastic Compliance Matrix: (Units=1/GPa)
#
#
# Indices 1 2 3 4 5 6 
#
# 1 0.020219 -0.000825 -0.003891 0.003333 0.007256 0.005439
# 2 -0.000825 0.014431 -0.004435 0.000318 -0.001154 0.009172
# 3 -0.003891 -0.004435 0.010153 -0.002703 -0.002060 0.000494
# 4 0.003333 0.000318 -0.002703 0.031805 0.017982 -0.000568
# 5 0.007256 -0.001154 -0.002060 0.017982 0.040869 -0.003820
# 6 0.005439 0.009172 0.000494 -0.000568 -0.003820 0.030991
#
#
# Mechanical properties :
#
#
# Convention : Reuss Voigt Hill
#
# Bulk Modulus (GPa) = 37.73573 65.46462 51.60018
# Shear Modulus (GPa) = 28.47320 38.70046 33.58683
#
# Velocity S-wave (km/s) = 3.60894 4.20746 3.91964
# Velocity P-wave (km/s) = 5.88450 7.31772 6.63989
#
# Compressibility (1/GPa) = 0.02650008
#
# Stress axis : x y z
#
# Youngs Moduli (GPa) = 49.45939 69.29575 98.48954
#
# Poissons Ratio (x) = 0.05718 0.38321
# Poissons Ratio (y) = 0.04081 0.43684
# Poissons Ratio (z) = 0.19244 0.30736
#
# Static dielectric constant tensor:
#      x y z
#    x 1.812980 0.057200 -0.064730 
#    y 0.057200 1.724130 0.042970 
#    z -0.064730 0.042970 1.809570 
# 
# From -- ./inp_files/150209.got.cif
#   From: 2010.05.17/outbox.cif.g08.bks.cpg/sg2_76_cif.got.tgz:150209.got - 2010.06.03 11:33:40.
