data_PCOD9105792
_publ_section_title
;
Structure prediction by ZEFSAII (Michael W. Deem and Ramdas Pophale) SiO2 
 PCOD9105792
Probable space group: P -1
;
_chemical_formula_sum "Si O2"
_cell_formula_units_Z 16
_cell_length_a 16.007933
_cell_length_b 9.293419
_cell_length_c 15.440834
_cell_angle_alpha 141.720049
_cell_angle_beta 147.029883
_cell_angle_gamma 62.730571
_cell_volume 622.769496
_symmetry_space_group_name_H-M "P -1"
_symmetry_group_IT_number 2
_symmetry_cell_setting 'triclinic'
loop_
_space_group_symop_operation_xyz
x,y,z
-x,-y,-z
loop_
_atom_site_type_symbol
_atom_site_label
_atom_site_fract_x
_atom_site_fract_y
_atom_site_fract_z
Si Si1 0.467082 0.298887 0.032240
Si Si2 0.416791 0.710515 0.122051
Si Si3 0.636229 0.576478 0.566277
Si Si4 0.176172 0.637680 0.033888
Si Si5 0.035854 0.557003 0.692777
Si Si6 0.161598 0.168286 0.313088
Si Si7 0.334960 0.004067 0.957998
Si Si8 0.332874 0.667881 0.361111
O O1 0.379745 0.401020 0.937361
O O2 0.664559 0.612123 0.369620
O O3 0.522607 0.087983 0.959440
O O4 0.357641 0.170832 0.967018
O O5 0.365503 0.730626 0.187917
O O6 0.614340 0.018784 0.420642
O O7 0.245932 0.673577 0.901625
O O8 0.765815 0.666081 0.637716
O O9 0.544663 0.749977 0.565551
O O10 0.738597 0.542716 0.718993
O O11 0.432100 0.257124 0.231165
O O12 0.197758 0.533104 0.096044
O O13 0.152571 0.886544 0.156643
O O14 0.026385 0.461000 0.740909
O O15 0.006303 0.808820 0.791784
O O16 0.875790 0.288368 0.369927
#
# Coordination Sequence:
#
# PCOD9105792 Si02
#       8
#     2   2   2   2   2   2   2   2
#     4   9  17  30  57  73 104 134 183 220 243 305
#     4  10  19  32  54  83 100 133 177 231 251 296
#     4  10  21  34  58  72 114 142 171 214 265 319
#     4  10  18  30  56  82 104 129 180 226 257 294
#     4   9  21  29  54  84 108 134 173 218 270 305
#     4  10  16  34  54  82 103 138 177 220 262 306
#     4   9  18  35  48  80 107 142 170 209 268 318
#     4  11  20  35  53  87 100 138 182 219 261 307
#
# _framework density 25.691687999999999
#
# number of rings (size 3 to 8) (size 9 to 14) (size 15 to 20)
#    0.750    1.500    2.500    3.000    0.000    0.500 
#    0.000    1.875    0.000    0.000    0.000    0.000 
#    0.000    0.000    0.000    0.000    0.000    0.000 
#
# Total GULP energy -89219.202806 kJ/mol
# GULP energy per Si atom -5576.200175 kJ/mol
# Density = 2.563321 g / cm^3
# Si number density = 25.691688 Si / 1000 Ang^3
#
#
#
# Elastic Constant Matrix: (Units=GPa)
#
#
# Indices 1 2 3 4 5 6 
#
# 1 31.4077 29.6597 -6.5770 -0.3573 1.6188 12.0027
# 2 29.6597 144.7393 31.1885 8.9983 -5.9530 8.2158
# 3 -6.5770 31.1885 57.8857 -6.1622 -14.9873 4.5684
# 4 -0.3573 8.9983 -6.1622 34.4651 0.2546 -12.3535
# 5 1.6188 -5.9530 -14.9873 0.2546 27.7252 -7.4758
# 6 12.0027 8.2158 4.5684 -12.3535 -7.4758 34.4392
#
#
#
# Elastic Compliance Matrix: (Units=1/GPa)
#
#
# Indices 1 2 3 4 5 6 
#
# 1 0.054484 -0.013243 0.013865 -0.000090 -0.003507 -0.018462
# 2 -0.013243 0.011624 -0.008575 -0.004254 -0.000994 0.001238
# 3 0.013865 -0.008575 0.027313 0.006643 0.011648 -0.001498
# 4 -0.000090 -0.004254 0.006643 0.036509 0.006291 0.014627
# 5 -0.003507 -0.000994 0.011648 0.006291 0.045550 0.012058
# 6 -0.018462 0.001238 -0.001498 0.014627 0.012058 0.043238
#
#
# Mechanical properties :
#
#
# Convention : Reuss Voigt Hill
#
# Bulk Modulus (GPa) = 12.90089 38.06391 25.48240
# Shear Modulus (GPa) = 19.19664 31.31000 25.25332
#
# Velocity S-wave (km/s) = 2.73645 3.49475 3.13858
# Velocity P-wave (km/s) = 3.87512 5.57962 4.80358
#
# Compressibility (1/GPa) = 0.07751405
#
# Stress axis : x y z
#
# Youngs Moduli (GPa) = 18.35397 86.02968 36.61319
#
# Poissons Ratio (x) = 1.13930 -0.50765
# Poissons Ratio (y) = 0.24306 0.31397
# Poissons Ratio (z) = -0.25448 0.73774
#
# Static dielectric constant tensor:
#      x y z
#    x 2.101060 -0.044900 0.015430 
#    y -0.044900 2.115170 -0.066910 
#    z 0.015430 -0.066910 2.032070 
# 
# From -- ./inp_files/577162.got.cif
#   From: 2010.05.17/outbox.cif.g08.bks.cpg/sg2_289_cif.got.tgz:577162.got - 2010.06.03 11:33:40.
