data_PCOD9105946
_publ_section_title
;
Structure prediction by ZEFSAII (Michael W. Deem and Ramdas Pophale) SiO2 
 PCOD9105946
Probable space group: P -1
;
_chemical_formula_sum "Si O2"
_cell_formula_units_Z 14
_cell_length_a 8.884222
_cell_length_b 15.836338
_cell_length_c 16.671016
_cell_angle_alpha 153.631429
_cell_angle_beta 144.436646
_cell_angle_gamma 36.248944
_cell_volume 577.879708
_symmetry_space_group_name_H-M "P -1"
_symmetry_group_IT_number 2
_symmetry_cell_setting 'triclinic'
loop_
_space_group_symop_operation_xyz
x,y,z
-x,-y,-z
loop_
_atom_site_type_symbol
_atom_site_label
_atom_site_fract_x
_atom_site_fract_y
_atom_site_fract_z
Si Si1 0.479503 0.548241 0.778946
Si Si2 0.376901 0.477819 0.344177
Si Si3 0.774985 0.709924 0.271725
Si Si4 0.583225 0.940154 0.126128
Si Si5 0.687672 0.090864 0.465881
Si Si6 0.860295 0.888327 0.048306
Si Si7 0.680674 0.415620 0.098759
O O1 0.405902 0.542844 0.649269
O O2 0.623670 0.315290 0.660616
O O3 0.253921 0.620541 0.810485
O O4 0.648893 0.709249 0.986330
O O5 0.500000 0.500000 0.500000
O O6 0.279126 0.285010 0.147060
O O7 0.098075 0.646390 0.345553
O O8 0.730034 0.616909 0.258847
O O9 0.644995 0.938534 0.385413
O O10 0.630690 0.582811 0.044416
O O11 0.542122 0.067342 0.298236
O O12 0.309470 0.988300 0.994348
O O13 0.803972 0.980145 0.192083
O O14 0.000000 0.000000 0.500000
O O15 0.155044 0.769061 0.042727
#
# Coordination Sequence:
#
# PCOD9105946 Si02
#       7
#     2   2   2   2   2   2   2
#     4  11  23  40  70  96 133 176 219 279 329 400
#     4  10  20  39  66  95 130 172 227 273 323 392
#     4  10  22  42  65  94 136 178 215 280 328 395
#     4  10  22  44  68  95 131 174 234 270 326 398
#     4  12  24  39  67 103 129 173 229 278 328 394
#     4   9  21  41  70  95 126 184 218 277 335 391
#     4  10  22  43  68  97 135 176 222 269 348 401
#
# _framework density 24.226495
#
# number of rings (size 3 to 8) (size 9 to 14) (size 15 to 20)
#    0.000    1.714    2.857    0.857    0.000    6.857 
#    0.000    6.429    3.143    0.000    0.000    0.000 
#    0.000    0.000    0.000    0.000    0.000    0.000 
#
# Total GULP energy -78028.874635 kJ/mol
# GULP energy per Si atom -5573.491045 kJ/mol
# Density = 2.417135 g / cm^3
# Si number density = 24.226495 Si / 1000 Ang^3
#
#
#
# Elastic Constant Matrix: (Units=GPa)
#
#
# Indices 1 2 3 4 5 6 
#
# 1 125.8639 38.5935 22.2791 -8.9308 -15.6226 31.4896
# 2 38.5935 101.8989 28.3300 15.5780 0.6788 14.3784
# 3 22.2791 28.3300 65.0014 19.8779 -1.8777 0.6925
# 4 -8.9308 15.5780 19.8779 38.6945 11.8247 -1.4320
# 5 -15.6226 0.6788 -1.8777 11.8247 30.6482 4.4996
# 6 31.4896 14.3784 0.6925 -1.4320 4.4996 32.2644
#
#
#
# Elastic Compliance Matrix: (Units=1/GPa)
#
#
# Indices 1 2 3 4 5 6 
#
# 1 0.014144 -0.002904 -0.004434 0.003951 0.007427 -0.013275
# 2 -0.002904 0.012920 -0.003265 -0.004359 0.000166 -0.003069
# 3 -0.004434 -0.003265 0.021967 -0.011767 0.003057 0.004363
# 4 0.003951 -0.004359 -0.011767 0.038878 -0.013905 0.002004
# 5 0.007427 0.000166 0.003057 -0.013905 0.044039 -0.014147
# 6 -0.013275 -0.003069 0.004363 0.002004 -0.014147 0.047287
#
#
# Mechanical properties :
#
#
# Convention : Reuss Voigt Hill
#
# Bulk Modulus (GPa) = 35.94046 52.35215 44.14630
# Shear Modulus (GPa) = 23.84165 33.89220 28.86693
#
# Velocity S-wave (km/s) = 3.14046 3.74434 3.45562
# Velocity P-wave (km/s) = 5.29315 6.35215 5.84668
#
# Compressibility (1/GPa) = 0.02782380
#
# Stress axis : x y z
#
# Youngs Moduli (GPa) = 70.70079 77.40079 45.52227
#
# Poissons Ratio (x) = 0.22481 0.20185
# Poissons Ratio (y) = 0.20535 0.14863
# Poissons Ratio (z) = 0.31350 0.25272
#
# Static dielectric constant tensor:
#      x y z
#    x 2.039550 0.029220 -0.093530 
#    y 0.029220 2.046250 -0.014930 
#    z -0.093530 -0.014930 2.038080 
# 
# From -- ./inp_files/505995.got.cif
#   From: 2010.05.17/outbox.cif.g08.bks.cpg/sg2_253_cif.got.tgz:505995.got - 2010.06.03 11:33:40.
