data_PCOD9105127
_publ_section_title
;
Structure prediction by ZEFSAII (Michael W. Deem and Ramdas Pophale) SiO2 
 PCOD9105127
Probable space group: P -1
;
_chemical_formula_sum "Si O2"
_cell_formula_units_Z 14
_cell_length_a 8.655705
_cell_length_b 16.445062
_cell_length_c 10.421898
_cell_angle_alpha 37.510772
_cell_angle_beta 124.965187
_cell_angle_gamma 139.270379
_cell_volume 587.933766
_symmetry_space_group_name_H-M "P -1"
_symmetry_group_IT_number 2
_symmetry_cell_setting 'triclinic'
loop_
_space_group_symop_operation_xyz
x,y,z
-x,-y,-z
loop_
_atom_site_type_symbol
_atom_site_label
_atom_site_fract_x
_atom_site_fract_y
_atom_site_fract_z
Si Si1 0.401653 0.652290 0.762905
Si Si2 0.289084 0.300245 0.645488
Si Si3 0.941279 0.384615 0.994097
Si Si4 0.732138 0.010689 0.063828
Si Si5 0.924514 0.826636 0.735035
Si Si6 0.549958 0.774378 0.958526
Si Si7 0.222406 0.862368 0.361233
O O1 0.637234 0.691697 0.764163
O O2 0.461924 0.667094 0.923583
O O3 0.372989 0.792989 0.530233
O O4 0.128970 0.483391 0.843661
O O5 0.500000 0.500000 0.500000
O O6 0.040287 0.267343 0.543305
O O7 0.307165 0.169147 0.736253
O O8 0.272132 0.236627 0.862139
O O9 0.664848 0.293520 0.958147
O O10 0.967691 0.241318 0.217759
O O11 0.000000 0.500000 0.000000
O O12 0.943239 0.126667 0.121995
O O13 0.788671 0.089961 0.849602
O O14 0.500000 0.000000 0.000000
O O15 0.000000 0.000000 0.500000
O O16 0.655310 0.960319 0.732781
#
# Coordination Sequence:
#
# PCOD9105127 Si02
#       7
#     2   2   2   2   2   2   2
#     4  11  22  38  63  95 127 163 208 262 311 362
#     4  11  23  41  65  95 127 167 211 259 312 369
#     4  10  23  41  64  95 127 159 205 265 315 366
#     4  11  24  43  64  91 128 168 210 259 312 373
#     4  12  24  42  65  93 126 168 211 256 313 377
#     4  10  20  39  63  92 126 165 209 255 307 375
#     4  11  22  40  63  93 127 168 209 252 312 378
#
# _framework density 23.812207000000001
#
# number of rings (size 3 to 8) (size 9 to 14) (size 15 to 20)
#    0.000    1.143    0.000    8.571    0.000    5.714 
#    0.000    5.714    0.000    0.000    0.000    0.000 
#    0.000    0.000    0.000    0.000    0.000    0.000 
#
# Total GULP energy -78161.777878 kJ/mol
# GULP energy per Si atom -5582.984134 kJ/mol
# Density = 2.375801 g / cm^3
# Si number density = 23.812207 Si / 1000 Ang^3
#
#
#
# Elastic Constant Matrix: (Units=GPa)
#
#
# Indices 1 2 3 4 5 6 
#
# 1 110.2975 39.5642 15.5489 -3.2253 22.2241 19.9192
# 2 39.5642 91.6054 18.7939 -12.6574 7.7766 7.7238
# 3 15.5489 18.7939 77.4404 -3.1100 19.8968 -14.7885
# 4 -3.2253 -12.6574 -3.1100 42.6339 3.1160 3.0156
# 5 22.2241 7.7766 19.8968 3.1160 40.5536 -6.2658
# 6 19.9192 7.7238 -14.7885 3.0156 -6.2658 46.1334
#
#
#
# Elastic Compliance Matrix: (Units=1/GPa)
#
#
# Indices 1 2 3 4 5 6 
#
# 1 0.013344 -0.004340 -0.001013 0.000609 -0.007011 -0.006352
# 2 -0.004340 0.013955 -0.002803 0.003677 0.000559 -0.001525
# 3 -0.001013 -0.002803 0.016409 0.000364 -0.006166 0.005305
# 4 0.000609 0.003677 0.000364 0.025087 -0.003591 -0.002889
# 5 -0.007011 0.000559 -0.006166 -0.003591 0.032563 0.005614
# 6 -0.006352 -0.001525 0.005305 -0.002889 0.005614 0.027326
#
#
# Mechanical properties :
#
#
# Convention : Reuss Voigt Hill
#
# Bulk Modulus (GPa) = 36.50188 47.46191 41.98190
# Shear Modulus (GPa) = 32.44084 39.55995 36.00040
#
# Velocity S-wave (km/s) = 3.69502 4.08036 3.89246
# Velocity P-wave (km/s) = 5.79367 6.49417 6.15389
#
# Compressibility (1/GPa) = 0.02739585
#
# Stress axis : x y z
#
# Youngs Moduli (GPa) = 74.94163 71.65790 60.94324
#
# Poissons Ratio (x) = 0.31103 0.06173
# Poissons Ratio (y) = 0.32528 0.17080
# Poissons Ratio (z) = 0.07591 0.20082
#
# Static dielectric constant tensor:
#      x y z
#    x 1.947270 0.040760 -0.019690 
#    y 0.040760 2.016090 -0.057420 
#    z -0.019690 -0.057420 1.919570 
# 
# From -- ./inp_files/184066.got.cif
#   From: 2010.05.17/outbox.cif.g08.bks.cpg/sg2_93_cif.got.tgz:184066.got - 2010.06.03 11:33:40.
