data_PCOD9105815
_publ_section_title
;
Structure prediction by ZEFSAII (Michael W. Deem and Ramdas Pophale) SiO2 
 PCOD9105815
Probable space group: P -1
;
_chemical_formula_sum "Si O2"
_cell_formula_units_Z 14
_cell_length_a 23.047120
_cell_length_b 5.178526
_cell_length_c 6.489377
_cell_angle_alpha 84.577239
_cell_angle_beta 70.633415
_cell_angle_gamma 61.246454
_cell_volume 638.605624
_symmetry_space_group_name_H-M "P -1"
_symmetry_group_IT_number 2
_symmetry_cell_setting 'triclinic'
loop_
_space_group_symop_operation_xyz
x,y,z
-x,-y,-z
loop_
_atom_site_type_symbol
_atom_site_label
_atom_site_fract_x
_atom_site_fract_y
_atom_site_fract_z
Si Si1 0.363306 0.188357 0.749894
Si Si2 0.141197 0.044351 0.327616
Si Si3 0.793701 0.567882 0.956470
Si Si4 0.583330 0.386910 0.461952
Si Si5 0.984701 0.749706 0.829749
Si Si6 0.500961 0.764002 0.864139
Si Si7 0.113899 0.774765 0.766247
O O1 0.289233 0.274367 0.928896
O O2 0.375549 0.475611 0.724682
O O3 0.374937 0.968640 0.554005
O O4 0.429230 0.943126 0.813346
O O5 0.139062 0.956659 0.575065
O O6 0.062404 0.228765 0.311939
O O7 0.179922 0.736659 0.178222
O O8 0.179670 0.233383 0.211547
O O9 0.825730 0.494200 0.158381
O O10 0.500000 0.500000 0.500000
O O11 0.570665 0.593678 0.660901
O O12 0.060406 0.716827 0.692471
O O13 0.000000 0.500000 0.000000
O O14 0.935290 0.039786 0.999196
O O15 0.500000 0.500000 0.000000
O O16 0.500000 0.000000 0.000000
#
# Coordination Sequence:
#
# PCOD9105815 Si02
#       7
#     2   2   2   2   2   2   2
#     4  11  22  42  63  86 130 166 209 254 325 387
#     4  11  24  41  66  93 131 169 223 263 320 381
#     4  11  25  44  62  92 134 176 210 266 318 395
#     4  10  20  39  66  89 115 167 206 252 319 376
#     4  10  20  39  66  94 127 166 217 274 322 368
#     4  11  21  37  62  94 124 148 205 272 306 364
#     4  10  23  41  63  95 128 169 218 268 323 382
#
# _framework density 21.922763
#
# number of rings (size 3 to 8) (size 9 to 14) (size 15 to 20)
#    0.000    1.429    1.429    5.571    2.000    0.571 
#    7.714    0.000    0.000    0.000    0.000    0.000 
#    0.000    0.000    0.000    0.000    0.000    0.000 
#
# Total GULP energy -77988.416880 kJ/mol
# GULP energy per Si atom -5570.601206 kJ/mol
# Density = 2.187287 g / cm^3
# Si number density = 21.922763 Si / 1000 Ang^3
#
#
#
# Elastic Constant Matrix: (Units=GPa)
#
#
# Indices 1 2 3 4 5 6 
#
# 1 63.1912 23.3068 27.0777 -0.0818 -25.1002 17.5229
# 2 23.3068 91.0815 14.0093 1.5365 -13.8405 29.1598
# 3 27.0777 14.0093 61.8522 -10.8738 -12.6275 -1.1283
# 4 -0.0818 1.5365 -10.8738 48.0958 10.0216 -7.0315
# 5 -25.1002 -13.8405 -12.6275 10.0216 28.7199 -5.2696
# 6 17.5229 29.1598 -1.1283 -7.0315 -5.2696 34.7329
#
#
#
# Elastic Compliance Matrix: (Units=1/GPa)
#
#
# Indices 1 2 3 4 5 6 
#
# 1 0.037721 0.003761 -0.013959 -0.012311 0.029137 -0.020713
# 2 0.003761 0.017568 -0.005252 -0.005950 0.008449 -0.016740
# 3 -0.013959 -0.005252 0.024270 0.008530 -0.004602 0.013269
# 4 -0.012311 -0.005950 0.008530 0.028612 -0.017169 0.014671
# 5 0.029137 0.008449 -0.004602 -0.017169 0.065483 -0.015484
# 6 -0.020713 -0.016740 0.013269 0.014671 -0.015484 0.054347
#
#
# Mechanical properties :
#
#
# Convention : Reuss Voigt Hill
#
# Bulk Modulus (GPa) = 20.55096 38.32361 29.43728
# Shear Modulus (GPa) = 18.17382 32.42513 25.29948
#
# Velocity S-wave (km/s) = 2.88235 3.85003 3.40078
# Velocity P-wave (km/s) = 4.52458 6.10596 5.37376
#
# Compressibility (1/GPa) = 0.04865953
#
# Stress axis : x y z
#
# Youngs Moduli (GPa) = 26.51060 56.92097 41.20243
#
# Poissons Ratio (x) = -0.21410 0.57515
# Poissons Ratio (y) = -0.09972 0.21641
# Poissons Ratio (z) = 0.37006 0.29897
#
# Static dielectric constant tensor:
#      x y z
#    x 2.510740 0.519950 -0.167800 
#    y 0.519950 2.162120 -0.170740 
#    z -0.167800 -0.170740 1.970210 
# 
# From -- ./inp_files/121504.got.cif
#   From: 2010.05.17/outbox.cif.g08.bks.cpg/sg2_61_cif.got.tgz:121504.got - 2010.06.03 11:33:40.
