data_PCOD9105236
_publ_section_title
;
Structure prediction by ZEFSAII (Michael W. Deem and Ramdas Pophale) SiO2 
 PCOD9105236
Probable space group: P -1
;
_chemical_formula_sum "Si O2"
_cell_formula_units_Z 16
_cell_length_a 11.575415
_cell_length_b 12.773905
_cell_length_c 8.163353
_cell_angle_alpha 47.763250
_cell_angle_beta 81.520174
_cell_angle_gamma 54.541221
_cell_volume 666.487317
_symmetry_space_group_name_H-M "P -1"
_symmetry_group_IT_number 2
_symmetry_cell_setting 'triclinic'
loop_
_space_group_symop_operation_xyz
x,y,z
-x,-y,-z
loop_
_atom_site_type_symbol
_atom_site_label
_atom_site_fract_x
_atom_site_fract_y
_atom_site_fract_z
Si Si1 0.598878 0.022161 0.610736
Si Si2 0.000559 0.648875 0.443232
Si Si3 0.938537 0.283286 0.962386
Si Si4 0.629419 0.294977 0.773943
Si Si5 0.355016 0.006099 0.748542
Si Si6 0.200068 0.885564 0.393038
Si Si7 0.677617 0.371106 0.050168
Si Si8 0.870793 0.614862 0.042095
O O1 0.607113 0.065464 0.373866
O O2 0.441185 0.089483 0.651804
O O3 0.679530 0.080726 0.634387
O O4 0.705412 0.796004 0.826980
O O5 0.828504 0.824800 0.357512
O O6 0.000000 0.500000 0.500000
O O7 0.115974 0.531866 0.692913
O O8 0.065168 0.709626 0.238726
O O9 0.773708 0.437752 0.920682
O O10 0.022790 0.076698 0.227884
O O11 0.062293 0.304200 0.958962
O O12 0.500000 0.500000 0.500000
O O13 0.760418 0.192316 0.716063
O O14 0.683055 0.300784 0.938877
O O15 0.587028 0.163458 0.962551
O O16 0.237221 0.756049 0.673313
O O17 0.500000 0.500000 0.000000
O O18 0.000000 0.500000 0.000000
#
# Coordination Sequence:
#
# PCOD9105236 Si02
#       8
#     2   2   2   2   2   2   2   2
#     4  10  23  40  72 104 137 186 221 293 358 403
#     4  10  21  41  63  96 141 174 226 286 338 418
#     4  10  24  43  66  95 133 186 225 280 348 408
#     4  12  26  46  69 102 140 185 236 284 345 413
#     4  11  22  43  70 101 144 182 233 284 349 414
#     4  11  23  47  69  98 139 177 235 286 343 414
#     4  12  26  46  69  95 138 181 232 292 341 408
#     4  10  20  39  64 102 140 171 226 278 347 414
#
# _framework density 24.006459
#
# number of rings (size 3 to 8) (size 9 to 14) (size 15 to 20)
#    0.000    1.250    5.000    0.375    0.000    5.000 
#    2.250    0.000    0.000    0.000    0.000    0.000 
#    0.000    0.000    0.000    0.000    0.000    0.000 
#
# Total GULP energy -89209.764511 kJ/mol
# GULP energy per Si atom -5575.610282 kJ/mol
# Density = 2.395182 g / cm^3
# Si number density = 24.006459 Si / 1000 Ang^3
#
#
#
# Elastic Constant Matrix: (Units=GPa)
#
#
# Indices 1 2 3 4 5 6 
#
# 1 62.5989 21.6230 16.9732 16.6351 -9.0632 -13.2287
# 2 21.6230 96.5685 50.9551 27.8896 -2.8804 -18.4270
# 3 16.9732 50.9551 192.5275 27.8512 2.4791 -23.5871
# 4 16.6351 27.8896 27.8512 39.3518 0.9432 0.9232
# 5 -9.0632 -2.8804 2.4791 0.9432 19.4650 11.2541
# 6 -13.2287 -18.4270 -23.5871 0.9232 11.2541 44.3362
#
#
#
# Elastic Compliance Matrix: (Units=1/GPa)
#
#
# Indices 1 2 3 4 5 6 
#
# 1 0.020444 -0.001351 0.000092 -0.008019 0.007464 0.003860
# 2 -0.001351 0.015269 -0.001971 -0.008962 -0.000729 0.005266
# 3 0.000092 -0.001971 0.006676 -0.003379 -0.003014 0.003595
# 4 -0.008019 -0.008962 -0.003379 0.037779 -0.001675 -0.008276
# 5 0.007464 -0.000729 -0.003014 -0.001675 0.064462 -0.016007
# 6 0.003860 0.005266 0.003595 -0.008276 -0.016007 0.032043
#
#
# Mechanical properties :
#
#
# Convention : Reuss Voigt Hill
#
# Bulk Modulus (GPa) = 27.83325 58.97751 43.40538
# Shear Modulus (GPa) = 25.62673 38.10684 31.86679
#
# Velocity S-wave (km/s) = 3.27080 3.98849 3.64734
# Velocity P-wave (km/s) = 5.08757 6.76989 5.98810
#
# Compressibility (1/GPa) = 0.03592826
#
# Stress axis : x y z
#
# Youngs Moduli (GPa) = 48.91460 65.49109 149.79781
#
# Poissons Ratio (x) = 0.08849 -0.01379
# Poissons Ratio (y) = 0.06609 0.29528
# Poissons Ratio (z) = -0.00450 0.12909
#
# Static dielectric constant tensor:
#      x y z
#    x 1.992430 0.040600 0.009420 
#    y 0.040600 1.887260 -0.026840 
#    z 0.009420 -0.026840 2.012050 
# 
# From -- ./inp_files/188421.got.cif
#   From: 2010.05.17/outbox.cif.g08.bks.cpg/sg2_95_cif.got.tgz:188421.got - 2010.06.03 11:33:40.
