data_PCOD9105507
_publ_section_title
;
Structure prediction by ZEFSAII (Michael W. Deem and Ramdas Pophale) SiO2 
 PCOD9105507
Probable space group: P -1
;
_chemical_formula_sum "Si O2"
_cell_formula_units_Z 14
_cell_length_a 22.629409
_cell_length_b 21.064821
_cell_length_c 5.209872
_cell_angle_alpha 116.696328
_cell_angle_beta 123.367064
_cell_angle_gamma 19.252912
_cell_volume 661.461776
_symmetry_space_group_name_H-M "P -1"
_symmetry_group_IT_number 2
_symmetry_cell_setting 'triclinic'
loop_
_space_group_symop_operation_xyz
x,y,z
-x,-y,-z
loop_
_atom_site_type_symbol
_atom_site_label
_atom_site_fract_x
_atom_site_fract_y
_atom_site_fract_z
Si Si1 0.679577 0.928634 0.371977
Si Si2 0.595572 0.487681 0.757495
Si Si3 0.864717 0.477502 0.237017
Si Si4 0.560207 0.296427 0.720356
Si Si5 0.616275 0.841326 0.296818
Si Si6 0.626975 0.672864 0.503646
Si Si7 0.988369 0.960954 0.152017
O O1 0.696160 0.828118 0.273789
O O2 0.899859 0.752231 0.594106
O O3 0.522927 0.119957 0.517831
O O4 0.554920 0.048315 0.029168
O O5 0.500000 0.500000 0.500000
O O6 0.498975 0.631124 0.581361
O O7 0.824964 0.265692 0.834377
O O8 0.557725 0.544835 0.064566
O O9 0.798854 0.620440 0.406324
O O10 0.746763 0.544866 0.296385
O O11 0.783208 0.540720 0.869147
O O12 0.507468 0.266198 0.615899
O O13 0.787454 0.105226 0.944241
O O14 0.500000 0.000000 0.500000
O O15 0.000000 0.000000 0.500000
O O16 0.000000 0.000000 0.000000
#
# Coordination Sequence:
#
# PCOD9105507 Si02
#       7
#     2   2   2   2   2   2   2
#     4  10  23  41  64  93 134 168 214 272 317 376
#     4  12  23  42  70  95 127 161 208 268 322 376
#     4  11  24  42  67  93 129 175 220 260 321 375
#     4  12  25  43  64  96 132 166 212 267 316 387
#     4  10  20  39  65 100 125 165 220 273 319 366
#     4  11  26  43  61  92 133 173 216 258 315 392
#     4  12  23  40  68  99 123 162 205 259 328 376
#
# _framework density 21.165243
#
# number of rings (size 3 to 8) (size 9 to 14) (size 15 to 20)
#    0.000    0.857    4.286    2.571    2.000    2.857 
#    0.000    0.000    0.000    0.000    0.000    0.000 
#    0.000    0.000    0.000    0.000    0.000    0.000 
#
# Total GULP energy -78156.876327 kJ/mol
# GULP energy per Si atom -5582.634023 kJ/mol
# Density = 2.111707 g / cm^3
# Si number density = 21.165243 Si / 1000 Ang^3
#
#
#
# Elastic Constant Matrix: (Units=GPa)
#
#
# Indices 1 2 3 4 5 6 
#
# 1 79.4940 -10.9321 19.2835 -15.4252 -1.0003 -8.4895
# 2 -10.9321 102.2822 38.1072 -34.8157 0.8808 -20.8369
# 3 19.2835 38.1072 70.5325 -19.7313 2.6340 -12.2648
# 4 -15.4252 -34.8157 -19.7313 44.6771 -8.4201 3.4633
# 5 -1.0003 0.8808 2.6340 -8.4201 32.4507 5.9536
# 6 -8.4895 -20.8369 -12.2648 3.4633 5.9536 27.6301
#
#
#
# Elastic Compliance Matrix: (Units=1/GPa)
#
#
# Indices 1 2 3 4 5 6 
#
# 1 0.018326 0.009517 -0.005690 0.010962 0.002060 0.008464
# 2 0.009517 0.021950 -0.007591 0.016372 0.002065 0.013611
# 3 -0.005690 -0.007591 0.020413 0.000648 -0.001806 0.001896
# 4 0.010962 0.016372 0.000648 0.040121 0.008577 0.009126
# 5 0.002060 0.002065 -0.001806 0.008577 0.034502 -0.007121
# 6 0.008464 0.013611 0.001896 0.009126 -0.007121 0.050289
#
#
# Mechanical properties :
#
#
# Convention : Reuss Voigt Hill
#
# Bulk Modulus (GPa) = 18.81147 38.35844 28.58496
# Shear Modulus (GPa) = 23.71333 34.67492 29.19412
#
# Velocity S-wave (km/s) = 3.35085 4.05198 3.71798
# Velocity P-wave (km/s) = 4.88653 6.32882 5.65386
#
# Compressibility (1/GPa) = 0.05315905
#
# Stress axis : x y z
#
# Youngs Moduli (GPa) = 54.56856 45.55747 48.98757
#
# Poissons Ratio (x) = -0.43355 0.27876
# Poissons Ratio (y) = -0.51931 0.37188
# Poissons Ratio (z) = 0.31051 0.34584
#
# Static dielectric constant tensor:
#      x y z
#    x 1.855190 0.016470 -0.016520 
#    y 0.016470 1.785080 0.027590 
#    z -0.016520 0.027590 1.769070 
# 
# From -- ./inp_files/11567.got.cif
#   From: 2010.05.17/outbox.cif.g08.bks.cpg/sg2_6_cif.got.tgz:11567.got - 2010.06.03 11:33:40.
