data_PCOD9105255
_publ_section_title
;
Structure prediction by ZEFSAII (Michael W. Deem and Ramdas Pophale) SiO2 
 PCOD9105255
Probable space group: P -1
;
_chemical_formula_sum "Si O2"
_cell_formula_units_Z 16
_cell_length_a 9.532000
_cell_length_b 12.120134
_cell_length_c 22.215878
_cell_angle_alpha 49.259682
_cell_angle_beta 25.928253
_cell_angle_gamma 60.376648
_cell_volume 816.359497
_symmetry_space_group_name_H-M "P -1"
_symmetry_group_IT_number 2
_symmetry_cell_setting 'triclinic'
loop_
_space_group_symop_operation_xyz
x,y,z
-x,-y,-z
loop_
_atom_site_type_symbol
_atom_site_label
_atom_site_fract_x
_atom_site_fract_y
_atom_site_fract_z
Si Si1 0.397828 0.129852 0.956449
Si Si2 0.852162 0.577885 0.804590
Si Si3 0.906793 0.408129 0.163673
Si Si4 0.012110 0.924280 0.587523
Si Si5 0.222500 0.421024 0.402221
Si Si6 0.884615 0.087438 0.689935
Si Si7 0.637430 0.449531 0.818079
Si Si8 0.764548 0.070536 0.287584
O O1 0.561582 0.122621 0.831530
O O2 0.555765 0.287162 0.874764
O O3 0.001786 0.092779 0.129495
O O4 0.500000 0.000000 0.000000
O O5 0.859637 0.466063 0.786418
O O6 0.093285 0.599308 0.761134
O O7 0.886213 0.741951 0.703598
O O8 0.500000 0.500000 0.000000
O O9 0.624873 0.490018 0.227147
O O10 0.796316 0.238323 0.240235
O O11 0.280957 0.475036 0.967963
O O12 0.392590 0.979210 0.446132
O O13 0.000000 0.000000 0.500000
O O14 0.810029 0.985808 0.695247
O O15 0.165550 0.432793 0.349223
O O16 0.000000 0.500000 0.500000
O O17 0.128122 0.249144 0.521098
O O18 0.071174 0.010005 0.695129
#
# Coordination Sequence:
#
# PCOD9105255 Si02
#       8
#     2   2   2   2   2   2   2   2
#     4   9  20  37  65  88 113 157 207 248 291 355
#     4  10  22  39  61  92 123 156 201 250 305 357
#     4  10  20  39  64  87 114 162 208 244 292 363
#     4  12  23  38  63  94 122 154 202 259 303 348
#     4  12  22  35  56  91 125 154 193 252 307 352
#     4  11  20  38  64  88 118 157 204 248 295 361
#     4  10  21  39  60  90 122 155 199 250 304 357
#     4  10  20  39  67  88 110 157 217 247 282 359
#
# _framework density 19.599208000000001
#
# number of rings (size 3 to 8) (size 9 to 14) (size 15 to 20)
#    0.000    1.500    3.750    2.250    1.750    0.000 
#    2.250    1.250    5.500    0.000    0.000    0.000 
#    0.000    0.000    0.000    0.000    0.000    0.000 
#
# Total GULP energy -89197.957877 kJ/mol
# GULP energy per Si atom -5574.872367 kJ/mol
# Density = 1.955460 g / cm^3
# Si number density = 19.599208 Si / 1000 Ang^3
#
#
#
# Elastic Constant Matrix: (Units=GPa)
#
#
# Indices 1 2 3 4 5 6 
#
# 1 85.3665 26.0431 24.8676 8.4253 25.0890 10.1898
# 2 26.0431 74.9853 30.2448 15.0630 3.3786 14.0010
# 3 24.8676 30.2448 91.4258 4.6853 18.2985 11.1583
# 4 8.4253 15.0630 4.6853 29.7469 8.7827 5.5081
# 5 25.0890 3.3786 18.2985 8.7827 32.1820 2.3247
# 6 10.1898 14.0010 11.1583 5.5081 2.3247 23.4348
#
#
#
# Elastic Compliance Matrix: (Units=1/GPa)
#
#
# Indices 1 2 3 4 5 6 
#
# 1 0.017476 -0.005252 0.000006 0.002364 -0.013455 -0.003684
# 2 -0.005252 0.019939 -0.005636 -0.009069 0.008087 -0.005616
# 3 0.000006 -0.005636 0.014775 0.003740 -0.008567 -0.003700
# 4 0.002364 -0.009069 0.003740 0.042211 -0.014110 -0.005912
# 5 -0.013455 0.008087 -0.008567 -0.014110 0.049180 0.003536
# 6 -0.003684 -0.005616 -0.003700 -0.005912 0.003536 0.050429
#
#
# Mechanical properties :
#
#
# Convention : Reuss Voigt Hill
#
# Bulk Modulus (GPa) = 32.86771 46.00985 39.43878
# Shear Modulus (GPa) = 22.13197 28.44756 25.28976
#
# Velocity S-wave (km/s) = 3.36404 3.81394 3.59604
# Velocity P-wave (km/s) = 5.64760 6.55143 6.11623
#
# Compressibility (1/GPa) = 0.03042499
#
# Stress axis : x y z
#
# Youngs Moduli (GPa) = 57.22229 50.15201 67.68060
#
# Poissons Ratio (x) = 0.26342 -0.00038
# Poissons Ratio (y) = 0.30056 0.38144
# Poissons Ratio (z) = -0.00032 0.28265
#
# Static dielectric constant tensor:
#      x y z
#    x 1.724150 0.004530 0.002720 
#    y 0.004530 1.701330 0.014930 
#    z 0.002720 0.014930 1.758700 
# 
# From -- ./inp_files/280783.got.cif
#   From: 2010.05.17/outbox.cif.g08.bks.cpg/sg2_141_cif.got.tgz:280783.got - 2010.06.03 11:33:40.
