data_PCOD9105483
_publ_section_title
;
Structure prediction by ZEFSAII (Michael W. Deem and Ramdas Pophale) SiO2 
 PCOD9105483
Probable space group: P -1
;
_chemical_formula_sum "Si O2"
_cell_formula_units_Z 14
_cell_length_a 12.549098
_cell_length_b 7.641712
_cell_length_c 9.014036
_cell_angle_alpha 80.795201
_cell_angle_beta 109.222631
_cell_angle_gamma 48.603976
_cell_volume 517.997514
_symmetry_space_group_name_H-M "P -1"
_symmetry_group_IT_number 2
_symmetry_cell_setting 'triclinic'
loop_
_space_group_symop_operation_xyz
x,y,z
-x,-y,-z
loop_
_atom_site_type_symbol
_atom_site_label
_atom_site_fract_x
_atom_site_fract_y
_atom_site_fract_z
Si Si1 0.048981 0.293236 0.331070
Si Si2 0.145052 0.859124 0.208599
Si Si3 0.696600 0.724692 0.965194
Si Si4 0.540212 0.130935 0.419955
Si Si5 0.459064 0.713646 0.289430
Si Si6 0.664135 0.399822 0.157543
Si Si7 0.981981 0.177100 0.592363
O O1 0.968664 0.355930 0.449605
O O2 0.084328 0.078299 0.272482
O O3 0.248880 0.119413 0.479330
O O4 0.894027 0.561179 0.118717
O O5 0.299168 0.769910 0.202147
O O6 0.144760 0.688061 0.342978
O O7 0.000000 0.000000 0.000000
O O8 0.608560 0.703587 0.798382
O O9 0.594009 0.032480 0.843655
O O10 0.680173 0.588962 0.100558
O O11 0.512601 0.298325 0.520683
O O12 0.500000 0.000000 0.500000
O O13 0.623547 0.442531 0.309322
O O14 0.823152 0.085591 0.220327
O O15 0.500000 0.500000 0.000000
O O16 0.000000 0.000000 0.500000
#
# Coordination Sequence:
#
# PCOD9105483 Si02
#       7
#     2   2   2   2   2   2   2
#     4  10  21  42  69  96 133 185 223 275 346 415
#     4  10  20  39  64  97 133 171 228 286 334 403
#     4  11  22  44  73  97 138 185 225 281 352 415
#     4   9  21  41  65 100 140 172 224 281 343 408
#     4  10  24  41  68 103 136 172 231 292 343 401
#     4  12  23  41  71  98 135 183 226 281 344 413
#     4  10  20  41  62  88 132 176 217 269 336 400
#
# _framework density 27.027155
#
# number of rings (size 3 to 8) (size 9 to 14) (size 15 to 20)
#    0.000    1.714    2.857    2.143    0.000    5.143 
#    5.143    4.286    6.286    7.714    0.000    0.000 
#    0.000    0.000    0.000    0.000    0.000    0.000 
#
# Total GULP energy -77939.671735 kJ/mol
# GULP energy per Si atom -5567.119410 kJ/mol
# Density = 2.696564 g / cm^3
# Si number density = 27.027155 Si / 1000 Ang^3
#
#
#
# Elastic Constant Matrix: (Units=GPa)
#
#
# Indices 1 2 3 4 5 6 
#
# 1 146.2979 40.4192 78.3706 10.9681 13.1516 -12.0293
# 2 40.4192 83.9784 36.2545 -6.8102 -0.6007 1.1692
# 3 78.3706 36.2545 179.3943 1.0081 4.3709 -21.9155
# 4 10.9681 -6.8102 1.0081 31.4739 -16.3488 -4.3377
# 5 13.1516 -0.6007 4.3709 -16.3488 26.0351 6.6419
# 6 -12.0293 1.1692 -21.9155 -4.3377 6.6419 48.6572
#
#
#
# Elastic Compliance Matrix: (Units=1/GPa)
#
#
# Indices 1 2 3 4 5 6 
#
# 1 0.012982 -0.005832 -0.003746 -0.013063 -0.014912 0.002533
# 2 -0.005832 0.016371 -0.001471 0.011072 0.011303 -0.003054
# 3 -0.003746 -0.001471 0.007802 0.001538 0.000839 0.002646
# 4 -0.013063 0.011072 0.001538 0.062447 0.046732 -0.003615
# 5 -0.014912 0.011303 0.000839 0.046732 0.077974 -0.010058
# 6 0.002533 -0.003054 0.002646 -0.003615 -0.010058 0.023494
#
#
# Mechanical properties :
#
#
# Convention : Reuss Voigt Hill
#
# Bulk Modulus (GPa) = 66.41956 79.97324 73.19640
# Shear Modulus (GPa) = 21.91169 38.20833 30.06001
#
# Velocity S-wave (km/s) = 2.85042 3.76400 3.33861
# Velocity P-wave (km/s) = 5.95497 6.96739 6.48098
#
# Compressibility (1/GPa) = 0.01505581
#
# Stress axis : x y z
#
# Youngs Moduli (GPa) = 77.03105 61.08256 128.16434
#
# Poissons Ratio (x) = 0.35624 0.48016
# Poissons Ratio (y) = 0.44925 0.18858
# Poissons Ratio (z) = 0.28859 0.08988
#
# Static dielectric constant tensor:
#      x y z
#    x 2.354490 -0.009070 0.289180 
#    y -0.009070 2.553570 -0.574970 
#    z 0.289180 -0.574970 3.254310 
# 
# From -- ./inp_files/237761.got.cif
#   From: 2010.05.17/outbox.cif.g08.bks.cpg/sg2_119_cif.got.tgz:237761.got - 2010.06.03 11:33:40.
