data_PCOD9105828
_publ_section_title
;
Structure prediction by ZEFSAII (Michael W. Deem and Ramdas Pophale) SiO2 
 PCOD9105828
Probable space group: P -1
;
_chemical_formula_sum "Si O2"
_cell_formula_units_Z 16
_cell_length_a 8.883478
_cell_length_b 9.582724
_cell_length_c 11.751689
_cell_angle_alpha 98.832842
_cell_angle_beta 57.963504
_cell_angle_gamma 101.425960
_cell_volume 829.824429
_symmetry_space_group_name_H-M "P -1"
_symmetry_group_IT_number 2
_symmetry_cell_setting 'triclinic'
loop_
_space_group_symop_operation_xyz
x,y,z
-x,-y,-z
loop_
_atom_site_type_symbol
_atom_site_label
_atom_site_fract_x
_atom_site_fract_y
_atom_site_fract_z
Si Si1 0.874969 0.382802 0.962422
Si Si2 0.813060 0.898075 0.582828
Si Si3 0.068327 0.717626 0.551611
Si Si4 0.003621 0.074029 0.885432
Si Si5 0.291119 0.009010 0.590393
Si Si6 0.341859 0.075201 0.125260
Si Si7 0.142202 0.548263 0.291795
Si Si8 0.527390 0.596214 0.888582
O O1 0.873681 0.412018 0.829667
O O2 0.947359 0.232149 0.934289
O O3 0.667787 0.389080 0.082673
O O4 0.000000 0.500000 0.000000
O O5 0.736164 0.881434 0.486696
O O6 0.678645 0.952053 0.734208
O O7 0.877746 0.765707 0.602637
O O8 0.000000 0.000000 0.500000
O O9 0.141706 0.679369 0.394404
O O10 0.023175 0.574463 0.625641
O O11 0.188083 0.850591 0.580082
O O12 0.193539 0.062489 0.746650
O O13 0.849059 0.986960 0.858770
O O14 0.000000 0.000000 0.000000
O O15 0.500000 0.000000 0.500000
O O16 0.386920 0.242120 0.100391
O O17 0.500000 0.000000 0.000000
O O18 0.324657 0.484406 0.240744
O O19 0.500000 0.500000 0.000000
#
# Coordination Sequence:
#
# PCOD9105828 Si02
#       8
#     2   2   2   2   2   2   2   2
#     4  11  26  42  63  93 136 172 206 269 336 392
#     4  10  20  39  66  89 131 167 214 272 323 383
#     4  10  20  39  69  89 121 169 215 270 315 391
#     4  12  27  44  67  97 136 175 220 276 338 389
#     4  11  25  41  63  97 133 171 215 276 332 388
#     4  12  23  42  69 101 125 172 231 277 322 394
#     4  10  21  40  66  93 122 166 220 261 325 387
#     4  10  22  39  65  93 128 166 215 268 319 391
#
# _framework density 19.281186999999999
#
# number of rings (size 3 to 8) (size 9 to 14) (size 15 to 20)
#    0.000    1.250    5.000    0.750    8.750    1.000 
#    0.000    0.000    0.000    3.750    0.000    0.000 
#    0.000    0.000    0.000    0.000    0.000    0.000 
#
# Total GULP energy -89164.641992 kJ/mol
# GULP energy per Si atom -5572.790125 kJ/mol
# Density = 1.923730 g / cm^3
# Si number density = 19.281187 Si / 1000 Ang^3
#
#
#
# Elastic Constant Matrix: (Units=GPa)
#
#
# Indices 1 2 3 4 5 6 
#
# 1 89.1850 34.7576 40.6675 8.6031 -17.8216 -11.2952
# 2 34.7576 107.2401 31.8841 5.8333 -1.2581 -4.4523
# 3 40.6675 31.8841 141.7558 4.8292 -10.3462 -15.5439
# 4 8.6031 5.8333 4.8292 36.2667 -10.0627 0.6896
# 5 -17.8216 -1.2581 -10.3462 -10.0627 35.3024 -1.5047
# 6 -11.2952 -4.4523 -15.5439 0.6896 -1.5047 27.5062
#
#
#
# Elastic Compliance Matrix: (Units=1/GPa)
#
#
# Indices 1 2 3 4 5 6 
#
# 1 0.016158 -0.004122 -0.002614 -0.000920 0.007191 0.004907
# 2 -0.004122 0.011128 -0.001559 -0.001295 -0.002547 -0.000879
# 3 -0.002614 -0.001559 0.008649 0.000016 0.001319 0.003634
# 4 -0.000920 -0.001295 0.000016 0.030257 0.008080 -0.000895
# 5 0.007191 -0.002547 0.001319 0.008080 0.034768 0.004985
# 6 0.004907 -0.000879 0.003634 -0.000895 0.004985 0.040577
#
#
# Mechanical properties :
#
#
# Convention : Reuss Voigt Hill
#
# Bulk Modulus (GPa) = 51.68947 61.42215 56.55581
# Shear Modulus (GPa) = 30.38117 35.20651 32.79384
#
# Velocity S-wave (km/s) = 3.97380 4.27775 4.12857
# Velocity P-wave (km/s) = 6.92252 7.50493 7.21960
#
# Compressibility (1/GPa) = 0.01934630
#
# Stress axis : x y z
#
# Youngs Moduli (GPa) = 61.88804 89.86149 115.61875
#
# Poissons Ratio (x) = 0.37038 0.30225
# Poissons Ratio (y) = 0.25508 0.18022
# Poissons Ratio (z) = 0.16179 0.14007
#
# Static dielectric constant tensor:
#      x y z
#    x 1.704760 -0.012300 -0.026310 
#    y -0.012300 1.717970 0.010650 
#    z -0.026310 0.010650 1.749880 
# 
# From -- ./inp_files/256272.got.cif
#   From: 2010.05.17/outbox.cif.g08.bks.cpg/sg2_129_cif.got.tgz:256272.got - 2010.06.03 11:33:40.
