data_PCOD9105352
_publ_section_title
;
Structure prediction by ZEFSAII (Michael W. Deem and Ramdas Pophale) SiO2 
 PCOD9105352
Probable space group: P -1
;
_chemical_formula_sum "Si O2"
_cell_formula_units_Z 16
_cell_length_a 7.785936
_cell_length_b 8.161054
_cell_length_c 22.113374
_cell_angle_alpha 66.536012
_cell_angle_beta 130.355859
_cell_angle_gamma 143.710038
_cell_volume 609.422366
_symmetry_space_group_name_H-M "P -1"
_symmetry_group_IT_number 2
_symmetry_cell_setting 'triclinic'
loop_
_space_group_symop_operation_xyz
x,y,z
-x,-y,-z
loop_
_atom_site_type_symbol
_atom_site_label
_atom_site_fract_x
_atom_site_fract_y
_atom_site_fract_z
Si Si1 0.390411 0.043891 0.675638
Si Si2 0.945345 0.065244 0.771966
Si Si3 0.808215 0.328644 0.847978
Si Si4 0.554458 0.500495 0.598116
Si Si5 0.441642 0.011930 0.053927
Si Si6 0.242844 0.674028 0.471161
Si Si7 0.171538 0.203028 0.933216
Si Si8 0.669531 0.550753 0.306585
O O1 0.656420 0.050482 0.713760
O O2 0.584264 0.241920 0.751193
O O3 0.380462 0.194236 0.600904
O O4 0.984097 0.746857 0.648260
O O5 0.210955 0.235315 0.864793
O O6 0.130080 0.187279 0.730536
O O7 0.696414 0.735867 0.767876
O O8 0.189073 0.666949 0.884532
O O9 0.839549 0.131479 0.877182
O O10 0.651416 0.222955 0.895014
O O11 0.425421 0.593470 0.516366
O O12 0.438010 0.483071 0.643211
O O13 0.143643 0.985595 0.983162
O O14 0.500000 0.000000 0.000000
O O15 0.000000 0.500000 0.500000
O O16 0.963346 0.571416 0.372780
O O17 0.500000 0.000000 0.500000
O O18 0.500000 0.500000 0.000000
#
# Coordination Sequence:
#
# PCOD9105352 Si02
#       8
#     2   2   2   2   2   2   2   2
#     4  11  23  40  60  90 125 162 205 250 309 372
#     4  11  24  41  63  92 129 162 204 265 315 362
#     4  10  22  40  59  79 118 163 195 240 307 379
#     4  11  22  40  66  92 122 166 210 248 301 376
#     4  11  22  37  59  88 115 147 200 261 306 352
#     4  10  20  39  64  91 125 166 206 247 304 378
#     4   9  22  42  63  84 117 168 210 241 306 387
#     4  11  23  41  64  94 123 160 209 260 309 362
#
# _framework density 26.254369000000001
#
# number of rings (size 3 to 8) (size 9 to 14) (size 15 to 20)
#    0.000    1.500    0.000    6.000    0.000   10.000 
#    0.000    3.750    0.000    0.000    0.000    0.000 
#    0.000    0.000    0.000    0.000    0.000    0.000 
#
# Total GULP energy -89458.417966 kJ/mol
# GULP energy per Si atom -5591.151123 kJ/mol
# Density = 2.619461 g / cm^3
# Si number density = 26.254369 Si / 1000 Ang^3
#
#
#
# Elastic Constant Matrix: (Units=GPa)
#
#
# Indices 1 2 3 4 5 6 
#
# 1 110.6118 9.6957 14.1793 -8.5981 17.7702 11.6877
# 2 9.6957 115.9969 22.6364 -3.0360 18.8840 34.0605
# 3 14.1793 22.6364 126.2309 -17.4341 11.7715 4.3952
# 4 -8.5981 -3.0360 -17.4341 46.6430 -12.3757 -1.4960
# 5 17.7702 18.8840 11.7715 -12.3757 32.2333 -16.1529
# 6 11.6877 34.0605 4.3952 -1.4960 -16.1529 39.9372
#
#
#
# Elastic Compliance Matrix: (Units=1/GPa)
#
#
# Indices 1 2 3 4 5 6 
#
# 1 0.015533 0.011772 -0.000810 -0.005787 -0.031053 -0.027273
# 2 0.011772 0.034074 -0.001809 -0.013956 -0.059701 -0.056975
# 3 -0.000810 -0.001809 0.008728 0.003004 -0.000077 0.000901
# 4 -0.005787 -0.013956 0.003004 0.031364 0.037059 0.029429
# 5 -0.031053 -0.059701 -0.000077 0.037059 0.160721 0.126405
# 6 -0.027273 -0.056975 0.000901 0.029429 0.126405 0.133740
#
#
# Mechanical properties :
#
#
# Convention : Reuss Voigt Hill
#
# Bulk Modulus (GPa) = 13.04781 49.54026 31.29403
# Shear Modulus (GPa) = 12.77464 44.18458 28.47961
#
# Velocity S-wave (km/s) = 2.20823 4.10682 3.29714
# Velocity P-wave (km/s) = 3.38855 6.43415 5.14201
#
# Compressibility (1/GPa) = 0.07664124
#
# Stress axis : x y z
#
# Youngs Moduli (GPa) = 64.37782 29.34826 114.57396
#
# Poissons Ratio (x) = -0.34548 0.09276
# Poissons Ratio (y) = -0.75784 0.20725
# Poissons Ratio (z) = 0.05212 0.05309
#
# Static dielectric constant tensor:
#      x y z
#    x 2.268300 0.001800 0.032120 
#    y 0.001800 2.054650 -0.072590 
#    z 0.032120 -0.072590 2.099260 
# 
# From -- ./inp_files/587920.got.cif
#   From: 2010.05.17/outbox.cif.g08.bks.cpg/sg2_294_cif.got.tgz:587920.got - 2010.06.03 11:33:40.
