data_PCOD9105128
_publ_section_title
;
Structure prediction by ZEFSAII (Michael W. Deem and Ramdas Pophale) SiO2 
 PCOD9105128
Probable space group: P -1
;
_chemical_formula_sum "Si O2"
_cell_formula_units_Z 16
_cell_length_a 8.158563
_cell_length_b 9.249954
_cell_length_c 20.080658
_cell_angle_alpha 37.930755
_cell_angle_beta 63.379074
_cell_angle_gamma 49.704178
_cell_volume 704.252877
_symmetry_space_group_name_H-M "P -1"
_symmetry_group_IT_number 2
_symmetry_cell_setting 'triclinic'
loop_
_space_group_symop_operation_xyz
x,y,z
-x,-y,-z
loop_
_atom_site_type_symbol
_atom_site_label
_atom_site_fract_x
_atom_site_fract_y
_atom_site_fract_z
Si Si1 0.217984 0.731863 0.531173
Si Si2 0.176014 0.020596 0.873946
Si Si3 0.795319 0.389935 0.203235
Si Si4 0.860767 0.452316 0.878280
Si Si5 0.389431 0.826925 0.772623
Si Si6 0.588981 0.827962 0.478471
Si Si7 0.560749 0.747052 0.241326
Si Si8 0.835531 0.232712 0.628755
O O1 0.408944 0.768750 0.507635
O O2 0.269821 0.452594 0.659808
O O3 0.222718 0.706423 0.460660
O O4 0.000000 0.000000 0.500000
O O5 0.201847 0.004058 0.796068
O O6 0.387202 0.015877 0.865116
O O7 0.166494 0.760090 0.994863
O O8 0.976380 0.290740 0.847064
O O9 0.650844 0.413503 0.157838
O O10 0.631384 0.556229 0.232592
O O11 0.973032 0.478147 0.142373
O O12 0.938636 0.057554 0.308173
O O13 0.622206 0.703412 0.810713
O O14 0.389720 0.000571 0.646794
O O15 0.799718 0.516646 0.562866
O O16 0.500000 0.000000 0.500000
O O17 0.327975 0.828472 0.279849
#
# Coordination Sequence:
#
# PCOD9105128 Si02
#       8
#     2   2   2   2   2   2   2   2
#     4  11  20  36  64  89 122 174 215 256 320 382
#     4  10  22  42  69  97 125 173 216 271 333 383
#     4  11  24  41  65  94 127 173 211 266 330 385
#     4  10  24  46  67  95 133 162 220 279 323 387
#     4  12  24  42  67  96 128 173 217 264 330 386
#     4  11  25  41  60  96 137 167 216 269 316 386
#     4  10  20  39  63  92 128 169 220 262 327 385
#     4  11  22  40  61  90 130 171 216 264 313 391
#
# _framework density 22.719111000000002
#
# number of rings (size 3 to 8) (size 9 to 14) (size 15 to 20)
#    0.000    1.250    1.250    6.375    1.750    3.000 
#    0.000    5.625    0.000    0.000    0.000    0.000 
#    0.000    0.000    0.000    0.000    0.000    0.000 
#
# Total GULP energy -89405.750848 kJ/mol
# GULP energy per Si atom -5587.859428 kJ/mol
# Density = 2.266740 g / cm^3
# Si number density = 22.719111 Si / 1000 Ang^3
#
#
#
# Elastic Constant Matrix: (Units=GPa)
#
#
# Indices 1 2 3 4 5 6 
#
# 1 69.7043 15.0241 24.1175 6.1076 -29.5244 6.4774
# 2 15.0241 151.0842 37.2242 25.1103 -12.6433 24.7810
# 3 24.1175 37.2242 76.9379 7.2899 -27.1945 4.9446
# 4 6.1076 25.1103 7.2899 30.2949 1.2693 -2.3164
# 5 -29.5244 -12.6433 -27.1945 1.2693 20.8539 -4.2071
# 6 6.4774 24.7810 4.9446 -2.3164 -4.2071 25.2254
#
#
#
# Elastic Compliance Matrix: (Units=1/GPa)
#
#
# Indices 1 2 3 4 5 6 
#
# 1 0.054627 0.002986 0.022533 -0.023887 0.108898 -0.005409
# 2 0.002986 0.010900 -0.002365 -0.010160 0.006168 -0.010915
# 3 0.022533 -0.002365 0.036255 -0.014516 0.078884 0.001254
# 4 -0.023887 -0.010160 -0.014516 0.053292 -0.059335 0.013958
# 5 0.108898 0.006168 0.078884 -0.059335 0.311755 -0.002939
# 6 -0.005409 -0.010915 0.001254 0.013958 -0.002939 0.052300
#
#
# Mechanical properties :
#
#
# Convention : Reuss Voigt Hill
#
# Bulk Modulus (GPa) = 6.75260 50.05090 28.40175
# Shear Modulus (GPa) = 9.57515 30.03219 19.80367
#
# Velocity S-wave (km/s) = 2.05517 3.63973 2.95562
# Velocity P-wave (km/s) = 2.93433 6.30409 4.91691
#
# Compressibility (1/GPa) = 0.14809100
#
# Stress axis : x y z
#
# Youngs Moduli (GPa) = 18.30584 91.74504 27.58203
#
# Poissons Ratio (x) = -0.27396 -0.62152
# Poissons Ratio (y) = -0.05466 0.06524
# Poissons Ratio (z) = -0.41249 0.21701
#
# Static dielectric constant tensor:
#      x y z
#    x 1.932830 -0.022670 -0.001150 
#    y -0.022670 1.883420 -0.037250 
#    z -0.001150 -0.037250 1.876490 
# 
# From -- ./inp_files/214227.got.cif
#   From: 2010.05.17/outbox.cif.g08.bks.cpg/sg2_108_cif.got.tgz:214227.got - 2010.06.03 11:33:40.
