data_PCOD9105605
_publ_section_title
;
Structure prediction by ZEFSAII (Michael W. Deem and Ramdas Pophale) SiO2 
 PCOD9105605
Probable space group: P -1
;
_chemical_formula_sum "Si O2"
_cell_formula_units_Z 14
_cell_length_a 11.274062
_cell_length_b 11.240258
_cell_length_c 5.919608
_cell_angle_alpha 105.810164
_cell_angle_beta 122.929069
_cell_angle_gamma 53.408290
_cell_volume 504.053582
_symmetry_space_group_name_H-M "P -1"
_symmetry_group_IT_number 2
_symmetry_cell_setting 'triclinic'
loop_
_space_group_symop_operation_xyz
x,y,z
-x,-y,-z
loop_
_atom_site_type_symbol
_atom_site_label
_atom_site_fract_x
_atom_site_fract_y
_atom_site_fract_z
Si Si1 0.304179 0.654708 0.315613
Si Si2 0.931808 0.903386 0.066018
Si Si3 0.284521 0.814864 0.769042
Si Si4 0.175094 0.514018 0.786447
Si Si5 0.863560 0.733120 0.290064
Si Si6 0.644283 0.013476 0.446069
Si Si7 0.560742 0.704601 0.387495
O O1 0.284604 0.681529 0.580775
O O2 0.479148 0.639835 0.431572
O O3 0.126836 0.810077 0.146280
O O4 0.286920 0.548022 0.075322
O O5 0.912033 0.799636 0.170471
O O6 0.884743 0.054169 0.219861
O O7 0.789069 0.953569 0.755373
O O8 0.319965 0.899046 0.657563
O O9 0.432911 0.755356 0.071031
O O10 0.145355 0.406494 0.851758
O O11 0.261395 0.418233 0.598020
O O12 0.005531 0.663149 0.599658
O O13 0.683895 0.868401 0.277488
O O14 0.469498 0.146779 0.449175
#
# Coordination Sequence:
#
# PCOD9105605 Si02
#       7
#     2   2   2   2   2   2   2
#     4  11  22  38  62  94 125 160 198 250 308 368
#     4  10  20  39  65  92 121 156 210 253 296 359
#     4   9  21  37  64  92 125 158 199 251 312 353
#     4  11  24  44  60  90 129 160 207 247 297 373
#     4  10  23  44  65  87 120 166 207 253 295 351
#     4   9  19  43  64  93 118 159 209 251 301 356
#     4  10  23  41  62  94 126 157 198 254 308 364
#
# _framework density 27.774823999999999
#
# number of rings (size 3 to 8) (size 9 to 14) (size 15 to 20)
#    0.000    2.000    1.429    0.857    2.000    6.857 
#    5.143    6.429    0.000    0.000    0.000    0.000 
#    0.000    0.000    0.000    0.000    0.000    0.000 
#
# Total GULP energy -78381.178934 kJ/mol
# GULP energy per Si atom -5598.655638 kJ/mol
# Density = 2.771161 g / cm^3
# Si number density = 27.774824 Si / 1000 Ang^3
#
#
#
# Elastic Constant Matrix: (Units=GPa)
#
#
# Indices 1 2 3 4 5 6 
#
# 1 88.7852 37.5673 4.0603 2.6196 -12.6850 -3.9947
# 2 37.5673 154.5004 18.5041 20.5731 -14.2889 -17.3602
# 3 4.0603 18.5041 78.8404 -3.1163 -10.8132 9.6899
# 4 2.6196 20.5731 -3.1163 40.4310 2.1283 -6.1895
# 5 -12.6850 -14.2889 -10.8132 2.1283 34.5990 -7.1285
# 6 -3.9947 -17.3602 9.6899 -6.1895 -7.1285 51.5320
#
#
#
# Elastic Compliance Matrix: (Units=1/GPa)
#
#
# Indices 1 2 3 4 5 6 
#
# 1 0.013013 -0.002881 0.000484 0.000542 0.003810 0.000539
# 2 -0.002881 0.008521 -0.002000 -0.003998 0.002684 0.002914
# 3 0.000484 -0.002000 0.013934 0.001493 0.003068 -0.002653
# 4 0.000542 -0.003998 0.001493 0.027180 -0.002380 0.001350
# 5 0.003810 0.002684 0.003068 -0.002380 0.033538 0.004976
# 6 0.000539 0.002914 -0.002653 0.001350 0.004976 0.021778
#
#
# Mechanical properties :
#
#
# Convention : Reuss Voigt Hill
#
# Bulk Modulus (GPa) = 37.49064 49.15438 43.32251
# Shear Modulus (GPa) = 36.85987 42.77869 39.81928
#
# Velocity S-wave (km/s) = 3.64689 3.92879 3.79046
# Velocity P-wave (km/s) = 5.59110 6.19003 5.89817
#
# Compressibility (1/GPa) = 0.02667333
#
# Stress axis : x y z
#
# Youngs Moduli (GPa) = 76.84770 117.36232 71.76677
#
# Poissons Ratio (x) = 0.33816 -0.03472
# Poissons Ratio (y) = 0.22142 0.14350
# Poissons Ratio (z) = -0.03718 0.23467
#
# Static dielectric constant tensor:
#      x y z
#    x 2.156800 0.035770 -0.052340 
#    y 0.035770 2.261440 0.014880 
#    z -0.052340 0.014880 2.101040 
# 
# From -- ./inp_files/63536.got.cif
#   From: 2010.05.17/outbox.cif.g08.bks.cpg/sg2_32_cif.got.tgz:63536.got - 2010.06.03 11:33:40.
