data_PCOD9105049
_publ_section_title
;
Structure prediction by ZEFSAII (Michael W. Deem and Ramdas Pophale) SiO2 
 PCOD9105049
Probable space group: P -1
;
_chemical_formula_sum "Si O2"
_cell_formula_units_Z 16
_cell_length_a 9.276469
_cell_length_b 21.963456
_cell_length_c 11.357365
_cell_angle_alpha 38.143582
_cell_angle_beta 47.879197
_cell_angle_gamma 30.167661
_cell_volume 717.898738
_symmetry_space_group_name_H-M "P -1"
_symmetry_group_IT_number 2
_symmetry_cell_setting 'triclinic'
loop_
_space_group_symop_operation_xyz
x,y,z
-x,-y,-z
loop_
_atom_site_type_symbol
_atom_site_label
_atom_site_fract_x
_atom_site_fract_y
_atom_site_fract_z
Si Si1 0.902506 0.145300 0.580902
Si Si2 0.750622 0.984866 0.853891
Si Si3 0.742727 0.454296 0.860520
Si Si4 0.519260 0.344467 0.710184
Si Si5 0.871311 0.302207 0.785096
Si Si6 0.072524 0.417927 0.460798
Si Si7 0.820116 0.847562 0.797653
Si Si8 0.296672 0.922744 0.889529
O O1 0.995165 0.185671 0.365809
O O2 0.722952 0.260857 0.610299
O O3 0.196607 0.994889 0.706987
O O4 0.727212 0.110549 0.696759
O O5 0.824920 0.934985 0.754297
O O6 0.008632 0.844775 0.007281
O O7 0.500000 0.000000 0.000000
O O8 0.719643 0.420181 0.793193
O O9 0.707030 0.584338 0.701018
O O10 0.500000 0.500000 0.000000
O O11 0.036561 0.298514 0.988956
O O12 0.666630 0.362509 0.695004
O O13 0.203791 0.477453 0.630770
O O14 0.515839 0.244003 0.939004
O O15 0.133949 0.279913 0.647859
O O16 0.000000 0.500000 0.500000
O O17 0.493349 0.936820 0.812751
O O18 0.000000 0.000000 0.000000
#
# Coordination Sequence:
#
# PCOD9105049 Si02
#       8
#     2   2   2   2   2   2   2   2
#     4  11  24  37  65  93 133 162 206 260 324 376
#     4  11  23  39  64  94 127 170 215 256 308 379
#     4  10  23  42  65  90 127 166 209 264 315 370
#     4  11  21  41  65  92 123 169 209 261 314 378
#     4  10  23  40  65  92 123 164 213 262 307 376
#     4  10  22  40  65  90 119 160 221 258 305 373
#     4  11  23  40  62  96 127 167 208 264 322 368
#     4  10  20  39  63  89 124 168 206 252 313 380
#
# _framework density 22.287265999999999
#
# number of rings (size 3 to 8) (size 9 to 14) (size 15 to 20)
#    0.000    1.500    2.500    2.625    8.750    0.000 
#    0.000    1.875    0.000    0.000    0.000    0.000 
#    0.000    0.000    0.000    0.000    0.000    0.000 
#
# Total GULP energy -89244.070971 kJ/mol
# GULP energy per Si atom -5577.754436 kJ/mol
# Density = 2.223654 g / cm^3
# Si number density = 22.287266 Si / 1000 Ang^3
#
#
#
# Elastic Constant Matrix: (Units=GPa)
#
#
# Indices 1 2 3 4 5 6 
#
# 1 164.0820 26.6902 39.9673 10.6981 -8.9861 2.1755
# 2 26.6902 35.4832 4.3275 13.5894 -2.1424 2.7748
# 3 39.9673 4.3275 97.2939 6.0571 -10.0272 10.1373
# 4 10.6981 13.5894 6.0571 33.0097 -5.2710 2.8358
# 5 -8.9861 -2.1424 -10.0272 -5.2710 42.1128 -1.2686
# 6 2.1755 2.7748 10.1373 2.8358 -1.2686 28.0641
#
#
#
# Elastic Compliance Matrix: (Units=1/GPa)
#
#
# Indices 1 2 3 4 5 6 
#
# 1 0.007741 -0.005645 -0.002985 0.000392 0.000734 0.001030
# 2 -0.005645 0.037699 0.001699 -0.013896 -0.000698 -0.002531
# 3 -0.002985 0.001699 0.012148 -0.001280 0.002058 -0.004102
# 4 0.000392 -0.013896 -0.001280 0.036853 0.003632 -0.001754
# 5 0.000734 -0.000698 0.002058 0.003632 0.024812 0.000023
# 6 0.001030 -0.002531 -0.004102 -0.001754 0.000023 0.037463
#
#
# Mechanical properties :
#
#
# Convention : Reuss Voigt Hill
#
# Bulk Modulus (GPa) = 22.86948 48.75878 35.81413
# Shear Modulus (GPa) = 27.00471 35.69561 31.35016
#
# Velocity S-wave (km/s) = 3.48467 4.00636 3.75459
# Velocity P-wave (km/s) = 5.14530 6.58226 5.90763
#
# Compressibility (1/GPa) = 0.04372641
#
# Stress axis : x y z
#
# Youngs Moduli (GPa) = 129.18647 26.52602 82.31849
#
# Poissons Ratio (x) = 0.14973 0.24570
# Poissons Ratio (y) = 0.72921 -0.13985
# Poissons Ratio (z) = 0.38559 -0.04507
#
# Static dielectric constant tensor:
#      x y z
#    x 1.846020 -0.047340 0.041810 
#    y -0.047340 1.915770 -0.118900 
#    z 0.041810 -0.118900 2.128230 
# 
# From -- ./inp_files/261596.got.cif
#   From: 2010.05.17/outbox.cif.g08.bks.cpg/sg2_131_cif.got.tgz:261596.got - 2010.06.03 11:33:40.
