data_PCOD9105892
_publ_section_title
;
Structure prediction by ZEFSAII (Michael W. Deem and Ramdas Pophale) SiO2 
 PCOD9105892
Probable space group: P -1
;
_chemical_formula_sum "Si O2"
_cell_formula_units_Z 16
_cell_length_a 9.373557
_cell_length_b 15.251098
_cell_length_c 10.905561
_cell_angle_alpha 59.558989
_cell_angle_beta 55.484972
_cell_angle_gamma 103.189974
_cell_volume 762.434948
_symmetry_space_group_name_H-M "P -1"
_symmetry_group_IT_number 2
_symmetry_cell_setting 'triclinic'
loop_
_space_group_symop_operation_xyz
x,y,z
-x,-y,-z
loop_
_atom_site_type_symbol
_atom_site_label
_atom_site_fract_x
_atom_site_fract_y
_atom_site_fract_z
Si Si1 0.498457 0.868052 0.710046
Si Si2 0.700908 0.959354 0.990944
Si Si3 0.725443 0.195762 0.879301
Si Si4 0.100571 0.788310 0.783019
Si Si5 0.890589 0.881103 0.532981
Si Si6 0.711490 0.733189 0.195946
Si Si7 0.715980 0.562051 0.513748
Si Si8 0.327991 0.407919 0.030985
O O1 0.257807 0.785049 0.801379
O O2 0.662724 0.842703 0.605634
O O3 0.686124 0.045215 0.491914
O O4 0.408758 0.813955 0.930632
O O5 0.716176 0.068271 0.985891
O O6 0.430105 0.843580 0.138057
O O7 0.742171 0.867337 0.098361
O O8 0.903687 0.058916 0.711382
O O9 0.012639 0.352579 0.629250
O O10 0.929659 0.656613 0.859235
O O11 0.908476 0.775221 0.967802
O O12 0.786742 0.747282 0.760681
O O13 0.000000 0.000000 0.500000
O O14 0.749616 0.678669 0.334396
O O15 0.430365 0.584137 0.392453
O O16 0.528288 0.501009 0.759351
O O17 0.500000 0.500000 0.000000
#
# Coordination Sequence:
#
# PCOD9105892 Si02
#       8
#     2   2   2   2   2   2   2   2
#     4  11  21  37  66  98 123 163 217 271 303 375
#     4  11  23  39  63  96 129 165 207 275 314 371
#     4  11  23  38  59  96 135 158 208 269 327 356
#     4  10  20  39  66  93 124 164 213 265 312 371
#     4  12  20  40  69  95 120 168 229 256 308 384
#     4  10  20  41  64  90 125 167 214 247 318 389
#     4  10  22  39  59  90 128 172 199 258 312 392
#     4  11  23  41  64  92 130 170 208 263 324 380
#
# _framework density 20.985396999999999
#
# number of rings (size 3 to 8) (size 9 to 14) (size 15 to 20)
#    0.000    1.250    5.000    1.500    0.000    2.000 
#    0.000    1.875    0.000    0.000    0.000    0.000 
#    0.000    0.000    0.000    0.000    0.000    0.000 
#
# Total GULP energy -89243.654013 kJ/mol
# GULP energy per Si atom -5577.728376 kJ/mol
# Density = 2.093763 g / cm^3
# Si number density = 20.985397 Si / 1000 Ang^3
#
#
#
# Elastic Constant Matrix: (Units=GPa)
#
#
# Indices 1 2 3 4 5 6 
#
# 1 100.2702 23.0136 -14.0799 -11.4018 -41.4541 25.8629
# 2 23.0136 34.4799 5.6931 -4.2586 -7.8965 13.0463
# 3 -14.0799 5.6931 116.1025 -9.6254 -2.2946 -2.9327
# 4 -11.4018 -4.2586 -9.6254 18.0597 4.6470 -5.4837
# 5 -41.4541 -7.8965 -2.2946 4.6470 52.5726 -15.5860
# 6 25.8629 13.0463 -2.9327 -5.4837 -15.5860 44.8811
#
#
#
# Elastic Compliance Matrix: (Units=1/GPa)
#
#
# Indices 1 2 3 4 5 6 
#
# 1 0.019268 -0.008437 0.003575 0.007927 0.012455 -0.003123
# 2 -0.008437 0.037168 -0.003057 0.000477 -0.003399 -0.007264
# 3 0.003575 -0.003057 0.009811 0.006455 0.002557 0.001146
# 4 0.007927 0.000477 0.006455 0.064697 0.002183 0.004378
# 5 0.012455 -0.003399 0.002557 0.002183 0.029590 0.004521
# 6 -0.003123 -0.007264 0.001146 0.004378 0.004521 0.028372
#
#
# Mechanical properties :
#
#
# Convention : Reuss Voigt Hill
#
# Bulk Modulus (GPa) = 19.83824 31.12292 25.48058
# Shear Modulus (GPa) = 22.56853 38.85105 30.70979
#
# Velocity S-wave (km/s) = 3.28295 4.30739 3.82958
# Velocity P-wave (km/s) = 4.88305 6.29294 5.63228
#
# Compressibility (1/GPa) = 0.05040770
#
# Stress axis : x y z
#
# Youngs Moduli (GPa) = 51.90070 26.90521 101.92478
#
# Poissons Ratio (x) = 0.22701 -0.36436
# Poissons Ratio (y) = 0.43790 0.31156
# Poissons Ratio (z) = -0.18553 0.08224
#
# Static dielectric constant tensor:
#      x y z
#    x 1.766730 -0.021650 -0.026440 
#    y -0.021650 1.717960 -0.033050 
#    z -0.026440 -0.033050 1.706860 
# 
# From -- ./inp_files/305052.got.cif
#   From: 2010.05.17/outbox.cif.g08.bks.cpg/sg2_153_cif.got.tgz:305052.got - 2010.06.03 11:33:40.
