data_PCOD9105172
_publ_section_title
;
Structure prediction by ZEFSAII (Michael W. Deem and Ramdas Pophale) SiO2 
 PCOD9105172
Probable space group: P -1
;
_chemical_formula_sum "Si O2"
_cell_formula_units_Z 16
_cell_length_a 9.358255
_cell_length_b 10.391062
_cell_length_c 14.620044
_cell_angle_alpha 120.960576
_cell_angle_beta 116.876439
_cell_angle_gamma 112.190611
_cell_volume 655.601587
_symmetry_space_group_name_H-M "P -1"
_symmetry_group_IT_number 2
_symmetry_cell_setting 'triclinic'
loop_
_space_group_symop_operation_xyz
x,y,z
-x,-y,-z
loop_
_atom_site_type_symbol
_atom_site_label
_atom_site_fract_x
_atom_site_fract_y
_atom_site_fract_z
Si Si1 0.939098 0.208809 0.075164
Si Si2 0.598352 0.994538 0.618206
Si Si3 0.642342 0.711123 0.749708
Si Si4 0.125487 0.504600 0.907235
Si Si5 0.930814 0.288653 0.568920
Si Si6 0.732184 0.932149 0.248360
Si Si7 0.801134 0.829376 0.629122
Si Si8 0.777530 0.214911 0.212429
O O1 0.896697 0.332312 0.055015
O O2 0.969436 0.280944 0.216294
O O3 0.189476 0.292554 0.151262
O O4 0.693397 0.910073 0.882373
O O5 0.893152 0.276865 0.824311
O O6 0.500000 0.000000 0.500000
O O7 0.365588 0.860166 0.571392
O O8 0.629031 0.842707 0.553325
O O9 0.776669 0.820262 0.727857
O O10 0.347258 0.430371 0.545237
O O11 0.051073 0.382307 0.740187
O O12 0.421252 0.673867 0.079557
O O13 0.887340 0.092266 0.443673
O O14 0.117666 0.539069 0.657039
O O15 0.748451 0.093499 0.248537
O O16 0.904193 0.943306 0.243733
O O17 0.500000 0.000000 0.000000
#
# Coordination Sequence:
#
# PCOD9105172 Si02
#       8
#     2   2   2   2   2   2   2   2
#     4  10  20  39  63  94 125 174 207 265 325 375
#     4  10  23  46  70  85 126 178 219 270 308 376
#     4  10  22  37  61  94 134 162 214 263 328 381
#     4  10  23  44  67  90 132 169 225 261 311 384
#     4  10  23  40  66  93 125 173 218 258 321 378
#     4  12  24  37  63 100 130 167 208 268 331 380
#     4  11  24  38  62  96 131 165 210 272 319 384
#     4  11  20  36  61  92 134 164 204 264 323 384
#
# _framework density 24.405066999999999
#
# number of rings (size 3 to 8) (size 9 to 14) (size 15 to 20)
#    0.000    1.500    3.750    2.625    5.250    1.000 
#    0.000    2.500    0.000    0.000    0.000    0.000 
#    0.000    0.000    0.000    0.000    0.000    0.000 
#
# Total GULP energy -89489.328411 kJ/mol
# GULP energy per Si atom -5593.083026 kJ/mol
# Density = 2.434952 g / cm^3
# Si number density = 24.405067 Si / 1000 Ang^3
#
#
#
# Elastic Constant Matrix: (Units=GPa)
#
#
# Indices 1 2 3 4 5 6 
#
# 1 85.2592 15.5263 42.3996 8.5215 6.6155 1.3906
# 2 15.5263 34.7329 13.4811 4.9508 -0.2125 -0.4737
# 3 42.3996 13.4811 102.1705 15.8724 0.6426 7.4874
# 4 8.5215 4.9508 15.8724 38.9759 7.6932 6.6527
# 5 6.6155 -0.2125 0.6426 7.6932 44.8480 8.5021
# 6 1.3906 -0.4737 7.4874 6.6527 8.5021 20.1208
#
#
#
# Elastic Compliance Matrix: (Units=1/GPa)
#
#
# Indices 1 2 3 4 5 6 
#
# 1 0.015775 -0.004656 -0.006040 -0.000260 -0.002645 0.002251
# 2 -0.004656 0.032106 -0.002048 -0.002811 0.000897 0.002390
# 3 -0.006040 -0.002048 0.013423 -0.003563 0.002124 -0.004345
# 4 -0.000260 -0.002811 -0.003563 0.029423 -0.003662 -0.006903
# 5 -0.002645 0.000897 0.002124 -0.003662 0.025189 -0.010019
# 6 0.002251 0.002390 -0.004345 -0.006903 -0.010019 0.057733
#
#
# Mechanical properties :
#
#
# Convention : Reuss Voigt Hill
#
# Bulk Modulus (GPa) = 27.92057 40.55297 34.23677
# Shear Modulus (GPa) = 23.68806 30.83930 27.26368
#
# Velocity S-wave (km/s) = 3.11886 3.55863 3.34598
# Velocity P-wave (km/s) = 4.94318 5.79119 5.38391
#
# Compressibility (1/GPa) = 0.03581588
#
# Stress axis : x y z
#
# Youngs Moduli (GPa) = 63.39134 31.14666 74.49892
#
# Poissons Ratio (x) = 0.14501 0.44998
# Poissons Ratio (y) = 0.29514 0.15260
# Poissons Ratio (z) = 0.38289 0.06380
#
# Static dielectric constant tensor:
#      x y z
#    x 1.983390 0.010000 0.013790 
#    y 0.010000 1.938480 -0.000040 
#    z 0.013790 -0.000040 1.983590 
# 
# From -- ./inp_files/559240.got.cif
#   From: 2010.05.17/outbox.cif.g08.bks.cpg/sg2_280_cif.got.tgz:559240.got - 2010.06.03 11:33:40.
