data_PCOD9105291
_publ_section_title
;
Structure prediction by ZEFSAII (Michael W. Deem and Ramdas Pophale) SiO2 
 PCOD9105291
Probable space group: P -1
;
_chemical_formula_sum "Si O2"
_cell_formula_units_Z 12
_cell_length_a 10.546820
_cell_length_b 6.962254
_cell_length_c 14.104122
_cell_angle_alpha 90.834112
_cell_angle_beta 147.134367
_cell_angle_gamma 73.968550
_cell_volume 491.001581
_symmetry_space_group_name_H-M "P -1"
_symmetry_group_IT_number 2
_symmetry_cell_setting 'triclinic'
loop_
_space_group_symop_operation_xyz
x,y,z
-x,-y,-z
loop_
_atom_site_type_symbol
_atom_site_label
_atom_site_fract_x
_atom_site_fract_y
_atom_site_fract_z
Si Si1 0.238746 0.360732 0.891035
Si Si2 0.660218 0.251593 0.025967
Si Si3 0.895820 0.039538 0.543606
Si Si4 0.661646 0.504859 0.508308
Si Si5 0.798672 0.294139 0.912321
Si Si6 0.678682 0.805117 0.861844
O O1 0.388222 0.498853 0.009528
O O2 0.922191 0.525570 0.696420
O O3 0.381857 0.259891 0.880273
O O4 0.296790 0.186231 0.008734
O O5 0.780845 0.183004 0.997014
O O6 0.877877 0.124946 0.243558
O O7 0.804125 0.277796 0.535437
O O8 0.616511 0.036949 0.360792
O O9 0.000000 0.000000 0.500000
O O10 0.500000 0.500000 0.500000
O O11 0.435515 0.685343 0.302662
O O12 0.734225 0.551249 0.882163
O O13 0.089648 0.181513 0.048841
#
# Coordination Sequence:
#
# PCOD9105291 Si02
#       6
#     2   2   2   2   2   2
#     4  10  20  39  64  88 125 165 207 251 311 373
#     4  10  22  39  61  94 125 163 207 257 310 369
#     4  11  23  41  63  93 124 165 210 254 311 369
#     4  11  23  41  66  92 123 167 211 251 308 374
#     4   9  19  36  60  88 120 165 204 244 308 374
#     4   9  17  36  62  82 121 168 202 238 309 383
#
# _framework density 24.439841000000001
#
# number of rings (size 3 to 8) (size 9 to 14) (size 15 to 20)
#    0.000    2.000    3.333    0.000    4.667    2.000 
#    0.000    0.833    0.000    0.000    0.000    0.000 
#    0.000    0.000    0.000    0.000    0.000    0.000 
#
# Total GULP energy -67001.213132 kJ/mol
# GULP energy per Si atom -5583.434428 kJ/mol
# Density = 2.438421 g / cm^3
# Si number density = 24.439841 Si / 1000 Ang^3
#
#
#
# Elastic Constant Matrix: (Units=GPa)
#
#
# Indices 1 2 3 4 5 6 
#
# 1 249.9313 28.3862 102.6680 -7.4287 15.3416 -7.2671
# 2 28.3862 75.5974 -11.0612 -14.9307 0.6593 -10.5241
# 3 102.6680 -11.0612 175.8505 -25.7866 12.8254 0.2555
# 4 -7.4287 -14.9307 -25.7866 27.9994 -2.0690 2.2658
# 5 15.3416 0.6593 12.8254 -2.0690 57.3112 -1.1886
# 6 -7.2671 -10.5241 0.2555 2.2658 -1.1886 37.0496
#
#
#
# Elastic Compliance Matrix: (Units=1/GPa)
#
#
# Indices 1 2 3 4 5 6 
#
# 1 0.006199 -0.003831 -0.004482 -0.004616 -0.000771 0.000416
# 2 -0.003831 0.018653 0.005387 0.013606 0.000173 0.003683
# 3 -0.004482 0.005387 0.010334 0.011154 -0.000775 -0.000127
# 4 -0.004616 0.013606 0.011154 0.052076 0.000457 -0.000287
# 5 -0.000771 0.000173 -0.000775 0.000457 0.017852 0.000448
# 6 0.000416 0.003683 -0.000127 -0.000287 0.000448 0.028152
#
#
# Mechanical properties :
#
#
# Convention : Reuss Voigt Hill
#
# Bulk Modulus (GPa) = 34.08723 82.37391 58.23057
# Shear Modulus (GPa) = 33.58059 49.89779 41.73919
#
# Velocity S-wave (km/s) = 3.71079 4.52337 4.13708
# Velocity P-wave (km/s) = 5.68661 7.81403 6.83362
#
# Compressibility (1/GPa) = 0.02933650
#
# Stress axis : x y z
#
# Youngs Moduli (GPa) = 161.30728 53.61037 96.76419
#
# Poissons Ratio (x) = 0.20536 0.43366
# Poissons Ratio (y) = 0.61789 -0.52127
# Poissons Ratio (z) = 0.72292 -0.28880
#
# Static dielectric constant tensor:
#      x y z
#    x 1.974050 -0.095870 -0.009930 
#    y -0.095870 2.137900 0.080030 
#    z -0.009930 0.080030 1.955220 
# 
# From -- ./inp_files/144517.got.cif
#   From: 2010.05.17/outbox.cif.g08.bks.cpg/sg2_73_cif.got.tgz:144517.got - 2010.06.03 11:33:40.
