data_PCOD9105165
_publ_section_title
;
Structure prediction by ZEFSAII (Michael W. Deem and Ramdas Pophale) SiO2 
 PCOD9105165
Probable space group: P -1
;
_chemical_formula_sum "Si O2"
_cell_formula_units_Z 16
_cell_length_a 23.069454
_cell_length_b 12.925244
_cell_length_c 7.052728
_cell_angle_alpha 115.752962
_cell_angle_beta 54.284229
_cell_angle_gamma 154.380724
_cell_volume 712.549003
_symmetry_space_group_name_H-M "P -1"
_symmetry_group_IT_number 2
_symmetry_cell_setting 'triclinic'
loop_
_space_group_symop_operation_xyz
x,y,z
-x,-y,-z
loop_
_atom_site_type_symbol
_atom_site_label
_atom_site_fract_x
_atom_site_fract_y
_atom_site_fract_z
Si Si1 0.337651 0.799083 0.825685
Si Si2 0.388713 0.431624 0.832029
Si Si3 0.850389 0.354686 0.604417
Si Si4 0.720507 0.495357 0.056815
Si Si5 0.672572 0.365452 0.600418
Si Si6 0.304976 0.088580 0.522912
Si Si7 0.834939 0.815483 0.602755
Si Si8 0.976881 0.184463 0.330807
O O1 0.262697 0.650807 0.653603
O O2 0.490762 0.086705 0.716562
O O3 0.235556 0.725935 0.105780
O O4 0.373857 0.732605 0.822136
O O5 0.382466 0.287619 0.680109
O O6 0.568206 0.724951 0.741021
O O7 0.327563 0.439637 0.800020
O O8 0.270906 0.281662 0.108919
O O9 0.000000 0.500000 0.500000
O O10 0.922110 0.574252 0.560846
O O11 0.738852 0.106619 0.511030
O O12 0.703759 0.435967 0.817791
O O13 0.899900 0.721789 0.935212
O O14 0.736183 0.565885 0.526635
O O15 0.143630 0.921365 0.654709
O O16 0.876640 0.967488 0.490225
O O17 0.000000 0.000000 0.500000
#
# Coordination Sequence:
#
# PCOD9105165 Si02
#       8
#     2   2   2   2   2   2   2   2
#     4  10  21  37  64  90 119 158 205 246 317 355
#     4  10  22  39  60  90 118 162 192 255 304 351
#     4   9  19  38  59  84 115 162 196 243 290 365
#     4  10  20  39  63  94 120 157 203 258 306 352
#     4  10  21  36  58  95 121 150 193 265 305 352
#     4  10  22  40  62  83 123 157 209 235 299 380
#     4  11  21  38  59  89 128 146 196 262 305 348
#     4  10  21  38  62  88 115 159 202 243 305 364
#
# _framework density 22.454597
#
# number of rings (size 3 to 8) (size 9 to 14) (size 15 to 20)
#    0.000    2.000    2.500    1.875    1.750    5.000 
#    0.000    0.625   13.750    0.000    0.000    0.000 
#    0.000    0.000    0.000    0.000    0.000    0.000 
#
# Total GULP energy -89137.551439 kJ/mol
# GULP energy per Si atom -5571.096965 kJ/mol
# Density = 2.240349 g / cm^3
# Si number density = 22.454597 Si / 1000 Ang^3
#
#
#
# Elastic Constant Matrix: (Units=GPa)
#
#
# Indices 1 2 3 4 5 6 
#
# 1 33.0634 18.0193 11.8330 0.4659 -6.4005 -11.0295
# 2 18.0193 155.9686 40.4658 -9.0844 3.6222 -40.2363
# 3 11.8330 40.4658 92.9972 -5.1144 -20.5031 -4.9628
# 4 0.4659 -9.0844 -5.1144 39.2645 -4.2733 3.4823
# 5 -6.4005 3.6222 -20.5031 -4.2733 25.4478 -3.2749
# 6 -11.0295 -40.2363 -4.9628 3.4823 -3.2749 26.9061
#
#
#
# Elastic Compliance Matrix: (Units=1/GPa)
#
#
# Indices 1 2 3 4 5 6 
#
# 1 0.038499 0.000121 -0.001860 -0.001071 0.010175 0.016996
# 2 0.000121 0.012201 -0.005230 0.000242 -0.003712 0.016848
# 3 -0.001860 -0.005230 0.016075 0.002722 0.013122 -0.004374
# 4 -0.001071 0.000242 0.002722 0.026758 0.006087 -0.002297
# 5 0.010175 -0.003712 0.013122 0.006087 0.054870 0.006932
# 6 0.016996 0.016848 -0.004374 -0.002297 0.006932 0.069662
#
#
# Mechanical properties :
#
#
# Convention : Reuss Voigt Hill
#
# Bulk Modulus (GPa) = 18.92636 46.96281 32.94458
# Shear Modulus (GPa) = 20.03067 32.43776 26.23421
#
# Velocity S-wave (km/s) = 2.98996 3.80490 3.42178
# Velocity P-wave (km/s) = 4.51297 6.34531 5.50590
#
# Compressibility (1/GPa) = 0.05283637
#
# Stress axis : x y z
#
# Youngs Moduli (GPa) = 25.97446 81.95857 62.20882
#
# Poissons Ratio (x) = -0.00988 0.11569
# Poissons Ratio (y) = -0.00313 0.32538
# Poissons Ratio (z) = 0.04831 0.42868
#
# Static dielectric constant tensor:
#      x y z
#    x 1.875200 -0.004030 0.003880 
#    y -0.004030 1.882690 0.033850 
#    z 0.003880 0.033850 1.889760 
# 
# From -- ./inp_files/266668.got.cif
#   From: 2010.05.17/outbox.cif.g08.bks.cpg/sg2_134_cif.got.tgz:266668.got - 2010.06.03 11:33:40.
