data_PCOD9105804
_publ_section_title
;
Structure prediction by ZEFSAII (Michael W. Deem and Ramdas Pophale) SiO2 
 PCOD9105804
Probable space group: P -1
;
_chemical_formula_sum "Si O2"
_cell_formula_units_Z 14
_cell_length_a 11.245683
_cell_length_b 9.251690
_cell_length_c 20.835655
_cell_angle_alpha 48.333314
_cell_angle_beta 154.639396
_cell_angle_gamma 128.971171
_cell_volume 690.904434
_symmetry_space_group_name_H-M "P -1"
_symmetry_group_IT_number 2
_symmetry_cell_setting 'triclinic'
loop_
_space_group_symop_operation_xyz
x,y,z
-x,-y,-z
loop_
_atom_site_type_symbol
_atom_site_label
_atom_site_fract_x
_atom_site_fract_y
_atom_site_fract_z
Si Si1 0.689766 0.127590 0.259788
Si Si2 0.108815 0.128672 0.343350
Si Si3 0.830251 0.425577 0.772452
Si Si4 0.503945 0.109629 0.652151
Si Si5 0.794623 0.953032 0.128580
Si Si6 0.229944 0.447866 0.840015
Si Si7 0.910299 0.083958 0.011178
O O1 0.772907 0.348253 0.257310
O O2 0.871144 0.107503 0.289672
O O3 0.708561 0.004480 0.369559
O O4 0.366636 0.057925 0.102012
O O5 0.134484 0.347334 0.262769
O O6 0.390396 0.103422 0.526911
O O7 0.019607 0.982733 0.286077
O O8 0.534370 0.325925 0.633333
O O9 0.997247 0.411459 0.791377
O O10 0.913977 0.283128 0.912846
O O11 0.799930 0.013974 0.828689
O O12 0.767928 0.736990 0.149728
O O13 0.875001 0.099236 0.065775
O O14 0.500000 0.000000 0.000000
O O15 0.500000 0.500000 0.000000
#
# Coordination Sequence:
#
# PCOD9105804 Si02
#       7
#     2   2   2   2   2   2   2
#     4  10  20  39  66  88 114 162 209 242 285 361
#     4  11  24  39  60  93 128 157 191 249 310 352
#     4  10  21  39  64  88 116 159 209 243 287 359
#     4  11  21  38  65  92 120 156 204 251 292 348
#     4  12  23  37  60  89 124 155 199 251 302 356
#     4  11  18  36  62  87 111 155 206 243 285 352
#     4  11  21  38  65  90 116 156 206 250 290 350
#
# _framework density 20.263293999999998
#
# number of rings (size 3 to 8) (size 9 to 14) (size 15 to 20)
#    0.000    1.143    4.286    4.286    0.000    1.143 
#    0.000    0.714    0.000    0.000    0.000    0.000 
#    0.000    0.000    0.000    0.000    0.000    0.000 
#
# Total GULP energy -78022.475304 kJ/mol
# GULP energy per Si atom -5573.033950 kJ/mol
# Density = 2.021717 g / cm^3
# Si number density = 20.263294 Si / 1000 Ang^3
#
#
#
# Elastic Constant Matrix: (Units=GPa)
#
#
# Indices 1 2 3 4 5 6 
#
# 1 96.0586 52.4284 21.4938 -6.3969 -16.0583 12.4871
# 2 52.4284 146.3831 34.8736 -0.3927 -20.4679 6.1618
# 3 21.4938 34.8736 81.4579 14.1187 -12.6335 1.4066
# 4 -6.3969 -0.3927 14.1187 16.5958 -7.3505 -11.5719
# 5 -16.0583 -20.4679 -12.6335 -7.3505 21.5216 10.7076
# 6 12.4871 6.1618 1.4066 -11.5719 10.7076 44.6041
#
#
#
# Elastic Compliance Matrix: (Units=1/GPa)
#
#
# Indices 1 2 3 4 5 6 
#
# 1 0.016359 -0.003037 -0.002831 0.011736 0.013827 -0.004345
# 2 -0.003037 0.009655 -0.002890 0.003903 0.007091 -0.001082
# 3 -0.002831 -0.002890 0.017847 -0.018927 0.001455 -0.004630
# 4 0.011736 0.003903 -0.018927 0.105831 0.028902 0.017290
# 5 0.013827 0.007091 0.001455 0.028902 0.082852 -0.017287
# 6 -0.004345 -0.001082 -0.004630 0.017290 -0.017287 0.032567
#
#
# Mechanical properties :
#
#
# Convention : Reuss Voigt Hill
#
# Bulk Modulus (GPa) = 37.95874 60.16570 49.06222
# Shear Modulus (GPa) = 17.15798 30.88456 24.02127
#
# Velocity S-wave (km/s) = 2.91306 3.90829 3.44678
# Velocity P-wave (km/s) = 5.48525 7.07974 6.33288
#
# Compressibility (1/GPa) = 0.02634439
#
# Stress axis : x y z
#
# Youngs Moduli (GPa) = 61.12751 103.57075 56.03262
#
# Poissons Ratio (x) = 0.31455 0.15864
# Poissons Ratio (y) = 0.18565 0.16194
# Poissons Ratio (z) = 0.17306 0.29934
#
# Static dielectric constant tensor:
#      x y z
#    x 3.424150 3.650310 1.786420 
#    y 3.650310 9.502850 3.739580 
#    z 1.786420 3.739580 3.701380 
# 
# From -- ./inp_files/593505.got.cif
#   From: 2010.05.17/outbox.cif.g08.bks.cpg/sg2_297_cif.got.tgz:593505.got - 2010.06.03 11:33:40.
