data_PCOD9105283
_publ_section_title
;
Structure prediction by ZEFSAII (Michael W. Deem and Ramdas Pophale) SiO2 
 PCOD9105283
Probable space group: P -1
;
_chemical_formula_sum "Si O2"
_cell_formula_units_Z 16
_cell_length_a 10.897559
_cell_length_b 9.025447
_cell_length_c 18.522020
_cell_angle_alpha 37.302165
_cell_angle_beta 46.624620
_cell_angle_gamma 40.439875
_cell_volume 700.604910
_symmetry_space_group_name_H-M "P -1"
_symmetry_group_IT_number 2
_symmetry_cell_setting 'triclinic'
loop_
_space_group_symop_operation_xyz
x,y,z
-x,-y,-z
loop_
_atom_site_type_symbol
_atom_site_label
_atom_site_fract_x
_atom_site_fract_y
_atom_site_fract_z
Si Si1 0.155364 0.463532 0.890345
Si Si2 0.600373 0.887586 0.638790
Si Si3 0.300085 0.884174 0.979795
Si Si4 0.720267 0.613997 0.845199
Si Si5 0.450999 0.618894 0.177551
Si Si6 0.607001 0.637453 0.362373
Si Si7 0.266228 0.916400 0.277549
Si Si8 0.870177 0.119243 0.380803
O O1 0.354374 0.373528 0.887499
O O2 0.130608 0.739357 0.750635
O O3 0.000000 0.500000 0.000000
O O4 0.192739 0.211306 0.916514
O O5 0.735843 0.716320 0.718993
O O6 0.540898 0.681148 0.703414
O O7 0.414053 0.130757 0.661643
O O8 0.717036 0.007721 0.498464
O O9 0.193159 0.717698 0.057713
O O10 0.382481 0.733145 0.081495
O O11 0.489163 0.770121 0.896538
O O12 0.796083 0.757024 0.815856
O O13 0.301748 0.814571 0.221815
O O14 0.500000 0.500000 0.500000
O O15 0.467821 0.757303 0.301437
O O16 0.809183 0.381026 0.357990
O O17 0.091578 0.885683 0.394139
#
# Coordination Sequence:
#
# PCOD9105283 Si02
#       8
#     2   2   2   2   2   2   2   2
#     4  12  24  39  59  93 130 163 210 262 311 378
#     4   9  21  40  64  93 126 162 211 256 318 372
#     4  10  20  39  64  88 121 163 215 255 310 372
#     4   9  19  37  65  89 119 163 206 259 310 373
#     4  11  22  40  67  90 123 174 205 261 322 367
#     4   9  19  40  62  89 126 166 201 257 306 367
#     4  11  21  39  65  91 125 169 206 254 322 363
#     4  11  23  40  66  94 127 166 214 258 305 383
#
# _framework density 22.837408
#
# number of rings (size 3 to 8) (size 9 to 14) (size 15 to 20)
#    0.000    1.750    2.500    1.875    1.750    5.500 
#    2.250    0.625    0.000    0.000    0.000    0.000 
#    0.000    0.000    0.000    0.000    0.000    0.000 
#
# Total GULP energy -89211.958622 kJ/mol
# GULP energy per Si atom -5575.747414 kJ/mol
# Density = 2.278543 g / cm^3
# Si number density = 22.837408 Si / 1000 Ang^3
#
#
#
# Elastic Constant Matrix: (Units=GPa)
#
#
# Indices 1 2 3 4 5 6 
#
# 1 36.9314 31.2931 14.9466 0.9293 -5.3181 18.9178
# 2 31.2931 111.9603 54.3196 10.4268 -15.9235 14.1161
# 3 14.9466 54.3196 139.6174 4.0008 5.4017 15.6780
# 4 0.9293 10.4268 4.0008 44.3562 2.4600 -10.2625
# 5 -5.3181 -15.9235 5.4017 2.4600 29.7743 -4.0194
# 6 18.9178 14.1161 15.6780 -10.2625 -4.0194 32.8777
#
#
#
# Elastic Compliance Matrix: (Units=1/GPa)
#
#
# Indices 1 2 3 4 5 6 
#
# 1 0.048919 -0.011136 0.002164 -0.004557 -0.000732 -0.025910
# 2 -0.011136 0.015803 -0.005439 -0.002905 0.007998 0.002287
# 3 0.002164 -0.005439 0.009721 -0.000358 -0.004830 -0.004248
# 4 -0.004557 -0.002905 -0.000358 0.026265 -0.002868 0.011888
# 5 -0.000732 0.007998 -0.004830 -0.002868 0.039277 0.003197
# 6 -0.025910 0.002287 -0.004248 0.011888 0.003197 0.050470
#
#
# Mechanical properties :
#
#
# Convention : Reuss Voigt Hill
#
# Bulk Modulus (GPa) = 21.91979 54.40308 38.16144
# Shear Modulus (GPa) = 21.32347 33.93163 27.62755
#
# Velocity S-wave (km/s) = 3.05898 3.85878 3.48192
# Velocity P-wave (km/s) = 4.70058 6.61265 5.73684
#
# Compressibility (1/GPa) = 0.04562087
#
# Stress axis : x y z
#
# Youngs Moduli (GPa) = 20.44207 63.27999 102.86946
#
# Poissons Ratio (x) = 0.70466 -0.22260
# Poissons Ratio (y) = 0.22764 0.55952
# Poissons Ratio (z) = -0.04424 0.34419
#
# Static dielectric constant tensor:
#      x y z
#    x 1.863250 -0.029450 0.019990 
#    y -0.029450 1.933650 -0.057130 
#    z 0.019990 -0.057130 1.922020 
# 
# From -- ./inp_files/593950.got.cif
#   From: 2010.05.17/outbox.cif.g08.bks.cpg/sg2_297_cif.got.tgz:593950.got - 2010.06.03 11:33:40.
