data_PCOD9105062
_publ_section_title
;
Structure prediction by ZEFSAII (Michael W. Deem and Ramdas Pophale) SiO2 
 PCOD9105062
Probable space group: P -1
;
_chemical_formula_sum "Si O2"
_cell_formula_units_Z 14
_cell_length_a 25.094132
_cell_length_b 14.658731
_cell_length_c 25.209076
_cell_angle_alpha 159.455187
_cell_angle_beta 11.492202
_cell_angle_gamma 159.973287
_cell_volume 615.719922
_symmetry_space_group_name_H-M "P -1"
_symmetry_group_IT_number 2
_symmetry_cell_setting 'triclinic'
loop_
_space_group_symop_operation_xyz
x,y,z
-x,-y,-z
loop_
_atom_site_type_symbol
_atom_site_label
_atom_site_fract_x
_atom_site_fract_y
_atom_site_fract_z
Si Si1 0.409851 0.711742 0.599341
Si Si2 0.165626 0.533350 0.239236
Si Si3 0.216651 0.126484 0.161025
Si Si4 0.927301 0.197185 0.379993
Si Si5 0.594546 0.654716 0.692184
Si Si6 0.838567 0.271258 0.763571
Si Si7 0.142927 0.541815 0.940450
O O1 0.435162 0.604117 0.457074
O O2 0.086021 0.626741 0.885692
O O3 0.602777 0.020738 0.591779
O O4 0.571427 0.535264 0.379120
O O5 0.204810 0.555705 0.150268
O O6 0.937001 0.687827 0.557671
O O7 0.061763 0.251878 0.219979
O O8 0.460067 0.705863 0.071956
O O9 0.062598 0.054860 0.215363
O O10 0.202850 0.863637 0.066034
O O11 0.000000 0.500000 0.500000
O O12 0.835879 0.674652 0.510974
O O13 0.701414 0.941637 0.711347
O O14 0.313061 0.652050 0.995536
O O15 0.000000 0.500000 0.000000
#
# Coordination Sequence:
#
# PCOD9105062 Si02
#       7
#     2   2   2   2   2   2   2
#     4  12  25  42  62  96 130 165 206 256 315 365
#     4  11  23  40  64  90 124 169 211 251 302 373
#     4  11  22  39  62  92 126 163 207 256 311 372
#     4  10  25  42  63  87 131 174 211 246 300 376
#     4  10  21  38  64  90 121 156 200 264 316 363
#     4  10  20  39  63  90 120 155 206 257 317 364
#     4  12  24  37  64  92 129 159 201 259 315 366
#
# _framework density 22.73761
#
# number of rings (size 3 to 8) (size 9 to 14) (size 15 to 20)
#    0.000    1.143    1.429    5.143    4.000    4.571 
#    0.000    1.429    0.000    0.000    0.000    0.000 
#    0.000    0.000    0.000    0.000    0.000    0.000 
#
# Total GULP energy -78277.401479 kJ/mol
# GULP energy per Si atom -5591.242963 kJ/mol
# Density = 2.268586 g / cm^3
# Si number density = 22.737610 Si / 1000 Ang^3
#
#
#
# Elastic Constant Matrix: (Units=GPa)
#
#
# Indices 1 2 3 4 5 6 
#
# 1 105.4466 40.6345 -24.8694 2.1117 -15.9396 -14.0787
# 2 40.6345 133.7997 -4.8913 -4.7674 -8.3596 -17.6995
# 3 -24.8694 -4.8913 76.8732 -7.4544 9.9104 8.4548
# 4 2.1117 -4.7674 -7.4544 32.0075 -0.9354 3.8226
# 5 -15.9396 -8.3596 9.9104 -0.9354 40.0154 6.5436
# 6 -14.0787 -17.6995 8.4548 3.8226 6.5436 32.8983
#
#
#
# Elastic Compliance Matrix: (Units=1/GPa)
#
#
# Indices 1 2 3 4 5 6 
#
# 1 0.012179 -0.003128 0.003029 -0.000740 0.003066 0.002227
# 2 -0.003128 0.008907 -0.000771 0.000944 0.000257 0.003491
# 3 0.003029 -0.000771 0.014862 0.003435 -0.002077 -0.002924
# 4 -0.000740 0.000944 0.003435 0.032800 0.000573 -0.004617
# 5 0.003066 0.000257 -0.002077 0.000573 0.027370 -0.003527
# 6 0.002227 0.003491 -0.002924 -0.004617 -0.003527 0.035217
#
#
# Mechanical properties :
#
#
# Convention : Reuss Voigt Hill
#
# Bulk Modulus (GPa) = 29.23297 37.54078 33.38687
# Shear Modulus (GPa) = 34.60748 41.33397 37.97072
#
# Velocity S-wave (km/s) = 3.90556 4.26827 4.09094
# Velocity P-wave (km/s) = 5.76389 6.39039 6.08521
#
# Compressibility (1/GPa) = 0.03420795
#
# Stress axis : x y z
#
# Youngs Moduli (GPa) = 82.10886 112.26917 67.28687
#
# Poissons Ratio (x) = 0.35120 -0.20381
# Poissons Ratio (y) = 0.25686 0.05186
# Poissons Ratio (z) = -0.24871 0.08653
#
# Static dielectric constant tensor:
#      x y z
#    x 2.267560 -0.430220 0.359090 
#    y -0.430220 2.328380 -0.314880 
#    z 0.359090 -0.314880 2.116610 
# 
# From -- ./inp_files/69595.got.cif
#   From: 2010.05.17/outbox.cif.g08.bks.cpg/sg2_35_cif.got.tgz:69595.got - 2010.06.03 11:33:40.
