data_PCOD9105057
_publ_section_title
;
Structure prediction by ZEFSAII (Michael W. Deem and Ramdas Pophale) SiO2 
 PCOD9105057
Probable space group: P -1
;
_chemical_formula_sum "Si O2"
_cell_formula_units_Z 16
_cell_length_a 8.597683
_cell_length_b 7.342743
_cell_length_c 14.895482
_cell_angle_alpha 120.561503
_cell_angle_beta 123.454973
_cell_angle_gamma 67.779902
_cell_volume 669.275860
_symmetry_space_group_name_H-M "P -1"
_symmetry_group_IT_number 2
_symmetry_cell_setting 'triclinic'
loop_
_space_group_symop_operation_xyz
x,y,z
-x,-y,-z
loop_
_atom_site_type_symbol
_atom_site_label
_atom_site_fract_x
_atom_site_fract_y
_atom_site_fract_z
Si Si1 0.969234 0.489939 0.094021
Si Si2 0.899874 0.872197 0.704347
Si Si3 0.854345 0.939369 0.510808
Si Si4 0.748558 0.154078 0.886686
Si Si5 0.504028 0.268083 0.486637
Si Si6 0.621702 0.444769 0.747887
Si Si7 0.614021 0.690174 0.118890
Si Si8 0.766839 0.502450 0.307313
O O1 0.800538 0.679459 0.113262
O O2 0.179661 0.481135 0.198943
O O3 0.879247 0.272179 0.023238
O O4 0.000000 0.500000 0.000000
O O5 0.915355 0.996108 0.645508
O O6 0.699831 0.791296 0.607928
O O7 0.069702 0.684107 0.708921
O O8 0.875113 0.990089 0.821399
O O9 0.837440 0.686826 0.437458
O O10 0.659033 0.079387 0.455333
O O11 0.000000 0.000000 0.500000
O O12 0.665743 0.322750 0.824885
O O13 0.557791 0.116767 0.870072
O O14 0.500000 0.500000 0.500000
O O15 0.561475 0.290168 0.613676
O O16 0.419794 0.586965 0.736154
O O17 0.708890 0.624239 0.227310
O O18 0.500000 0.500000 0.000000
#
# Coordination Sequence:
#
# PCOD9105057 Si02
#       8
#     2   2   2   2   2   2   2   2
#     4   9  19  35  67  97 126 169 221 273 335 401
#     4  12  24  44  66  96 139 178 224 280 335 395
#     4  12  26  42  65  98 132 178 226 277 339 402
#     4   9  19  40  66  95 122 177 219 275 333 391
#     4  12  25  40  65  96 134 175 225 275 334 403
#     4  10  20  39  63  89 132 173 213 271 337 388
#     4   9  19  38  65  93 122 169 223 264 326 394
#     4  11  24  41  67  94 134 180 222 277 337 394
#
# _framework density 23.906434000000001
#
# number of rings (size 3 to 8) (size 9 to 14) (size 15 to 20)
#    0.000    1.500    2.500    3.750    5.250    0.000 
#    0.000    3.125    2.750    0.000    0.000    0.000 
#    0.000    0.000    0.000    0.000    0.000    0.000 
#
# Total GULP energy -89251.303511 kJ/mol
# GULP energy per Si atom -5578.206469 kJ/mol
# Density = 2.385202 g / cm^3
# Si number density = 23.906434 Si / 1000 Ang^3
#
#
#
# Elastic Constant Matrix: (Units=GPa)
#
#
# Indices 1 2 3 4 5 6 
#
# 1 190.4334 61.6880 23.2435 6.4889 20.6222 -60.4060
# 2 61.6880 99.2836 15.4369 8.0804 9.0441 -48.3267
# 3 23.2435 15.4369 69.2724 4.4283 18.4244 -19.4050
# 4 6.4889 8.0804 4.4283 21.3566 -6.8290 -5.8166
# 5 20.6222 9.0441 18.4244 -6.8290 42.6668 -7.5783
# 6 -60.4060 -48.3267 -19.4050 -5.8166 -7.5783 60.4214
#
#
#
# Elastic Compliance Matrix: (Units=1/GPa)
#
#
# Indices 1 2 3 4 5 6 
#
# 1 0.008123 -0.001602 0.000227 -0.001007 -0.002695 0.006478
# 2 -0.001602 0.017121 0.000666 -0.003434 -0.001601 0.011774
# 3 0.000227 0.000666 0.018094 -0.005255 -0.008007 0.005061
# 4 -0.001007 -0.003434 -0.005255 0.053809 0.012324 0.001285
# 5 -0.002695 -0.001601 -0.008007 0.012324 0.030231 -0.001568
# 6 0.006478 0.011774 0.005061 0.001285 -0.001568 0.033997
#
#
# Mechanical properties :
#
#
# Convention : Reuss Voigt Hill
#
# Bulk Modulus (GPa) = 23.85480 62.19181 43.02330
# Shear Modulus (GPa) = 28.28593 42.13037 35.20815
#
# Velocity S-wave (km/s) = 3.44349 4.20253 3.84180
# Velocity P-wave (km/s) = 5.08038 7.04411 6.14124
#
# Compressibility (1/GPa) = 0.04192028
#
# Stress axis : x y z
#
# Youngs Moduli (GPa) = 123.10080 58.40947 55.26626
#
# Poissons Ratio (x) = 0.09357 -0.01256
# Poissons Ratio (y) = 0.19721 -0.03680
# Poissons Ratio (z) = -0.02797 -0.03889
#
# Static dielectric constant tensor:
#      x y z
#    x 2.052300 -0.016150 -0.018640 
#    y -0.016150 1.982580 0.053020 
#    z -0.018640 0.053020 1.971950 
# 
# From -- ./inp_files/351838.got.cif
#   From: 2010.05.17/outbox.cif.g08.bks.cpg/sg2_176_cif.got.tgz:351838.got - 2010.06.03 11:33:40.
