data_PCOD9105535
_publ_section_title
;
Structure prediction by ZEFSAII (Michael W. Deem and Ramdas Pophale) SiO2 
 PCOD9105535
Probable space group: P -1
;
_chemical_formula_sum "Si O2"
_cell_formula_units_Z 10
_cell_length_a 7.117482
_cell_length_b 10.241917
_cell_length_c 10.338995
_cell_angle_alpha 132.169458
_cell_angle_beta 44.063601
_cell_angle_gamma 130.981896
_cell_volume 365.831276
_symmetry_space_group_name_H-M "P -1"
_symmetry_group_IT_number 2
_symmetry_cell_setting 'triclinic'
loop_
_space_group_symop_operation_xyz
x,y,z
-x,-y,-z
loop_
_atom_site_type_symbol
_atom_site_label
_atom_site_fract_x
_atom_site_fract_y
_atom_site_fract_z
Si Si1 0.303468 0.291372 0.241424
Si Si2 0.312512 0.981500 0.868038
Si Si3 0.918675 0.613416 0.857768
Si Si4 0.196682 0.367786 0.797308
Si Si5 0.124606 0.817262 0.394621
O O1 0.520942 0.488845 0.312622
O O2 0.183144 0.356397 0.214187
O O3 0.062071 0.181884 0.387780
O O4 0.438032 0.140480 0.019849
O O5 0.554608 0.038899 0.677319
O O6 0.235972 0.768926 0.809916
O O7 0.000000 0.000000 0.000000
O O8 0.871922 0.396177 0.745211
O O9 0.762086 0.670090 0.096815
O O10 0.949366 0.806327 0.339248
O O11 0.000000 0.500000 0.000000
#
# Coordination Sequence:
#
# PCOD9105535 Si02
#       5
#     2   2   2   2   2
#     4  11  21  41  66  88 121 161 201 247 298 356
#     4  10  23  39  62  90 123 158 200 248 299 354
#     4  10  22  40  65  88 121 161 200 243 303 358
#     4  10  20  39  65  86 122 163 195 245 307 352
#     4  11  23  42  61  92 124 155 201 253 295 355
#
# _framework density 27.335004000000001
#
# number of rings (size 3 to 8) (size 9 to 14) (size 15 to 20)
#    0.000    1.600    4.000    1.800    2.800    4.000 
#    3.600    1.000    0.000    0.000    0.000    0.000 
#    0.000    0.000    0.000    0.000    0.000    0.000 
#
# Total GULP energy -55920.384680 kJ/mol
# GULP energy per Si atom -5592.038468 kJ/mol
# Density = 2.727279 g / cm^3
# Si number density = 27.335004 Si / 1000 Ang^3
#
#
#
# Elastic Constant Matrix: (Units=GPa)
#
#
# Indices 1 2 3 4 5 6 
#
# 1 81.0315 1.4723 33.3812 -13.9816 13.9126 -7.5896
# 2 1.4723 163.5669 31.3151 -54.3324 -12.5541 7.9077
# 3 33.3812 31.3151 121.6616 -52.1303 13.7185 -4.0573
# 4 -13.9816 -54.3324 -52.1303 62.6464 -0.7816 -1.1328
# 5 13.9126 -12.5541 13.7185 -0.7816 29.8493 -5.9972
# 6 -7.5896 7.9077 -4.0573 -1.1328 -5.9972 44.7072
#
#
#
# Elastic Compliance Matrix: (Units=1/GPa)
#
#
# Indices 1 2 3 4 5 6 
#
# 1 0.014783 0.000323 -0.003119 0.000949 -0.004990 0.001524
# 2 0.000323 0.009156 0.000926 0.008810 0.003343 -0.000809
# 3 -0.003119 0.000926 0.014573 0.012184 -0.004467 0.000339
# 4 0.000949 0.008810 0.012184 0.033944 -0.001370 0.000385
# 5 -0.004990 0.003343 -0.004467 -0.001370 0.039950 0.003481
# 6 0.001524 -0.000809 0.000339 0.000385 0.003481 0.023277
#
#
# Mechanical properties :
#
#
# Convention : Reuss Voigt Hill
#
# Bulk Modulus (GPa) = 28.76001 55.39969 42.07985
# Shear Modulus (GPa) = 33.10965 47.44665 40.27815
#
# Velocity S-wave (km/s) = 3.48408 4.17075 3.84279
# Velocity P-wave (km/s) = 5.17004 6.59579 5.92595
#
# Compressibility (1/GPa) = 0.03477050
#
# Stress axis : x y z
#
# Youngs Moduli (GPa) = 67.64431 109.22100 68.62234
#
# Poissons Ratio (x) = -0.03524 0.21404
# Poissons Ratio (y) = -0.02182 -0.06354
# Poissons Ratio (z) = 0.21099 -0.10114
#
# Static dielectric constant tensor:
#      x y z
#    x 2.417290 -0.061480 -0.012630 
#    y -0.061480 2.207460 -0.003170 
#    z -0.012630 -0.003170 2.092670 
# 
# From -- ./inp_files/134626.got.cif
#   From: 2010.05.17/outbox.cif.g08.bks.cpg/sg2_68_cif.got.tgz:134626.got - 2010.06.03 11:33:40.
