data_PCOD9105014
_publ_section_title
;
Structure prediction by ZEFSAII (Michael W. Deem and Ramdas Pophale) SiO2 
 PCOD9105014
Probable space group: P -1
;
_chemical_formula_sum "Si O2"
_cell_formula_units_Z 16
_cell_length_a 5.097411
_cell_length_b 24.974441
_cell_length_c 5.248660
_cell_angle_alpha 100.980756
_cell_angle_beta 92.659942
_cell_angle_gamma 65.975803
_cell_volume 598.763283
_symmetry_space_group_name_H-M "P -1"
_symmetry_group_IT_number 2
_symmetry_cell_setting 'triclinic'
loop_
_space_group_symop_operation_xyz
x,y,z
-x,-y,-z
loop_
_atom_site_type_symbol
_atom_site_label
_atom_site_fract_x
_atom_site_fract_y
_atom_site_fract_z
Si Si1 0.718971 0.439799 0.826256
Si Si2 0.683598 0.691068 0.750781
Si Si3 0.205125 0.686395 0.064774
Si Si4 0.754023 0.063289 0.991169
Si Si5 0.703988 0.187610 0.117978
Si Si6 0.782336 0.562109 0.426214
Si Si7 0.829317 0.807497 0.223132
Si Si8 0.470955 0.065587 0.471809
O O1 0.531031 0.438958 0.569178
O O2 0.033329 0.439271 0.822420
O O3 0.500000 0.500000 0.000000
O O4 0.735773 0.378802 0.893262
O O5 0.495198 0.690954 0.992581
O O6 0.743502 0.627009 0.579787
O O7 0.985253 0.693200 0.829547
O O8 0.476976 0.754003 0.669805
O O9 0.019501 0.742361 0.287053
O O10 0.791610 0.120717 0.156686
O O11 0.707066 0.068776 0.690624
O O12 0.503195 0.063276 0.166669
O O13 0.000000 0.000000 0.000000
O O14 0.468836 0.192057 0.891676
O O15 0.981654 0.191227 0.011965
O O16 0.000000 0.500000 0.500000
O O17 0.775730 0.868635 0.421710
O O18 0.500000 0.000000 0.500000
#
# Coordination Sequence:
#
# PCOD9105014 Si02
#       8
#     2   2   2   2   2   2   2   2
#     4  12  24  39  59  86 119 159 207 257 314 380
#     4  10  20  39  63  88 121 158 199 255 316 379
#     4  10  20  39  63  88 121 158 199 255 316 379
#     4  11  23  41  65  97 133 175 223 276 334 398
#     4   9  20  39  63  91 126 166 209 258 324 393
#     4  12  24  39  59  86 119 159 207 257 314 380
#     4   9  20  39  63  91 126 166 209 258 324 393
#     4  11  23  41  65  97 133 175 223 276 334 398
#
# _framework density 26.721748000000002
#
# number of rings (size 3 to 8) (size 9 to 14) (size 15 to 20)
#    0.000    1.500    0.000    5.250    0.000    3.000 
#    0.000    6.250    0.000    0.000    0.000    0.000 
#    0.000    0.000    0.000    0.000    0.000    0.000 
#
# Total GULP energy -89261.714936 kJ/mol
# GULP energy per Si atom -5578.857184 kJ/mol
# Density = 2.666093 g / cm^3
# Si number density = 26.721748 Si / 1000 Ang^3
#
#
#
# Elastic Constant Matrix: (Units=GPa)
#
#
# Indices 1 2 3 4 5 6 
#
# 1 90.6448 20.0756 18.8153 1.2196 4.8127 14.8161
# 2 20.0756 251.8983 32.0866 60.6303 -5.4059 3.2840
# 3 18.8153 32.0866 50.6471 19.3936 2.7760 -8.5754
# 4 1.2196 60.6303 19.3936 46.8690 0.1366 -5.7696
# 5 4.8127 -5.4059 2.7760 0.1366 42.6233 5.0059
# 6 14.8161 3.2840 -8.5754 -5.7696 5.0059 51.1032
#
#
#
# Elastic Compliance Matrix: (Units=1/GPa)
#
#
# Indices 1 2 3 4 5 6 
#
# 1 0.013227 -0.000912 -0.006129 0.002830 -0.000700 -0.004417
# 2 -0.000912 0.006007 -0.000841 -0.007552 0.001087 -0.001222
# 3 -0.006129 -0.000841 0.027148 -0.009302 -0.001800 0.005513
# 4 0.002830 -0.007552 -0.009302 0.035152 -0.001040 0.002174
# 5 -0.000700 0.001087 -0.001800 -0.001040 0.024110 -0.002648
# 6 -0.004417 -0.001222 0.005513 0.002174 -0.002648 0.022357
#
#
# Mechanical properties :
#
#
# Convention : Reuss Voigt Hill
#
# Bulk Modulus (GPa) = 32.66138 59.46059 46.06098
# Shear Modulus (GPa) = 32.47335 49.59994 41.03665
#
# Velocity S-wave (km/s) = 3.48981 4.31300 3.92306
# Velocity P-wave (km/s) = 5.33739 6.86314 6.14778
#
# Compressibility (1/GPa) = 0.03061720
#
# Stress axis : x y z
#
# Youngs Moduli (GPa) = 75.60074 166.48037 36.83453
#
# Poissons Ratio (x) = 0.15185 0.22577
# Poissons Ratio (y) = 0.06896 0.03099
# Poissons Ratio (z) = 0.46338 0.14005
#
# Static dielectric constant tensor:
#      x y z
#    x 2.162370 -0.006190 0.044400 
#    y -0.006190 2.164330 -0.031620 
#    z 0.044400 -0.031620 2.214140 
# 
# From -- ./inp_files/13436.got.cif
#   From: 2010.05.17/outbox.cif.g08.bks.cpg/sg2_7_cif.got.tgz:13436.got - 2010.06.03 11:33:40.
