data_PCOD9105806
_publ_section_title
;
Structure prediction by ZEFSAII (Michael W. Deem and Ramdas Pophale) SiO2 
 PCOD9105806
Probable space group: P -1
;
_chemical_formula_sum "Si O2"
_cell_formula_units_Z 14
_cell_length_a 8.740651
_cell_length_b 5.021553
_cell_length_c 21.861301
_cell_angle_alpha 126.089691
_cell_angle_beta 137.681962
_cell_angle_gamma 65.924643
_cell_volume 521.355286
_symmetry_space_group_name_H-M "P -1"
_symmetry_group_IT_number 2
_symmetry_cell_setting 'triclinic'
loop_
_space_group_symop_operation_xyz
x,y,z
-x,-y,-z
loop_
_atom_site_type_symbol
_atom_site_label
_atom_site_fract_x
_atom_site_fract_y
_atom_site_fract_z
Si Si1 0.937113 0.711070 0.134556
Si Si2 0.702870 0.446113 0.908203
Si Si3 0.136962 0.149852 0.430081
Si Si4 0.657560 0.707190 0.800858
Si Si5 0.688643 0.299136 0.108666
Si Si6 0.556589 0.880016 0.588540
Si Si7 0.726310 0.200327 0.387648
O O1 0.770622 0.493890 0.099709
O O2 0.180575 0.582999 0.207758
O O3 0.888173 0.097469 0.171060
O O4 0.872352 0.576592 0.028899
O O5 0.676423 0.693619 0.877686
O O6 0.446556 0.439417 0.857953
O O7 0.748897 0.068890 0.856200
O O8 0.199541 0.056206 0.366522
O O9 0.127439 0.542756 0.491338
O O10 0.917650 0.997630 0.381338
O O11 0.366034 0.076046 0.523894
O O12 0.412003 0.658740 0.691730
O O13 0.500000 0.000000 0.000000
O O14 0.500000 0.500000 0.500000
O O15 0.479064 0.910483 0.641089
#
# Coordination Sequence:
#
# PCOD9105806 Si02
#       7
#     2   2   2   2   2   2   2
#     4  11  21  40  66  88 122 172 217 261 319 377
#     4  11  22  41  61  90 127 167 215 262 319 385
#     4   9  19  40  66  87 120 166 208 256 321 383
#     4  12  25  39  60  96 130 166 209 268 321 380
#     4  10  20  39  66  88 117 165 223 264 313 378
#     4   9  18  37  64  91 114 159 209 255 311 388
#     4  10  22  38  61  91 127 162 210 261 322 384
#
# _framework density 26.853085
#
# number of rings (size 3 to 8) (size 9 to 14) (size 15 to 20)
#    0.000    1.714    0.000    6.429    2.000    0.000 
#    2.571    5.714    0.000    0.000    0.000    0.000 
#    0.000    0.000    0.000    0.000    0.000    0.000 
#
# Total GULP energy -78168.340750 kJ/mol
# GULP energy per Si atom -5583.452911 kJ/mol
# Density = 2.679197 g / cm^3
# Si number density = 26.853085 Si / 1000 Ang^3
#
#
#
# Elastic Constant Matrix: (Units=GPa)
#
#
# Indices 1 2 3 4 5 6 
#
# 1 215.9159 37.8946 40.5978 -6.8041 -24.6089 -13.1080
# 2 37.8946 111.5460 28.6697 -17.7946 -4.0018 -0.4761
# 3 40.5978 28.6697 84.6698 -19.9499 -5.3417 -1.0050
# 4 -6.8041 -17.7946 -19.9499 46.5616 6.5264 5.0551
# 5 -24.6089 -4.0018 -5.3417 6.5264 25.9170 -8.9762
# 6 -13.1080 -0.4761 -1.0050 5.0551 -8.9762 52.0575
#
#
#
# Elastic Compliance Matrix: (Units=1/GPa)
#
#
# Indices 1 2 3 4 5 6 
#
# 1 0.006239 -0.001548 -0.002482 -0.001986 0.006661 0.002850
# 2 -0.001548 0.010496 -0.002169 0.003147 -0.001393 -0.000881
# 3 -0.002482 -0.002169 0.014935 0.005527 -0.001397 -0.001134
# 4 -0.001986 0.003147 0.005527 0.026415 -0.008431 -0.004383
# 5 0.006661 -0.001393 -0.001397 -0.008431 0.050390 0.011145
# 6 0.002850 -0.000881 -0.001134 -0.004383 0.011145 0.022245
#
#
# Mechanical properties :
#
#
# Convention : Reuss Voigt Hill
#
# Bulk Modulus (GPa) = 51.88048 69.60620 60.74334
# Shear Modulus (GPa) = 33.43553 45.23853 39.33703
#
# Velocity S-wave (km/s) = 3.53247 4.10892 3.83155
# Velocity P-wave (km/s) = 5.99998 6.96336 6.49955
#
# Compressibility (1/GPa) = 0.01927507
#
# Stress axis : x y z
#
# Youngs Moduli (GPa) = 160.27423 95.27085 66.95475
#
# Poissons Ratio (x) = 0.14743 0.16615
# Poissons Ratio (y) = 0.24803 0.14523
# Poissons Ratio (z) = 0.39772 0.20664
#
# Static dielectric constant tensor:
#      x y z
#    x 2.266110 -0.071820 0.044090 
#    y -0.071820 2.190570 0.047080 
#    z 0.044090 0.047080 2.204990 
# 
# From -- ./inp_files/585878.got.cif
#   From: 2010.05.17/outbox.cif.g08.bks.cpg/sg2_293_cif.got.tgz:585878.got - 2010.06.03 11:33:40.
