data_PCOD9105832
_publ_section_title
;
Structure prediction by ZEFSAII (Michael W. Deem and Ramdas Pophale) SiO2 
 PCOD9105832
Probable space group: P -1
;
_chemical_formula_sum "Si O2"
_cell_formula_units_Z 16
_cell_length_a 9.653619
_cell_length_b 11.781766
_cell_length_c 9.136413
_cell_angle_alpha 90.463387
_cell_angle_beta 46.902109
_cell_angle_gamma 87.704905
_cell_volume 757.266737
_symmetry_space_group_name_H-M "P -1"
_symmetry_group_IT_number 2
_symmetry_cell_setting 'triclinic'
loop_
_space_group_symop_operation_xyz
x,y,z
-x,-y,-z
loop_
_atom_site_type_symbol
_atom_site_label
_atom_site_fract_x
_atom_site_fract_y
_atom_site_fract_z
Si Si1 0.948792 0.178412 0.746195
Si Si2 0.146081 0.266963 0.317466
Si Si3 0.843115 0.664687 0.197121
Si Si4 0.959179 0.421770 0.242690
Si Si5 0.564089 0.368590 0.436286
Si Si6 0.664323 0.038594 0.274228
Si Si7 0.048698 0.077026 0.153769
Si Si8 0.440709 0.755076 0.856307
O O1 0.048767 0.222752 0.532433
O O2 0.048554 0.231390 0.815948
O O3 0.956556 0.042769 0.756486
O O4 0.733252 0.228175 0.908146
O O5 0.104432 0.176615 0.220245
O O6 0.365641 0.269455 0.199108
O O7 0.062470 0.387479 0.317562
O O8 0.904183 0.554840 0.254595
O O9 0.617167 0.692959 0.373442
O O10 0.909842 0.624460 0.988092
O O11 0.764356 0.356691 0.372550
O O12 0.500000 0.500000 0.500000
O O13 0.591458 0.338450 0.245781
O O14 0.565476 0.128981 0.233605
O O15 0.837965 0.094379 0.235550
O O16 0.500000 0.000000 0.500000
O O17 0.785419 0.945098 0.087933
#
# Coordination Sequence:
#
# PCOD9105832 Si02
#       8
#     2   2   2   2   2   2   2   2
#     4  11  23  41  64  88 133 168 201 260 319 371
#     4  12  25  41  62  94 133 164 207 260 319 372
#     4  10  21  41  68  89 122 166 208 261 314 367
#     4  10  23  40  66  95 121 160 217 262 305 374
#     4  10  20  39  66  90 116 162 213 254 304 371
#     4  10  22  39  66  92 121 166 214 257 303 371
#     4  10  24  40  62  95 126 165 213 260 305 375
#     4  11  23  40  62  93 128 168 206 256 319 374
#
# _framework density 21.128619
#
# number of rings (size 3 to 8) (size 9 to 14) (size 15 to 20)
#    0.000    1.500    2.500    1.875    3.500    4.500 
#    0.000    0.625    0.000    0.000    0.000    0.000 
#    0.000    0.000    0.000    0.000    0.000    0.000 
#
# Total GULP energy -89445.972665 kJ/mol
# GULP energy per Si atom -5590.373292 kJ/mol
# Density = 2.108053 g / cm^3
# Si number density = 21.128619 Si / 1000 Ang^3
#
#
#
# Elastic Constant Matrix: (Units=GPa)
#
#
# Indices 1 2 3 4 5 6 
#
# 1 117.9616 7.8091 2.0262 -5.2717 -27.4065 -18.0540
# 2 7.8091 62.3723 -5.3224 -1.0378 3.8593 -7.5528
# 3 2.0262 -5.3224 48.1456 -12.3551 -25.6829 -6.3107
# 4 -5.2717 -1.0378 -12.3551 23.2605 4.0452 6.4554
# 5 -27.4065 3.8593 -25.6829 4.0452 35.0092 3.8095
# 6 -18.0540 -7.5528 -6.3107 6.4554 3.8095 25.4565
#
#
#
# Elastic Compliance Matrix: (Units=1/GPa)
#
#
# Indices 1 2 3 4 5 6 
#
# 1 0.013884 -0.000789 0.010604 0.003274 0.017398 0.008808
# 2 -0.000789 0.017013 0.001695 0.000390 -0.001848 0.005086
# 3 0.010604 0.001695 0.047792 0.018338 0.040052 0.009227
# 4 0.003274 0.000390 0.018338 0.053940 0.010642 -0.008287
# 5 0.017398 -0.001848 0.040052 0.010642 0.069604 0.008605
# 6 0.008808 0.005086 0.009227 -0.008287 0.008605 0.050139
#
#
# Mechanical properties :
#
#
# Convention : Reuss Voigt Hill
#
# Bulk Modulus (GPa) = 9.83194 26.38947 18.11071
# Shear Modulus (GPa) = 18.99288 31.67635 25.33461
#
# Velocity S-wave (km/s) = 3.00145 3.87617 3.46651
# Velocity P-wave (km/s) = 4.08351 5.70526 4.96110
#
# Compressibility (1/GPa) = 0.10170929
#
# Stress axis : x y z
#
# Youngs Moduli (GPa) = 72.02544 58.77902 20.92383
#
# Poissons Ratio (x) = 0.04637 -0.22188
# Poissons Ratio (y) = 0.05682 -0.03546
# Poissons Ratio (z) = -0.76377 -0.09962
#
# Static dielectric constant tensor:
#      x y z
#    x 1.741750 -0.007300 -0.014310 
#    y -0.007300 1.792470 -0.008740 
#    z -0.014310 -0.008740 1.767170 
# 
# From -- ./inp_files/187309.got.cif
#   From: 2010.05.17/outbox.cif.g08.bks.cpg/sg2_94_cif.got.tgz:187309.got - 2010.06.03 11:33:40.
