data_PCOD9105508
_publ_section_title
;
Structure prediction by ZEFSAII (Michael W. Deem and Ramdas Pophale) SiO2 
 PCOD9105508
Probable space group: P -1
;
_chemical_formula_sum "Si O2"
_cell_formula_units_Z 16
_cell_length_a 24.035303
_cell_length_b 12.581753
_cell_length_c 9.667834
_cell_angle_alpha 143.302708
_cell_angle_beta 25.511759
_cell_angle_gamma 148.232446
_cell_volume 655.208782
_symmetry_space_group_name_H-M "P -1"
_symmetry_group_IT_number 2
_symmetry_cell_setting 'triclinic'
loop_
_space_group_symop_operation_xyz
x,y,z
-x,-y,-z
loop_
_atom_site_type_symbol
_atom_site_label
_atom_site_fract_x
_atom_site_fract_y
_atom_site_fract_z
Si Si1 0.498377 0.037633 0.205431
Si Si2 0.920531 0.501622 0.451396
Si Si3 0.909295 0.852375 0.174638
Si Si4 0.592730 0.777555 0.903839
Si Si5 0.990838 0.793006 0.206196
Si Si6 0.720019 0.490780 0.654981
Si Si7 0.185595 0.620141 0.144447
Si Si8 0.282287 0.933815 0.816169
O O1 0.355830 0.013758 0.582658
O O2 0.643822 0.249623 0.138834
O O3 0.500000 0.000000 0.000000
O O4 0.526911 0.867341 0.032549
O O5 0.807489 0.545519 0.663451
O O6 0.834122 0.356815 0.624238
O O7 0.077063 0.668540 0.343787
O O8 0.971091 0.382559 0.109957
O O9 0.746477 0.816048 0.535783
O O10 0.003506 0.921219 0.176233
O O11 0.874939 0.620531 0.984688
O O12 0.000000 0.000000 0.000000
O O13 0.448817 0.554856 0.014532
O O14 0.626547 0.909866 0.105268
O O15 0.824698 0.671919 0.507896
O O16 0.117066 0.903494 0.151951
O O17 0.718984 0.282291 0.387827
#
# Coordination Sequence:
#
# PCOD9105508 Si02
#       8
#     2   2   2   2   2   2   2   2
#     4  11  23  40  72 102 135 168 229 280 335 392
#     4   9  19  35  65 100 119 160 226 276 324 387
#     4  11  28  44  63  95 139 181 225 273 332 404
#     4  11  26  41  66  97 140 175 213 284 338 392
#     4  10  22  39  67  94 132 171 224 272 336 398
#     4  10  20  39  65 100 129 162 223 280 331 396
#     4  10  22  39  67  96 128 180 222 268 339 394
#     4  10  22  39  67 104 132 169 221 283 335 389
#
# _framework density 24.419695999999998
#
# number of rings (size 3 to 8) (size 9 to 14) (size 15 to 20)
#    0.000    1.750    0.000    5.250   15.750    1.000 
#    0.000    2.500    0.000    0.000    0.000    0.000 
#    0.000    0.000    0.000    0.000    0.000    0.000 
#
# Total GULP energy -89434.399774 kJ/mol
# GULP energy per Si atom -5589.649986 kJ/mol
# Density = 2.436412 g / cm^3
# Si number density = 24.419696 Si / 1000 Ang^3
#
#
#
# Elastic Constant Matrix: (Units=GPa)
#
#
# Indices 1 2 3 4 5 6 
#
# 1 135.4989 13.6224 27.0745 -14.1804 7.2766 6.0355
# 2 13.6224 80.1647 38.7310 -22.0347 2.3320 6.4798
# 3 27.0745 38.7310 124.4499 -28.0731 1.7311 4.1389
# 4 -14.1804 -22.0347 -28.0731 36.8025 8.0151 0.9186
# 5 7.2766 2.3320 1.7311 8.0151 36.7413 -3.4162
# 6 6.0355 6.4798 4.1389 0.9186 -3.4162 27.5641
#
#
#
# Elastic Compliance Matrix: (Units=1/GPa)
#
#
# Indices 1 2 3 4 5 6 
#
# 1 0.008107 0.000193 -0.001039 0.003026 -0.002421 -0.002065
# 2 0.000193 0.016726 -0.003150 0.008486 -0.003191 -0.004180
# 3 -0.001039 -0.003150 0.010707 0.006246 -0.001558 -0.001041
# 4 0.003026 0.008486 0.006246 0.040714 -0.010900 -0.006303
# 5 -0.002421 -0.003191 -0.001558 -0.010900 0.030881 0.005705
# 6 -0.002065 -0.004180 -0.001041 -0.006303 0.005705 0.038787
#
#
# Mechanical properties :
#
#
# Convention : Reuss Voigt Hill
#
# Bulk Modulus (GPa) = 36.29864 55.44104 45.86984
# Shear Modulus (GPa) = 30.65648 37.60063 34.12856
#
# Velocity S-wave (km/s) = 3.54701 3.92824 3.74248
# Velocity P-wave (km/s) = 5.62777 6.58236 6.12369
#
# Compressibility (1/GPa) = 0.02754925
#
# Stress axis : x y z
#
# Youngs Moduli (GPa) = 123.35074 59.78538 93.39595
#
# Poissons Ratio (x) = -0.01156 0.09704
# Poissons Ratio (y) = -0.02386 0.29421
# Poissons Ratio (z) = 0.12816 0.18833
#
# Static dielectric constant tensor:
#      x y z
#    x 1.980550 0.020100 0.002240 
#    y 0.020100 2.031990 -0.039180 
#    z 0.002240 -0.039180 2.031110 
# 
# From -- ./inp_files/346328.got.cif
#   From: 2010.05.17/outbox.cif.g08.bks.cpg/sg2_174_cif.got.tgz:346328.got - 2010.06.03 11:33:40.
