data_PCOD9105305
_publ_section_title
;
Structure prediction by ZEFSAII (Michael W. Deem and Ramdas Pophale) SiO2 
 PCOD9105305
Probable space group: P -1
;
_chemical_formula_sum "Si O2"
_cell_formula_units_Z 14
_cell_length_a 18.029864
_cell_length_b 15.020317
_cell_length_c 7.622633
_cell_angle_alpha 65.500710
_cell_angle_beta 103.364270
_cell_angle_gamma 158.254419
_cell_volume 619.057151
_symmetry_space_group_name_H-M "P -1"
_symmetry_group_IT_number 2
_symmetry_cell_setting 'triclinic'
loop_
_space_group_symop_operation_xyz
x,y,z
-x,-y,-z
loop_
_atom_site_type_symbol
_atom_site_label
_atom_site_fract_x
_atom_site_fract_y
_atom_site_fract_z
Si Si1 0.823106 0.581179 0.645497
Si Si2 0.296427 0.145695 0.554808
Si Si3 0.455882 0.330286 0.110868
Si Si4 0.626572 0.052741 0.068905
Si Si5 0.009069 0.685105 0.353599
Si Si6 0.116746 0.631121 0.691503
Si Si7 0.338083 0.429008 0.317567
O O1 0.850291 0.558235 0.495668
O O2 0.833991 0.711595 0.553044
O O3 0.572502 0.260392 0.837297
O O4 0.037805 0.799011 0.690381
O O5 0.429508 0.270006 0.351067
O O6 0.293682 0.259965 0.446257
O O7 0.425554 0.274433 0.693671
O O8 0.500000 0.500000 0.000000
O O9 0.640199 0.515381 0.920897
O O10 0.215087 0.006860 0.162716
O O11 0.706079 0.141922 0.241021
O O12 0.859677 0.324379 0.872024
O O13 0.500000 0.000000 0.000000
O O14 0.867405 0.456634 0.316762
O O15 0.124635 0.732387 0.480573
#
# Coordination Sequence:
#
# PCOD9105305 Si02
#       7
#     2   2   2   2   2   2   2
#     4  11  22  35  62  91 122 155 209 253 308 365
#     4   9  21  39  62  90 126 161 208 250 313 370
#     4   9  19  37  62  91 122 158 204 251 309 374
#     4  11  23  40  61  92 116 162 211 259 312 376
#     4  10  21  41  60  90 123 167 205 262 313 371
#     4  10  23  42  62  83 129 163 211 258 315 374
#     4  10  20  39  64  89 123 170 200 255 309 365
#
# _framework density 22.615036
#
# number of rings (size 3 to 8) (size 9 to 14) (size 15 to 20)
#    0.000    2.000    1.429    1.286    4.000    1.714 
#    0.000    4.286    0.000   14.571    0.000    0.000 
#    0.000    0.000    0.000    0.000    0.000    0.000 
#
# Total GULP energy -78025.105759 kJ/mol
# GULP energy per Si atom -5573.221840 kJ/mol
# Density = 2.256356 g / cm^3
# Si number density = 22.615036 Si / 1000 Ang^3
#
#
#
# Elastic Constant Matrix: (Units=GPa)
#
#
# Indices 1 2 3 4 5 6 
#
# 1 118.6448 10.4086 19.7699 3.8764 -16.6998 -17.5466
# 2 10.4086 109.3035 39.8041 -8.0425 -9.4658 -0.3353
# 3 19.7699 39.8041 53.9470 -3.5177 4.6899 -3.3777
# 4 3.8764 -8.0425 -3.5177 32.2088 -7.3859 -3.0342
# 5 -16.6998 -9.4658 4.6899 -7.3859 23.1559 -1.1809
# 6 -17.5466 -0.3353 -3.3777 -3.0342 -1.1809 34.3201
#
#
#
# Elastic Compliance Matrix: (Units=1/GPa)
#
#
# Indices 1 2 3 4 5 6 
#
# 1 0.011800 0.002469 -0.006680 0.001716 0.011723 0.005954
# 2 0.002469 0.014891 -0.012554 0.004904 0.012026 0.001020
# 3 -0.006680 -0.012554 0.031479 -0.002993 -0.017346 -0.001301
# 4 0.001716 0.004904 -0.002993 0.035689 0.015452 0.004318
# 5 0.011723 0.012026 -0.017346 0.015452 0.065407 0.008021
# 6 0.005954 0.001020 -0.001301 0.004318 0.008021 0.032721
#
#
# Mechanical properties :
#
#
# Convention : Reuss Voigt Hill
#
# Bulk Modulus (GPa) = 40.58599 46.87337 43.72968
# Shear Modulus (GPa) = 21.39232 32.06446 26.72839
#
# Velocity S-wave (km/s) = 3.07894 3.76950 3.44159
# Velocity P-wave (km/s) = 5.53401 6.30216 5.93053
#
# Compressibility (1/GPa) = 0.02463905
#
# Stress axis : x y z
#
# Youngs Moduli (GPa) = 84.74797 67.15603 31.76763
#
# Poissons Ratio (x) = -0.16579 0.21221
# Poissons Ratio (y) = -0.20922 0.39880
# Poissons Ratio (z) = 0.56613 0.84305
#
# Static dielectric constant tensor:
#      x y z
#    x 1.959230 -0.089540 0.042690 
#    y -0.089540 1.839580 -0.042590 
#    z 0.042690 -0.042590 1.946330 
# 
# From -- ./inp_files/200664.got.cif
#   From: 2010.05.17/outbox.cif.g08.bks.cpg/sg2_101_cif.got.tgz:200664.got - 2010.06.03 11:33:40.
