data_PCOD9105071
_publ_section_title
;
Structure prediction by ZEFSAII (Michael W. Deem and Ramdas Pophale) SiO2 
 PCOD9105071
Probable space group: P -1
;
_chemical_formula_sum "Si O2"
_cell_formula_units_Z 16
_cell_length_a 9.090332
_cell_length_b 14.748521
_cell_length_c 11.944455
_cell_angle_alpha 58.152112
_cell_angle_beta 65.007067
_cell_angle_gamma 115.130189
_cell_volume 666.740120
_symmetry_space_group_name_H-M "P -1"
_symmetry_group_IT_number 2
_symmetry_cell_setting 'triclinic'
loop_
_space_group_symop_operation_xyz
x,y,z
-x,-y,-z
loop_
_atom_site_type_symbol
_atom_site_label
_atom_site_fract_x
_atom_site_fract_y
_atom_site_fract_z
Si Si1 0.791168 0.387242 0.750530
Si Si2 0.117566 0.521542 0.763020
Si Si3 0.208808 0.266445 0.243126
Si Si4 0.393405 0.669276 0.795187
Si Si5 0.844434 0.043228 0.287559
Si Si6 0.380727 0.050406 0.793148
Si Si7 0.055549 0.757939 0.462147
Si Si8 0.119342 0.979511 0.145439
O O1 0.000000 0.500000 0.500000
O O2 0.920062 0.380085 0.810199
O O3 0.838416 0.535422 0.680544
O O4 0.450863 0.176588 0.964535
O O5 0.274653 0.544945 0.800703
O O6 0.382567 0.734357 0.477702
O O7 0.882750 0.464082 0.946918
O O8 0.330812 0.228279 0.290742
O O9 0.091699 0.198744 0.199766
O O10 0.966534 0.187998 0.451801
O O11 0.500000 0.500000 0.000000
O O12 0.535090 0.856100 0.577579
O O13 0.935913 0.981647 0.239484
O O14 0.792678 0.090736 0.167392
O O15 0.604768 0.094866 0.755420
O O16 0.168733 0.987212 0.993559
O O17 0.974902 0.794087 0.366083
#
# Coordination Sequence:
#
# PCOD9105071 Si02
#       8
#     2   2   2   2   2   2   2   2
#     4  11  22  41  67  94 131 173 217 261 328 388
#     4   9  19  37  63  92 125 165 214 261 312 382
#     4  12  24  42  63  91 136 164 217 274 326 389
#     4  10  20  39  63  90 125 166 215 258 317 389
#     4  11  24  41  67  95 127 178 211 265 337 384
#     4  10  22  42  63  97 132 168 220 263 327 380
#     4  11  24  41  65 102 127 170 220 273 315 391
#     4  12  22  42  71  94 135 173 219 268 319 392
#
# _framework density 23.997357999999998
#
# number of rings (size 3 to 8) (size 9 to 14) (size 15 to 20)
#    0.000    1.250    3.750    4.125    1.750    0.500 
#    2.250    0.000    0.000    3.000    0.000    0.000 
#    0.000    0.000    0.000    0.000    0.000    0.000 
#
# Total GULP energy -89362.958479 kJ/mol
# GULP energy per Si atom -5585.184905 kJ/mol
# Density = 2.394274 g / cm^3
# Si number density = 23.997358 Si / 1000 Ang^3
#
#
#
# Elastic Constant Matrix: (Units=GPa)
#
#
# Indices 1 2 3 4 5 6 
#
# 1 68.7418 28.4595 14.5307 2.4963 5.9311 19.2450
# 2 28.4595 92.4869 27.4729 14.7594 4.8550 36.3886
# 3 14.5307 27.4729 87.5990 20.3778 2.5699 2.5983
# 4 2.4963 14.7594 20.3778 45.8019 6.5861 -5.1953
# 5 5.9311 4.8550 2.5699 6.5861 41.5002 3.8792
# 6 19.2450 36.3886 2.5983 -5.1953 3.8792 45.2459
#
#
#
# Elastic Compliance Matrix: (Units=1/GPa)
#
#
# Indices 1 2 3 4 5 6 
#
# 1 0.017656 -0.002968 -0.001934 0.000554 -0.001695 -0.004803
# 2 -0.002968 0.019850 -0.003818 -0.006382 0.000780 -0.015282
# 3 -0.001934 -0.003818 0.013924 -0.004623 0.000358 0.002532
# 4 0.000554 -0.006382 -0.004623 0.027509 -0.004224 0.008683
# 5 -0.001695 0.000780 0.000358 -0.004224 0.025135 -0.002566
# 6 -0.004803 -0.015282 0.002532 0.008683 -0.002566 0.037506
#
#
# Mechanical properties :
#
#
# Convention : Reuss Voigt Hill
#
# Bulk Modulus (GPa) = 29.42201 43.30597 36.36399
# Shear Modulus (GPa) = 29.35130 38.40058 33.87594
#
# Velocity S-wave (km/s) = 3.50109 4.00459 3.76127
# Velocity P-wave (km/s) = 5.35076 6.28233 5.83516
#
# Compressibility (1/GPa) = 0.03398816
#
# Stress axis : x y z
#
# Youngs Moduli (GPa) = 56.63929 50.37804 71.81911
#
# Poissons Ratio (x) = 0.14952 0.13893
# Poissons Ratio (y) = 0.16811 0.27421
# Poissons Ratio (z) = 0.10957 0.19235
#
# Static dielectric constant tensor:
#      x y z
#    x 2.061170 -0.010940 0.050360 
#    y -0.010940 1.988500 -0.045230 
#    z 0.050360 -0.045230 1.895950 
# 
# From -- ./inp_files/398766.got.cif
#   From: 2010.05.17/outbox.cif.g08.bks.cpg/sg2_200_cif.got.tgz:398766.got - 2010.06.03 11:33:40.
