data_PCOD9105319
_publ_section_title
;
Structure prediction by ZEFSAII (Michael W. Deem and Ramdas Pophale) SiO2 
 PCOD9105319
Probable space group: P -1
;
_chemical_formula_sum "Si O2"
_cell_formula_units_Z 16
_cell_length_a 13.466728
_cell_length_b 19.070932
_cell_length_c 6.809384
_cell_angle_alpha 102.756005
_cell_angle_beta 73.423864
_cell_angle_gamma 151.362220
_cell_volume 801.651134
_symmetry_space_group_name_H-M "P -1"
_symmetry_group_IT_number 2
_symmetry_cell_setting 'triclinic'
loop_
_space_group_symop_operation_xyz
x,y,z
-x,-y,-z
loop_
_atom_site_type_symbol
_atom_site_label
_atom_site_fract_x
_atom_site_fract_y
_atom_site_fract_z
Si Si1 0.527957 0.182293 0.551057
Si Si2 0.940500 0.644995 0.215010
Si Si3 0.874746 0.100000 0.654591
Si Si4 0.627376 0.979378 0.066523
Si Si5 0.376620 0.594426 0.417796
Si Si6 0.346284 0.336828 0.446509
Si Si7 0.583555 0.476161 0.028595
Si Si8 0.737384 0.206948 0.158004
O O1 0.478801 0.127178 0.763712
O O2 0.597206 0.306180 0.573725
O O3 0.701251 0.236190 0.381284
O O4 0.308332 0.039318 0.468081
O O5 0.808962 0.532425 0.397843
O O6 0.110630 0.803893 0.303401
O O7 0.785183 0.598409 0.135316
O O8 0.053973 0.659480 0.010432
O O9 0.103903 0.210393 0.533418
O O10 0.807502 0.045656 0.885118
O O11 0.717885 0.111100 0.167982
O O12 0.452474 0.890347 0.945075
O O13 0.579855 0.680265 0.457949
O O14 0.354335 0.538438 0.192220
O O15 0.500000 0.500000 0.500000
O O16 0.398152 0.341506 0.200177
O O17 0.500000 0.500000 0.000000
#
# Coordination Sequence:
#
# PCOD9105319 Si02
#       8
#     2   2   2   2   2   2   2   2
#     4  11  24  39  60  91 129 158 198 254 312 364
#     4  10  21  39  64  92 117 160 214 250 297 355
#     4  10  20  39  64  90 117 159 205 252 296 362
#     4   9  20  38  61  88 122 158 204 249 303 361
#     4  11  24  39  58  93 128 160 196 251 315 360
#     4  11  20  40  63  89 121 155 201 254 299 358
#     4  11  20  36  62  89 122 157 200 250 298 359
#     4   9  20  39  63  85 118 164 208 252 295 361
#
# _framework density 19.958805999999999
#
# number of rings (size 3 to 8) (size 9 to 14) (size 15 to 20)
#    0.000    1.750    3.750    1.125    0.000   11.000 
#    0.000    2.500    0.000    0.000    0.000    0.000 
#    0.000    0.000    0.000    0.000    0.000    0.000 
#
# Total GULP energy -89269.335022 kJ/mol
# GULP energy per Si atom -5579.333439 kJ/mol
# Density = 1.991338 g / cm^3
# Si number density = 19.958806 Si / 1000 Ang^3
#
#
#
# Elastic Constant Matrix: (Units=GPa)
#
#
# Indices 1 2 3 4 5 6 
#
# 1 34.5915 17.6748 17.2334 -13.2231 4.7351 -5.9320
# 2 17.6748 58.1525 39.5239 -12.1418 -0.0516 -6.4732
# 3 17.2334 39.5239 101.5125 -34.2286 17.6856 10.5040
# 4 -13.2231 -12.1418 -34.2286 24.2107 12.9982 -4.0638
# 5 4.7351 -0.0516 17.6856 12.9982 22.0884 -25.5015
# 6 -5.9320 -6.4732 10.5040 -4.0638 -25.5015 23.6773
#
#
#
# Elastic Compliance Matrix: (Units=1/GPa)
#
#
# Indices 1 2 3 4 5 6 
#
# 1 0.041697 -0.005276 -0.002618 0.016389 0.006221 0.019679
# 2 -0.005276 0.021202 -0.000808 0.011838 -0.011447 -0.005464
# 3 -0.002618 -0.000808 0.004261 -0.003320 0.019515 0.017681
# 4 0.016389 0.011838 -0.003320 0.043224 0.030888 0.049502
# 5 0.006221 -0.011447 0.019515 0.030888 -0.018165 -0.024492
# 6 0.019679 -0.005464 0.017681 0.049502 -0.024492 0.019945
#
#
# Mechanical properties :
#
#
# Convention : Reuss Voigt Hill
#
# Bulk Modulus (GPa) = 20.09807 38.12451 29.11129
# Shear Modulus (GPa) = 34.21054 21.98358 28.09706
#
# Velocity S-wave (km/s) = 4.14461 3.32241 3.75607
# Velocity P-wave (km/s) = 5.74416 5.81901 5.78171
#
# Compressibility (1/GPa) = 0.04975601
#
# Stress axis : x y z
#
# Youngs Moduli (GPa) = 23.98235 47.16535 234.68148
#
# Poissons Ratio (x) = 0.24883 0.61451
# Poissons Ratio (y) = 0.12652 0.18962
# Poissons Ratio (z) = 0.06280 0.03811
#
# Static dielectric constant tensor:
#      x y z
#    x 1.709410 0.031780 -0.024710 
#    y 0.031780 1.734130 0.000100 
#    z -0.024710 0.000100 1.748550 
# 
# From -- ./inp_files/100420.got.cif
#   From: 2010.05.17/outbox.cif.g08.bks.cpg/sg2_51_cif.got.tgz:100420.got - 2010.06.03 11:33:40.
