data_PCOD9105028
_publ_section_title
;
Structure prediction by ZEFSAII (Michael W. Deem and Ramdas Pophale) SiO2 
 PCOD9105028
Probable space group: P -1
;
_chemical_formula_sum "Si O2"
_cell_formula_units_Z 16
_cell_length_a 5.809176
_cell_length_b 9.120824
_cell_length_c 18.381337
_cell_angle_alpha 100.862840
_cell_angle_beta 106.578419
_cell_angle_gamma 52.776640
_cell_volume 743.121844
_symmetry_space_group_name_H-M "P -1"
_symmetry_group_IT_number 2
_symmetry_cell_setting 'triclinic'
loop_
_space_group_symop_operation_xyz
x,y,z
-x,-y,-z
loop_
_atom_site_type_symbol
_atom_site_label
_atom_site_fract_x
_atom_site_fract_y
_atom_site_fract_z
Si Si1 0.379894 0.132330 0.840530
Si Si2 0.761963 0.568498 0.422313
Si Si3 0.643937 0.105766 0.488138
Si Si4 0.613399 0.553430 0.082377
Si Si5 0.303437 0.589891 0.206691
Si Si6 0.507158 0.185055 0.692061
Si Si7 0.222127 0.288635 0.187331
Si Si8 0.158454 0.218629 0.340823
O O1 0.472725 0.239817 0.908273
O O2 0.424422 0.165384 0.763556
O O3 0.031543 0.246277 0.828969
O O4 0.555981 0.915350 0.843356
O O5 0.461172 0.720954 0.451938
O O6 0.772801 0.698188 0.375223
O O7 0.000000 0.500000 0.500000
O O8 0.876287 0.377138 0.375291
O O9 0.454743 0.181545 0.402302
O O10 0.500000 0.000000 0.500000
O O11 0.000000 0.000000 0.500000
O O12 0.479562 0.540856 0.143666
O O13 0.962133 0.408956 0.116323
O O14 0.500000 0.500000 0.000000
O O15 0.394011 0.680431 0.281168
O O16 0.347311 0.407826 0.221506
O O17 0.767284 0.983684 0.669793
O O18 0.122114 0.273733 0.257680
#
# Coordination Sequence:
#
# PCOD9105028 Si02
#       8
#     2   2   2   2   2   2   2   2
#     4   9  21  38  61  90 126 162 209 266 319 391
#     4  10  21  38  62  91 126 169 219 273 328 398
#     4  11  24  47  68  96 137 183 225 282 348 406
#     4  10  22  41  62  88 129 170 208 265 325 390
#     4  10  21  38  62  90 120 166 210 260 328 385
#     4  10  20  39  63  88 131 161 215 264 333 387
#     4  10  22  41  61  96 128 159 220 266 323 398
#     4  10  21  43  65  94 131 171 219 278 334 403
#
# _framework density 21.530792000000002
#
# number of rings (size 3 to 8) (size 9 to 14) (size 15 to 20)
#    0.000    2.000    1.250    2.250    0.000    8.500 
#    9.000    4.375    0.000    0.000    0.000    0.000 
#    0.000    0.000    0.000    0.000    0.000    0.000 
#
# Total GULP energy -89155.468330 kJ/mol
# GULP energy per Si atom -5572.216771 kJ/mol
# Density = 2.148179 g / cm^3
# Si number density = 21.530792 Si / 1000 Ang^3
#
#
#
# Elastic Constant Matrix: (Units=GPa)
#
#
# Indices 1 2 3 4 5 6 
#
# 1 63.4481 50.4169 6.7423 5.9560 11.4145 -5.7583
# 2 50.4169 181.8050 48.0010 21.3947 3.9420 4.9836
# 3 6.7423 48.0010 64.6928 13.9822 25.0100 6.3353
# 4 5.9560 21.3947 13.9822 26.0206 -2.3735 -4.5865
# 5 11.4145 3.9420 25.0100 -2.3735 12.9523 3.9372
# 6 -5.7583 4.9836 6.3353 -4.5865 3.9372 31.4850
#
#
#
# Elastic Compliance Matrix: (Units=1/GPa)
#
#
# Indices 1 2 3 4 5 6 
#
# 1 0.000986 0.005089 -0.035645 0.021290 0.070042 0.000890
# 2 0.005089 0.002401 0.016815 -0.015889 -0.040573 -0.000074
# 3 -0.035645 0.016815 -0.049757 0.031108 0.131439 -0.011074
# 4 0.021290 -0.015889 0.031108 0.025518 -0.073279 0.013030
# 5 0.070042 -0.040573 0.131439 -0.073279 -0.243206 0.012522
# 6 0.000890 -0.000074 -0.011074 0.013030 0.012522 0.034496
#
#
# Mechanical properties :
#
#
# Convention : Reuss Voigt Hill
#
# Bulk Modulus (GPa) = -13.54057 57.80736 22.13339
# Shear Modulus (GPa) = -22.05600 27.74396 2.84398
#
# Velocity S-wave (km/s) = -3.20409 3.59356 1.15055
# Velocity P-wave (km/s) = 4.47111 6.64268 3.47379
#
# Compressibility (1/GPa) = -0.07385213
#
# Stress axis : x y z
#
# Youngs Moduli (GPa) = 1014.02883 416.48821 -20.09781
#
# Poissons Ratio (x) = -2.11966 -0.71640
# Poissons Ratio (y) = -5.16077 0.33794
# Poissons Ratio (z) = 36.14555 -7.00316
#
# Static dielectric constant tensor:
#      x y z
#    x 1.849180 -0.010400 0.022500 
#    y -0.010400 1.828760 0.004080 
#    z 0.022500 0.004080 1.829560 
# 
# From -- ./inp_files/139114.got.cif
#   From: 2010.05.17/outbox.cif.g08.bks.cpg/sg2_70_cif.got.tgz:139114.got - 2010.06.03 11:33:40.
