data_PCOD9105555
_publ_section_title
;
Structure prediction by ZEFSAII (Michael W. Deem and Ramdas Pophale) SiO2 
 PCOD9105555
Probable space group: P -1
;
_chemical_formula_sum "Si O2"
_cell_formula_units_Z 14
_cell_length_a 12.655238
_cell_length_b 8.939369
_cell_length_c 14.964466
_cell_angle_alpha 123.310508
_cell_angle_beta 28.890403
_cell_angle_gamma 122.942761
_cell_volume 675.171370
_symmetry_space_group_name_H-M "P -1"
_symmetry_group_IT_number 2
_symmetry_cell_setting 'triclinic'
loop_
_space_group_symop_operation_xyz
x,y,z
-x,-y,-z
loop_
_atom_site_type_symbol
_atom_site_label
_atom_site_fract_x
_atom_site_fract_y
_atom_site_fract_z
Si Si1 0.506092 0.039862 0.802167
Si Si2 0.077126 0.973168 0.209664
Si Si3 0.414400 0.578142 0.494412
Si Si4 0.906996 0.293365 0.529991
Si Si5 0.876628 0.780902 0.466568
Si Si6 0.820682 0.132884 0.168481
Si Si7 0.115605 0.336847 0.891145
O O1 0.648270 0.230633 0.727852
O O2 0.682457 0.905718 0.649817
O O3 0.356225 0.952065 0.802180
O O4 0.328571 0.036553 0.012167
O O5 0.047525 0.865745 0.290665
O O6 0.953082 0.835200 0.181181
O O7 0.961526 0.150969 0.367519
O O8 0.500000 0.500000 0.500000
O O9 0.228108 0.419725 0.549554
O O10 0.327790 0.771218 0.623143
O O11 0.624819 0.605479 0.283135
O O12 0.000000 0.500000 0.500000
O O13 0.028369 0.238941 0.512183
O O14 0.996260 0.301244 0.061252
O O15 0.000000 0.000000 0.000000
O O16 0.000000 0.500000 0.000000
#
# Coordination Sequence:
#
# PCOD9105555 Si02
#       7
#     2   2   2   2   2   2   2
#     4  10  21  42  65  86 122 163 211 263 314 371
#     4  10  20  39  65  88 120 160 209 259 310 363
#     4  12  19  38  66  92 128 164 203 264 320 368
#     4  11  26  42  59  90 127 164 214 261 312 379
#     4  11  22  38  66  93 119 165 216 257 307 384
#     4  11  24  38  60  97 131 162 209 261 321 382
#     4  11  20  37  66  96 122 163 210 258 315 390
#
# _framework density 20.735475999999998
#
# number of rings (size 3 to 8) (size 9 to 14) (size 15 to 20)
#    0.000    1.143    4.286    3.429    0.000    6.857 
#    0.000    0.000    0.000    0.000    0.000    0.000 
#    0.000    0.000    0.000    0.000    0.000    0.000 
#
# Total GULP energy -77991.212282 kJ/mol
# GULP energy per Si atom -5570.800877 kJ/mol
# Density = 2.068828 g / cm^3
# Si number density = 20.735476 Si / 1000 Ang^3
#
#
#
# Elastic Constant Matrix: (Units=GPa)
#
#
# Indices 1 2 3 4 5 6 
#
# 1 34.8460 7.6685 14.7699 -0.6207 -8.3711 16.5609
# 2 7.6685 120.9091 52.4337 -9.6232 -7.8215 10.8234
# 3 14.7699 52.4337 143.8627 -21.3651 -6.6586 -0.8269
# 4 -0.6207 -9.6232 -21.3651 45.9059 -2.4004 3.0686
# 5 -8.3711 -7.8215 -6.6586 -2.4004 20.4875 6.2979
# 6 16.5609 10.8234 -0.8269 3.0686 6.2979 28.3485
#
#
#
# Elastic Compliance Matrix: (Units=1/GPa)
#
#
# Indices 1 2 3 4 5 6 
#
# 1 0.064103 0.006359 -0.006521 0.004726 0.042425 -0.050003
# 2 0.006359 0.011312 -0.004173 0.001672 0.008928 -0.010320
# 3 -0.006521 -0.004173 0.009485 0.002914 -0.002664 0.005956
# 4 0.004726 0.001672 0.002914 0.024546 0.008831 -0.007933
# 5 0.042425 0.008928 -0.002664 0.008831 0.084476 -0.047994
# 6 -0.050003 -0.010320 0.005956 -0.007933 -0.047994 0.080122
#
#
# Mechanical properties :
#
#
# Convention : Reuss Voigt Hill
#
# Bulk Modulus (GPa) = 13.11835 49.92912 31.52373
# Shear Modulus (GPa) = 16.22724 33.93143 25.07934
#
# Velocity S-wave (km/s) = 2.80050 4.04963 3.48154
# Velocity P-wave (km/s) = 4.09846 6.78213 5.60333
#
# Compressibility (1/GPa) = 0.07622912
#
# Stress axis : x y z
#
# Youngs Moduli (GPa) = 15.59995 88.40439 105.42595
#
# Poissons Ratio (x) = -0.56216 0.68746
# Poissons Ratio (y) = -0.09920 0.43999
# Poissons Ratio (z) = 0.10172 0.36895
#
# Static dielectric constant tensor:
#      x y z
#    x 1.799720 -0.021950 0.018570 
#    y -0.021950 1.773620 -0.009070 
#    z 0.018570 -0.009070 1.733620 
# 
# From -- ./inp_files/227274.got.cif
#   From: 2010.05.17/outbox.cif.g08.bks.cpg/sg2_114_cif.got.tgz:227274.got - 2010.06.03 11:33:40.
