data_PCOD9105701
_publ_section_title
;
Structure prediction by ZEFSAII (Michael W. Deem and Ramdas Pophale) SiO2 
 PCOD9105701
Probable space group: P -1
;
_chemical_formula_sum "Si O2"
_cell_formula_units_Z 13
_cell_length_a 8.113558
_cell_length_b 11.747228
_cell_length_c 16.719594
_cell_angle_alpha 26.899195
_cell_angle_beta 44.808165
_cell_angle_gamma 49.713412
_cell_volume 507.608780
_symmetry_space_group_name_H-M "P -1"
_symmetry_group_IT_number 2
_symmetry_cell_setting 'triclinic'
loop_
_space_group_symop_operation_xyz
x,y,z
-x,-y,-z
loop_
_atom_site_type_symbol
_atom_site_label
_atom_site_fract_x
_atom_site_fract_y
_atom_site_fract_z
Si Si1 0.628150 0.374739 0.927848
Si Si2 0.743517 0.695054 0.547456
Si Si3 0.779236 0.179450 0.753553
Si Si4 0.321748 0.818998 0.516226
Si Si5 0.160713 0.366011 0.166188
Si Si6 0.702619 0.870035 0.127290
Si Si7 0.500000 0.500000 0.500000
O O1 0.706559 0.606531 0.704355
O O2 0.744960 0.410934 0.950894
O O3 0.344119 0.372879 0.025440
O O4 0.722953 0.116111 0.018239
O O5 0.759933 0.433174 0.653965
O O6 0.519109 0.844248 0.498374
O O7 0.976023 0.839974 0.362134
O O8 0.574665 0.208438 0.738029
O O9 0.756156 0.950228 0.967870
O O10 0.446085 0.694116 0.474076
O O11 0.119198 0.645076 0.731031
O O12 0.228482 0.094157 0.351093
O O13 0.768496 0.628264 0.308431
#
# Coordination Sequence:
#
# PCOD9105701 Si02
#       7
#     2   2   2   2   2   2   1
#     4  10  22  42  66  90 126 174 215 255 320 381
#     4  10  21  39  66  95 127 168 215 261 314 386
#     4   9  20  38  62  96 134 159 205 270 324 366
#     4  11  24  42  66  94 131 169 212 262 320 377
#     4  10  24  45  63  91 134 171 208 265 319 377
#     4  10  20  39  65  95 128 167 208 266 319 375
#     4  12  22  38  68 100 120 168 214 266 314 388
#
# _framework density 25.610271000000001
#
# number of rings (size 3 to 8) (size 9 to 14) (size 15 to 20)
#    0.000    1.846    3.077    0.000    2.154    2.462 
#    5.538    1.538    0.000    0.000    0.000    0.000 
#    0.000    0.000    0.000    0.000    0.000    0.000 
#
# Total GULP energy -72519.605542 kJ/mol
# GULP energy per Si atom -5578.431196 kJ/mol
# Density = 2.555198 g / cm^3
# Si number density = 25.610271 Si / 1000 Ang^3
#
#
#
# Elastic Constant Matrix: (Units=GPa)
#
#
# Indices 1 2 3 4 5 6 
#
# 1 50.2021 21.4094 17.5988 11.5908 -13.4094 -15.3304
# 2 21.4094 43.0321 18.7814 -7.0218 3.0488 -0.0389
# 3 17.5988 18.7814 143.7074 28.2907 -3.2360 -15.6863
# 4 11.5908 -7.0218 28.2907 50.6248 -4.9440 -16.0030
# 5 -13.4094 3.0488 -3.2360 -4.9440 36.8816 6.2041
# 6 -15.3304 -0.0389 -15.6863 -16.0030 6.2041 32.0488
#
#
#
# Elastic Compliance Matrix: (Units=1/GPa)
#
#
# Indices 1 2 3 4 5 6 
#
# 1 0.037168 -0.021012 0.001202 -0.006945 0.012324 0.012489
# 2 -0.021012 0.038340 -0.005311 0.010434 -0.008923 -0.005666
# 3 0.001202 -0.005311 0.008773 -0.005173 0.000588 0.002166
# 4 -0.006945 0.010434 -0.005173 0.028237 -0.001494 0.008548
# 5 0.012324 -0.008923 0.000588 -0.001494 0.032323 -0.000831
# 6 0.012489 -0.005666 0.002166 0.008548 -0.000831 0.042659
#
#
# Mechanical properties :
#
#
# Convention : Reuss Voigt Hill
#
# Bulk Modulus (GPa) = 29.37705 39.16898 34.27301
# Shear Modulus (GPa) = 20.07326 35.85450 27.96388
#
# Velocity S-wave (km/s) = 2.80267 3.74572 3.30798
# Velocity P-wave (km/s) = 4.68711 5.83393 5.29168
#
# Compressibility (1/GPa) = 0.03404018
#
# Stress axis : x y z
#
# Youngs Moduli (GPa) = 26.90511 26.08254 113.98022
#
# Poissons Ratio (x) = 0.54803 -0.13703
# Poissons Ratio (y) = 0.56532 0.60536
# Poissons Ratio (z) = -0.03235 0.13853
#
# Static dielectric constant tensor:
#      x y z
#    x 1.280240 0.317150 -1.263020 
#    y 0.317150 1.866250 0.679190 
#    z -1.263020 0.679190 0.044620 
# 
# From -- ./inp_files/168368.got.cif
#   From: 2010.05.17/outbox.cif.g08.bks.cpg/sg2_85_cif.got.tgz:168368.got - 2010.06.03 11:33:40.
