data_PCOD9105490
_publ_section_title
;
Structure prediction by ZEFSAII (Michael W. Deem and Ramdas Pophale) SiO2 
 PCOD9105490
Probable space group: P -1
;
_chemical_formula_sum "Si O2"
_cell_formula_units_Z 14
_cell_length_a 13.568902
_cell_length_b 12.946365
_cell_length_c 7.725241
_cell_angle_alpha 118.379725
_cell_angle_beta 136.824032
_cell_angle_gamma 40.447586
_cell_volume 592.633787
_symmetry_space_group_name_H-M "P -1"
_symmetry_group_IT_number 2
_symmetry_cell_setting 'triclinic'
loop_
_space_group_symop_operation_xyz
x,y,z
-x,-y,-z
loop_
_atom_site_type_symbol
_atom_site_label
_atom_site_fract_x
_atom_site_fract_y
_atom_site_fract_z
Si Si1 0.708573 0.196330 0.366399
Si Si2 0.787890 0.820793 0.751199
Si Si3 0.569793 0.664125 0.580728
Si Si4 0.478086 0.178686 0.791087
Si Si5 0.305102 0.191964 0.916334
Si Si6 0.924953 0.311033 0.690045
Si Si7 0.825075 0.017987 0.717096
O O1 0.529931 0.340727 0.379230
O O2 0.868062 0.207183 0.547383
O O3 0.799616 0.049536 0.502476
O O4 0.621098 0.196803 0.074961
O O5 0.681209 0.759879 0.515568
O O6 0.633431 0.984006 0.800275
O O7 0.827587 0.885368 0.689656
O O8 0.986719 0.698532 0.018550
O O9 0.723780 0.494958 0.549828
O O10 0.379902 0.808154 0.338090
O O11 0.663856 0.729245 0.831911
O O12 0.324297 0.249756 0.809281
O O13 0.097553 0.246308 0.726696
O O14 0.500000 0.000000 0.000000
O O15 0.000000 0.000000 0.000000
#
# Coordination Sequence:
#
# PCOD9105490 Si02
#       7
#     2   2   2   2   2   2   2
#     4   9  22  41  65  94 134 171 217 272 331 398
#     4  11  22  37  69  95 126 171 234 269 321 387
#     4   9  22  40  69  94 139 172 215 268 341 399
#     4  10  23  40  61  96 126 176 219 281 311 389
#     4  11  21  41  64  97 133 176 221 267 322 405
#     4  12  22  40  70 102 129 177 218 272 339 392
#     4  10  20  39  64  98 126 169 219 275 319 388
#
# _framework density 23.623358
#
# number of rings (size 3 to 8) (size 9 to 14) (size 15 to 20)
#    0.857    0.857    2.857    1.714    2.000    0.571 
#    5.143    2.857    0.000    2.571    0.000    0.000 
#    0.000    0.000    0.000    0.000    0.000    0.000 
#
# Total GULP energy -78089.503012 kJ/mol
# GULP energy per Si atom -5577.821644 kJ/mol
# Density = 2.356959 g / cm^3
# Si number density = 23.623358 Si / 1000 Ang^3
#
#
#
# Elastic Constant Matrix: (Units=GPa)
#
#
# Indices 1 2 3 4 5 6 
#
# 1 100.2680 10.2645 32.9495 9.0761 29.4951 -8.8387
# 2 10.2645 41.3299 2.3970 -10.5416 0.2291 -7.5404
# 3 32.9495 2.3970 155.4909 9.6916 21.6224 2.5144
# 4 9.0761 -10.5416 9.6916 27.2150 -6.9554 -0.3223
# 5 29.4951 0.2291 21.6224 -6.9554 46.5605 -4.4298
# 6 -8.8387 -7.5404 2.5144 -0.3223 -4.4298 26.4221
#
#
#
# Elastic Compliance Matrix: (Units=1/GPa)
#
#
# Indices 1 2 3 4 5 6 
#
# 1 0.014883 -0.005652 -0.001105 -0.009327 -0.010123 0.001660
# 2 -0.005652 0.031464 -0.001495 0.016606 0.007427 0.008678
# 3 -0.001105 -0.001495 0.007449 -0.003789 -0.003522 -0.002142
# 4 -0.009327 0.016606 -0.003789 0.051741 0.015816 0.005262
# 5 -0.010123 0.007427 -0.003522 0.015816 0.032297 0.004676
# 6 0.001660 0.008678 -0.002142 0.005262 0.004676 0.041931
#
#
# Mechanical properties :
#
#
# Convention : Reuss Voigt Hill
#
# Bulk Modulus (GPa) = 26.81584 43.14566 34.98075
# Shear Modulus (GPa) = 23.95796 36.80473 30.38134
#
# Velocity S-wave (km/s) = 3.18805 3.95141 3.59008
# Velocity P-wave (km/s) = 4.99275 6.25474 5.65904
#
# Compressibility (1/GPa) = 0.03729139
#
# Stress axis : x y z
#
# Youngs Moduli (GPa) = 67.18983 31.78277 134.24778
#
# Poissons Ratio (x) = 0.17965 0.14828
# Poissons Ratio (y) = 0.37978 0.20075
# Poissons Ratio (z) = 0.07421 0.04753
#
# Static dielectric constant tensor:
#      x y z
#    x 2.081520 0.022710 -0.078740 
#    y 0.022710 1.880200 -0.028670 
#    z -0.078740 -0.028670 1.910410 
# 
# From -- ./inp_files/314025.got.cif
#   From: 2010.05.17/outbox.cif.g08.bks.cpg/sg2_158_cif.got.tgz:314025.got - 2010.06.03 11:33:40.
