data_PCOD9105485
_publ_section_title
;
Structure prediction by ZEFSAII (Michael W. Deem and Ramdas Pophale) SiO2 
 PCOD9105485
Probable space group: P -1
;
_chemical_formula_sum "Si O2"
_cell_formula_units_Z 16
_cell_length_a 11.139201
_cell_length_b 13.027584
_cell_length_c 7.311565
_cell_angle_alpha 101.663769
_cell_angle_beta 44.811037
_cell_angle_gamma 80.409689
_cell_volume 654.308129
_symmetry_space_group_name_H-M "P -1"
_symmetry_group_IT_number 2
_symmetry_cell_setting 'triclinic'
loop_
_space_group_symop_operation_xyz
x,y,z
-x,-y,-z
loop_
_atom_site_type_symbol
_atom_site_label
_atom_site_fract_x
_atom_site_fract_y
_atom_site_fract_z
Si Si1 0.034655 0.564155 0.658497
Si Si2 0.516068 0.879285 0.023424
Si Si3 0.976555 0.883045 0.982851
Si Si4 0.617574 0.628261 0.628829
Si Si5 0.120713 0.887776 0.448215
Si Si6 0.684694 0.807506 0.205315
Si Si7 0.609922 0.269936 0.434658
Si Si8 0.329357 0.647949 0.210746
O O1 0.162014 0.465676 0.631794
O O2 0.167965 0.617133 0.446962
O O3 0.000000 0.500000 0.500000
O O4 0.842858 0.670642 0.981171
O O5 0.300952 0.906908 0.322983
O O6 0.642844 0.848138 0.056099
O O7 0.589600 0.757788 0.777856
O O8 0.500000 0.000000 0.000000
O O9 0.005743 0.865323 0.727059
O O10 0.161847 0.790884 0.858203
O O11 0.784455 0.874617 0.230285
O O12 0.000000 0.000000 0.000000
O O13 0.516066 0.638775 0.548388
O O14 0.515703 0.575863 0.863607
O O15 0.225785 0.755730 0.213940
O O16 0.000000 0.000000 0.500000
O O17 0.484289 0.820138 0.502542
O O18 0.589880 0.315504 0.681436
#
# Coordination Sequence:
#
# PCOD9105485 Si02
#       8
#     2   2   2   2   2   2   2   2
#     4  12  23  44  74 102 140 186 240 285 351 423
#     4  11  23  40  68 101 139 179 228 289 345 414
#     4  11  25  42  66  98 141 187 228 285 352 416
#     4  11  25  43  72 104 131 190 239 278 356 420
#     4  10  20  39  64  97 134 179 222 278 349 406
#     4  12  23  47  69  97 146 186 223 298 354 400
#     4  11  24  47  68 103 144 176 239 287 352 413
#     4  10  22  47  68  98 147 181 223 303 345 400
#
# _framework density 24.453313000000001
#
# number of rings (size 3 to 8) (size 9 to 14) (size 15 to 20)
#    0.000    1.000    7.500    1.125    5.250    2.500 
#    2.250    0.000    0.000    0.000    0.000    0.000 
#    0.000    0.000    0.000    0.000    0.000    0.000 
#
# Total GULP energy -89214.503032 kJ/mol
# GULP energy per Si atom -5575.906440 kJ/mol
# Density = 2.439766 g / cm^3
# Si number density = 24.453313 Si / 1000 Ang^3
#
#
#
# Elastic Constant Matrix: (Units=GPa)
#
#
# Indices 1 2 3 4 5 6 
#
# 1 140.2049 60.0637 29.4801 3.7408 -36.7449 -21.6296
# 2 60.0637 92.6976 8.4098 7.7580 -10.2005 -6.2512
# 3 29.4801 8.4098 31.6157 -5.0610 -24.2807 2.8232
# 4 3.7408 7.7580 -5.0610 46.8291 3.6640 -15.1124
# 5 -36.7449 -10.2005 -24.2807 3.6640 40.0719 -4.6931
# 6 -21.6296 -6.2512 2.8232 -15.1124 -4.6931 59.6669
#
#
#
# Elastic Compliance Matrix: (Units=1/GPa)
#
#
# Indices 1 2 3 4 5 6 
#
# 1 0.014782 -0.007788 -0.005163 0.000673 0.009046 0.005669
# 2 -0.007788 0.015514 0.000890 -0.002298 -0.002681 -0.002033
# 3 -0.005163 0.000890 0.061926 0.004050 0.032513 -0.001125
# 4 0.000673 -0.002298 0.004050 0.023964 0.000993 0.005959
# 5 0.009046 -0.002681 0.032513 0.000993 0.052865 0.005870
# 6 0.005669 -0.002033 -0.001125 0.005959 0.005870 0.020626
#
#
# Mechanical properties :
#
#
# Convention : Reuss Voigt Hill
#
# Bulk Modulus (GPa) = 14.68442 51.15839 32.92140
# Shear Modulus (GPa) = 21.14182 40.41789 30.77985
#
# Velocity S-wave (km/s) = 2.94356 4.06995 3.55169
# Velocity P-wave (km/s) = 4.19176 6.56142 5.50559
#
# Compressibility (1/GPa) = 0.06809941
#
# Stress axis : x y z
#
# Youngs Moduli (GPa) = 67.65088 64.45972 16.14834
#
# Poissons Ratio (x) = 0.50202 0.08337
# Poissons Ratio (y) = 0.52687 -0.01437
# Poissons Ratio (z) = 0.34926 -0.05737
#
# Static dielectric constant tensor:
#      x y z
#    x 1.756210 -0.135940 -0.207110 
#    y -0.135940 1.894470 -0.160050 
#    z -0.207110 -0.160050 1.765740 
# 
# From -- ./inp_files/273056.got.cif
#   From: 2010.05.17/outbox.cif.g08.bks.cpg/sg2_137_cif.got.tgz:273056.got - 2010.06.03 11:33:40.
