data_PCOD9105306
_publ_section_title
;
Structure prediction by ZEFSAII (Michael W. Deem and Ramdas Pophale) SiO2 
 PCOD9105306
Probable space group: P -1
;
_chemical_formula_sum "Si O2"
_cell_formula_units_Z 14
_cell_length_a 12.155987
_cell_length_b 19.819537
_cell_length_c 8.015774
_cell_angle_alpha 68.500733
_cell_angle_beta 131.169287
_cell_angle_gamma 148.321120
_cell_volume 665.507935
_symmetry_space_group_name_H-M "P -1"
_symmetry_group_IT_number 2
_symmetry_cell_setting 'triclinic'
loop_
_space_group_symop_operation_xyz
x,y,z
-x,-y,-z
loop_
_atom_site_type_symbol
_atom_site_label
_atom_site_fract_x
_atom_site_fract_y
_atom_site_fract_z
Si Si1 0.685634 0.923441 0.590704
Si Si2 0.740600 0.707110 0.739651
Si Si3 0.706383 0.831848 0.397528
Si Si4 0.652881 0.774609 0.908493
Si Si5 0.803334 0.425313 0.102808
Si Si6 0.695628 0.135865 0.951001
Si Si7 0.882344 0.566125 0.746651
O O1 0.589939 0.821698 0.452776
O O2 0.623138 0.847559 0.761590
O O3 0.507031 0.914742 0.349634
O O4 0.037713 0.093340 0.796518
O O5 0.771161 0.777692 0.555302
O O6 0.719067 0.746784 0.848943
O O7 0.425528 0.533378 0.539113
O O8 0.031781 0.784607 0.946036
O O9 0.473120 0.736901 0.106662
O O10 0.000000 0.000000 0.500000
O O11 0.342205 0.617727 0.827743
O O12 0.853711 0.514132 0.946838
O O13 0.057287 0.475396 0.282312
O O14 0.858991 0.264360 0.119996
O O15 0.500000 0.000000 0.000000
#
# Coordination Sequence:
#
# PCOD9105306 Si02
#       7
#     2   2   2   2   2   2   2
#     4  10  21  38  63  98 127 163 218 268 308 377
#     4  10  24  40  59  95 134 166 206 262 322 386
#     4  10  16  33  64  92 118 159 222 265 297 356
#     4  10  22  39  66  96 132 167 203 271 331 371
#     4  10  20  37  70  94 121 166 216 271 315 360
#     4  12  25  42  70  93 127 174 217 263 312 382
#     4  10  23  42  65  98 124 163 228 266 302 380
#
# _framework density 21.036563000000001
#
# number of rings (size 3 to 8) (size 9 to 14) (size 15 to 20)
#    0.000    1.714    2.857    1.286    4.000    1.143 
#    0.000    0.714    0.000    0.000    0.000    0.000 
#    0.000    0.000    0.000    0.000    0.000    0.000 
#
# Total GULP energy -77944.988519 kJ/mol
# GULP energy per Si atom -5567.499180 kJ/mol
# Density = 2.098868 g / cm^3
# Si number density = 21.036563 Si / 1000 Ang^3
#
#
#
# Elastic Constant Matrix: (Units=GPa)
#
#
# Indices 1 2 3 4 5 6 
#
# 1 82.9800 30.9112 36.9191 -7.7867 13.5394 7.9505
# 2 30.9112 101.0792 39.2976 17.6528 8.0068 1.1654
# 3 36.9191 39.2976 143.5729 -0.6799 24.7229 0.3437
# 4 -7.7867 17.6528 -0.6799 28.2127 -10.0658 -5.8376
# 5 13.5394 8.0068 24.7229 -10.0658 35.1640 6.3932
# 6 7.9505 1.1654 0.3437 -5.8376 6.3932 25.9775
#
#
#
# Elastic Compliance Matrix: (Units=1/GPa)
#
#
# Indices 1 2 3 4 5 6 
#
# 1 0.016092 -0.004958 -0.002603 0.006572 -0.000812 -0.002991
# 2 -0.004958 0.014610 -0.002254 -0.011862 -0.003042 -0.001025
# 3 -0.002603 -0.002254 0.009188 -0.000634 -0.005487 0.001984
# 4 0.006572 -0.011862 -0.000634 0.051026 0.014033 0.006542
# 5 -0.000812 -0.003042 -0.005487 0.014033 0.038379 -0.005834
# 6 -0.002991 -0.001025 0.001984 0.006542 -0.005834 0.042336
#
#
# Mechanical properties :
#
#
# Convention : Reuss Voigt Hill
#
# Bulk Modulus (GPa) = 49.35643 60.20973 54.78308
# Shear Modulus (GPa) = 25.25064 32.57114 28.91089
#
# Velocity S-wave (km/s) = 3.46832 3.93913 3.71120
# Velocity P-wave (km/s) = 6.28905 7.02656 6.66801
#
# Compressibility (1/GPa) = 0.02026079
#
# Stress axis : x y z
#
# Youngs Moduli (GPa) = 62.14295 68.44549 108.83312
#
# Poissons Ratio (x) = 0.33937 0.28327
# Poissons Ratio (y) = 0.30812 0.24529
# Poissons Ratio (z) = 0.16174 0.15427
#
# Static dielectric constant tensor:
#      x y z
#    x 1.764670 0.026480 0.057940 
#    y 0.026480 1.797500 0.018610 
#    z 0.057940 0.018610 1.793560 
# 
# From -- ./inp_files/154987.got.cif
#   From: 2010.05.17/outbox.cif.g08.bks.cpg/sg2_78_cif.got.tgz:154987.got - 2010.06.03 11:33:40.
