data_PCOD9105560
_publ_section_title
;
Structure prediction by ZEFSAII (Michael W. Deem and Ramdas Pophale) SiO2 
 PCOD9105560
Probable space group: P -1
;
_chemical_formula_sum "Si O2"
_cell_formula_units_Z 14
_cell_length_a 13.811337
_cell_length_b 18.369554
_cell_length_c 7.255675
_cell_angle_alpha 60.282578
_cell_angle_beta 71.684580
_cell_angle_gamma 23.905460
_cell_volume 595.215861
_symmetry_space_group_name_H-M "P -1"
_symmetry_group_IT_number 2
_symmetry_cell_setting 'triclinic'
loop_
_space_group_symop_operation_xyz
x,y,z
-x,-y,-z
loop_
_atom_site_type_symbol
_atom_site_label
_atom_site_fract_x
_atom_site_fract_y
_atom_site_fract_z
Si Si1 0.106963 0.448695 0.198133
Si Si2 0.341722 0.004599 0.622544
Si Si3 0.095418 0.009447 0.688788
Si Si4 0.123802 0.615073 0.819702
Si Si5 0.544263 0.870566 0.090308
Si Si6 0.334116 0.762079 0.196208
Si Si7 0.840660 0.972693 0.745200
O O1 0.380282 0.199298 0.389221
O O2 0.850565 0.624740 0.245612
O O3 0.000000 0.500000 0.000000
O O4 0.168713 0.500924 0.066563
O O5 0.208006 0.014127 0.676279
O O6 0.126376 0.218239 0.368342
O O7 0.423423 0.954090 0.849941
O O8 0.170620 0.950009 0.506063
O O9 0.239886 0.833596 0.951347
O O10 0.791298 0.222929 0.645035
O O11 0.360114 0.453609 0.739592
O O12 0.069681 0.737268 0.829229
O O13 0.391306 0.918474 0.240547
O O14 0.500000 0.000000 0.000000
O O15 0.195888 0.945620 0.151065
#
# Coordination Sequence:
#
# PCOD9105560 Si02
#       7
#     2   2   2   2   2   2   2
#     4  10  20  39  65  88 132 175 218 283 328 383
#     4  10  22  42  67  96 133 178 227 275 337 406
#     4  10  22  42  73  99 134 180 223 279 345 399
#     4  11  23  43  70  98 136 180 227 276 340 407
#     4  11  21  40  63  93 136 175 223 281 333 393
#     4  11  22  46  71  98 143 175 217 291 339 397
#     4  11  23  43  67 103 133 174 234 274 330 419
#
# _framework density 23.520879999999998
#
# number of rings (size 3 to 8) (size 9 to 14) (size 15 to 20)
#    0.000    1.429    4.286    1.286    0.000    4.571 
#    7.714    5.714    0.000    0.000    0.000    0.000 
#    0.000    0.000    0.000    0.000    0.000    0.000 
#
# Total GULP energy -78057.832974 kJ/mol
# GULP energy per Si atom -5575.559498 kJ/mol
# Density = 2.346735 g / cm^3
# Si number density = 23.520880 Si / 1000 Ang^3
#
#
#
# Elastic Constant Matrix: (Units=GPa)
#
#
# Indices 1 2 3 4 5 6 
#
# 1 108.0311 39.8938 -11.5758 -7.7901 0.2452 -14.8932
# 2 39.8938 149.6188 35.8518 -4.2324 1.4649 -29.6573
# 3 -11.5758 35.8518 64.3752 -6.6610 3.6013 -10.9541
# 4 -7.7901 -4.2324 -6.6610 37.6117 -14.2964 -0.6834
# 5 0.2452 1.4649 3.6013 -14.2964 22.6851 8.7591
# 6 -14.8932 -29.6573 -10.9541 -0.6834 8.7591 45.7387
#
#
#
# Elastic Compliance Matrix: (Units=1/GPa)
#
#
# Indices 1 2 3 4 5 6 
#
# 1 0.011726 -0.003707 0.004913 0.003018 0.000234 0.002592
# 2 -0.003707 0.009797 -0.005417 -0.001408 -0.002265 0.004261
# 3 0.004913 -0.005417 0.020487 0.003243 -0.002253 0.003474
# 4 0.003018 -0.001408 0.003243 0.036640 0.023861 -0.003176
# 5 0.000234 -0.002265 -0.002253 0.023861 0.065038 -0.014031
# 6 0.002592 0.004261 0.003474 -0.003176 -0.014031 0.028941
#
#
# Mechanical properties :
#
#
# Convention : Reuss Voigt Hill
#
# Bulk Modulus (GPa) = 29.77154 50.04052 39.90603
# Shear Modulus (GPa) = 26.00806 38.39745 32.20276
#
# Velocity S-wave (km/s) = 3.32888 4.04478 3.70417
# Velocity P-wave (km/s) = 5.24025 6.56771 5.94117
#
# Compressibility (1/GPa) = 0.03358913
#
# Stress axis : x y z
#
# Youngs Moduli (GPa) = 85.27733 102.07156 48.81164
#
# Poissons Ratio (x) = 0.37841 -0.23983
# Poissons Ratio (y) = 0.31615 0.26440
# Poissons Ratio (z) = -0.41900 0.55290
#
# Static dielectric constant tensor:
#      x y z
#    x 1.966980 -0.022590 -0.044170 
#    y -0.022590 2.030040 0.012020 
#    z -0.044170 0.012020 1.970300 
# 
# From -- ./inp_files/318277.got.cif
#   From: 2010.05.17/outbox.cif.g08.bks.cpg/sg2_160_cif.got.tgz:318277.got - 2010.06.03 11:33:40.
