data_PCOD9105735
_publ_section_title
;
Structure prediction by ZEFSAII (Michael W. Deem and Ramdas Pophale) SiO2 
 PCOD9105735
Probable space group: P -1
;
_chemical_formula_sum "Si O2"
_cell_formula_units_Z 15
_cell_length_a 7.602459
_cell_length_b 14.687227
_cell_length_c 7.391802
_cell_angle_alpha 66.610620
_cell_angle_beta 73.487185
_cell_angle_gamma 54.716927
_cell_volume 616.722129
_symmetry_space_group_name_H-M "P -1"
_symmetry_group_IT_number 2
_symmetry_cell_setting 'triclinic'
loop_
_space_group_symop_operation_xyz
x,y,z
-x,-y,-z
loop_
_atom_site_type_symbol
_atom_site_label
_atom_site_fract_x
_atom_site_fract_y
_atom_site_fract_z
Si Si1 0.000000 0.000000 0.000000
Si Si2 0.853055 0.443456 0.568752
Si Si3 0.508709 0.617248 0.803852
Si Si4 0.558418 0.832973 0.515247
Si Si5 0.778214 0.538892 0.138090
Si Si6 0.772406 0.749955 0.161483
Si Si7 0.854737 0.922479 0.444375
Si Si8 0.953824 0.182633 0.169981
O O1 0.071778 0.892646 0.916147
O O2 0.956597 0.927591 0.224195
O O3 0.634559 0.525360 0.679009
O O4 0.808078 0.451532 0.361217
O O5 0.000000 0.500000 0.500000
O O6 0.007792 0.323162 0.724006
O O7 0.560392 0.719345 0.668854
O O8 0.252164 0.688015 0.846985
O O9 0.613599 0.560640 0.010223
O O10 0.582123 0.830221 0.292551
O O11 0.760063 0.838385 0.524382
O O12 0.348825 0.950006 0.550751
O O13 0.717559 0.660639 0.156084
O O14 0.000000 0.500000 0.000000
O O15 0.832821 0.815194 0.946263
O O16 0.016252 0.877966 0.598703
#
# Coordination Sequence:
#
# PCOD9105735 Si02
#       8
#     1   2   2   2   2   2   2   2
#     4  12  24  46  66  96 138 172 220 276 338 390
#     4  10  20  39  65  96 133 165 225 270 313 395
#     4  12  23  41  66 101 133 175 221 266 338 395
#     4  11  22  44  71 100 127 177 231 272 321 399
#     4  11  20  39  70  94 130 178 217 274 319 385
#     4  11  22  44  70  99 136 174 224 276 330 394
#     4  11  26  47  69  97 136 173 226 282 327 397
#     4  12  28  44  67  99 140 177 212 283 341 396
#
# _framework density 24.322136
#
# number of rings (size 3 to 8) (size 9 to 14) (size 15 to 20)
#    0.000    0.800    8.000    1.200    0.000    3.200 
#    0.000    0.667    0.000    0.000    0.000    0.000 
#    0.000    0.000    0.000    0.000    0.000    0.000 
#
# Total GULP energy -83750.233708 kJ/mol
# GULP energy per Si atom -5583.348914 kJ/mol
# Density = 2.426678 g / cm^3
# Si number density = 24.322136 Si / 1000 Ang^3
#
#
#
# Elastic Constant Matrix: (Units=GPa)
#
#
# Indices 1 2 3 4 5 6 
#
# 1 38.2962 11.8360 51.4161 7.0127 -4.7556 -2.1132
# 2 11.8360 69.3900 25.8986 19.9629 6.4293 3.5176
# 3 51.4161 25.8986 166.2378 26.0708 -3.9105 -16.3485
# 4 7.0127 19.9629 26.0708 50.3522 9.1639 -3.8362
# 5 -4.7556 6.4293 -3.9105 9.1639 42.1577 -11.8342
# 6 -2.1132 3.5176 -16.3485 -3.8362 -11.8342 28.2357
#
#
#
# Elastic Compliance Matrix: (Units=1/GPa)
#
#
# Indices 1 2 3 4 5 6 
#
# 1 0.046142 -0.003121 -0.014197 0.001350 0.003279 -0.002820
# 2 -0.003121 0.017742 -0.001559 -0.005570 -0.003563 -0.005597
# 3 -0.014197 -0.001559 0.011893 -0.003489 0.002328 0.006519
# 4 0.001350 -0.005570 -0.003489 0.024539 -0.004606 0.000178
# 5 0.003279 -0.003563 0.002328 -0.004606 0.029747 0.013879
# 6 -0.002820 -0.005597 0.006519 0.000178 0.013879 0.045518
#
#
# Mechanical properties :
#
#
# Convention : Reuss Voigt Hill
#
# Bulk Modulus (GPa) = 26.30096 50.24727 38.27411
# Shear Modulus (GPa) = 22.12297 36.46734 29.29516
#
# Velocity S-wave (km/s) = 3.01920 3.87634 3.47431
# Velocity P-wave (km/s) = 4.79491 6.38268 5.64490
#
# Compressibility (1/GPa) = 0.03802143
#
# Stress axis : x y z
#
# Youngs Moduli (GPa) = 21.67215 56.36356 84.08610
#
# Poissons Ratio (x) = 0.17591 1.19379
# Poissons Ratio (y) = 0.06764 0.13113
# Poissons Ratio (z) = 0.30768 0.08790
#
# Static dielectric constant tensor:
#      x y z
#    x 1.969950 0.021790 0.029470 
#    y 0.021790 1.954400 -0.052980 
#    z 0.029470 -0.052980 1.946620 
# 
# From -- ./inp_files/43590.got.cif
#   From: 2010.05.17/outbox.cif.g08.bks.cpg/sg2_22_cif.got.tgz:43590.got - 2010.06.03 11:33:40.
