data_PCOD9105052
_publ_section_title
;
Structure prediction by ZEFSAII (Michael W. Deem and Ramdas Pophale) SiO2 
 PCOD9105052
Probable space group: P -1
;
_chemical_formula_sum "Si O2"
_cell_formula_units_Z 14
_cell_length_a 10.254020
_cell_length_b 8.616804
_cell_length_c 18.016980
_cell_angle_alpha 22.915139
_cell_angle_beta 55.676572
_cell_angle_gamma 62.746185
_cell_volume 502.480383
_symmetry_space_group_name_H-M "P -1"
_symmetry_group_IT_number 2
_symmetry_cell_setting 'triclinic'
loop_
_space_group_symop_operation_xyz
x,y,z
-x,-y,-z
loop_
_atom_site_type_symbol
_atom_site_label
_atom_site_fract_x
_atom_site_fract_y
_atom_site_fract_z
Si Si1 0.486228 0.355810 0.451173
Si Si2 0.758511 0.484952 0.428396
Si Si3 0.911041 0.405562 0.784523
Si Si4 0.875371 0.744996 0.895952
Si Si5 0.106898 0.959109 0.607706
Si Si6 0.369227 0.520885 0.795271
Si Si7 0.313220 0.464737 0.093557
O O1 0.628142 0.514976 0.393296
O O2 0.318695 0.406902 0.518117
O O3 0.516055 0.567877 0.268085
O O4 0.471729 0.872344 0.657786
O O5 0.937054 0.733130 0.243546
O O6 0.752244 0.998641 0.652112
O O7 0.013981 0.633634 0.721081
O O8 0.748395 0.246906 0.952590
O O9 0.849177 0.658769 0.627318
O O10 0.747686 0.807097 0.972955
O O11 0.765971 0.484271 0.982876
O O12 0.000000 0.500000 0.000000
O O13 0.991810 0.056195 0.668299
O O14 0.245679 0.756359 0.687151
O O15 0.500000 0.500000 0.000000
#
# Coordination Sequence:
#
# PCOD9105052 Si02
#       7
#     2   2   2   2   2   2   2
#     4  10  22  32  57  81 113 147 189 234 273 332
#     4  11  19  37  57  83 111 148 189 230 278 326
#     4  10  16  33  60  79 107 144 186 226 276 331
#     4   9  18  30  55  79 110 142 185 223 276 338
#     4   9  15  30  57  79  96 146 188 221 268 341
#     4  10  18  35  51  82 110 149 183 227 280 330
#     4  11  20  33  60  88 109 142 190 234 271 336
#
# _framework density 27.861785000000001
#
# number of rings (size 3 to 8) (size 9 to 14) (size 15 to 20)
#    0.000    2.000    5.714    0.857    0.000    1.143 
#    0.000    1.429    9.429    3.429    0.000    0.000 
#    0.000    0.000    0.000    0.000    0.000    0.000 
#
# Total GULP energy -78217.629833 kJ/mol
# GULP energy per Si atom -5586.973560 kJ/mol
# Density = 2.779837 g / cm^3
# Si number density = 27.861785 Si / 1000 Ang^3
#
#
#
# Elastic Constant Matrix: (Units=GPa)
#
#
# Indices 1 2 3 4 5 6 
#
# 1 127.6476 30.0822 47.2496 18.6492 -2.3269 -21.1329
# 2 30.0822 116.6693 75.0540 53.4910 -22.8835 -15.5614
# 3 47.2496 75.0540 173.5346 61.8801 -3.1655 -4.1991
# 4 18.6492 53.4910 61.8801 70.0214 -6.1287 -19.2015
# 5 -2.3269 -22.8835 -3.1655 -6.1287 44.3874 7.6244
# 6 -21.1329 -15.5614 -4.1991 -19.2015 7.6244 40.9356
#
#
#
# Elastic Compliance Matrix: (Units=1/GPa)
#
#
# Indices 1 2 3 4 5 6 
#
# 1 0.009721 -0.001155 -0.002820 0.002213 -0.000926 0.005500
# 2 -0.001155 0.016465 -0.003688 -0.008386 0.006999 0.000048
# 3 -0.002820 -0.003688 0.010560 -0.007234 -0.001454 -0.004897
# 4 0.002213 -0.008386 -0.007234 0.029414 -0.002637 0.011501
# 5 -0.000926 0.006999 -0.001454 -0.002637 0.026326 -0.004107
# 6 0.005500 0.000048 -0.004897 0.011501 -0.004107 0.032943
#
#
# Mechanical properties :
#
#
# Convention : Reuss Voigt Hill
#
# Bulk Modulus (GPa) = 46.68346 80.29146 63.48746
# Shear Modulus (GPa) = 33.80788 48.76660 41.28724
#
# Velocity S-wave (km/s) = 3.48719 4.18820 3.85367
# Velocity P-wave (km/s) = 5.74506 7.22969 6.52971
#
# Compressibility (1/GPa) = 0.02142086
#
# Stress axis : x y z
#
# Youngs Moduli (GPa) = 102.87511 60.73395 94.69852
#
# Poissons Ratio (x) = 0.07012 0.26706
# Poissons Ratio (y) = 0.11878 0.34922
# Poissons Ratio (z) = 0.29012 0.22397
#
# Static dielectric constant tensor:
#      x y z
#    x 2.158980 -0.000410 -0.086820 
#    y -0.000410 2.299700 -0.006610 
#    z -0.086820 -0.006610 2.194410 
# 
# From -- ./inp_files/512612.got.cif
#   From: 2010.05.17/outbox.cif.g08.bks.cpg/sg2_257_cif.got.tgz:512612.got - 2010.06.03 11:33:40.
