data_PCOD9105697
_publ_section_title
;
Structure prediction by ZEFSAII (Michael W. Deem and Ramdas Pophale) SiO2 
 PCOD9105697
Probable space group: P -1
;
_chemical_formula_sum "Si O2"
_cell_formula_units_Z 15
_cell_length_a 13.752281
_cell_length_b 21.409589
_cell_length_c 8.772514
_cell_angle_alpha 151.109915
_cell_angle_beta 29.208814
_cell_angle_gamma 147.302902
_cell_volume 575.278827
_symmetry_space_group_name_H-M "P -1"
_symmetry_group_IT_number 2
_symmetry_cell_setting 'triclinic'
loop_
_space_group_symop_operation_xyz
x,y,z
-x,-y,-z
loop_
_atom_site_type_symbol
_atom_site_label
_atom_site_fract_x
_atom_site_fract_y
_atom_site_fract_z
Si Si1 0.947939 0.132793 0.064296
Si Si2 0.163970 0.793059 0.168495
Si Si3 0.237121 0.155269 0.290324
Si Si4 0.680224 0.347174 0.610156
Si Si5 0.704572 0.895218 0.248819
Si Si6 0.874923 0.597355 0.707669
Si Si7 0.692998 0.288075 0.913299
Si Si8 0.000000 0.500000 0.000000
O O1 0.758501 0.186297 0.494745
O O2 0.113944 0.245119 0.973990
O O3 0.084775 0.115688 0.984615
O O4 0.847294 0.987800 0.813046
O O5 0.128098 0.694070 0.156546
O O6 0.946029 0.782791 0.362160
O O7 0.286561 0.951065 0.385913
O O8 0.293539 0.740499 0.758463
O O9 0.284090 0.109711 0.957821
O O10 0.470964 0.242915 0.200968
O O11 0.483714 0.241627 0.739320
O O12 0.691442 0.492271 0.831921
O O13 0.897838 0.385865 0.490112
O O14 0.884916 0.555140 0.428095
O O15 0.770653 0.444650 0.098053
#
# Coordination Sequence:
#
# PCOD9105697 Si02
#       8
#     2   2   2   2   2   2   2   1
#     4  10  20  39  65  95 126 161 222 271 304 376
#     4  11  22  42  61  96 132 164 215 266 313 391
#     4  11  22  39  68 101 124 168 223 262 321 374
#     4  11  24  43  61  92 138 172 207 260 341 377
#     4  11  21  39  65  97 130 170 211 267 325 382
#     4  10  23  41  65  89 129 176 212 268 312 389
#     4  11  20  37  67  92 127 163 209 277 309 362
#     4  10  20  40  66  96 116 168 234 248 310 382
#
# _framework density 26.074314000000001
#
# number of rings (size 3 to 8) (size 9 to 14) (size 15 to 20)
#    0.000    1.333    4.000    3.200    1.867    0.533 
#    2.400    7.333    0.000    0.000    0.000    0.000 
#    0.000    0.000    0.000    0.000    0.000    0.000 
#
# Total GULP energy -83591.190146 kJ/mol
# GULP energy per Si atom -5572.746010 kJ/mol
# Density = 2.601497 g / cm^3
# Si number density = 26.074314 Si / 1000 Ang^3
#
#
#
# Elastic Constant Matrix: (Units=GPa)
#
#
# Indices 1 2 3 4 5 6 
#
# 1 58.8686 8.4287 -0.0287 0.8684 2.9556 0.2108
# 2 8.4287 189.0741 35.8378 -8.1105 -6.9718 -9.5776
# 3 -0.0287 35.8378 32.1337 -2.1005 8.0618 0.2806
# 4 0.8684 -8.1105 -2.1005 27.3410 -2.0585 -0.9122
# 5 2.9556 -6.9718 8.0618 -2.0585 32.8841 -8.1491
# 6 0.2108 -9.5776 0.2806 -0.9122 -8.1491 38.4210
#
#
#
# Elastic Compliance Matrix: (Units=1/GPa)
#
#
# Indices 1 2 3 4 5 6 
#
# 1 0.017342 -0.001385 0.002182 -0.001033 -0.002714 -0.001056
# 2 -0.001385 0.007602 -0.009624 0.002038 0.004986 0.003079
# 3 0.002182 -0.009624 0.045605 -0.000743 -0.014933 -0.005929
# 4 -0.001033 0.002038 -0.000743 0.037498 0.003592 0.002171
# 5 -0.002714 0.004986 -0.014933 0.003592 0.037951 0.009502
# 6 -0.001056 0.003079 -0.005929 0.002171 0.009502 0.028911
#
#
# Mechanical properties :
#
#
# Convention : Reuss Voigt Hill
#
# Bulk Modulus (GPa) = 18.90519 40.95020 29.92769
# Shear Modulus (GPa) = 23.78744 35.45180 29.61962
#
# Velocity S-wave (km/s) = 3.02370 3.69134 3.37407
# Velocity P-wave (km/s) = 4.41096 5.82299 5.16545
#
# Compressibility (1/GPa) = 0.05289553
#
# Stress axis : x y z
#
# Youngs Moduli (GPa) = 57.66491 131.54234 21.92724
#
# Poissons Ratio (x) = 0.18213 -0.04785
# Poissons Ratio (y) = 0.07984 0.21103
# Poissons Ratio (z) = -0.12583 1.26600
#
# Static dielectric constant tensor:
#      x y z
#    x 2.035730 0.579880 0.161690 
#    y 0.579880 -2.564150 -0.963710 
#    z 0.161690 -0.963710 1.867440 
# 
# From -- ./inp_files/320231.got.cif
#   From: 2010.05.17/outbox.cif.g08.bks.cpg/sg2_161_cif.got.tgz:320231.got - 2010.06.03 11:33:40.
