data_PCOD9105217
_publ_section_title
;
Structure prediction by ZEFSAII (Michael W. Deem and Ramdas Pophale) SiO2 
 PCOD9105217
Probable space group: P -1
;
_chemical_formula_sum "Si O2"
_cell_formula_units_Z 15
_cell_length_a 5.938506
_cell_length_b 12.480757
_cell_length_c 11.204997
_cell_angle_alpha 134.517390
_cell_angle_beta 89.075654
_cell_angle_gamma 89.631663
_cell_volume 591.904110
_symmetry_space_group_name_H-M "P -1"
_symmetry_group_IT_number 2
_symmetry_cell_setting 'triclinic'
loop_
_space_group_symop_operation_xyz
x,y,z
-x,-y,-z
loop_
_atom_site_type_symbol
_atom_site_label
_atom_site_fract_x
_atom_site_fract_y
_atom_site_fract_z
Si Si1 0.907522 0.589692 0.922780
Si Si2 0.858362 0.885885 0.789148
Si Si3 0.248814 0.646903 0.653893
Si Si4 0.769598 0.145339 0.837643
Si Si5 0.210511 0.323596 0.756730
Si Si6 0.612299 0.640701 0.457277
Si Si7 0.608341 0.802900 0.942552
Si Si8 0.000000 0.000000 0.500000
O O1 0.757594 0.615775 0.063304
O O2 0.131193 0.689097 0.020892
O O3 0.779551 0.671015 0.880019
O O4 0.992788 0.418999 0.782895
O O5 0.698474 0.798128 0.629873
O O6 0.730137 0.914658 0.937596
O O7 0.052904 0.765904 0.723385
O O8 0.923078 0.034927 0.835415
O O9 0.379073 0.612441 0.502880
O O10 0.213123 0.488166 0.594957
O O11 0.420889 0.726250 0.803513
O O12 0.523695 0.134786 0.891726
O O13 0.811544 0.083560 0.657796
O O14 0.397937 0.356131 0.681946
O O15 0.153694 0.150075 0.624883
#
# Coordination Sequence:
#
# PCOD9105217 Si02
#       8
#     2   2   2   2   2   2   2   1
#     4  10  24  42  67  94 132 172 221 266 322 383
#     4  11  22  39  66  95 132 173 215 272 329 376
#     4  10  23  39  63 101 132 170 219 267 324 395
#     4  11  23  43  64  98 130 175 218 267 323 391
#     4  10  20  44  69  94 129 174 217 271 321 391
#     4  10  20  39  63  97 133 168 214 270 331 387
#     4  11  23  41  65  96 133 174 219 269 318 392
#     4  10  22  44  66  94 132 166 216 270 322 382
#
# _framework density 25.341943000000001
#
# number of rings (size 3 to 8) (size 9 to 14) (size 15 to 20)
#    0.000    1.600    1.333    3.200    0.000    6.400 
#    2.400   10.667    0.000    0.000    0.000    0.000 
#    0.000    0.000    0.000    0.000    0.000    0.000 
#
# Total GULP energy -83715.956627 kJ/mol
# GULP energy per Si atom -5581.063775 kJ/mol
# Density = 2.528426 g / cm^3
# Si number density = 25.341943 Si / 1000 Ang^3
#
#
#
# Elastic Constant Matrix: (Units=GPa)
#
#
# Indices 1 2 3 4 5 6 
#
# 1 27.5875 5.6812 16.4162 0.8148 -13.8596 -7.5449
# 2 5.6812 84.2456 3.5985 -9.7365 -6.1705 11.0987
# 3 16.4162 3.5985 80.8206 -2.2698 -18.7949 11.6064
# 4 0.8148 -9.7365 -2.2698 48.5143 14.6759 -15.2751
# 5 -13.8596 -6.1705 -18.7949 14.6759 39.3351 -4.0398
# 6 -7.5449 11.0987 11.6064 -15.2751 -4.0398 34.7521
#
#
#
# Elastic Compliance Matrix: (Units=1/GPa)
#
#
# Indices 1 2 3 4 5 6 
#
# 1 0.056885 -0.004791 -0.010086 -0.001719 0.017011 0.018471
# 2 -0.004791 0.012939 0.001140 0.001160 -0.000065 -0.005051
# 3 -0.010086 0.001140 0.016691 -0.003095 0.004838 -0.008926
# 4 -0.001719 0.001160 -0.003095 0.027575 -0.011048 0.011126
# 5 0.017011 -0.000065 0.004838 -0.011048 0.038010 0.001661
# 6 0.018471 -0.005051 -0.008926 0.011126 0.001661 0.042463
#
#
# Mechanical properties :
#
#
# Convention : Reuss Voigt Hill
#
# Bulk Modulus (GPa) = 16.93762 27.11618 22.02690
# Shear Modulus (GPa) = 20.68523 35.65081 28.16802
#
# Velocity S-wave (km/s) = 2.86010 3.75479 3.33756
# Velocity P-wave (km/s) = 4.19583 5.43335 4.85419
#
# Compressibility (1/GPa) = 0.05904017
#
# Stress axis : x y z
#
# Youngs Moduli (GPa) = 17.57928 77.28462 59.91230
#
# Poissons Ratio (x) = 0.37030 0.60428
# Poissons Ratio (y) = 0.08423 -0.06829
# Poissons Ratio (z) = 0.17731 -0.08809
#
# Static dielectric constant tensor:
#      x y z
#    x 2.040710 -0.002290 0.000500 
#    y -0.002290 1.976730 -0.018270 
#    z 0.000500 -0.018270 2.005120 
# 
# From -- ./inp_files/365382.got.cif
#   From: 2010.05.17/outbox.cif.g08.bks.cpg/sg2_183_cif.got.tgz:365382.got - 2010.06.03 11:33:40.
