data_PCOD9105436
_publ_section_title
;
Structure prediction by ZEFSAII (Michael W. Deem and Ramdas Pophale) SiO2 
 PCOD9105436
Probable space group: P -1
;
_chemical_formula_sum "Si O2"
_cell_formula_units_Z 16
_cell_length_a 17.120273
_cell_length_b 14.942796
_cell_length_c 6.350093
_cell_angle_alpha 48.208550
_cell_angle_beta 114.685832
_cell_angle_gamma 144.383761
_cell_volume 675.911698
_symmetry_space_group_name_H-M "P -1"
_symmetry_group_IT_number 2
_symmetry_cell_setting 'triclinic'
loop_
_space_group_symop_operation_xyz
x,y,z
-x,-y,-z
loop_
_atom_site_type_symbol
_atom_site_label
_atom_site_fract_x
_atom_site_fract_y
_atom_site_fract_z
Si Si1 0.403199 0.298232 0.083602
Si Si2 0.212481 0.644010 0.254384
Si Si3 0.804086 0.735766 0.194603
Si Si4 0.405264 0.961934 0.283545
Si Si5 0.763683 0.110489 0.421683
Si Si6 0.844070 0.591303 0.097560
Si Si7 0.033326 0.261396 0.414008
Si Si8 0.407188 0.616571 0.168120
O O1 0.359248 0.120654 0.411784
O O2 0.500000 0.500000 0.000000
O O3 0.255200 0.200227 0.026692
O O4 0.490069 0.359175 0.879169
O O5 0.358295 0.824980 0.256219
O O6 0.132681 0.504286 0.591904
O O7 0.166473 0.490025 0.281175
O O8 0.202220 0.753491 0.933118
O O9 0.828900 0.684031 0.096389
O O10 0.937288 0.842276 0.317668
O O11 0.675930 0.543657 0.494028
O O12 0.281126 0.878284 0.424307
O O13 0.500000 0.000000 0.500000
O O14 0.496176 0.171229 0.970071
O O15 0.904429 0.189224 0.478160
O O16 0.967485 0.739110 0.837063
O O17 0.700908 0.446766 0.027278
#
# Coordination Sequence:
#
# PCOD9105436 Si02
#       8
#     2   2   2   2   2   2   2   2
#     4  11  23  43  67  95 133 167 221 273 332 391
#     4  11  23  40  69  91 135 177 207 264 333 375
#     4  10  22  40  72  89 125 182 211 273 332 371
#     4  11  24  39  63 100 136 166 218 262 324 404
#     4  11  27  43  62 100 134 172 219 274 314 396
#     4  10  20  39  64  95 125 175 215 265 316 394
#     4  10  24  44  65  95 132 170 228 263 325 387
#     4  10  21  39  63  97 131 164 216 266 327 394
#
# _framework density 23.67173
#
# number of rings (size 3 to 8) (size 9 to 14) (size 15 to 20)
#    0.000    1.500    2.500    1.500    5.250    4.000 
#    0.000    0.625    0.000    0.000    0.000    0.000 
#    0.000    0.000    0.000    0.000    0.000    0.000 
#
# Total GULP energy -89200.476330 kJ/mol
# GULP energy per Si atom -5575.029771 kJ/mol
# Density = 2.361785 g / cm^3
# Si number density = 23.671730 Si / 1000 Ang^3
#
#
#
# Elastic Constant Matrix: (Units=GPa)
#
#
# Indices 1 2 3 4 5 6 
#
# 1 130.7076 20.7332 33.5741 -4.6036 -11.7102 9.9494
# 2 20.7332 71.1589 18.3334 0.0355 -0.2089 -17.6142
# 3 33.5741 18.3334 119.6853 5.5248 20.5323 -11.8688
# 4 -4.6036 0.0355 5.5248 19.3964 -7.2555 7.3580
# 5 -11.7102 -0.2089 20.5323 -7.2555 38.4426 0.1726
# 6 9.9494 -17.6142 -11.8688 7.3580 0.1726 34.1563
#
#
#
# Elastic Compliance Matrix: (Units=1/GPa)
#
#
# Indices 1 2 3 4 5 6 
#
# 1 0.011824 -0.004506 -0.005711 0.011674 0.008877 -0.010312
# 2 -0.004506 0.018315 0.000530 -0.007094 -0.002951 0.012485
# 3 -0.005711 0.000530 0.013362 -0.012995 -0.011368 0.009437
# 4 0.011674 -0.007094 -0.012995 0.078379 0.025379 -0.028587
# 5 0.008877 -0.002951 -0.011368 0.025379 0.039624 -0.013726
# 6 -0.010312 0.012485 0.009437 -0.028587 -0.013726 0.048226
#
#
# Mechanical properties :
#
#
# Convention : Reuss Voigt Hill
#
# Bulk Modulus (GPa) = 41.44662 51.87034 46.65848
# Shear Modulus (GPa) = 21.08416 34.99313 28.03865
#
# Velocity S-wave (km/s) = 2.98768 3.84899 3.44536
# Velocity P-wave (km/s) = 5.42665 6.45856 5.96496
#
# Compressibility (1/GPa) = 0.02412742
#
# Stress axis : x y z
#
# Youngs Moduli (GPa) = 84.57582 54.60148 74.83930
#
# Poissons Ratio (x) = 0.24603 0.42740
# Poissons Ratio (y) = 0.38110 -0.03970
# Poissons Ratio (z) = 0.48300 -0.02896
#
# Static dielectric constant tensor:
#      x y z
#    x 1.900040 0.047140 0.011820 
#    y 0.047140 1.935340 -0.051460 
#    z 0.011820 -0.051460 1.967350 
# 
# From -- ./inp_files/110656.got.cif
#   From: 2010.05.17/outbox.cif.g08.bks.cpg/sg2_56_cif.got.tgz:110656.got - 2010.06.03 11:33:40.
