data_PCOD9105481
_publ_section_title
;
Structure prediction by ZEFSAII (Michael W. Deem and Ramdas Pophale) SiO2 
 PCOD9105481
Probable space group: P -1
;
_chemical_formula_sum "Si O2"
_cell_formula_units_Z 16
_cell_length_a 9.286358
_cell_length_b 13.072128
_cell_length_c 14.620216
_cell_angle_alpha 152.287888
_cell_angle_beta 107.220354
_cell_angle_gamma 89.821556
_cell_volume 640.475556
_symmetry_space_group_name_H-M "P -1"
_symmetry_group_IT_number 2
_symmetry_cell_setting 'triclinic'
loop_
_space_group_symop_operation_xyz
x,y,z
-x,-y,-z
loop_
_atom_site_type_symbol
_atom_site_label
_atom_site_fract_x
_atom_site_fract_y
_atom_site_fract_z
Si Si1 0.829458 0.170922 0.138698
Si Si2 0.444254 0.247278 0.870069
Si Si3 0.288498 0.017984 0.840209
Si Si4 0.083502 0.443718 0.696055
Si Si5 0.740454 0.833211 0.397426
Si Si6 0.272706 0.869817 0.211919
Si Si7 0.460765 0.558734 0.388061
Si Si8 0.748895 0.609224 0.607503
O O1 0.193083 0.654366 0.799808
O O2 0.049712 0.319469 0.318686
O O3 0.717276 0.103122 0.158111
O O4 0.776658 0.892505 0.862470
O O5 0.431783 0.121981 0.866799
O O6 0.258790 0.110496 0.665808
O O7 0.592274 0.223062 0.825705
O O8 0.529788 0.560253 0.150401
O O9 0.311774 0.295682 0.092555
O O10 0.102676 0.788163 0.572124
O O11 0.154236 0.283432 0.631465
O O12 0.103026 0.647730 0.939728
O O13 0.784485 0.078689 0.661617
O O14 0.404085 0.164568 0.421807
O O15 0.600477 0.497935 0.410804
O O16 0.347504 0.567639 0.458843
#
# Coordination Sequence:
#
# PCOD9105481 Si02
#       8
#     2   2   2   2   2   2   2   2
#     4  10  21  40  63  96 141 179 207 264 332 391
#     4  10  23  44  70 100 127 165 227 277 320 385
#     4  11  24  41  63  99 136 173 211 272 324 388
#     4  11  25  42  65  99 134 174 213 264 327 400
#     4  10  23  46  71  94 130 172 218 278 330 379
#     4  11  22  42  70  94 126 174 219 270 330 384
#     4  10  20  39  64  97 129 177 221 271 316 379
#     4   9  20  36  64  95 134 178 224 261 312 394
#
# _framework density 24.981439000000002
#
# number of rings (size 3 to 8) (size 9 to 14) (size 15 to 20)
#    0.000    1.750    2.500    0.750    3.500    1.500 
#    0.000    3.750    0.000    0.000    0.000    0.000 
#    0.000    0.000    0.000    0.000    0.000    0.000 
#
# Total GULP energy -89349.748006 kJ/mol
# GULP energy per Si atom -5584.359250 kJ/mol
# Density = 2.492458 g / cm^3
# Si number density = 24.981439 Si / 1000 Ang^3
#
#
#
# Elastic Constant Matrix: (Units=GPa)
#
#
# Indices 1 2 3 4 5 6 
#
# 1 65.6365 41.4201 29.8813 -14.1277 -4.4271 -5.4934
# 2 41.4201 84.5581 36.3672 -12.4422 7.9100 -10.1300
# 3 29.8813 36.3672 171.7807 -16.3395 -3.3891 -6.7367
# 4 -14.1277 -12.4422 -16.3395 34.5832 2.3778 0.0979
# 5 -4.4271 7.9100 -3.3891 2.3778 35.2477 -6.8696
# 6 -5.4934 -10.1300 -6.7367 0.0979 -6.8696 29.2871
#
#
#
# Elastic Compliance Matrix: (Units=1/GPa)
#
#
# Indices 1 2 3 4 5 6 
#
# 1 0.024283 -0.010907 -0.001263 0.005025 0.005375 0.001736
# 2 -0.010907 0.019140 -0.001973 0.001863 -0.005427 0.002841
# 3 -0.001263 -0.001973 0.006688 0.001865 0.000965 0.000839
# 4 0.005025 0.001863 0.001865 0.032619 -0.001505 0.001554
# 5 0.005375 -0.005427 0.000965 -0.001505 0.031786 0.006814
# 6 0.001736 0.002841 0.000839 0.001554 0.006814 0.037239
#
#
# Mechanical properties :
#
#
# Convention : Reuss Voigt Hill
#
# Bulk Modulus (GPa) = 45.82026 59.70136 52.76081
# Shear Modulus (GPa) = 26.69290 34.11071 30.40181
#
# Velocity S-wave (km/s) = 3.27235 3.69920 3.49230
# Velocity P-wave (km/s) = 5.71483 6.49581 6.11780
#
# Compressibility (1/GPa) = 0.02182441
#
# Stress axis : x y z
#
# Youngs Moduli (GPa) = 41.18176 52.24727 149.51797
#
# Poissons Ratio (x) = 0.56987 0.18881
# Poissons Ratio (y) = 0.44917 0.29502
# Poissons Ratio (z) = 0.05200 0.10309
#
# Static dielectric constant tensor:
#      x y z
#    x 2.008400 0.023800 -0.017710 
#    y 0.023800 2.054220 0.020250 
#    z -0.017710 0.020250 2.059270 
# 
# From -- ./inp_files/521926.got.cif
#   From: 2010.05.17/outbox.cif.g08.bks.cpg/sg2_261_cif.got.tgz:521926.got - 2010.06.03 11:33:40.
