data_PCOD9105440
_publ_section_title
;
Structure prediction by ZEFSAII (Michael W. Deem and Ramdas Pophale) SiO2 
 PCOD9105440
Probable space group: P -1
;
_chemical_formula_sum "Si O2"
_cell_formula_units_Z 16
_cell_length_a 8.262035
_cell_length_b 12.332511
_cell_length_c 16.765497
_cell_angle_alpha 40.473692
_cell_angle_beta 139.131425
_cell_angle_gamma 145.218233
_cell_volume 591.353603
_symmetry_space_group_name_H-M "P -1"
_symmetry_group_IT_number 2
_symmetry_cell_setting 'triclinic'
loop_
_space_group_symop_operation_xyz
x,y,z
-x,-y,-z
loop_
_atom_site_type_symbol
_atom_site_label
_atom_site_fract_x
_atom_site_fract_y
_atom_site_fract_z
Si Si1 0.398015 0.435179 0.829043
Si Si2 0.296518 0.933251 0.614834
Si Si3 0.779597 0.760673 0.407728
Si Si4 0.350688 0.870742 0.137407
Si Si5 0.752385 0.894394 0.732929
Si Si6 0.650819 0.856208 0.896287
Si Si7 0.754620 0.306509 0.963941
Si Si8 0.173776 0.594548 0.428454
O O1 0.658618 0.676746 0.789520
O O2 0.475146 0.330245 0.847978
O O3 0.080561 0.405589 0.717107
O O4 0.416991 0.338767 0.972647
O O5 0.538141 0.175568 0.576786
O O6 0.439369 0.876821 0.628206
O O7 0.339403 0.829815 0.765475
O O8 0.789947 0.045375 0.903817
O O9 0.966020 0.850222 0.509234
O O10 0.492242 0.769729 0.292801
O O11 0.729561 0.547581 0.489364
O O12 0.001422 0.920586 0.332240
O O13 0.163736 0.716017 0.082162
O O14 0.622848 0.087534 0.078145
O O15 0.821248 0.911344 0.844207
O O16 0.000000 0.500000 0.000000
O O17 0.000000 0.500000 0.500000
#
# Coordination Sequence:
#
# PCOD9105440 Si02
#       8
#     2   2   2   2   2   2   2   2
#     4  11  21  38  66  94 125 166 215 267 322 377
#     4  10  23  39  61  92 131 166 207 264 318 374
#     4  12  22  40  65  95 128 167 219 264 307 379
#     4  10  23  42  64  89 127 172 208 258 320 380
#     4  10  20  39  64  95 127 165 210 268 318 370
#     4   9  22  42  60  93 134 168 211 260 324 384
#     4  10  22  42  63  91 123 166 219 260 309 383
#     4  12  21  36  60  93 123 159 212 267 319 365
#
# _framework density 27.056569
#
# number of rings (size 3 to 8) (size 9 to 14) (size 15 to 20)
#    0.750    0.750    2.500    3.000    0.000    2.000 
#    2.250    5.625    0.000    0.000    0.000    0.000 
#    0.000    0.000    0.000    0.000    0.000    0.000 
#
# Total GULP energy -89702.006395 kJ/mol
# GULP energy per Si atom -5606.375400 kJ/mol
# Density = 2.699499 g / cm^3
# Si number density = 27.056569 Si / 1000 Ang^3
#
#
#
# Elastic Constant Matrix: (Units=GPa)
#
#
# Indices 1 2 3 4 5 6 
#
# 1 96.3868 16.8396 47.6318 -4.1286 20.9727 -19.8671
# 2 16.8396 164.0110 83.7690 -11.7109 12.8610 -16.5163
# 3 47.6318 83.7690 185.9980 -20.4477 12.4758 -10.3182
# 4 -4.1286 -11.7109 -20.4477 51.5070 -3.8559 2.0317
# 5 20.9727 12.8610 12.4758 -3.8559 58.9488 -8.5242
# 6 -19.8671 -16.5163 -10.3182 2.0317 -8.5242 46.9033
#
#
#
# Elastic Compliance Matrix: (Units=1/GPa)
#
#
# Indices 1 2 3 4 5 6 
#
# 1 0.013710 0.001152 -0.003573 -0.000524 -0.003717 0.004774
# 2 0.001152 0.008249 -0.003776 0.000297 -0.001050 0.002358
# 3 -0.003573 -0.003776 0.008146 0.002158 0.000356 -0.001080
# 4 -0.000524 0.000297 0.002158 0.020382 0.000947 -0.000353
# 5 -0.003717 -0.001050 0.000356 0.000947 0.018718 0.001495
# 6 0.004774 0.002358 -0.001080 -0.000353 0.001495 0.024222
#
#
# Mechanical properties :
#
#
# Convention : Reuss Voigt Hill
#
# Bulk Modulus (GPa) = 56.46719 82.54183 69.50451
# Shear Modulus (GPa) = 44.75328 51.34884 48.05106
#
# Velocity S-wave (km/s) = 4.07143 4.36114 4.21877
# Velocity P-wave (km/s) = 6.55877 7.47882 7.03385
#
# Compressibility (1/GPa) = 0.01770940
#
# Stress axis : x y z
#
# Youngs Moduli (GPa) = 72.94133 121.23378 122.76609
#
# Poissons Ratio (x) = -0.13969 0.43868
# Poissons Ratio (y) = -0.08404 0.46358
# Poissons Ratio (z) = 0.26064 0.45779
#
# Static dielectric constant tensor:
#      x y z
#    x 2.170500 0.027610 0.048350 
#    y 0.027610 2.059400 0.084680 
#    z 0.048350 0.084680 2.171880 
# 
# From -- ./inp_files/595632.got.cif
#   From: 2010.05.17/outbox.cif.g08.bks.cpg/sg2_298_cif.got.tgz:595632.got - 2010.06.03 11:33:40.
