data_PCOD9105819
_publ_section_title
;
Structure prediction by ZEFSAII (Michael W. Deem and Ramdas Pophale) SiO2 
 PCOD9105819
Probable space group: P -1
;
_chemical_formula_sum "Si O2"
_cell_formula_units_Z 16
_cell_length_a 12.730460
_cell_length_b 5.820883
_cell_length_c 12.082569
_cell_angle_alpha 126.625582
_cell_angle_beta 70.876021
_cell_angle_gamma 84.693823
_cell_volume 628.057891
_symmetry_space_group_name_H-M "P -1"
_symmetry_group_IT_number 2
_symmetry_cell_setting 'triclinic'
loop_
_space_group_symop_operation_xyz
x,y,z
-x,-y,-z
loop_
_atom_site_type_symbol
_atom_site_label
_atom_site_fract_x
_atom_site_fract_y
_atom_site_fract_z
Si Si1 0.024615 0.578020 0.776337
Si Si2 0.290954 0.778441 0.933056
Si Si3 0.654626 0.920792 0.316280
Si Si4 0.533729 0.960545 0.142688
Si Si5 0.064808 0.662471 0.441835
Si Si6 0.891290 0.877750 0.098613
Si Si7 0.757934 0.070461 0.518646
Si Si8 0.678708 0.226510 0.841240
O O1 0.918296 0.541972 0.731787
O O2 0.046946 0.883988 0.823672
O O3 0.146704 0.284244 0.623984
O O4 0.990499 0.583344 0.919056
O O5 0.336632 0.426733 0.775344
O O6 0.407574 0.868115 0.909797
O O7 0.190213 0.967822 0.937049
O O8 0.243962 0.823300 0.088160
O O9 0.563698 0.047825 0.281438
O O10 0.787539 0.880538 0.216609
O O11 0.645912 0.094082 0.485808
O O12 0.397987 0.991859 0.188309
O O13 0.603118 0.593843 0.988363
O O14 0.174883 0.704815 0.477593
O O15 0.000000 0.500000 0.500000
O O16 0.000000 0.000000 0.500000
O O17 0.731166 0.160258 0.681814
#
# Coordination Sequence:
#
# PCOD9105819 Si02
#       8
#     2   2   2   2   2   2   2   2
#     4  10  22  40  59  91 124 168 220 258 320 381
#     4  10  20  39  66  89 122 163 212 257 315 391
#     4  10  21  39  64  88 127 156 215 258 316 383
#     4   9  21  42  66  92 118 165 207 257 319 396
#     4  10  23  41  61  88 137 175 218 271 336 391
#     4  10  21  39  63  88 122 170 215 257 310 386
#     4  11  23  41  61  96 129 166 211 270 328 378
#     4  10  22  41  65  93 127 156 207 262 325 386
#
# _framework density 25.475356999999999
#
# number of rings (size 3 to 8) (size 9 to 14) (size 15 to 20)
#    0.000    2.000    1.250    1.125    5.250    3.000 
#    4.500    0.625    0.000    0.000    0.000    0.000 
#    0.000    0.000    0.000    0.000    0.000    0.000 
#
# Total GULP energy -89353.208315 kJ/mol
# GULP energy per Si atom -5584.575520 kJ/mol
# Density = 2.541737 g / cm^3
# Si number density = 25.475357 Si / 1000 Ang^3
#
#
#
# Elastic Constant Matrix: (Units=GPa)
#
#
# Indices 1 2 3 4 5 6 
#
# 1 71.8582 17.5211 26.5308 4.1481 35.5455 23.5744
# 2 17.5211 75.3314 23.2989 -7.9337 14.5089 25.6369
# 3 26.5308 23.2989 102.7093 -13.6248 43.5683 -0.3797
# 4 4.1481 -7.9337 -13.6248 35.7924 -2.4032 11.8904
# 5 35.5455 14.5089 43.5683 -2.4032 44.7029 6.3143
# 6 23.5744 25.6369 -0.3797 11.8904 6.3143 53.0796
#
#
#
# Elastic Compliance Matrix: (Units=1/GPa)
#
#
# Indices 1 2 3 4 5 6 
#
# 1 0.027474 0.000490 0.002494 -0.000502 -0.023113 -0.009559
# 2 0.000490 0.018587 -0.002697 0.006359 -0.001983 -0.010403
# 3 0.002494 -0.002697 0.018321 0.004274 -0.018963 0.001624
# 4 -0.000502 0.006359 0.004274 0.034246 -0.002551 -0.010186
# 5 -0.023113 -0.001983 -0.018963 -0.002551 0.059083 0.004630
# 6 -0.009559 -0.010403 0.001624 -0.010186 0.004630 0.029852
#
#
# Mechanical properties :
#
#
# Convention : Reuss Voigt Hill
#
# Bulk Modulus (GPa) = 15.39473 42.73339 29.06406
# Shear Modulus (GPa) = 23.96484 38.88485 31.42484
#
# Velocity S-wave (km/s) = 3.07042 3.91112 3.51599
# Velocity P-wave (km/s) = 4.31580 6.09972 5.28359
#
# Compressibility (1/GPa) = 0.06495728
#
# Stress axis : x y z
#
# Youngs Moduli (GPa) = 36.39824 53.80192 54.58286
#
# Poissons Ratio (x) = -0.02638 -0.13614
# Poissons Ratio (y) = -0.01785 0.14719
# Poissons Ratio (z) = -0.09079 0.14508
#
# Static dielectric constant tensor:
#      x y z
#    x 2.074670 -0.064230 -0.040050 
#    y -0.064230 2.067790 -0.009220 
#    z -0.040050 -0.009220 2.048870 
# 
# From -- ./inp_files/90321.got.cif
#   From: 2010.05.17/outbox.cif.g08.bks.cpg/sg2_46_cif.got.tgz:90321.got - 2010.06.03 11:33:40.
