data_PCOD9105731
_publ_section_title
;
Structure prediction by ZEFSAII (Michael W. Deem and Ramdas Pophale) SiO2 
 PCOD9105731
Probable space group: P -1
;
_chemical_formula_sum "Si O2"
_cell_formula_units_Z 14
_cell_length_a 7.903477
_cell_length_b 10.846521
_cell_length_c 11.201377
_cell_angle_alpha 128.711354
_cell_angle_beta 124.152158
_cell_angle_gamma 44.690653
_cell_volume 514.882551
_symmetry_space_group_name_H-M "P -1"
_symmetry_group_IT_number 2
_symmetry_cell_setting 'triclinic'
loop_
_space_group_symop_operation_xyz
x,y,z
-x,-y,-z
loop_
_atom_site_type_symbol
_atom_site_label
_atom_site_fract_x
_atom_site_fract_y
_atom_site_fract_z
Si Si1 0.576009 0.299886 0.854305
Si Si2 0.787992 0.316973 0.276157
Si Si3 0.314031 0.954915 0.599516
Si Si4 0.757045 0.913054 0.837098
Si Si5 0.891788 0.679996 0.396567
Si Si6 0.874739 0.926781 0.150722
Si Si7 0.681791 0.410626 0.631740
O O1 0.335103 0.341569 0.711642
O O2 0.832930 0.210244 0.832679
O O3 0.639443 0.127624 0.868879
O O4 0.500000 0.500000 0.000000
O O5 0.497175 0.473812 0.259319
O O6 0.958499 0.221128 0.170172
O O7 0.939262 0.372821 0.453129
O O8 0.806406 0.139450 0.239828
O O9 0.606094 0.842531 0.666894
O O10 0.237858 0.807169 0.467277
O O11 0.233568 0.094951 0.541387
O O12 0.218894 0.077891 0.758895
O O13 0.752409 0.900439 0.969958
O O14 0.087409 0.578122 0.302815
O O15 0.500000 0.500000 0.500000
#
# Coordination Sequence:
#
# PCOD9105731 Si02
#       7
#     2   2   2   2   2   2   2
#     4  10  23  44  64  92 127 171 216 264 319 377
#     4  10  21  42  65  96 129 169 215 261 320 376
#     4  11  22  41  66  99 127 169 212 261 330 372
#     4  10  24  44  67  91 131 174 215 259 316 385
#     4  10  22  42  65  96 130 164 211 270 323 377
#     4  11  22  43  64  90 135 172 212 260 315 387
#     4  10  20  39  65  96 131 162 210 265 314 383
#
# _framework density 27.190664000000002
#
# number of rings (size 3 to 8) (size 9 to 14) (size 15 to 20)
#    0.000    1.714    2.857    2.571    0.000    8.000 
#    7.714    1.429    0.000    0.000    0.000    0.000 
#    0.000    0.000    0.000    0.000    0.000    0.000 
#
# Total GULP energy -78466.619102 kJ/mol
# GULP energy per Si atom -5604.758507 kJ/mol
# Density = 2.712878 g / cm^3
# Si number density = 27.190664 Si / 1000 Ang^3
#
#
#
# Elastic Constant Matrix: (Units=GPa)
#
#
# Indices 1 2 3 4 5 6 
#
# 1 97.9514 8.4909 5.8582 12.5431 -10.5475 -32.4140
# 2 8.4909 125.4715 24.0223 10.9828 -4.6331 -9.3881
# 3 5.8582 24.0223 86.4761 -1.0956 -3.8278 -8.3855
# 4 12.5431 10.9828 -1.0956 53.1177 -9.5864 1.8893
# 5 -10.5475 -4.6331 -3.8278 -9.5864 51.6514 0.0868
# 6 -32.4140 -9.3881 -8.3855 1.8893 0.0868 51.9679
#
#
#
# Elastic Compliance Matrix: (Units=1/GPa)
#
#
# Indices 1 2 3 4 5 6 
#
# 1 0.013719 0.000090 -0.000056 -0.003170 0.002202 0.008676
# 2 0.000090 0.008676 -0.002299 -0.001859 0.000279 0.001320
# 3 -0.000056 -0.002299 0.012402 0.000845 0.000856 0.001519
# 4 -0.003170 -0.001859 0.000845 0.020637 0.003084 -0.002932
# 5 0.002202 0.000279 0.000856 0.003084 0.020469 0.001416
# 6 0.008676 0.001320 0.001519 -0.002932 0.001416 0.025242
#
#
# Mechanical properties :
#
#
# Convention : Reuss Voigt Hill
#
# Bulk Modulus (GPa) = 33.03933 42.96019 37.99976
# Shear Modulus (GPa) = 43.19146 49.44925 46.32035
#
# Velocity S-wave (km/s) = 3.98988 4.26914 4.13187
# Velocity P-wave (km/s) = 5.77952 6.33520 6.06373
#
# Compressibility (1/GPa) = 0.03026696
#
# Stress axis : x y z
#
# Youngs Moduli (GPa) = 72.89287 115.26244 80.63028
#
# Poissons Ratio (x) = -0.01041 0.00450
# Poissons Ratio (y) = -0.00658 0.18540
# Poissons Ratio (z) = 0.00407 0.26504
#
# Static dielectric constant tensor:
#      x y z
#    x 2.150570 -0.024260 -0.067540 
#    y -0.024260 2.165590 -0.039360 
#    z -0.067540 -0.039360 2.127480 
# 
# From -- ./inp_files/393159.got.cif
#   From: 2010.05.17/outbox.cif.g08.bks.cpg/sg2_197_cif.got.tgz:393159.got - 2010.06.03 11:33:40.
