data_PCOD9105732
_publ_section_title
;
Structure prediction by ZEFSAII (Michael W. Deem and Ramdas Pophale) SiO2 
 PCOD9105732
Probable space group: P -1
;
_chemical_formula_sum "Si O2"
_cell_formula_units_Z 16
_cell_length_a 7.924106
_cell_length_b 9.037754
_cell_length_c 13.287986
_cell_angle_alpha 104.615450
_cell_angle_beta 57.485402
_cell_angle_gamma 103.684903
_cell_volume 770.537027
_symmetry_space_group_name_H-M "P -1"
_symmetry_group_IT_number 2
_symmetry_cell_setting 'triclinic'
loop_
_space_group_symop_operation_xyz
x,y,z
-x,-y,-z
loop_
_atom_site_type_symbol
_atom_site_label
_atom_site_fract_x
_atom_site_fract_y
_atom_site_fract_z
Si Si1 0.413744 0.377340 0.425411
Si Si2 0.850316 0.589285 0.129417
Si Si3 0.827645 0.827013 0.807025
Si Si4 0.031556 0.163474 0.467631
Si Si5 0.437638 0.480501 0.132488
Si Si6 0.195126 0.699209 0.787266
Si Si7 0.906449 0.107632 0.965482
Si Si8 0.803432 0.419960 0.610771
O O1 0.500000 0.500000 0.500000
O O2 0.204037 0.271225 0.493046
O O3 0.587827 0.272017 0.328820
O O4 0.364689 0.488113 0.368758
O O5 0.634679 0.559768 0.140110
O O6 0.840506 0.486293 0.215866
O O7 0.936251 0.769177 0.124866
O O8 0.000000 0.500000 0.000000
O O9 0.888615 0.843041 0.673367
O O10 0.633125 0.700714 0.858666
O O11 0.013907 0.757765 0.792526
O O12 0.800231 0.986847 0.898461
O O13 0.826717 0.243972 0.551251
O O14 0.000000 0.000000 0.500000
O O15 0.244592 0.556136 0.252186
O O16 0.500000 0.500000 0.000000
O O17 0.209352 0.785777 0.905500
O O18 0.000000 0.000000 0.000000
O O19 0.000000 0.500000 0.500000
#
# Coordination Sequence:
#
# PCOD9105732 Si02
#       8
#     2   2   2   2   2   2   2   2
#     4  11  22  41  70  94 122 178 227 277 331 398
#     4  10  20  40  61  94 136 169 225 275 319 405
#     4  11  22  44  69  93 137 178 217 281 344 392
#     4  11  25  48  63  97 135 172 224 279 333 410
#     4  12  22  40  72 102 130 177 230 274 334 396
#     4  10  20  39  65  96 131 168 227 279 329 399
#     4   9  20  38  60  92 137 175 205 271 342 391
#     4  10  21  45  69  91 137 175 223 274 332 400
#
# _framework density 20.764738000000001
#
# number of rings (size 3 to 8) (size 9 to 14) (size 15 to 20)
#    0.000    1.500    3.750    3.000    1.750    1.000 
#   11.250    4.375    0.000    0.000    0.000    0.000 
#    0.000    0.000    0.000    0.000    0.000    0.000 
#
# Total GULP energy -89098.481569 kJ/mol
# GULP energy per Si atom -5568.655098 kJ/mol
# Density = 2.071748 g / cm^3
# Si number density = 20.764738 Si / 1000 Ang^3
#
#
#
# Elastic Constant Matrix: (Units=GPa)
#
#
# Indices 1 2 3 4 5 6 
#
# 1 52.1074 20.7222 13.6953 0.6705 -0.1495 10.6468
# 2 20.7222 154.2638 36.5030 -0.4173 12.9642 9.3889
# 3 13.6953 36.5030 124.4590 -0.7113 8.8226 12.4012
# 4 0.6705 -0.4173 -0.7113 33.6785 -0.7446 9.0303
# 5 -0.1495 12.9642 8.8226 -0.7446 30.3784 2.9833
# 6 10.6468 9.3889 12.4012 9.0303 2.9833 34.4877
#
#
#
# Elastic Compliance Matrix: (Units=1/GPa)
#
#
# Indices 1 2 3 4 5 6 
#
# 1 0.021715 -0.002434 -0.001211 0.001195 0.002126 -0.006102
# 2 -0.002434 0.007461 -0.001682 0.000179 -0.002655 -0.000492
# 3 -0.001211 -0.001682 0.009031 0.000825 -0.001646 -0.002489
# 4 0.001195 0.000179 0.000825 0.032204 0.001389 -0.009267
# 5 0.002126 -0.002655 -0.001646 0.001389 0.034841 -0.002719
# 6 -0.006102 -0.000492 -0.002489 -0.009267 -0.002719 0.034570
#
#
# Mechanical properties :
#
#
# Convention : Reuss Voigt Hill
#
# Bulk Modulus (GPa) = 36.29605 52.51903 44.40754
# Shear Modulus (GPa) = 31.31624 37.03621 34.17623
#
# Velocity S-wave (km/s) = 3.88770 4.22786 4.06134
# Velocity P-wave (km/s) = 6.13758 7.01288 6.58978
#
# Compressibility (1/GPa) = 0.02755121
#
# Stress axis : x y z
#
# Youngs Moduli (GPa) = 46.05071 134.03053 110.73140
#
# Poissons Ratio (x) = 0.32628 0.13414
# Poissons Ratio (y) = 0.11211 0.18627
# Poissons Ratio (z) = 0.05578 0.22546
#
# Static dielectric constant tensor:
#      x y z
#    x 1.843680 -0.029860 0.049690 
#    y -0.029860 1.781990 -0.006090 
#    z 0.049690 -0.006090 1.836410 
# 
# From -- ./inp_files/493322.got.cif
#   From: 2010.05.17/outbox.cif.g08.bks.cpg/sg2_247_cif.got.tgz:493322.got - 2010.06.03 11:33:40.
