data_PCOD9105179
_publ_section_title
;
Structure prediction by ZEFSAII (Michael W. Deem and Ramdas Pophale) SiO2 
 PCOD9105179
Probable space group: P -1
;
_chemical_formula_sum "Si O2"
_cell_formula_units_Z 16
_cell_length_a 11.306667
_cell_length_b 19.692576
_cell_length_c 18.530851
_cell_angle_alpha 158.376477
_cell_angle_beta 26.645984
_cell_angle_gamma 140.588046
_cell_volume 638.068059
_symmetry_space_group_name_H-M "P -1"
_symmetry_group_IT_number 2
_symmetry_cell_setting 'triclinic'
loop_
_space_group_symop_operation_xyz
x,y,z
-x,-y,-z
loop_
_atom_site_type_symbol
_atom_site_label
_atom_site_fract_x
_atom_site_fract_y
_atom_site_fract_z
Si Si1 0.805424 0.458193 0.260124
Si Si2 0.266848 0.119621 0.303388
Si Si3 0.735737 0.449633 0.121097
Si Si4 0.655188 0.128247 0.235028
Si Si5 0.734872 0.104071 0.384431
Si Si6 0.098989 0.539402 0.402924
Si Si7 0.182735 0.046875 0.653122
Si Si8 0.607140 0.755672 0.955844
O O1 0.500000 0.500000 0.500000
O O2 0.876668 0.655178 0.422557
O O3 0.786189 0.412880 0.141749
O O4 0.018402 0.266238 0.991375
O O5 0.440474 0.128842 0.288987
O O6 0.036713 0.018443 0.337241
O O7 0.500000 0.000000 0.000000
O O8 0.458886 0.647514 0.453879
O O9 0.682702 0.275746 0.935019
O O10 0.000000 0.500000 0.000000
O O11 0.974311 0.057822 0.962937
O O12 0.640902 0.966079 0.139524
O O13 0.741895 0.094671 0.458507
O O14 0.748513 0.310915 0.553242
O O15 0.443367 0.074636 0.498433
O O16 0.330526 0.323834 0.071812
O O17 0.000000 0.500000 0.500000
O O18 0.769780 0.667698 0.697727
#
# Coordination Sequence:
#
# PCOD9105179 Si02
#       8
#     2   2   2   2   2   2   2   2
#     4  11  23  39  65  99 128 175 220 261 328 399
#     4  11  20  37  66  94 129 171 216 266 325 388
#     4  11  24  38  65  95 129 169 214 273 324 387
#     4  10  20  41  63  92 124 167 220 257 324 401
#     4  10  20  39  63  94 131 168 217 275 320 395
#     4   7  17  35  62  83 119 167 212 256 319 383
#     4  11  22  37  64  97 136 167 212 277 326 381
#     4   8  18  37  60  86 120 165 206 264 319 372
#
# _framework density 25.075693999999999
#
# number of rings (size 3 to 8) (size 9 to 14) (size 15 to 20)
#    0.750    1.250    2.500    1.500    1.750    0.500 
#    0.000   10.625    2.750    0.000    0.000    0.000 
#    0.000    0.000    0.000    0.000    0.000    0.000 
#
# Total GULP energy -89099.363016 kJ/mol
# GULP energy per Si atom -5568.710188 kJ/mol
# Density = 2.501862 g / cm^3
# Si number density = 25.075694 Si / 1000 Ang^3
#
#
#
# Elastic Constant Matrix: (Units=GPa)
#
#
# Indices 1 2 3 4 5 6 
#
# 1 59.3067 42.0622 6.6143 -10.4386 -1.5597 1.2223
# 2 42.0622 219.5779 59.2234 -6.9421 -16.2491 8.4608
# 3 6.6143 59.2234 63.0412 1.9224 -3.6884 5.3342
# 4 -10.4386 -6.9421 1.9224 51.6369 -3.3721 -9.8636
# 5 -1.5597 -16.2491 -3.6884 -3.3721 19.5270 -5.7390
# 6 1.2223 8.4608 5.3342 -9.8636 -5.7390 45.7932
#
#
#
# Elastic Compliance Matrix: (Units=1/GPa)
#
#
# Indices 1 2 3 4 5 6 
#
# 1 0.020333 -0.004337 0.001724 0.003545 -0.000837 0.000717
# 2 -0.004337 0.007461 -0.006312 0.000725 0.004865 0.000238
# 3 0.001724 -0.006312 0.021727 -0.001826 -0.001927 -0.002045
# 4 0.003545 0.000725 -0.001826 0.021659 0.005864 0.005384
# 5 -0.000837 0.004865 -0.001927 0.005864 0.058163 0.007900
# 6 0.000717 0.000238 -0.002045 0.005384 0.007900 0.024162
#
#
# Mechanical properties :
#
#
# Convention : Reuss Voigt Hill
#
# Bulk Modulus (GPa) = 31.57552 61.96953 46.77253
# Shear Modulus (GPa) = 27.48549 38.99315 33.23932
#
# Velocity S-wave (km/s) = 3.31433 3.94765 3.64477
# Velocity P-wave (km/s) = 5.22167 6.74872 6.03370
#
# Compressibility (1/GPa) = 0.03167010
#
# Stress axis : x y z
#
# Youngs Moduli (GPa) = 49.18211 134.02684 46.02479
#
# Poissons Ratio (x) = 0.58130 -0.07933
# Poissons Ratio (y) = 0.21331 0.29050
# Poissons Ratio (z) = -0.08477 0.84596
#
# Static dielectric constant tensor:
#      x y z
#    x 2.064460 0.061870 0.116860 
#    y 0.061870 2.002900 0.070800 
#    z 0.116860 0.070800 1.893150 
# 
# From -- ./inp_files/612331.got.cif
#   From: 2010.05.17/outbox.cif.g08.bks.cpg/sg2_307_cif.got.tgz:612331.got - 2010.06.03 11:33:40.
