data_PCOD9105961
_publ_section_title
;
Structure prediction by ZEFSAII (Michael W. Deem and Ramdas Pophale) SiO2 
 PCOD9105961
Probable space group: P -1
;
_chemical_formula_sum "Si O2"
_cell_formula_units_Z 16
_cell_length_a 9.953438
_cell_length_b 7.134214
_cell_length_c 15.816212
_cell_angle_alpha 62.022466
_cell_angle_beta 129.421075
_cell_angle_gamma 90.917572
_cell_volume 697.741047
_symmetry_space_group_name_H-M "P -1"
_symmetry_group_IT_number 2
_symmetry_cell_setting 'triclinic'
loop_
_space_group_symop_operation_xyz
x,y,z
-x,-y,-z
loop_
_atom_site_type_symbol
_atom_site_label
_atom_site_fract_x
_atom_site_fract_y
_atom_site_fract_z
Si Si1 0.414776 0.530417 0.574246
Si Si2 0.463895 0.930849 0.095741
Si Si3 0.963474 0.601697 0.869797
Si Si4 0.357847 0.837455 0.656413
Si Si5 0.188877 0.287765 0.588747
Si Si6 0.201417 0.773200 0.124993
Si Si7 0.400470 0.954938 0.386455
Si Si8 0.388306 0.416122 0.039708
O O1 0.341827 0.700957 0.594157
O O2 0.266081 0.418469 0.523802
O O3 0.614636 0.311822 0.721823
O O4 0.419073 0.700496 0.467097
O O5 0.662496 0.788772 0.255975
O O6 0.308770 0.820334 0.074162
O O7 0.381628 0.174295 0.060932
O O8 0.500000 0.000000 0.000000
O O9 0.859377 0.439454 0.831988
O O10 0.818101 0.866616 0.746506
O O11 0.000000 0.500000 0.000000
O O12 0.165913 0.578602 0.922451
O O13 0.497422 0.961232 0.662386
O O14 0.480032 0.639946 0.813021
O O15 0.191010 0.052341 0.594913
O O16 0.000000 0.500000 0.500000
O O17 0.000000 0.000000 0.000000
O O18 0.500000 0.000000 0.500000
O O19 0.500000 0.500000 0.000000
#
# Coordination Sequence:
#
# PCOD9105961 Si02
#       8
#     2   2   2   2   2   2   2   2
#     4  10  22  42  70  93 136 172 213 280 335 391
#     4  10  24  42  63  89 133 171 212 277 329 385
#     4  12  22  39  68  97 129 171 224 277 322 398
#     4  10  21  43  64  92 134 173 214 278 334 386
#     4  10  24  44  62  92 132 173 223 265 328 405
#     4  11  21  41  66  96 130 167 222 270 332 387
#     4  10  20  39  66  96 129 164 222 267 333 396
#     4  11  24  39  63  98 131 168 222 274 331 393
#
# _framework density 22.931142000000001
#
# number of rings (size 3 to 8) (size 9 to 14) (size 15 to 20)
#    0.000    1.500    5.000    0.000    5.250    3.000 
#    6.750    0.000    0.000    0.000    0.000    0.000 
#    0.000    0.000    0.000    0.000    0.000    0.000 
#
# Total GULP energy -89102.631555 kJ/mol
# GULP energy per Si atom -5568.914472 kJ/mol
# Density = 2.287895 g / cm^3
# Si number density = 22.931142 Si / 1000 Ang^3
#
#
#
# Elastic Constant Matrix: (Units=GPa)
#
#
# Indices 1 2 3 4 5 6 
#
# 1 134.5479 5.8297 57.0690 -10.2583 -4.3875 9.2939
# 2 5.8297 93.7904 21.2280 -24.1352 10.9098 -6.5925
# 3 57.0690 21.2280 136.6074 -34.3161 3.6583 -13.6301
# 4 -10.2583 -24.1352 -34.3161 42.6502 -8.3077 -0.4633
# 5 -4.3875 10.9098 3.6583 -8.3077 56.4607 -10.6801
# 6 9.2939 -6.5925 -13.6301 -0.4633 -10.6801 36.8167
#
#
#
# Elastic Compliance Matrix: (Units=1/GPa)
#
#
# Indices 1 2 3 4 5 6 
#
# 1 0.009677 -0.000264 -0.004882 -0.001789 0.000041 -0.004308
# 2 -0.000264 0.012744 0.000161 0.007100 -0.001033 0.002198
# 3 -0.004882 0.000161 0.012201 0.009059 0.001319 0.006275
# 4 -0.001789 0.007100 0.009059 0.035248 0.004373 0.006789
# 5 0.000041 -0.001033 0.001319 0.004373 0.019614 0.006038
# 6 -0.004308 0.002198 0.006275 0.006789 0.006038 0.032803
#
#
# Mechanical properties :
#
#
# Convention : Reuss Voigt Hill
#
# Bulk Modulus (GPa) = 40.56727 59.24433 49.90580
# Shear Modulus (GPa) = 35.59357 45.90680 40.75018
#
# Velocity S-wave (km/s) = 3.94406 4.47916 4.22010
# Velocity P-wave (km/s) = 6.20243 7.25550 6.74954
#
# Compressibility (1/GPa) = 0.02465041
#
# Stress axis : x y z
#
# Youngs Moduli (GPa) = 103.33852 78.46948 81.96046
#
# Poissons Ratio (x) = 0.02075 0.40012
# Poissons Ratio (y) = 0.02733 -0.01317
# Poissons Ratio (z) = 0.50448 -0.01260
#
# Static dielectric constant tensor:
#      x y z
#    x 1.871320 -0.248280 0.003830 
#    y -0.248280 1.438260 -0.063600 
#    z 0.003830 -0.063600 1.814710 
# 
# From -- ./inp_files/556909.got.cif
#   From: 2010.05.17/outbox.cif.g08.bks.cpg/sg2_279_cif.got.tgz:556909.got - 2010.06.03 11:33:40.
