data_PCOD9105355
_publ_section_title
;
Structure prediction by ZEFSAII (Michael W. Deem and Ramdas Pophale) SiO2 
 PCOD9105355
Probable space group: P -1
;
_chemical_formula_sum "Si O2"
_cell_formula_units_Z 16
_cell_length_a 11.930019
_cell_length_b 11.108873
_cell_length_c 13.695843
_cell_angle_alpha 121.391214
_cell_angle_beta 42.114517
_cell_angle_gamma 147.828704
_cell_volume 618.316250
_symmetry_space_group_name_H-M "P -1"
_symmetry_group_IT_number 2
_symmetry_cell_setting 'triclinic'
loop_
_space_group_symop_operation_xyz
x,y,z
-x,-y,-z
loop_
_atom_site_type_symbol
_atom_site_label
_atom_site_fract_x
_atom_site_fract_y
_atom_site_fract_z
Si Si1 0.200777 0.217202 0.281210
Si Si2 0.857341 0.557643 0.488080
Si Si3 0.165674 0.294924 0.633293
Si Si4 0.296342 0.818284 0.843109
Si Si5 0.766895 0.204864 0.346506
Si Si6 0.721408 0.859333 0.214163
Si Si7 0.301833 0.137292 0.986156
Si Si8 0.719604 0.458337 0.153745
O O1 0.063979 0.279086 0.407684
O O2 0.469439 0.386121 0.249273
O O3 0.328384 0.256947 0.111550
O O4 0.985793 0.954006 0.348611
O O5 0.918927 0.683840 0.402552
O O6 0.953593 0.460113 0.375791
O O7 0.523226 0.310936 0.620521
O O8 0.500000 0.500000 0.500000
O O9 0.116730 0.363076 0.785629
O O10 0.344395 0.824811 0.700934
O O11 0.412302 0.775749 0.819257
O O12 0.395896 0.041320 0.902728
O O13 0.957366 0.584731 0.975252
O O14 0.500000 0.000000 0.500000
O O15 0.873759 0.116735 0.225663
O O16 0.596698 0.753820 0.141687
O O17 0.961715 0.908787 0.097131
#
# Coordination Sequence:
#
# PCOD9105355 Si02
#       8
#     2   2   2   2   2   2   2   2
#     4  12  25  40  66 103 128 168 221 268 323 395
#     4  11  21  37  61  93 131 164 212 269 319 386
#     4  12  23  42  64  94 136 175 212 262 328 396
#     4  10  20  41  63  93 133 178 211 267 327 382
#     4   9  19  37  66  96 123 173 223 259 322 387
#     4   9  20  40  67  90 122 176 213 267 329 380
#     4  10  20  39  64  91 126 164 220 265 326 384
#     4  11  23  39  66  94 134 173 218 263 327 385
#
# _framework density 25.876726000000001
#
# number of rings (size 3 to 8) (size 9 to 14) (size 15 to 20)
#    0.000    1.500    3.750    1.875    0.000    1.000 
#    0.000    0.625    0.000    1.500    0.000    0.000 
#    0.000    0.000    0.000    0.000    0.000    0.000 
#
# Total GULP energy -89507.519806 kJ/mol
# GULP energy per Si atom -5594.219988 kJ/mol
# Density = 2.581783 g / cm^3
# Si number density = 25.876726 Si / 1000 Ang^3
#
#
#
# Elastic Constant Matrix: (Units=GPa)
#
#
# Indices 1 2 3 4 5 6 
#
# 1 57.5320 25.6049 28.7343 9.3523 10.0457 -17.3974
# 2 25.6049 133.4391 52.3093 33.0395 -4.4302 -26.8048
# 3 28.7343 52.3093 127.9228 14.9100 32.3372 -8.1737
# 4 9.3523 33.0395 14.9100 61.0408 1.8535 -13.0101
# 5 10.0457 -4.4302 32.3372 1.8535 42.7287 2.8745
# 6 -17.3974 -26.8048 -8.1737 -13.0101 2.8745 28.8281
#
#
#
# Elastic Compliance Matrix: (Units=1/GPa)
#
#
# Indices 1 2 3 4 5 6 
#
# 1 0.024109 -0.000995 -0.003123 0.000605 -0.004338 0.013444
# 2 -0.000995 0.012267 -0.005184 -0.003868 0.005120 0.007080
# 3 -0.003123 -0.005184 0.012885 -0.000031 -0.009410 -0.002127
# 4 0.000605 -0.003868 -0.000031 0.019685 -0.001766 0.005820
# 5 -0.004338 0.005120 -0.009410 -0.001766 0.032459 -0.004558
# 6 0.013444 0.007080 -0.002127 0.005820 -0.004558 0.051863
#
#
# Mechanical properties :
#
#
# Convention : Reuss Voigt Hill
#
# Bulk Modulus (GPa) = 32.61943 59.13232 45.87588
# Shear Modulus (GPa) = 27.45889 40.66920 34.06405
#
# Velocity S-wave (km/s) = 3.26105 3.96871 3.63215
# Velocity P-wave (km/s) = 5.17806 6.62586 5.94619
#
# Compressibility (1/GPa) = 0.03065657
#
# Stress axis : x y z
#
# Youngs Moduli (GPa) = 41.47814 81.52085 77.61013
#
# Poissons Ratio (x) = 0.08110 0.24241
# Poissons Ratio (y) = 0.04127 0.40232
# Poissons Ratio (z) = 0.12955 0.42259
#
# Static dielectric constant tensor:
#      x y z
#    x 2.004390 -0.011160 0.050060 
#    y -0.011160 2.086010 0.050230 
#    z 0.050060 0.050230 2.050470 
# 
# From -- ./inp_files/532667.got.cif
#   From: 2010.05.17/outbox.cif.g08.bks.cpg/sg2_267_cif.got.tgz:532667.got - 2010.06.03 11:33:40.
