data_PCOD9105106
_publ_section_title
;
Structure prediction by ZEFSAII (Michael W. Deem and Ramdas Pophale) SiO2 
 PCOD9105106
Probable space group: P -1
;
_chemical_formula_sum "Si O2"
_cell_formula_units_Z 16
_cell_length_a 14.265267
_cell_length_b 17.225645
_cell_length_c 5.718396
_cell_angle_alpha 100.921634
_cell_angle_beta 84.898605
_cell_angle_gamma 31.718802
_cell_volume 634.585052
_symmetry_space_group_name_H-M "P -1"
_symmetry_group_IT_number 2
_symmetry_cell_setting 'triclinic'
loop_
_space_group_symop_operation_xyz
x,y,z
-x,-y,-z
loop_
_atom_site_type_symbol
_atom_site_label
_atom_site_fract_x
_atom_site_fract_y
_atom_site_fract_z
Si Si1 0.175484 0.325641 0.496412
Si Si2 0.266337 0.805993 0.457654
Si Si3 0.618114 0.848602 0.231620
Si Si4 0.436526 0.878363 0.940032
Si Si5 0.113329 0.239493 0.171841
Si Si6 0.317346 0.579974 0.336362
Si Si7 0.739340 0.456413 0.168413
Si Si8 0.707766 0.185561 0.042711
O O1 0.196277 0.322776 0.762583
O O2 0.386622 0.212340 0.302841
O O3 0.000000 0.500000 0.500000
O O4 0.891131 0.717967 0.546734
O O5 0.288363 0.694885 0.390282
O O6 0.503807 0.658767 0.325694
O O7 0.179673 0.897071 0.779713
O O8 0.179431 0.900584 0.282336
O O9 0.500000 0.000000 0.500000
O O10 0.477856 0.884262 0.189034
O O11 0.714776 0.828192 0.995014
O O12 0.432682 0.787898 0.897046
O O13 0.216244 0.077302 0.033718
O O14 0.909652 0.394322 0.155144
O O15 0.242538 0.607586 0.626590
O O16 0.554806 0.374816 0.169997
O O17 0.227130 0.609365 0.131680
#
# Coordination Sequence:
#
# PCOD9105106 Si02
#       8
#     2   2   2   2   2   2   2   2
#     4  11  25  39  65  91 127 165 219 270 313 376
#     4  10  20  39  63  91 127 167 206 265 340 392
#     4  11  21  43  69  80 129 187 211 252 332 397
#     4  11  24  40  60  93 126 171 219 260 327 389
#     4  11  24  40  60  93 126 171 219 260 327 389
#     4  10  20  39  63  91 127 167 206 265 340 392
#     4  10  21  33  63  92 123 157 219 262 315 380
#     4  10  21  33  63  92 123 157 219 262 315 380
#
# _framework density 25.213325999999999
#
# number of rings (size 3 to 8) (size 9 to 14) (size 15 to 20)
#    0.000    1.500    2.500    4.500    7.000    4.000 
#    0.000    0.000    0.000    8.250    0.000    0.000 
#    0.000    0.000    0.000    0.000    0.000    0.000 
#
# Total GULP energy -89272.663591 kJ/mol
# GULP energy per Si atom -5579.541474 kJ/mol
# Density = 2.515594 g / cm^3
# Si number density = 25.213326 Si / 1000 Ang^3
#
#
#
# Elastic Constant Matrix: (Units=GPa)
#
#
# Indices 1 2 3 4 5 6 
#
# 1 72.9683 7.2728 42.2546 -12.3217 8.2291 -5.7100
# 2 7.2728 86.7946 25.5140 -19.7227 1.1273 -11.7965
# 3 42.2546 25.5140 116.3735 -39.8645 11.3849 -7.7639
# 4 -12.3217 -19.7227 -39.8645 51.9921 -5.7699 4.0293
# 5 8.2291 1.1273 11.3849 -5.7699 31.2076 -5.9215
# 6 -5.7100 -11.7965 -7.7639 4.0293 -5.9215 39.4210
#
#
#
# Elastic Compliance Matrix: (Units=1/GPa)
#
#
# Indices 1 2 3 4 5 6 
#
# 1 0.017623 0.000399 -0.006541 -0.001026 -0.002246 0.001151
# 2 0.000399 0.013291 -0.001682 0.003727 0.001388 0.003531
# 3 -0.006541 -0.001682 0.014522 0.008722 -0.001854 0.000239
# 4 -0.001026 0.003727 0.008722 0.027303 0.002040 0.000200
# 5 -0.002246 0.001388 -0.001854 0.002040 0.034532 0.004703
# 6 0.001151 0.003531 0.000239 0.000200 0.004703 0.027324
#
#
# Mechanical properties :
#
#
# Convention : Reuss Voigt Hill
#
# Bulk Modulus (GPa) = 33.57203 47.35767 40.46485
# Shear Modulus (GPa) = 31.21631 37.93048 34.57339
#
# Velocity S-wave (km/s) = 3.52246 3.88284 3.70704
# Velocity P-wave (km/s) = 5.46697 6.23903 5.86572
#
# Compressibility (1/GPa) = 0.02978670
#
# Stress axis : x y z
#
# Youngs Moduli (GPa) = 56.74459 75.23674 68.86104
#
# Poissons Ratio (x) = -0.02999 0.45043
# Poissons Ratio (y) = -0.02262 0.11584
# Poissons Ratio (z) = 0.37117 0.12657
#
# Static dielectric constant tensor:
#      x y z
#    x 2.236350 0.086410 0.574520 
#    y 0.086410 2.054370 0.149980 
#    z 0.574520 0.149980 3.501170 
# 
# From -- ./inp_files/99900.got.cif
#   From: 2010.05.17/outbox.cif.g08.bks.cpg/sg2_50_cif.got.tgz:99900.got - 2010.06.03 11:33:40.
