data_PCOD9105408
_publ_section_title
;
Structure prediction by ZEFSAII (Michael W. Deem and Ramdas Pophale) SiO2 
 PCOD9105408
Probable space group: P -1
;
_chemical_formula_sum "Si O2"
_cell_formula_units_Z 12
_cell_length_a 12.497387
_cell_length_b 5.130799
_cell_length_c 7.998534
_cell_angle_alpha 112.482047
_cell_angle_beta 82.149315
_cell_angle_gamma 82.844163
_cell_volume 460.617366
_symmetry_space_group_name_H-M "P -1"
_symmetry_group_IT_number 2
_symmetry_cell_setting 'triclinic'
loop_
_space_group_symop_operation_xyz
x,y,z
-x,-y,-z
loop_
_atom_site_type_symbol
_atom_site_label
_atom_site_fract_x
_atom_site_fract_y
_atom_site_fract_z
Si Si1 0.200113 0.890025 0.203317
Si Si2 0.586276 0.209150 0.057899
Si Si3 0.541964 0.291352 0.593660
Si Si4 0.117650 0.572792 0.832481
Si Si5 0.252148 0.927623 0.689367
Si Si6 0.915725 0.496503 0.667732
O O1 0.134198 0.780849 0.343705
O O2 0.180439 0.231858 0.276966
O O3 0.328830 0.782942 0.110124
O O4 0.140120 0.764720 0.030032
O O5 0.519010 0.525014 0.196027
O O6 0.665478 0.094244 0.172370
O O7 0.500000 0.000000 0.000000
O O8 0.500000 0.500000 0.500000
O O9 0.672125 0.196023 0.514212
O O10 0.500000 0.000000 0.500000
O O11 0.167357 0.725007 0.704439
O O12 0.991291 0.563811 0.823490
O O13 0.189111 0.252428 0.757399
O O14 0.000000 0.500000 0.500000
#
# Coordination Sequence:
#
# PCOD9105408 Si02
#       6
#     2   2   2   2   2   2
#     4  11  23  44  69  97 135 180 226 278 343 420
#     4  10  23  43  69 104 142 185 233 287 342 404
#     4  10  20  39  64  93 133 178 223 274 330 402
#     4  11  22  43  71  98 130 177 227 277 340 417
#     4  10  21  40  66 100 134 176 225 274 336 415
#     4  12  26  45  68 100 133 172 226 292 352 406
#
# _framework density 26.051991999999998
#
# number of rings (size 3 to 8) (size 9 to 14) (size 15 to 20)
#    0.000    1.333    0.000    7.500    0.000    2.667 
#    0.000   25.833    0.000    0.000    0.000    0.000 
#    0.000    0.000    0.000    0.000    0.000    0.000 
#
# Total GULP energy -67284.323003 kJ/mol
# GULP energy per Si atom -5607.026917 kJ/mol
# Density = 2.599270 g / cm^3
# Si number density = 26.051992 Si / 1000 Ang^3
#
#
#
# Elastic Constant Matrix: (Units=GPa)
#
#
# Indices 1 2 3 4 5 6 
#
# 1 83.2136 -10.1045 0.1630 -12.5573 12.8769 27.1766
# 2 -10.1045 122.7499 16.8010 7.2890 -2.5387 3.0013
# 3 0.1630 16.8010 112.9936 -10.6590 -23.9976 -5.9171
# 4 -12.5573 7.2890 -10.6590 53.8827 5.3329 -13.2398
# 5 12.8769 -2.5387 -23.9976 5.3329 40.7235 1.9754
# 6 27.1766 3.0013 -5.9171 -13.2398 1.9754 50.5582
#
#
#
# Elastic Compliance Matrix: (Units=1/GPa)
#
#
# Indices 1 2 3 4 5 6 
#
# 1 0.016071 0.001542 -0.001763 0.001739 -0.005852 -0.008252
# 2 0.001542 0.008627 -0.001666 -0.001545 -0.000636 -0.001916
# 3 -0.001763 -0.001666 0.010783 0.001942 0.006429 0.002566
# 4 0.001739 -0.001545 0.001942 0.021030 -0.002498 0.004989
# 5 -0.005852 -0.000636 0.006429 -0.002498 0.030381 0.002095
# 6 -0.008252 -0.001916 0.002566 0.004989 0.002095 0.025854
#
#
# Mechanical properties :
#
#
# Convention : Reuss Voigt Hill
#
# Bulk Modulus (GPa) = 31.53980 36.96400 34.25190
# Shear Modulus (GPa) = 39.34192 49.83940 44.59066
#
# Velocity S-wave (km/s) = 3.89026 4.37862 4.14164
# Velocity P-wave (km/s) = 5.68433 6.30733 6.00391
#
# Compressibility (1/GPa) = 0.03170598
#
# Stress axis : x y z
#
# Youngs Moduli (GPa) = 62.22323 115.91473 92.73537
#
# Poissons Ratio (x) = -0.17871 0.16353
# Poissons Ratio (y) = -0.09593 0.15451
# Poissons Ratio (z) = 0.10972 0.19313
#
# Static dielectric constant tensor:
#      x y z
#    x 2.026070 -0.047850 0.060900 
#    y -0.047850 1.985100 -0.094790 
#    z 0.060900 -0.094790 2.150710 
# 
# From -- ./inp_files/229992.got.cif
#   From: 2010.05.17/outbox.cif.g08.bks.cpg/sg2_115_cif.got.tgz:229992.got - 2010.06.03 11:33:40.
