data_PCOD9105078
_publ_section_title
;
Structure prediction by ZEFSAII (Michael W. Deem and Ramdas Pophale) SiO2 
 PCOD9105078
Probable space group: P -1
;
_chemical_formula_sum "Si O2"
_cell_formula_units_Z 13
_cell_length_a 15.137594
_cell_length_b 7.658906
_cell_length_c 6.835530
_cell_angle_alpha 59.349442
_cell_angle_beta 102.262852
_cell_angle_gamma 129.993327
_cell_volume 514.274291
_symmetry_space_group_name_H-M "P -1"
_symmetry_group_IT_number 2
_symmetry_cell_setting 'triclinic'
loop_
_space_group_symop_operation_xyz
x,y,z
-x,-y,-z
loop_
_atom_site_type_symbol
_atom_site_label
_atom_site_fract_x
_atom_site_fract_y
_atom_site_fract_z
Si Si1 0.847122 0.448524 0.359093
Si Si2 0.900999 0.622580 0.840971
Si Si3 0.104663 0.944009 0.314481
Si Si4 0.415272 0.319411 0.742774
Si Si5 0.157515 0.898858 0.941544
Si Si6 0.604063 0.272855 0.487502
Si Si7 0.500000 0.000000 0.000000
O O1 0.851390 0.510104 0.098191
O O2 0.851254 0.210762 0.505261
O O3 0.729855 0.367878 0.439646
O O4 0.964112 0.713840 0.356287
O O5 0.857296 0.360570 0.855470
O O6 0.041100 0.793286 0.829009
O O7 0.871680 0.817666 0.687778
O O8 0.153842 0.024020 0.068522
O O9 0.500000 0.500000 0.500000
O O10 0.411290 0.527352 0.731119
O O11 0.276703 0.090851 0.768192
O O12 0.454525 0.165375 0.942080
O O13 0.500000 0.000000 0.500000
O O14 0.581990 0.219341 0.739086
#
# Coordination Sequence:
#
# PCOD9105078 Si02
#       7
#     2   2   2   2   2   2   1
#     4  10  21  38  63  92 126 161 212 262 322 392
#     4  10  21  37  64  94 122 165 207 265 325 385
#     4  10  20  40  63  92 126 166 208 266 328 382
#     4  10  22  41  62  90 130 170 213 272 321 386
#     4  10  20  39  63  90 127 164 212 261 325 386
#     4  11  24  42  67  94 130 175 218 270 331 394
#     4  10  24  44  62  94 126 172 224 262 330 380
#
# _framework density 25.278341999999999
#
# number of rings (size 3 to 8) (size 9 to 14) (size 15 to 20)
#    0.000    1.846    0.000    4.615    4.308    0.615 
#    2.769   15.385    0.000    0.000    0.000    0.000 
#    0.000    0.000    0.000    0.000    0.000    0.000 
#
# Total GULP energy -72444.417447 kJ/mol
# GULP energy per Si atom -5572.647496 kJ/mol
# Density = 2.522081 g / cm^3
# Si number density = 25.278342 Si / 1000 Ang^3
#
#
#
# Elastic Constant Matrix: (Units=GPa)
#
#
# Indices 1 2 3 4 5 6 
#
# 1 201.5774 51.0819 70.1252 -25.8668 16.2243 -22.0706
# 2 51.0819 71.0193 14.3922 -29.0901 4.3125 -16.0626
# 3 70.1252 14.3922 116.2708 -27.5718 6.2638 6.2674
# 4 -25.8668 -29.0901 -27.5718 33.1630 -12.0295 8.1247
# 5 16.2243 4.3125 6.2638 -12.0295 83.0627 -33.1801
# 6 -22.0706 -16.0626 6.2674 8.1247 -33.1801 33.8046
#
#
#
# Elastic Compliance Matrix: (Units=1/GPa)
#
#
# Indices 1 2 3 4 5 6 
#
# 1 0.008292 -0.005153 -0.005625 -0.003839 0.000799 0.005715
# 2 -0.005153 0.029176 0.004573 0.025357 0.006975 0.010403
# 3 -0.005625 0.004573 0.015418 0.014065 -0.002230 -0.009927
# 4 -0.003839 0.025357 0.014065 0.064026 0.007021 -0.001563
# 5 0.000799 0.006975 -0.002230 0.007021 0.022584 0.024728
# 6 0.005715 0.010403 -0.009927 -0.001563 0.024728 0.064744
#
#
# Mechanical properties :
#
#
# Convention : Reuss Voigt Hill
#
# Bulk Modulus (GPa) = 24.70609 73.34069 49.02339
# Shear Modulus (GPa) = 21.72582 46.89060 34.30821
#
# Velocity S-wave (km/s) = 2.93484 4.31161 3.68804
# Velocity P-wave (km/s) = 4.61294 7.33913 6.12952
#
# Compressibility (1/GPa) = 0.04047584
#
# Stress axis : x y z
#
# Youngs Moduli (GPa) = 120.59403 34.27499 64.86060
#
# Poissons Ratio (x) = 0.17661 0.36483
# Poissons Ratio (y) = 0.62140 -0.29659
# Poissons Ratio (z) = 0.67833 -0.15673
#
# Static dielectric constant tensor:
#      x y z
#    x 1.993190 -0.012460 0.010630 
#    y -0.012460 2.098300 0.051370 
#    z 0.010630 0.051370 2.068860 
# 
# From -- ./inp_files/291650.got.cif
#   From: 2010.05.17/outbox.cif.g08.bks.cpg/sg2_146_cif.got.tgz:291650.got - 2010.06.03 11:33:40.
