data_PCOD9105180
_publ_section_title
;
Structure prediction by ZEFSAII (Michael W. Deem and Ramdas Pophale) SiO2 
 PCOD9105180
Probable space group: P -1
;
_chemical_formula_sum "Si O2"
_cell_formula_units_Z 15
_cell_length_a 6.788004
_cell_length_b 15.638116
_cell_length_c 7.825629
_cell_angle_alpha 105.965964
_cell_angle_beta 108.271398
_cell_angle_gamma 43.699922
_cell_volume 543.496294
_symmetry_space_group_name_H-M "P -1"
_symmetry_group_IT_number 2
_symmetry_cell_setting 'triclinic'
loop_
_space_group_symop_operation_xyz
x,y,z
-x,-y,-z
loop_
_atom_site_type_symbol
_atom_site_label
_atom_site_fract_x
_atom_site_fract_y
_atom_site_fract_z
Si Si1 0.491572 0.124109 0.926628
Si Si2 0.284756 0.772602 0.115411
Si Si3 0.500000 0.500000 0.500000
Si Si4 0.771434 0.397187 0.139162
Si Si5 0.754847 0.031399 0.289837
Si Si6 0.922450 0.538153 0.305273
Si Si7 0.150704 0.070375 0.383500
Si Si8 0.967751 0.293465 0.628574
O O1 0.632367 0.179035 0.975355
O O2 0.692517 0.005944 0.788492
O O3 0.177039 0.223249 0.807816
O O4 0.521419 0.087117 0.109349
O O5 0.596540 0.662598 0.230809
O O6 0.157769 0.723232 0.966358
O O7 0.042335 0.889983 0.233394
O O8 0.679729 0.419252 0.323704
O O9 0.633482 0.370250 0.569285
O O10 0.975756 0.423405 0.178402
O O11 0.500000 0.500000 0.000000
O O12 0.853064 0.104189 0.345780
O O13 0.685680 0.019851 0.454254
O O14 0.101566 0.577384 0.338418
O O15 0.000000 0.500000 0.500000
O O16 0.111640 0.185700 0.472097
#
# Coordination Sequence:
#
# PCOD9105180 Si02
#       8
#     2   2   1   2   2   2   2   2
#     4  10  22  43  65  99 135 171 217 275 332 392
#     4   9  20  39  66  95 135 175 213 270 331 396
#     4  12  26  42  72  96 128 182 228 268 332 394
#     4  10  23  43  67  94 134 177 223 266 330 392
#     4  10  22  39  70 101 128 169 225 271 330 401
#     4  10  20  39  63  94 134 175 219 266 324 388
#     4  10  22  41  68 100 131 173 220 267 335 395
#     4  11  25  42  68  97 138 173 223 278 327 395
#
# _framework density 27.599086
#
# number of rings (size 3 to 8) (size 9 to 14) (size 15 to 20)
#    0.000    1.867    1.333    2.000    7.467    0.533 
#    0.000    7.333    8.800    0.000    0.000    0.000 
#    0.000    0.000    0.000    0.000    0.000    0.000 
#
# Total GULP energy -83661.556418 kJ/mol
# GULP energy per Si atom -5577.437095 kJ/mol
# Density = 2.753627 g / cm^3
# Si number density = 27.599086 Si / 1000 Ang^3
#
#
#
# Elastic Constant Matrix: (Units=GPa)
#
#
# Indices 1 2 3 4 5 6 
#
# 1 114.3949 50.5514 39.6762 19.3261 3.3195 29.0412
# 2 50.5514 130.6886 74.9813 -14.1094 5.6613 -10.0302
# 3 39.6762 74.9813 161.6036 -8.9703 4.9672 10.1935
# 4 19.3261 -14.1094 -8.9703 60.1280 18.3695 13.5240
# 5 3.3195 5.6613 4.9672 18.3695 53.1501 5.9238
# 6 29.0412 -10.0302 10.1935 13.5240 5.9238 45.9757
#
#
#
# Elastic Compliance Matrix: (Units=1/GPa)
#
#
# Indices 1 2 3 4 5 6 
#
# 1 0.015417 -0.007371 -0.000104 -0.005272 0.002783 -0.010131
# 2 -0.007371 0.014687 -0.005203 0.004098 -0.002947 0.008188
# 3 -0.000104 -0.005203 0.008895 0.000951 -0.000232 -0.003291
# 4 -0.005272 0.004098 0.000951 0.022110 -0.007670 -0.001502
# 5 0.002783 -0.002947 -0.000232 -0.007670 0.021953 -0.002922
# 6 -0.010131 0.008188 -0.003291 -0.001502 -0.002922 0.031484
#
#
# Mechanical properties :
#
#
# Convention : Reuss Voigt Hill
#
# Bulk Modulus (GPa) = 73.30169 81.90053 77.60111
# Shear Modulus (GPa) = 34.61403 47.94931 41.28167
#
# Velocity S-wave (km/s) = 3.54527 4.17268 3.87170
# Velocity P-wave (km/s) = 6.58603 7.27698 6.94011
#
# Compressibility (1/GPa) = 0.01364225
#
# Stress axis : x y z
#
# Youngs Moduli (GPa) = 64.86417 68.08960 112.41941
#
# Poissons Ratio (x) = 0.50187 0.01172
# Poissons Ratio (y) = 0.47810 0.58493
# Poissons Ratio (z) = 0.00676 0.35428
#
# Static dielectric constant tensor:
#      x y z
#    x 1.912410 0.219370 -0.243800 
#    y 0.219370 2.129290 0.079230 
#    z -0.243800 0.079230 1.972330 
# 
# From -- ./inp_files/213371.got.cif
#   From: 2010.05.17/outbox.cif.g08.bks.cpg/sg2_107_cif.got.tgz:213371.got - 2010.06.03 11:33:40.
