data_PCOD9105845
_publ_section_title
;
Structure prediction by ZEFSAII (Michael W. Deem and Ramdas Pophale) SiO2 
 PCOD9105845
Probable space group: P -1
;
_chemical_formula_sum "Si O2"
_cell_formula_units_Z 16
_cell_length_a 5.959061
_cell_length_b 25.340961
_cell_length_c 5.641576
_cell_angle_alpha 82.278701
_cell_angle_beta 75.557963
_cell_angle_gamma 51.113070
_cell_volume 641.893337
_symmetry_space_group_name_H-M "P -1"
_symmetry_group_IT_number 2
_symmetry_cell_setting 'triclinic'
loop_
_space_group_symop_operation_xyz
x,y,z
-x,-y,-z
loop_
_atom_site_type_symbol
_atom_site_label
_atom_site_fract_x
_atom_site_fract_y
_atom_site_fract_z
Si Si1 0.765104 0.650855 0.461463
Si Si2 0.694701 0.009756 0.626675
Si Si3 0.123098 0.158626 0.692428
Si Si4 0.706281 0.766928 0.636905
Si Si5 0.382793 0.404766 0.808305
Si Si6 0.868068 0.339001 0.044752
Si Si7 0.059122 0.865047 0.766940
Si Si8 0.178885 0.545059 0.792563
O O1 0.637655 0.715975 0.614059
O O2 0.542552 0.641530 0.407432
O O3 0.986454 0.581738 0.588399
O O4 0.935121 0.660420 0.209382
O O5 0.449055 0.088514 0.701951
O O6 0.500000 0.000000 0.500000
O O7 0.000000 0.000000 0.500000
O O8 0.823515 0.946464 0.807218
O O9 0.137479 0.219377 0.608366
O O10 0.002182 0.151244 0.473588
O O11 0.956960 0.168829 0.973196
O O12 0.392522 0.839275 0.710330
O O13 0.923465 0.728961 0.821902
O O14 0.408421 0.464781 0.744090
O O15 0.586648 0.353494 0.990878
O O16 0.044365 0.442268 0.947823
O O17 0.733428 0.408135 0.186595
#
# Coordination Sequence:
#
# PCOD9105845 Si02
#       8
#     2   2   2   2   2   2   2   2
#     4  10  23  39  60  93 129 175 229 288 359 437
#     4  10  21  48  79 119 159 201 261 331 388 454
#     4  11  26  46  77 112 146 205 249 311 382 445
#     4  11  26  46  64  98 146 188 248 297 366 457
#     4  10  20  39  66  90 127 171 225 293 362 434
#     4  10  23  39  61  94 131 176 229 290 359 439
#     4  11  26  47  76 110 150 200 253 311 375 453
#     4   9  20  39  61  94 126 167 225 288 364 435
#
# _framework density 24.926259000000002
#
# number of rings (size 3 to 8) (size 9 to 14) (size 15 to 20)
#    0.000    1.750    1.250    1.125    3.500    6.500 
#    0.000    2.500    0.000    0.000    0.000    0.000 
#    0.000    0.000    0.000    0.000    0.000    0.000 
#
# Total GULP energy -89313.665844 kJ/mol
# GULP energy per Si atom -5582.104115 kJ/mol
# Density = 2.486953 g / cm^3
# Si number density = 24.926259 Si / 1000 Ang^3
#
#
#
# Elastic Constant Matrix: (Units=GPa)
#
#
# Indices 1 2 3 4 5 6 
#
# 1 71.0810 19.6757 23.4917 -5.6363 9.3427 6.7922
# 2 19.6757 107.9189 27.5546 -31.0325 13.5887 -6.3116
# 3 23.4917 27.5546 117.0368 -30.0772 -1.8438 4.3912
# 4 -5.6363 -31.0325 -30.0772 43.2114 0.9268 -5.7384
# 5 9.3427 13.5887 -1.8438 0.9268 49.6574 -6.2928
# 6 6.7922 -6.3116 4.3912 -5.7384 -6.2928 27.3544
#
#
#
# Elastic Compliance Matrix: (Units=1/GPa)
#
#
# Indices 1 2 3 4 5 6 
#
# 1 0.016678 -0.002990 -0.003226 -0.002899 -0.003099 -0.005634
# 2 -0.002990 0.013322 -0.000271 0.009749 -0.002603 0.005306
# 3 -0.003226 -0.000271 0.011090 0.007174 0.001048 0.000705
# 4 -0.002899 0.009749 0.007174 0.035990 -0.001381 0.009050
# 5 -0.003099 -0.002603 0.001048 -0.001381 0.022106 0.004797
# 6 -0.005634 0.005306 0.000705 0.009050 0.004797 0.042069
#
#
# Mechanical properties :
#
#
# Convention : Reuss Voigt Hill
#
# Bulk Modulus (GPa) = 35.56772 48.60898 42.08835
# Shear Modulus (GPa) = 30.56207 39.06562 34.81384
#
# Velocity S-wave (km/s) = 3.50537 3.96314 3.74126
# Velocity P-wave (km/s) = 5.53928 6.36282 5.96528
#
# Compressibility (1/GPa) = 0.02811538
#
# Stress axis : x y z
#
# Youngs Moduli (GPa) = 59.95837 75.06403 90.17509
#
# Poissons Ratio (x) = 0.22444 0.29092
# Poissons Ratio (y) = 0.17927 0.02444
# Poissons Ratio (z) = 0.19344 0.02034
#
# Static dielectric constant tensor:
#      x y z
#    x 2.041490 0.040240 0.005340 
#    y 0.040240 1.942340 0.057970 
#    z 0.005340 0.057970 2.053610 
# 
# From -- ./inp_files/11164.got.cif
#   From: 2010.05.17/outbox.cif.g08.bks.cpg/sg2_6_cif.got.tgz:11164.got - 2010.06.03 11:33:40.
