data_PCOD9105741
_publ_section_title
;
Structure prediction by ZEFSAII (Michael W. Deem and Ramdas Pophale) SiO2 
 PCOD9105741
Probable space group: P -1
;
_chemical_formula_sum "Si O2"
_cell_formula_units_Z 14
_cell_length_a 10.310826
_cell_length_b 10.429003
_cell_length_c 11.689691
_cell_angle_alpha 49.643815
_cell_angle_beta 126.497125
_cell_angle_gamma 90.900948
_cell_volume 614.258071
_symmetry_space_group_name_H-M "P -1"
_symmetry_group_IT_number 2
_symmetry_cell_setting 'triclinic'
loop_
_space_group_symop_operation_xyz
x,y,z
-x,-y,-z
loop_
_atom_site_type_symbol
_atom_site_label
_atom_site_fract_x
_atom_site_fract_y
_atom_site_fract_z
Si Si1 0.960462 0.555049 0.247186
Si Si2 0.917264 0.182290 0.943253
Si Si3 0.787186 0.927074 0.627987
Si Si4 0.350421 0.703565 0.071134
Si Si5 0.330494 0.339290 0.180418
Si Si6 0.606504 0.816083 0.067346
Si Si7 0.206682 0.075462 0.620032
O O1 0.098136 0.305830 0.481240
O O2 0.089062 0.630123 0.224824
O O3 0.798170 0.603017 0.036383
O O4 0.829205 0.695597 0.206246
O O5 0.710051 0.254310 0.852477
O O6 0.073046 0.101176 0.178278
O O7 0.000000 0.000000 0.000000
O O8 0.565824 0.146515 0.399365
O O9 0.761194 0.741383 0.734233
O O10 0.869897 0.913020 0.553456
O O11 0.567509 0.649450 0.186445
O O12 0.209023 0.921880 0.799540
O O13 0.322102 0.533342 0.110417
O O14 0.448585 0.951265 0.803142
O O15 0.500000 0.000000 0.000000
#
# Coordination Sequence:
#
# PCOD9105741 Si02
#       7
#     2   2   2   2   2   2   2
#     4  11  22  42  72  87 134 171 211 263 321 382
#     4  11  24  43  62  95 129 170 213 262 317 387
#     4  10  21  40  65  94 129 166 215 264 320 383
#     4  10  23  41  63  96 132 157 222 265 314 375
#     4  10  20  39  65  97 122 170 214 267 320 366
#     4  10  23  43  62  93 136 170 209 258 320 389
#     4  10  23  40  66  99 122 167 216 262 323 369
#
# _framework density 22.791725
#
# number of rings (size 3 to 8) (size 9 to 14) (size 15 to 20)
#    0.857    0.857    1.429    2.571    0.000    8.571 
#    2.571    0.714    0.000    0.000    0.000    0.000 
#    0.000    0.000    0.000    0.000    0.000    0.000 
#
# Total GULP energy -78189.367111 kJ/mol
# GULP energy per Si atom -5584.954794 kJ/mol
# Density = 2.273985 g / cm^3
# Si number density = 22.791725 Si / 1000 Ang^3
#
#
#
# Elastic Constant Matrix: (Units=GPa)
#
#
# Indices 1 2 3 4 5 6 
#
# 1 96.7793 12.9913 35.2059 -8.8285 -21.3983 -22.2280
# 2 12.9913 94.8994 24.6927 -19.2294 -29.8359 -12.8140
# 3 35.2059 24.6927 93.4033 -29.9243 -10.2542 -4.3196
# 4 -8.8285 -19.2294 -29.9243 37.1563 3.7325 -1.0505
# 5 -21.3983 -29.8359 -10.2542 3.7325 29.9411 -0.5443
# 6 -22.2280 -12.8140 -4.3196 -1.0505 -0.5443 31.1864
#
#
#
# Elastic Compliance Matrix: (Units=1/GPa)
#
#
# Indices 1 2 3 4 5 6 
#
# 1 0.020064 0.008029 -0.005789 0.002706 0.020334 0.017244
# 2 0.008029 0.022252 -0.002326 0.009349 0.026228 0.015316
# 3 -0.005789 -0.002326 0.016677 0.011000 -0.002159 -0.002439
# 4 0.002706 0.009349 0.011000 0.040486 0.010130 0.008834
# 5 0.020334 0.026228 -0.002159 0.010130 0.072548 0.026578
# 6 0.017244 0.015316 -0.002439 0.008834 0.026578 0.051073
#
#
# Mechanical properties :
#
#
# Convention : Reuss Voigt Hill
#
# Bulk Modulus (GPa) = 17.00041 47.87351 32.43696
# Shear Modulus (GPa) = 20.58642 33.80290 27.19466
#
# Velocity S-wave (km/s) = 3.00866 3.85531 3.45799
# Velocity P-wave (km/s) = 4.42092 6.39283 5.49604
#
# Compressibility (1/GPa) = 0.05882212
#
# Stress axis : x y z
#
# Youngs Moduli (GPa) = 49.84071 44.93948 59.96123
#
# Poissons Ratio (x) = -0.36082 0.34709
# Poissons Ratio (y) = -0.40017 0.13947
# Poissons Ratio (z) = 0.28851 0.10453
#
# Static dielectric constant tensor:
#      x y z
#    x 1.878520 0.026490 0.032650 
#    y 0.026490 1.871800 0.056360 
#    z 0.032650 0.056360 1.857490 
# 
# From -- ./inp_files/418961.got.cif
#   From: 2010.05.17/outbox.cif.g08.bks.cpg/sg2_210_cif.got.tgz:418961.got - 2010.06.03 11:33:40.
