data_PCOD9105878
_publ_section_title
;
Structure prediction by ZEFSAII (Michael W. Deem and Ramdas Pophale) SiO2 
 PCOD9105878
Probable space group: P -1
;
_chemical_formula_sum "Si O2"
_cell_formula_units_Z 16
_cell_length_a 16.689676
_cell_length_b 9.311245
_cell_length_c 6.843153
_cell_angle_alpha 103.004814
_cell_angle_beta 130.104842
_cell_angle_gamma 90.843233
_cell_volume 774.119808
_symmetry_space_group_name_H-M "P -1"
_symmetry_group_IT_number 2
_symmetry_cell_setting 'triclinic'
loop_
_space_group_symop_operation_xyz
x,y,z
-x,-y,-z
loop_
_atom_site_type_symbol
_atom_site_label
_atom_site_fract_x
_atom_site_fract_y
_atom_site_fract_z
Si Si1 0.168488 0.382836 0.647695
Si Si2 0.561814 0.230239 0.511589
Si Si3 0.626043 0.753453 0.021738
Si Si4 0.745254 0.966409 0.955718
Si Si5 0.550314 0.891608 0.327995
Si Si6 0.056053 0.156475 0.734296
Si Si7 0.798749 0.298638 0.008685
Si Si8 0.995755 0.336649 0.035481
O O1 0.287847 0.348587 0.829537
O O2 0.097543 0.281330 0.672715
O O3 0.175209 0.555302 0.769927
O O4 0.103876 0.343594 0.333361
O O5 0.540594 0.201254 0.701198
O O6 0.687946 0.298512 0.716470
O O7 0.534342 0.061446 0.321084
O O8 0.474277 0.311074 0.300618
O O9 0.574315 0.803614 0.150543
O O10 0.697547 0.898156 0.065698
O O11 0.838493 0.883207 0.018183
O O12 0.782977 0.145594 0.062242
O O13 0.653592 0.921945 0.638379
O O14 0.988951 0.217990 0.812882
O O15 0.000000 0.000000 0.500000
O O16 0.895109 0.299192 0.010594
O O17 0.000000 0.500000 0.000000
#
# Coordination Sequence:
#
# PCOD9105878 Si02
#       8
#     2   2   2   2   2   2   2   2
#     4  11  25  44  65  92 132 170 210 269 328 377
#     4   9  20  36  60  94 127 161 211 263 319 369
#     4  10  20  39  66  92 126 167 210 262 318 380
#     4   9  21  37  62  94 130 159 214 264 315 372
#     4   9  17  37  60  92 127 164 207 263 313 379
#     4  11  24  42  67  98 124 167 218 273 319 380
#     4  11  23  43  64  93 135 172 210 269 318 385
#     4  12  26  45  68  92 129 175 216 262 329 389
#
# _framework density 20.668634000000001
#
# number of rings (size 3 to 8) (size 9 to 14) (size 15 to 20)
#    0.000    1.750    1.250    3.000    1.750    6.500 
#    2.250    0.625    0.000    0.000    0.000    0.000 
#    0.000    0.000    0.000    0.000    0.000    0.000 
#
# Total GULP energy -89375.779026 kJ/mol
# GULP energy per Si atom -5585.986189 kJ/mol
# Density = 2.062159 g / cm^3
# Si number density = 20.668634 Si / 1000 Ang^3
#
#
#
# Elastic Constant Matrix: (Units=GPa)
#
#
# Indices 1 2 3 4 5 6 
#
# 1 96.5988 16.9324 29.5658 5.8606 -5.8002 -25.7624
# 2 16.9324 77.7038 29.1320 1.2899 -7.9549 -6.3034
# 3 29.5658 29.1320 71.0116 -4.7965 -0.5202 -15.1951
# 4 5.8606 1.2899 -4.7965 32.1501 -12.9737 1.1763
# 5 -5.8002 -7.9549 -0.5202 -12.9737 37.4099 5.9504
# 6 -25.7624 -6.3034 -15.1951 1.1763 5.9504 18.1930
#
#
#
# Elastic Compliance Matrix: (Units=1/GPa)
#
#
# Indices 1 2 3 4 5 6 
#
# 1 0.017978 -0.001411 -0.002018 -0.005848 -0.003515 0.024811
# 2 -0.001411 0.015723 -0.006501 0.000234 0.003621 -0.003180
# 3 -0.002018 -0.006501 0.020430 0.002125 -0.002694 0.012698
# 4 -0.005848 0.000234 0.002125 0.038993 0.014893 -0.013817
# 5 -0.003515 0.003621 -0.002694 0.014893 0.035008 -0.018386
# 6 0.024811 -0.003180 0.012698 -0.013817 -0.018386 0.106510
#
#
# Mechanical properties :
#
#
# Convention : Reuss Voigt Hill
#
# Bulk Modulus (GPa) = 29.17888 44.06382 36.62135
# Shear Modulus (GPa) = 18.80228 28.86288 23.83258
#
# Velocity S-wave (km/s) = 3.01940 3.74098 3.39939
# Velocity P-wave (km/s) = 5.12872 6.32656 5.75887
#
# Compressibility (1/GPa) = 0.03427136
#
# Stress axis : x y z
#
# Youngs Moduli (GPa) = 55.62449 63.60111 48.94746
#
# Poissons Ratio (x) = 0.08975 0.09877
# Poissons Ratio (y) = 0.07849 0.31820
# Poissons Ratio (z) = 0.11224 0.41346
#
# Static dielectric constant tensor:
#      x y z
#    x 1.778420 -0.016270 0.042330 
#    y -0.016270 1.750360 -0.035480 
#    z 0.042330 -0.035480 1.763440 
# 
# From -- ./inp_files/107304.got.cif
#   From: 2010.05.17/outbox.cif.g08.bks.cpg/sg2_54_cif.got.tgz:107304.got - 2010.06.03 11:33:40.
