data_PCOD9105369
_publ_section_title
;
Structure prediction by ZEFSAII (Michael W. Deem and Ramdas Pophale) SiO2 
 PCOD9105369
Probable space group: P -1
;
_chemical_formula_sum "Si O2"
_cell_formula_units_Z 14
_cell_length_a 8.731357
_cell_length_b 8.512882
_cell_length_c 10.983211
_cell_angle_alpha 51.640809
_cell_angle_beta 112.037613
_cell_angle_gamma 114.371509
_cell_volume 574.934398
_symmetry_space_group_name_H-M "P -1"
_symmetry_group_IT_number 2
_symmetry_cell_setting 'triclinic'
loop_
_space_group_symop_operation_xyz
x,y,z
-x,-y,-z
loop_
_atom_site_type_symbol
_atom_site_label
_atom_site_fract_x
_atom_site_fract_y
_atom_site_fract_z
Si Si1 0.994727 0.365628 0.442080
Si Si2 0.490752 0.762302 0.072197
Si Si3 0.895421 0.883022 0.718485
Si Si4 0.220634 0.739510 0.801549
Si Si5 0.666013 0.350301 0.673391
Si Si6 0.194580 0.062561 0.067159
Si Si7 0.580901 0.881539 0.476954
O O1 0.963214 0.127421 0.588356
O O2 0.855104 0.378970 0.289164
O O3 0.000000 0.500000 0.500000
O O4 0.177942 0.456607 0.394530
O O5 0.443760 0.645488 0.240714
O O6 0.341340 0.675819 0.969931
O O7 0.673670 0.781485 0.055225
O O8 0.500000 0.000000 0.000000
O O9 0.814801 0.851436 0.842643
O O10 0.736563 0.814101 0.615912
O O11 0.052501 0.780448 0.796220
O O12 0.340721 0.952852 0.683921
O O13 0.554300 0.296571 0.544872
O O14 0.745152 0.149796 0.807260
O O15 0.000000 0.000000 0.000000
O O16 0.500000 0.000000 0.500000
#
# Coordination Sequence:
#
# PCOD9105369 Si02
#       7
#     2   2   2   2   2   2   2
#     4  11  22  39  61  96 134 165 202 258 318 374
#     4  10  20  39  64  92 121 166 214 259 308 371
#     4  11  22  39  64  96 122 163 216 252 312 371
#     4  11  22  40  65  93 127 164 213 258 302 380
#     4  11  21  38  62  94 124 167 207 256 321 361
#     4  11  21  37  67  90 118 160 217 262 299 375
#     4  11  18  35  59  86 122 162 212 252 296 376
#
# _framework density 24.350605000000002
#
# number of rings (size 3 to 8) (size 9 to 14) (size 15 to 20)
#    0.000    1.143    5.714    4.286    0.000    0.571 
#    0.000    2.857    0.000    1.714    0.000    0.000 
#    0.000    0.000    0.000    0.000    0.000    0.000 
#
# Total GULP energy -78390.165899 kJ/mol
# GULP energy per Si atom -5599.297564 kJ/mol
# Density = 2.429518 g / cm^3
# Si number density = 24.350605 Si / 1000 Ang^3
#
#
#
# Elastic Constant Matrix: (Units=GPa)
#
#
# Indices 1 2 3 4 5 6 
#
# 1 183.9599 51.2681 59.8285 7.7551 -1.6361 -14.4169
# 2 51.2681 104.3713 58.4725 29.8400 4.8691 0.5934
# 3 59.8285 58.4725 114.0442 35.8272 16.9931 -6.4755
# 4 7.7551 29.8400 35.8272 34.7205 2.3076 5.4790
# 5 -1.6361 4.8691 16.9931 2.3076 48.0418 20.7017
# 6 -14.4169 0.5934 -6.4755 5.4790 20.7017 42.3179
#
#
#
# Elastic Compliance Matrix: (Units=1/GPa)
#
#
# Indices 1 2 3 4 5 6 
#
# 1 0.007425 -0.002754 -0.004216 0.004872 0.001562 0.000528
# 2 -0.002754 0.015601 -0.004003 -0.008551 0.000554 -0.000933
# 3 -0.004216 -0.004003 0.020553 -0.017570 -0.010016 0.008939
# 4 0.004872 -0.008551 -0.017570 0.054561 0.010216 -0.012971
# 5 0.001562 0.000554 -0.010016 0.010216 0.031511 -0.017746
# 6 0.000528 -0.000933 0.008939 -0.012971 -0.017746 0.035552
#
#
# Mechanical properties :
#
#
# Convention : Reuss Voigt Hill
#
# Bulk Modulus (GPa) = 46.22876 82.39040 64.30958
# Shear Modulus (GPa) = 25.72547 40.53648 33.13097
#
# Velocity S-wave (km/s) = 3.25385 4.08450 3.69261
# Velocity P-wave (km/s) = 5.75696 7.49351 6.68189
#
# Compressibility (1/GPa) = 0.02163156
#
# Stress axis : x y z
#
# Youngs Moduli (GPa) = 134.68853 64.09860 48.65498
#
# Poissons Ratio (x) = 0.17650 0.20515
# Poissons Ratio (y) = 0.37087 0.19479
# Poissons Ratio (z) = 0.56790 0.25662
#
# Static dielectric constant tensor:
#      x y z
#    x 1.926620 -0.019520 0.071180 
#    y -0.019520 1.889170 -0.145030 
#    z 0.071180 -0.145030 1.838980 
# 
# From -- ./inp_files/378866.got.cif
#   From: 2010.05.17/outbox.cif.g08.bks.cpg/sg2_190_cif.got.tgz:378866.got - 2010.06.03 11:33:40.
