data_PCOD9105634
_publ_section_title
;
Structure prediction by ZEFSAII (Michael W. Deem and Ramdas Pophale) SiO2 
 PCOD9105634
Probable space group: P -1
;
_chemical_formula_sum "Si O2"
_cell_formula_units_Z 16
_cell_length_a 10.416024
_cell_length_b 18.471194
_cell_length_c 18.624037
_cell_angle_alpha 32.022598
_cell_angle_beta 143.737022
_cell_angle_gamma 158.370854
_cell_volume 697.304157
_symmetry_space_group_name_H-M "P -1"
_symmetry_group_IT_number 2
_symmetry_cell_setting 'triclinic'
loop_
_space_group_symop_operation_xyz
x,y,z
-x,-y,-z
loop_
_atom_site_type_symbol
_atom_site_label
_atom_site_fract_x
_atom_site_fract_y
_atom_site_fract_z
Si Si1 0.508977 0.574816 0.050517
Si Si2 0.233883 0.284390 0.662503
Si Si3 0.514606 0.217447 0.494973
Si Si4 0.834881 0.726808 0.621295
Si Si5 0.042054 0.807419 0.222352
Si Si6 0.738840 0.250824 0.412693
Si Si7 0.216858 0.190551 0.165252
Si Si8 0.268411 0.711279 0.894166
O O1 0.244984 0.322174 0.126596
O O2 0.715257 0.647387 0.156105
O O3 0.776316 0.727158 0.976669
O O4 0.316295 0.624442 0.926341
O O5 0.638040 0.517042 0.661619
O O6 0.061068 0.198314 0.737941
O O7 0.103943 0.352134 0.501540
O O8 0.094410 0.072932 0.745903
O O9 0.443274 0.318390 0.423289
O O10 0.755412 0.235360 0.636308
O O11 0.682583 0.295612 0.426663
O O12 0.122187 0.965483 0.514119
O O13 0.077000 0.758430 0.755444
O O14 0.329581 0.049120 0.111974
O O15 0.580229 0.283408 0.259696
O O16 0.500000 0.000000 0.500000
O O17 0.000000 0.500000 0.000000
#
# Coordination Sequence:
#
# PCOD9105634 Si02
#       8
#     2   2   2   2   2   2   2   2
#     4  11  23  40  64  88 123 163 205 253 293 362
#     4  10  20  39  65  93 115 157 208 257 303 352
#     4   9  21  40  61  97 122 149 204 257 311 352
#     4  10  22  37  62  90 127 156 191 261 310 360
#     4  10  21  38  68  92 117 150 214 260 294 351
#     4   9  20  37  63  85 122 157 202 251 298 356
#     4  10  23  39  61  89 123 159 208 249 300 354
#     4  11  23  37  61  92 127 160 195 252 312 356
#
# _framework density 22.945511
#
# number of rings (size 3 to 8) (size 9 to 14) (size 15 to 20)
#    0.000    2.000    1.250    1.125    8.750    1.000 
#    0.000    3.125    0.000    0.000    0.000    0.000 
#    0.000    0.000    0.000    0.000    0.000    0.000 
#
# Total GULP energy -89181.826643 kJ/mol
# GULP energy per Si atom -5573.864165 kJ/mol
# Density = 2.289329 g / cm^3
# Si number density = 22.945511 Si / 1000 Ang^3
#
#
#
# Elastic Constant Matrix: (Units=GPa)
#
#
# Indices 1 2 3 4 5 6 
#
# 1 68.9354 19.9379 20.5334 -2.5838 7.9254 -17.5784
# 2 19.9379 93.7331 3.3859 -20.3638 -4.1202 -15.7544
# 3 20.5334 3.3859 62.8121 0.0672 -0.9171 -11.8987
# 4 -2.5838 -20.3638 0.0672 34.0337 -8.9459 6.9174
# 5 7.9254 -4.1202 -0.9171 -8.9459 35.6882 -4.9135
# 6 -17.5784 -15.7544 -11.8987 6.9174 -4.9135 28.2957
#
#
#
# Elastic Compliance Matrix: (Units=1/GPa)
#
#
# Indices 1 2 3 4 5 6 
#
# 1 0.019404 -0.003549 -0.004666 -0.003511 -0.004593 0.008177
# 2 -0.003549 0.014370 0.001443 0.008680 0.005378 0.005215
# 3 -0.004666 0.001443 0.018576 -0.000127 0.002499 0.006181
# 4 -0.003511 0.008680 -0.000127 0.038100 0.010659 -0.004865
# 5 -0.004593 0.005378 0.002499 0.010659 0.032991 0.004315
# 6 0.008177 0.005215 0.006181 -0.004865 0.004315 0.047862
#
#
# Mechanical properties :
#
#
# Convention : Reuss Voigt Hill
#
# Bulk Modulus (GPa) = 25.77031 34.79946 30.28488
# Shear Modulus (GPa) = 25.28009 31.71176 28.49593
#
# Velocity S-wave (km/s) = 3.32285 3.72162 3.52788
# Velocity P-wave (km/s) = 5.09679 5.80227 5.46094
#
# Compressibility (1/GPa) = 0.03880435
#
# Stress axis : x y z
#
# Youngs Moduli (GPa) = 51.53472 69.58978 53.83407
#
# Poissons Ratio (x) = 0.24698 0.25121
# Poissons Ratio (y) = 0.18290 -0.07766
# Poissons Ratio (z) = 0.24048 -0.10039
#
# Static dielectric constant tensor:
#      x y z
#    x 1.975450 0.020220 -0.037580 
#    y 0.020220 2.025850 -0.087610 
#    z -0.037580 -0.087610 1.957800 
# 
# From -- ./inp_files/253249.got.cif
#   From: 2010.05.17/outbox.cif.g08.bks.cpg/sg2_127_cif.got.tgz:253249.got - 2010.06.03 11:33:40.
