data_PCOD9105358
_publ_section_title
;
Structure prediction by ZEFSAII (Michael W. Deem and Ramdas Pophale) SiO2 
 PCOD9105358
Probable space group: P -1
;
_chemical_formula_sum "Si O2"
_cell_formula_units_Z 16
_cell_length_a 13.756115
_cell_length_b 14.077228
_cell_length_c 9.253469
_cell_angle_alpha 91.078350
_cell_angle_beta 58.814904
_cell_angle_gamma 139.882863
_cell_volume 720.382854
_symmetry_space_group_name_H-M "P -1"
_symmetry_group_IT_number 2
_symmetry_cell_setting 'triclinic'
loop_
_space_group_symop_operation_xyz
x,y,z
-x,-y,-z
loop_
_atom_site_type_symbol
_atom_site_label
_atom_site_fract_x
_atom_site_fract_y
_atom_site_fract_z
Si Si1 0.430833 0.687080 0.352987
Si Si2 0.465940 0.730854 0.821776
Si Si3 0.401201 0.484664 0.945124
Si Si4 0.888854 0.509358 0.162188
Si Si5 0.894656 0.514435 0.657807
Si Si6 0.108429 0.862558 0.001937
Si Si7 0.246533 0.242436 0.794236
Si Si8 0.859088 0.146350 0.368677
O O1 0.282577 0.642221 0.577767
O O2 0.244321 0.526996 0.362034
O O3 0.552582 0.694164 0.360671
O O4 0.656154 0.909378 0.116438
O O5 0.271293 0.562299 0.842895
O O6 0.662678 0.942504 0.602960
O O7 0.554088 0.692484 0.803402
O O8 0.311140 0.660844 0.069389
O O9 0.129958 0.311364 0.192054
O O10 0.500000 0.500000 0.000000
O O11 0.366848 0.393032 0.831719
O O12 0.000000 0.500000 0.000000
O O13 0.062752 0.722299 0.087894
O O14 0.000000 0.500000 0.500000
O O15 0.111365 0.726979 0.583814
O O16 0.165145 0.888313 0.786208
O O17 0.875178 0.759974 0.204878
O O18 0.000000 0.000000 0.000000
#
# Coordination Sequence:
#
# PCOD9105358 Si02
#       8
#     2   2   2   2   2   2   2   2
#     4  11  24  39  65  97 128 163 214 270 326 373
#     4  11  22  42  66  89 125 173 216 259 318 388
#     4  10  20  39  64  91 127 168 211 255 316 390
#     4  12  24  40  65  95 123 169 223 261 313 388
#     4  11  24  42  62  92 135 167 211 277 326 372
#     4  10  21  42  64  95 126 170 212 265 320 389
#     4   9  18  36  61  90 126 159 201 261 322 372
#     4  10  21  40  67  88 127 168 215 256 322 388
#
# _framework density 22.210412999999999
#
# number of rings (size 3 to 8) (size 9 to 14) (size 15 to 20)
#    0.000    1.500    5.000    2.250    0.000    4.000 
#    0.000    0.000    0.000    0.000    0.000    0.000 
#    0.000    0.000    0.000    0.000    0.000    0.000 
#
# Total GULP energy -89107.784879 kJ/mol
# GULP energy per Si atom -5569.236555 kJ/mol
# Density = 2.215986 g / cm^3
# Si number density = 22.210413 Si / 1000 Ang^3
#
#
#
# Elastic Constant Matrix: (Units=GPa)
#
#
# Indices 1 2 3 4 5 6 
#
# 1 60.6460 14.1734 17.1788 -6.4759 -1.6685 -15.7667
# 2 14.1734 75.3524 17.4225 -6.8476 -9.2753 -16.5851
# 3 17.1788 17.4225 81.2412 -4.1235 1.3451 -8.5971
# 4 -6.4759 -6.8476 -4.1235 34.6343 -14.3579 7.2026
# 5 -1.6685 -9.2753 1.3451 -14.3579 20.5257 11.2691
# 6 -15.7667 -16.5851 -8.5971 7.2026 11.2691 37.2169
#
#
#
# Elastic Compliance Matrix: (Units=1/GPa)
#
#
# Indices 1 2 3 4 5 6 
#
# 1 0.019674 -0.001703 -0.002902 -0.000054 -0.003376 0.007938
# 2 -0.001703 0.016682 -0.002957 0.007681 0.012561 0.000740
# 3 -0.002902 -0.002957 0.013832 -0.002486 -0.005802 0.002886
# 4 -0.000054 0.007681 -0.002486 0.061590 0.062014 -0.027871
# 5 -0.003376 0.012561 -0.005802 0.062014 0.123438 -0.046551
# 6 0.007938 0.000740 0.002886 -0.027871 -0.046551 0.050718
#
#
# Mechanical properties :
#
#
# Convention : Reuss Voigt Hill
#
# Bulk Modulus (GPa) = 28.51899 34.97656 31.74778
# Shear Modulus (GPa) = 15.98735 29.70636 22.84685
#
# Velocity S-wave (km/s) = 2.68584 3.66115 3.21074
# Velocity P-wave (km/s) = 4.74200 5.80121 5.29814
#
# Compressibility (1/GPa) = 0.03506435
#
# Stress axis : x y z
#
# Youngs Moduli (GPa) = 50.82778 59.94498 72.29555
#
# Poissons Ratio (x) = 0.10208 0.20979
# Poissons Ratio (y) = 0.08656 0.21380
# Poissons Ratio (z) = 0.14749 0.17727
#
# Static dielectric constant tensor:
#      x y z
#    x 1.952090 -0.062510 0.057720 
#    y -0.062510 1.896150 0.060420 
#    z 0.057720 0.060420 2.024750 
# 
# From -- ./inp_files/315396.got.cif
#   From: 2010.05.17/outbox.cif.g08.bks.cpg/sg2_158_cif.got.tgz:315396.got - 2010.06.03 11:33:40.
