data_PCOD9105090
_publ_section_title
;
Structure prediction by ZEFSAII (Michael W. Deem and Ramdas Pophale) SiO2 
 PCOD9105090
Probable space group: P -1
;
_chemical_formula_sum "Si O2"
_cell_formula_units_Z 16
_cell_length_a 19.711509
_cell_length_b 10.439452
_cell_length_c 11.595035
_cell_angle_alpha 116.252852
_cell_angle_beta 33.572342
_cell_angle_gamma 139.419969
_cell_volume 728.110265
_symmetry_space_group_name_H-M "P -1"
_symmetry_group_IT_number 2
_symmetry_cell_setting 'triclinic'
loop_
_space_group_symop_operation_xyz
x,y,z
-x,-y,-z
loop_
_atom_site_type_symbol
_atom_site_label
_atom_site_fract_x
_atom_site_fract_y
_atom_site_fract_z
Si Si1 0.293088 0.041043 0.220534
Si Si2 0.545057 0.348925 0.505611
Si Si3 0.962923 0.472207 0.694620
Si Si4 0.086011 0.154899 0.238940
Si Si5 0.218711 0.218655 0.821847
Si Si6 0.678788 0.887288 0.050702
Si Si7 0.722588 0.398948 0.813869
Si Si8 0.828142 0.340390 0.083703
O O1 0.371320 0.165076 0.034119
O O2 0.161999 0.783502 0.267042
O O3 0.487235 0.177325 0.072599
O O4 0.143203 0.008820 0.486725
O O5 0.336690 0.178932 0.663617
O O6 0.673020 0.584206 0.348564
O O7 0.656464 0.300636 0.327636
O O8 0.489684 0.326525 0.708761
O O9 0.858353 0.493417 0.771703
O O10 0.190393 0.641163 0.411153
O O11 0.934297 0.478888 0.869318
O O12 0.126805 0.032852 0.175257
O O13 0.212740 0.382826 0.227148
O O14 0.185602 0.253522 0.010201
O O15 0.000000 0.000000 0.000000
O O16 0.732314 0.096012 0.101407
O O17 0.000000 0.500000 0.000000
#
# Coordination Sequence:
#
# PCOD9105090 Si02
#       8
#     2   2   2   2   2   2   2   2
#     4  10  21  38  67  91 121 171 206 262 333 375
#     4  10  23  42  63  94 128 165 222 262 313 391
#     4   9  21  40  59  92 128 154 221 273 305 388
#     4  10  22  39  60  92 130 159 214 267 309 386
#     4  10  23  43  68  93 126 172 212 272 323 374
#     4  10  23  43  59  94 137 162 219 266 310 398
#     4  10  20  39  63  91 122 165 211 269 326 369
#     4  11  24  40  66  92 132 181 213 265 328 381
#
# _framework density 21.974694
#
# number of rings (size 3 to 8) (size 9 to 14) (size 15 to 20)
#    0.000    2.000    0.000    1.875    5.250    4.500 
#    0.000    1.250    0.000    0.000    0.000    0.000 
#    0.000    0.000    0.000    0.000    0.000    0.000 
#
# Total GULP energy -89236.535672 kJ/mol
# GULP energy per Si atom -5577.283479 kJ/mol
# Density = 2.192468 g / cm^3
# Si number density = 21.974694 Si / 1000 Ang^3
#
#
#
# Elastic Constant Matrix: (Units=GPa)
#
#
# Indices 1 2 3 4 5 6 
#
# 1 92.6595 17.8537 69.9957 6.6819 4.7600 -12.0899
# 2 17.8537 24.0312 32.9594 4.1361 -16.5159 -7.4394
# 3 69.9957 32.9594 156.0634 11.3400 -25.7781 -0.5910
# 4 6.6819 4.1361 11.3400 28.8751 -5.9620 -7.9772
# 5 4.7600 -16.5159 -25.7781 -5.9620 54.3644 6.0266
# 6 -12.0899 -7.4394 -0.5910 -7.9772 6.0266 21.9759
#
#
#
# Elastic Compliance Matrix: (Units=1/GPa)
#
#
# Indices 1 2 3 4 5 6 
#
# 1 0.021577 -0.004528 -0.010338 0.001396 -0.009473 0.013165
# 2 -0.004528 0.078678 -0.012009 0.003624 0.016724 0.020550
# 3 -0.010338 -0.012009 0.014670 -0.003960 0.005131 -0.012203
# 4 0.001396 0.003624 -0.003960 0.040116 0.001729 0.015976
# 5 -0.009473 0.016724 0.005131 0.001729 0.027633 -0.006362
# 6 0.013165 0.020550 -0.012203 0.015976 -0.006362 0.066919
#
#
# Mechanical properties :
#
#
# Convention : Reuss Voigt Hill
#
# Bulk Modulus (GPa) = 16.34597 57.15241 36.74919
# Shear Modulus (GPa) = 15.44481 31.17276 23.30878
#
# Velocity S-wave (km/s) = 2.65400 3.77048 3.26039
# Velocity P-wave (km/s) = 4.10443 6.70971 5.56176
#
# Compressibility (1/GPa) = 0.06117714
#
# Stress axis : x y z
#
# Youngs Moduli (GPa) = 46.34464 12.71000 68.16863
#
# Poissons Ratio (x) = 0.05755 0.70471
# Poissons Ratio (y) = 0.20983 0.81861
# Poissons Ratio (z) = 0.47910 0.15263
#
# Static dielectric constant tensor:
#      x y z
#    x 1.825420 -0.047130 0.002590 
#    y -0.047130 1.844910 0.000560 
#    z 0.002590 0.000560 1.820050 
# 
# From -- ./inp_files/471199.got.cif
#   From: 2010.05.17/outbox.cif.g08.bks.cpg/sg2_236_cif.got.tgz:471199.got - 2010.06.03 11:33:40.
