data_PCOD9105720
_publ_section_title
;
Structure prediction by ZEFSAII (Michael W. Deem and Ramdas Pophale) SiO2 
 PCOD9105720
Probable space group: P -1
;
_chemical_formula_sum "Si O2"
_cell_formula_units_Z 16
_cell_length_a 16.878284
_cell_length_b 9.213713
_cell_length_c 15.537317
_cell_angle_alpha 47.162201
_cell_angle_beta 154.397777
_cell_angle_gamma 129.372102
_cell_volume 763.909339
_symmetry_space_group_name_H-M "P -1"
_symmetry_group_IT_number 2
_symmetry_cell_setting 'triclinic'
loop_
_space_group_symop_operation_xyz
x,y,z
-x,-y,-z
loop_
_atom_site_type_symbol
_atom_site_label
_atom_site_fract_x
_atom_site_fract_y
_atom_site_fract_z
Si Si1 0.632341 0.194411 0.024112
Si Si2 0.447069 0.699721 0.820513
Si Si3 0.908447 0.140790 0.659545
Si Si4 0.485577 0.367522 0.286657
Si Si5 0.893095 0.404096 0.702127
Si Si6 0.997213 0.775338 0.557367
Si Si7 0.139873 0.156745 0.125703
Si Si8 0.777080 0.929886 0.133193
O O1 0.785543 0.256362 0.222380
O O2 0.745899 0.122725 0.081839
O O3 0.540210 0.396286 0.829933
O O4 0.500000 0.000000 0.000000
O O5 0.237606 0.760686 0.584821
O O6 0.502815 0.683181 0.781995
O O7 0.500000 0.500000 0.000000
O O8 0.577801 0.864164 0.929061
O O9 0.962626 0.304186 0.720888
O O10 0.078781 0.064612 0.805297
O O11 0.821009 0.952499 0.703451
O O12 0.682342 0.329219 0.535749
O O13 0.324144 0.232318 0.227181
O O14 0.910268 0.632661 0.602644
O O15 0.017684 0.346650 0.926421
O O16 0.863297 0.768313 0.346887
O O17 0.000000 0.000000 0.500000
O O18 0.000000 0.000000 0.000000
#
# Coordination Sequence:
#
# PCOD9105720 Si02
#       8
#     2   2   2   2   2   2   2   2
#     4  11  23  41  64  94 126 167 213 256 319 391
#     4  11  23  38  61  96 130 160 205 264 327 377
#     4  10  24  39  61  92 128 167 211 259 318 370
#     4  11  22  39  67  93 128 168 216 264 312 373
#     4  10  20  39  65  96 122 164 216 263 315 372
#     4  10  21  38  61  90 125 162 205 256 315 381
#     4  10  21  39  63  93 126 170 221 262 305 370
#     4  11  24  39  61  91 132 165 202 261 325 373
#
# _framework density 20.944891999999999
#
# number of rings (size 3 to 8) (size 9 to 14) (size 15 to 20)
#    0.000    1.500    1.250    5.250    3.500    6.500 
#    0.000    0.625    0.000    1.500    0.000    0.000 
#    0.000    0.000    0.000    0.000    0.000    0.000 
#
# Total GULP energy -89240.867278 kJ/mol
# GULP energy per Si atom -5577.554205 kJ/mol
# Density = 2.089722 g / cm^3
# Si number density = 20.944892 Si / 1000 Ang^3
#
#
#
# Elastic Constant Matrix: (Units=GPa)
#
#
# Indices 1 2 3 4 5 6 
#
# 1 31.7652 17.9692 5.1194 -6.5507 11.8618 -5.0864
# 2 17.9692 71.1580 -1.1817 1.9184 3.1954 10.6004
# 3 5.1194 -1.1817 71.7029 5.0885 -3.2007 -5.3868
# 4 -6.5507 1.9184 5.0885 35.3126 5.6053 1.9585
# 5 11.8618 3.1954 -3.2007 5.6053 27.9977 -2.7240
# 6 -5.0864 10.6004 -5.3868 1.9585 -2.7240 33.5908
#
#
#
# Elastic Compliance Matrix: (Units=1/GPa)
#
#
# Indices 1 2 3 4 5 6 
#
# 1 0.053981 -0.014392 -0.005541 0.014898 -0.023966 0.009015
# 2 -0.014392 0.018718 0.001270 -0.004135 0.004224 -0.007299
# 3 -0.005541 0.001270 0.015013 -0.004142 0.004924 0.001809
# 4 0.014898 -0.004135 -0.004142 0.033997 -0.013135 -0.000151
# 5 -0.023966 0.004224 0.004924 -0.013135 0.048634 0.000537
# 6 0.009015 -0.007299 0.001809 -0.000151 0.000537 0.033781
#
#
# Mechanical properties :
#
#
# Convention : Reuss Voigt Hill
#
# Bulk Modulus (GPa) = 19.84737 24.27110 22.05923
# Shear Modulus (GPa) = 19.36154 29.56150 24.46152
#
# Velocity S-wave (km/s) = 3.04370 3.76093 3.42116
# Velocity P-wave (km/s) = 4.67426 5.52021 5.11475
#
# Compressibility (1/GPa) = 0.05038451
#
# Stress axis : x y z
#
# Youngs Moduli (GPa) = 18.52517 53.42538 66.61062
#
# Poissons Ratio (x) = 0.76889 0.36910
# Poissons Ratio (y) = 0.26661 -0.08457
# Poissons Ratio (z) = 0.10265 -0.06783
#
# Static dielectric constant tensor:
#      x y z
#    x 1.781890 0.012480 0.013050 
#    y 0.012480 1.816970 -0.003770 
#    z 0.013050 -0.003770 1.869030 
# 
# From -- ./inp_files/455438.got.cif
#   From: 2010.05.17/outbox.cif.g08.bks.cpg/sg2_228_cif.got.tgz:455438.got - 2010.06.03 11:33:40.
