data_PCOD9105506
_publ_section_title
;
Structure prediction by ZEFSAII (Michael W. Deem and Ramdas Pophale) SiO2 
 PCOD9105506
Probable space group: P -1
;
_chemical_formula_sum "Si O2"
_cell_formula_units_Z 16
_cell_length_a 7.120171
_cell_length_b 14.134149
_cell_length_c 15.021301
_cell_angle_alpha 151.994192
_cell_angle_beta 99.140569
_cell_angle_gamma 72.561966
_cell_volume 658.085831
_symmetry_space_group_name_H-M "P -1"
_symmetry_group_IT_number 2
_symmetry_cell_setting 'triclinic'
loop_
_space_group_symop_operation_xyz
x,y,z
-x,-y,-z
loop_
_atom_site_type_symbol
_atom_site_label
_atom_site_fract_x
_atom_site_fract_y
_atom_site_fract_z
Si Si1 0.879196 0.392644 0.338367
Si Si2 0.486427 0.602231 0.379038
Si Si3 0.275840 0.020064 0.596548
Si Si4 0.862272 0.758108 0.067645
Si Si5 0.077516 0.520881 0.311033
Si Si6 0.397847 0.784089 0.048930
Si Si7 0.006283 0.087965 0.243908
Si Si8 0.403867 0.755640 0.221432
O O1 0.658088 0.549233 0.422598
O O2 0.000000 0.500000 0.500000
O O3 0.016620 0.351129 0.225515
O O4 0.875827 0.201037 0.242476
O O5 0.394590 0.839103 0.528699
O O6 0.307409 0.519006 0.328540
O O7 0.587954 0.449815 0.176871
O O8 0.259775 0.870072 0.388118
O O9 0.102310 0.191269 0.785234
O O10 0.407794 0.158635 0.686507
O O11 0.624208 0.785637 0.067444
O O12 0.967453 0.529250 0.835689
O O13 0.906181 0.936465 0.159726
O O14 0.971168 0.743200 0.539386
O O15 0.310017 0.832044 0.181279
O O16 0.233654 0.954598 0.117996
O O17 0.500000 0.500000 0.000000
#
# Coordination Sequence:
#
# PCOD9105506 Si02
#       8
#     2   2   2   2   2   2   2   2
#     4  10  25  39  64  96 131 167 223 262 314 375
#     4  11  21  42  66  93 130 176 210 259 322 381
#     4  10  21  37  67  94 127 166 208 262 319 378
#     4  10  22  40  63  92 128 172 215 260 316 382
#     4  10  23  40  63  93 129 171 217 264 311 378
#     4  10  23  39  69  95 125 172 214 260 328 378
#     4  11  23  42  63  92 130 171 212 272 315 372
#     4  10  20  39  65 100 125 160 217 263 315 387
#
# _framework density 24.312937000000002
#
# number of rings (size 3 to 8) (size 9 to 14) (size 15 to 20)
#    0.000    1.750    2.500    0.750    7.000    5.000 
#    0.000    3.125    0.000    3.750    0.000    0.000 
#    0.000    0.000    0.000    0.000    0.000    0.000 
#
# Total GULP energy -89199.896419 kJ/mol
# GULP energy per Si atom -5574.993526 kJ/mol
# Density = 2.425760 g / cm^3
# Si number density = 24.312937 Si / 1000 Ang^3
#
#
#
# Elastic Constant Matrix: (Units=GPa)
#
#
# Indices 1 2 3 4 5 6 
#
# 1 86.1832 22.9080 6.4324 2.2614 6.1570 6.2100
# 2 22.9080 53.0423 16.0741 -4.2378 9.9648 2.2239
# 3 6.4324 16.0741 162.4508 -20.3517 4.1792 5.7414
# 4 2.2614 -4.2378 -20.3517 24.6294 9.8188 -1.4619
# 5 6.1570 9.9648 4.1792 9.8188 25.8071 -6.0450
# 6 6.2100 2.2239 5.7414 -1.4619 -6.0450 33.3478
#
#
#
# Elastic Compliance Matrix: (Units=1/GPa)
#
#
# Indices 1 2 3 4 5 6 
#
# 1 0.013400 -0.005694 -0.000143 -0.002193 -0.000682 -0.002311
# 2 -0.005694 0.024549 -0.000726 0.008738 -0.011847 -0.002216
# 3 -0.000143 -0.000726 0.007333 0.007486 -0.004097 -0.001602
# 4 -0.002193 0.008738 0.007486 0.059227 -0.027499 -0.003851
# 5 -0.000682 -0.011847 -0.004097 -0.027499 0.057136 0.010774
# 6 -0.002311 -0.002216 -0.001602 -0.003851 0.010774 0.032625
#
#
# Mechanical properties :
#
#
# Convention : Reuss Voigt Hill
#
# Bulk Modulus (GPa) = 31.09806 43.61169 37.35487
# Shear Modulus (GPa) = 22.92385 33.84098 28.38241
#
# Velocity S-wave (km/s) = 3.07394 3.73485 3.42040
# Velocity P-wave (km/s) = 5.04156 6.04776 5.56744
#
# Compressibility (1/GPa) = 0.03215635
#
# Stress axis : x y z
#
# Youngs Moduli (GPa) = 74.62578 40.73539 136.37029
#
# Poissons Ratio (x) = 0.23196 0.01946
# Poissons Ratio (y) = 0.42494 0.09897
# Poissons Ratio (z) = 0.01065 0.02956
#
# Static dielectric constant tensor:
#      x y z
#    x 1.961760 0.027070 -0.019060 
#    y 0.027070 1.993580 -0.025040 
#    z -0.019060 -0.025040 2.055990 
# 
# From -- ./inp_files/504665.got.cif
#   From: 2010.05.17/outbox.cif.g08.bks.cpg/sg2_253_cif.got.tgz:504665.got - 2010.06.03 11:33:40.
