data_PCOD9105901
_publ_section_title
;
Structure prediction by ZEFSAII (Michael W. Deem and Ramdas Pophale) SiO2 
 PCOD9105901
Probable space group: P -1
;
_chemical_formula_sum "Si O2"
_cell_formula_units_Z 16
_cell_length_a 20.321349
_cell_length_b 19.519202
_cell_length_c 8.535019
_cell_angle_alpha 36.403724
_cell_angle_beta 45.620258
_cell_angle_gamma 20.401449
_cell_volume 675.225623
_symmetry_space_group_name_H-M "P -1"
_symmetry_group_IT_number 2
_symmetry_cell_setting 'triclinic'
loop_
_space_group_symop_operation_xyz
x,y,z
-x,-y,-z
loop_
_atom_site_type_symbol
_atom_site_label
_atom_site_fract_x
_atom_site_fract_y
_atom_site_fract_z
Si Si1 0.316857 0.540275 0.700738
Si Si2 0.013430 0.754878 0.002168
Si Si3 0.629676 0.809526 0.496819
Si Si4 0.768114 0.155586 0.221741
Si Si5 0.105645 0.717506 0.267220
Si Si6 0.343345 0.971845 0.073678
Si Si7 0.493564 0.139573 0.693709
Si Si8 0.473797 0.557955 0.198143
O O1 0.324534 0.639166 0.386988
O O2 0.443999 0.440412 0.822260
O O3 0.106241 0.745381 0.745424
O O4 0.441649 0.301683 0.847488
O O5 0.186012 0.468444 0.245056
O O6 0.001090 0.806069 0.111027
O O7 0.816381 0.924259 0.945128
O O8 0.702671 0.843821 0.225832
O O9 0.490583 0.888920 0.466806
O O10 0.500000 0.000000 0.500000
O O11 0.654625 0.279780 0.345942
O O12 0.813561 0.242069 0.961527
O O13 0.619851 0.286948 0.086816
O O14 0.965627 0.872446 0.366712
O O15 0.281189 0.433981 0.522578
O O16 0.358927 0.952217 0.273286
O O17 0.500000 0.000000 0.000000
#
# Coordination Sequence:
#
# PCOD9105901 Si02
#       8
#     2   2   2   2   2   2   2   2
#     4  11  22  41  62  93 136 172 220 272 341 390
#     4  11  22  40  67  99 131 173 226 272 333 403
#     4  10  20  41  71  93 129 173 217 275 328 399
#     4  10  20  39  66  93 129 175 232 271 327 394
#     4  10  20  39  67  98 130 175 224 277 329 396
#     4  11  22  41  65  95 128 176 218 272 333 394
#     4   9  21  40  67  94 135 170 215 273 333 390
#     4  10  22  40  62  93 131 180 220 279 332 395
#
# _framework density 23.695785000000001
#
# number of rings (size 3 to 8) (size 9 to 14) (size 15 to 20)
#    0.000    1.750    2.500    1.875    0.000    0.000 
#    6.750    2.500    2.750    0.000    0.000    0.000 
#    0.000    0.000    0.000    0.000    0.000    0.000 
#
# Total GULP energy -89477.974407 kJ/mol
# GULP energy per Si atom -5592.373400 kJ/mol
# Density = 2.364185 g / cm^3
# Si number density = 23.695785 Si / 1000 Ang^3
#
#
#
# Elastic Constant Matrix: (Units=GPa)
#
#
# Indices 1 2 3 4 5 6 
#
# 1 146.5829 36.9430 25.9393 -4.1174 32.6992 9.2703
# 2 36.9430 80.4462 21.6182 1.2903 6.2482 14.7201
# 3 25.9393 21.6182 74.5534 -6.5518 10.3599 8.8446
# 4 -4.1174 1.2903 -6.5518 31.6959 3.2681 -8.2698
# 5 32.6992 6.2482 10.3599 3.2681 42.1796 -4.9526
# 6 9.2703 14.7201 8.8446 -8.2698 -4.9526 45.4356
#
#
#
# Elastic Compliance Matrix: (Units=1/GPa)
#
#
# Indices 1 2 3 4 5 6 
#
# 1 0.009507 -0.003359 -0.001115 0.001561 -0.006848 -0.001097
# 2 -0.003359 0.015587 -0.003226 -0.002912 0.000822 -0.004177
# 3 -0.001115 -0.003226 0.015594 0.003115 -0.002907 -0.001513
# 4 0.001561 -0.002912 0.003115 0.034417 -0.003518 0.005899
# 5 -0.006848 0.000822 -0.002907 -0.003518 0.030395 0.004370
# 6 -0.001097 -0.004177 -0.001513 0.005899 0.004370 0.025431
#
#
# Mechanical properties :
#
#
# Convention : Reuss Voigt Hill
#
# Bulk Modulus (GPa) = 39.54300 52.28706 45.91503
# Shear Modulus (GPa) = 32.30840 38.33435 35.32137
#
# Velocity S-wave (km/s) = 3.69652 4.02652 3.86504
# Velocity P-wave (km/s) = 5.91126 6.61294 6.27192
#
# Compressibility (1/GPa) = 0.02528893
#
# Stress axis : x y z
#
# Youngs Moduli (GPa) = 105.18828 64.15570 64.12874
#
# Poissons Ratio (x) = 0.21547 0.07149
# Poissons Ratio (y) = 0.35328 0.20687
# Poissons Ratio (z) = 0.11727 0.20696
#
# Static dielectric constant tensor:
#      x y z
#    x 1.902230 -0.006530 0.007520 
#    y -0.006530 1.916690 0.040340 
#    z 0.007520 0.040340 1.968000 
# 
# From -- ./inp_files/349416.got.cif
#   From: 2010.05.17/outbox.cif.g08.bks.cpg/sg2_175_cif.got.tgz:349416.got - 2010.06.03 11:33:40.
