data_PCOD9105374
_publ_section_title
;
Structure prediction by ZEFSAII (Michael W. Deem and Ramdas Pophale) SiO2 
 PCOD9105374
Probable space group: P -1
;
_chemical_formula_sum "Si O2"
_cell_formula_units_Z 14
_cell_length_a 9.931325
_cell_length_b 10.008652
_cell_length_c 9.724622
_cell_angle_alpha 60.404878
_cell_angle_beta 99.222961
_cell_angle_gamma 57.849943
_cell_volume 582.376080
_symmetry_space_group_name_H-M "P -1"
_symmetry_group_IT_number 2
_symmetry_cell_setting 'triclinic'
loop_
_space_group_symop_operation_xyz
x,y,z
-x,-y,-z
loop_
_atom_site_type_symbol
_atom_site_label
_atom_site_fract_x
_atom_site_fract_y
_atom_site_fract_z
Si Si1 0.889778 0.862191 0.152103
Si Si2 0.584574 0.944421 0.194585
Si Si3 0.914599 0.014053 0.803829
Si Si4 0.116806 0.381309 0.376258
Si Si5 0.782881 0.030406 0.474266
Si Si6 0.728839 0.345819 0.108463
Si Si7 0.346838 0.281097 0.192203
O O1 0.714754 0.995100 0.165648
O O2 0.947039 0.639263 0.245354
O O3 0.837350 0.989751 0.937224
O O4 0.074097 0.811371 0.263791
O O5 0.735068 0.718429 0.419334
O O6 0.406582 0.099043 0.191975
O O7 0.500000 0.000000 0.000000
O O8 0.146137 0.791173 0.937789
O O9 0.819934 0.031428 0.640032
O O10 0.212657 0.351178 0.262163
O O11 0.094016 0.215007 0.437185
O O12 0.812861 0.165487 0.328758
O O13 0.556380 0.165532 0.345866
O O14 0.500000 0.500000 0.000000
O O15 0.743708 0.517308 0.024030
#
# Coordination Sequence:
#
# PCOD9105374 Si02
#       7
#     2   2   2   2   2   2   2
#     4  11  25  42  63  96 140 172 211 273 338 387
#     4  11  25  41  67  98 136 171 218 275 330 383
#     4  11  23  41  63  97 134 172 214 273 331 389
#     4  11  23  45  68  96 129 174 223 269 324 390
#     4  10  22  37  69  95 127 166 226 270 319 383
#     4  10  20  39  64  92 124 170 214 266 319 385
#     4  10  22  43  67  94 131 172 222 268 323 392
#
# _framework density 24.039449000000001
#
# number of rings (size 3 to 8) (size 9 to 14) (size 15 to 20)
#    0.000    1.429    1.429    5.143    4.000    2.857 
#    0.000    0.714    0.000    0.000    0.000    0.000 
#    0.000    0.000    0.000    0.000    0.000    0.000 
#
# Total GULP energy -78106.078644 kJ/mol
# GULP energy per Si atom -5579.005617 kJ/mol
# Density = 2.398473 g / cm^3
# Si number density = 24.039449 Si / 1000 Ang^3
#
#
#
# Elastic Constant Matrix: (Units=GPa)
#
#
# Indices 1 2 3 4 5 6 
#
# 1 65.9027 24.7345 34.6704 -1.7874 -17.5827 3.6068
# 2 24.7345 78.0396 44.5775 8.1692 -5.3614 1.0910
# 3 34.6704 44.5775 138.7132 11.8970 1.9672 16.8875
# 4 -1.7874 8.1692 11.8970 46.9101 5.0012 -7.0129
# 5 -17.5827 -5.3614 1.9672 5.0012 43.9054 8.2266
# 6 3.6068 1.0910 16.8875 -7.0129 8.2266 49.7372
#
#
#
# Elastic Compliance Matrix: (Units=1/GPa)
#
#
# Indices 1 2 3 4 5 6 
#
# 1 0.021104 -0.003912 -0.004115 0.001474 0.008215 -0.001198
# 2 -0.003912 0.016794 -0.004393 -0.001881 0.000703 0.001025
# 3 -0.004115 -0.004393 0.010247 -0.002262 -0.001804 -0.003105
# 4 0.001474 -0.001881 -0.002262 0.023268 -0.003029 0.004484
# 5 0.008215 0.000703 -0.001804 -0.003029 0.027510 -0.004976
# 6 -0.001198 0.001025 -0.003105 0.004484 -0.004976 0.022680
#
#
# Mechanical properties :
#
#
# Convention : Reuss Voigt Hill
#
# Bulk Modulus (GPa) = 42.90631 54.51335 48.70983
# Shear Modulus (GPa) = 32.42340 40.02210 36.22275
#
# Velocity S-wave (km/s) = 3.67653 4.08469 3.88597
# Velocity P-wave (km/s) = 5.99246 6.70612 6.35931
#
# Compressibility (1/GPa) = 0.02330660
#
# Stress axis : x y z
#
# Youngs Moduli (GPa) = 47.38452 59.54546 97.59070
#
# Poissons Ratio (x) = 0.23292 0.40156
# Poissons Ratio (y) = 0.18535 0.42869
# Poissons Ratio (z) = 0.19497 0.26157
#
# Static dielectric constant tensor:
#      x y z
#    x 1.984300 0.063720 0.041280 
#    y 0.063720 1.975850 -0.016110 
#    z 0.041280 -0.016110 1.943530 
# 
# From -- ./inp_files/252074.got.cif
#   From: 2010.05.17/outbox.cif.g08.bks.cpg/sg2_127_cif.got.tgz:252074.got - 2010.06.03 11:33:40.
