data_PCOD9105335
_publ_section_title
;
Structure prediction by ZEFSAII (Michael W. Deem and Ramdas Pophale) SiO2 
 PCOD9105335
Probable space group: P -1
;
_chemical_formula_sum "Si O2"
_cell_formula_units_Z 16
_cell_length_a 7.309443
_cell_length_b 16.807893
_cell_length_c 23.253134
_cell_angle_alpha 18.444292
_cell_angle_beta 47.907272
_cell_angle_gamma 49.056363
_cell_volume 668.406263
_symmetry_space_group_name_H-M "P -1"
_symmetry_group_IT_number 2
_symmetry_cell_setting 'triclinic'
loop_
_space_group_symop_operation_xyz
x,y,z
-x,-y,-z
loop_
_atom_site_type_symbol
_atom_site_label
_atom_site_fract_x
_atom_site_fract_y
_atom_site_fract_z
Si Si1 0.849111 0.643796 0.293996
Si Si2 0.095637 0.251717 0.333663
Si Si3 0.961981 0.208557 0.076415
Si Si4 0.261180 0.191282 0.924535
Si Si5 0.126329 0.874528 0.416240
Si Si6 0.635849 0.044488 0.354364
Si Si7 0.396990 0.548775 0.239789
Si Si8 0.466127 0.058917 0.143864
O O1 0.819757 0.751325 0.162174
O O2 0.828510 0.345935 0.490680
O O3 0.129402 0.647753 0.253759
O O4 0.646738 0.814155 0.255842
O O5 0.943535 0.271333 0.411807
O O6 0.388279 0.201329 0.318199
O O7 0.065947 0.489170 0.134158
O O8 0.000000 0.000000 0.500000
O O9 0.204520 0.101940 0.134305
O O10 0.728138 0.121922 0.218930
O O11 0.027988 0.109729 0.066076
O O12 0.389174 0.388938 0.804063
O O13 0.500000 0.000000 0.000000
O O14 0.879766 0.060540 0.330761
O O15 0.367416 0.027206 0.251405
O O16 0.591632 0.749235 0.566832
O O17 0.413580 0.696067 0.074549
#
# Coordination Sequence:
#
# PCOD9105335 Si02
#       8
#     2   2   2   2   2   2   2   2
#     4  11  20  38  66  91 129 170 203 253 318 372
#     4  12  23  41  64  92 123 159 208 265 318 370
#     4  10  21  40  63  89 124 163 206 257 314 370
#     4  11  20  37  64  90 131 169 202 257 317 369
#     4  10  23  40  64  90 120 167 206 252 319 373
#     4  10  23  43  62  85 120 167 211 261 309 371
#     4  10  22  39  61  94 128 165 212 257 304 377
#     4  10  20  39  64  90 127 162 204 252 308 377
#
# _framework density 23.937536999999999
#
# number of rings (size 3 to 8) (size 9 to 14) (size 15 to 20)
#    0.000    1.500    3.750    3.000    0.000    0.000 
#    2.250    7.500    0.000    0.000    0.000    0.000 
#    0.000    0.000    0.000    0.000    0.000    0.000 
#
# Total GULP energy -89252.523634 kJ/mol
# GULP energy per Si atom -5578.282727 kJ/mol
# Density = 2.388305 g / cm^3
# Si number density = 23.937537 Si / 1000 Ang^3
#
#
#
# Elastic Constant Matrix: (Units=GPa)
#
#
# Indices 1 2 3 4 5 6 
#
# 1 72.6563 32.3226 18.8287 3.8488 18.7055 -18.8556
# 2 32.3226 127.1090 61.6340 16.2466 -1.2841 -33.2164
# 3 18.8287 61.6340 137.1105 12.4910 9.0474 -20.9919
# 4 3.8488 16.2466 12.4910 50.1945 -7.4111 2.6723
# 5 18.7055 -1.2841 9.0474 -7.4111 29.1290 -11.2066
# 6 -18.8556 -33.2164 -20.9919 2.6723 -11.2066 29.2855
#
#
#
# Elastic Compliance Matrix: (Units=1/GPa)
#
#
# Indices 1 2 3 4 5 6 
#
# 1 0.019715 -0.004129 0.000803 -0.002383 -0.012091 0.004177
# 2 -0.004129 0.015826 -0.004449 -0.003057 0.010222 0.016294
# 3 0.000803 -0.004449 0.009763 -0.001662 -0.003704 0.001204
# 4 -0.002383 -0.003057 -0.001662 0.022618 0.005265 -0.006242
# 5 -0.012091 0.010222 -0.003704 0.005265 0.053113 0.020998
# 6 0.004177 0.016294 0.001204 -0.006242 0.020998 0.064785
#
#
# Mechanical properties :
#
#
# Convention : Reuss Voigt Hill
#
# Bulk Modulus (GPa) = 33.60716 62.49405 48.05061
# Shear Modulus (GPa) = 23.66445 36.66118 30.16281
#
# Velocity S-wave (km/s) = 3.14760 3.91773 3.55359
# Velocity P-wave (km/s) = 5.22301 6.82851 6.07900
#
# Compressibility (1/GPa) = 0.02975557
#
# Stress axis : x y z
#
# Youngs Moduli (GPa) = 50.72232 63.18638 102.42791
#
# Poissons Ratio (x) = 0.26089 -0.08225
# Poissons Ratio (y) = 0.20942 0.45566
# Poissons Ratio (z) = -0.04073 0.28109
#
# Static dielectric constant tensor:
#      x y z
#    x 1.947420 0.105580 -0.021690 
#    y 0.105580 1.159000 -0.205340 
#    z -0.021690 -0.205340 1.969980 
# 
# From -- ./inp_files/225755.got.cif
#   From: 2010.05.17/outbox.cif.g08.bks.cpg/sg2_113_cif.got.tgz:225755.got - 2010.06.03 11:33:40.
