data_PCOD9105903
_publ_section_title
;
Structure prediction by ZEFSAII (Michael W. Deem and Ramdas Pophale) SiO2 
 PCOD9105903
Probable space group: P -1
;
_chemical_formula_sum "Si O2"
_cell_formula_units_Z 16
_cell_length_a 22.202246
_cell_length_b 10.292322
_cell_length_c 5.124184
_cell_angle_alpha 123.211180
_cell_angle_beta 56.447896
_cell_angle_gamma 134.888744
_cell_volume 666.256485
_symmetry_space_group_name_H-M "P -1"
_symmetry_group_IT_number 2
_symmetry_cell_setting 'triclinic'
loop_
_space_group_symop_operation_xyz
x,y,z
-x,-y,-z
loop_
_atom_site_type_symbol
_atom_site_label
_atom_site_fract_x
_atom_site_fract_y
_atom_site_fract_z
Si Si1 0.284697 0.256264 0.093844
Si Si2 0.412064 0.300271 0.205842
Si Si3 0.240205 0.953109 0.525234
Si Si4 0.419998 0.614340 0.845359
Si Si5 0.710311 0.315709 0.692428
Si Si6 0.011399 0.193163 0.763781
Si Si7 0.053343 0.715223 0.494315
Si Si8 0.788278 0.549405 0.262174
O O1 0.370397 0.262809 0.980341
O O2 0.241096 0.306692 0.478003
O O3 0.330140 0.435308 0.991639
O O4 0.216067 0.059018 0.904177
O O5 0.434571 0.507425 0.462107
O O6 0.496549 0.302891 0.074839
O O7 0.327007 0.128084 0.370055
O O8 0.269998 0.838983 0.481913
O O9 0.158632 0.816805 0.379543
O O10 0.386476 0.748034 0.039708
O O11 0.725283 0.373492 0.415659
O O12 0.778772 0.482234 0.915485
O O13 0.976969 0.265351 0.696651
O O14 0.115116 0.350310 0.740881
O O15 0.967467 0.175469 0.127588
O O16 0.000000 0.000000 0.500000
O O17 0.000000 0.500000 0.500000
#
# Coordination Sequence:
#
# PCOD9105903 Si02
#       8
#     2   2   2   2   2   2   2   2
#     4  10  21  39  65  96 127 175 212 271 322 394
#     4  10  20  39  66  93 130 169 218 268 324 388
#     4  11  26  39  65  95 132 170 221 271 331 387
#     4   9  20  39  64  96 128 172 219 260 324 391
#     4  11  24  43  65  97 129 176 213 268 322 396
#     4  12  26  43  70 100 129 171 229 290 331 394
#     4  12  27  47  67  97 138 182 222 275 346 408
#     4  11  23  43  68  91 131 170 220 267 333 391
#
# _framework density 24.014776000000001
#
# number of rings (size 3 to 8) (size 9 to 14) (size 15 to 20)
#    0.000    1.250    1.250    4.125    5.250    0.500 
#    0.000    0.625    0.000    0.000    0.000    0.000 
#    0.000    0.000    0.000    0.000    0.000    0.000 
#
# Total GULP energy -89409.530844 kJ/mol
# GULP energy per Si atom -5588.095678 kJ/mol
# Density = 2.396012 g / cm^3
# Si number density = 24.014776 Si / 1000 Ang^3
#
#
#
# Elastic Constant Matrix: (Units=GPa)
#
#
# Indices 1 2 3 4 5 6 
#
# 1 153.9233 26.3114 -3.9672 -7.2213 1.5493 5.5193
# 2 26.3114 56.7952 4.3955 1.9721 -1.4555 5.7265
# 3 -3.9672 4.3955 50.5867 1.9372 1.5650 1.8506
# 4 -7.2213 1.9721 1.9372 24.5274 -2.7299 -0.5709
# 5 1.5493 -1.4555 1.5650 -2.7299 39.8672 -2.8068
# 6 5.5193 5.7265 1.8506 -0.5709 -2.8068 28.5476
#
#
#
# Elastic Compliance Matrix: (Units=1/GPa)
#
#
# Indices 1 2 3 4 5 6 
#
# 1 0.007242 -0.003430 0.000816 0.002289 -0.000335 -0.000752
# 2 -0.003430 0.019755 -0.001791 -0.002472 0.000532 -0.003181
# 3 0.000816 -0.001791 0.020118 -0.001352 -0.001066 -0.001235
# 4 0.002289 -0.002472 -0.001352 0.042096 0.002845 0.001263
# 5 -0.000335 0.000532 -0.001066 0.002845 0.025535 0.002595
# 6 -0.000752 -0.003181 -0.001235 0.001263 0.002595 0.036173
#
#
# Mechanical properties :
#
#
# Convention : Reuss Voigt Hill
#
# Bulk Modulus (GPa) = 26.10668 34.97607 30.54138
# Shear Modulus (GPa) = 28.98600 34.22613 31.60606
#
# Velocity S-wave (km/s) = 3.47797 3.77929 3.63176
# Velocity P-wave (km/s) = 5.19837 5.80001 5.50741
#
# Compressibility (1/GPa) = 0.03830437
#
# Stress axis : x y z
#
# Youngs Moduli (GPa) = 138.08591 50.62003 49.70770
#
# Poissons Ratio (x) = 0.17364 -0.04057
# Poissons Ratio (y) = 0.47368 0.08902
# Poissons Ratio (z) = -0.11271 0.09066
#
# Static dielectric constant tensor:
#      x y z
#    x 1.929830 -0.027350 -0.020760 
#    y -0.027350 1.986500 0.013790 
#    z -0.020760 0.013790 1.985770 
# 
# From -- ./inp_files/37911.got.cif
#   From: 2010.05.17/outbox.cif.g08.bks.cpg/sg2_19_cif.got.tgz:37911.got - 2010.06.03 11:33:40.
