data_PCOD9105270
_publ_section_title
;
Structure prediction by ZEFSAII (Michael W. Deem and Ramdas Pophale) SiO2 
 PCOD9105270
Probable space group: P -1
;
_chemical_formula_sum "Si O2"
_cell_formula_units_Z 16
_cell_length_a 21.497419
_cell_length_b 17.006332
_cell_length_c 8.564112
_cell_angle_alpha 39.111743
_cell_angle_beta 30.613480
_cell_angle_gamma 24.114626
_cell_volume 650.731805
_symmetry_space_group_name_H-M "P -1"
_symmetry_group_IT_number 2
_symmetry_cell_setting 'triclinic'
loop_
_space_group_symop_operation_xyz
x,y,z
-x,-y,-z
loop_
_atom_site_type_symbol
_atom_site_label
_atom_site_fract_x
_atom_site_fract_y
_atom_site_fract_z
Si Si1 0.780140 0.526300 0.179096
Si Si2 0.071364 0.717053 0.191999
Si Si3 0.179273 0.180905 0.664079
Si Si4 0.981926 0.206595 0.484306
Si Si5 0.354018 0.264558 0.316296
Si Si6 0.711894 0.120470 0.879511
Si Si7 0.357741 0.574938 0.554056
Si Si8 0.203408 0.278791 0.936003
O O1 0.631291 0.568970 0.327781
O O2 0.723091 0.702935 0.101702
O O3 0.824629 0.402573 0.423122
O O4 0.982595 0.373735 0.884098
O O5 0.199657 0.494762 0.287797
O O6 0.877250 0.813765 0.395150
O O7 0.081963 0.788680 0.216274
O O8 0.160726 0.720759 0.848600
O O9 0.313178 0.195746 0.376141
O O10 0.260297 0.994819 0.859682
O O11 0.088652 0.033309 0.404093
O O12 0.141373 0.184924 0.221331
O O13 0.325029 0.212718 0.621479
O O14 0.551502 0.180437 0.027722
O O15 0.646018 0.313820 0.738543
O O16 0.500000 0.500000 0.500000
O O17 0.000000 0.500000 0.000000
#
# Coordination Sequence:
#
# PCOD9105270 Si02
#       8
#     2   2   2   2   2   2   2   2
#     4   9  18  36  64  87 120 165 205 246 298 374
#     4  11  22  38  66  90 125 162 214 254 292 371
#     4  10  21  36  62  97 120 160 209 252 315 364
#     4  10  20  39  63  96 122 162 202 257 315 367
#     4  12  19  37  66  94 125 162 204 261 305 368
#     4  11  24  41  62  86 134 168 198 255 316 365
#     4  11  24  43  60  90 126 166 213 252 301 368
#     4  10  16  33  62  96 122 151 209 250 307 374
#
# _framework density 24.587700999999999
#
# number of rings (size 3 to 8) (size 9 to 14) (size 15 to 20)
#    0.000    1.500    7.500    0.750    0.000    6.000 
#    0.000    4.375    0.000    0.000    0.000    0.000 
#    0.000    0.000    0.000    0.000    0.000    0.000 
#
# Total GULP energy -89395.821201 kJ/mol
# GULP energy per Si atom -5587.238825 kJ/mol
# Density = 2.453174 g / cm^3
# Si number density = 24.587701 Si / 1000 Ang^3
#
#
#
# Elastic Constant Matrix: (Units=GPa)
#
#
# Indices 1 2 3 4 5 6 
#
# 1 115.6996 6.6105 3.7015 4.2055 -15.6438 -13.7033
# 2 6.6105 44.1044 1.0186 -14.2503 -5.1886 -12.4409
# 3 3.7015 1.0186 48.3884 -11.5882 -8.8378 -1.5960
# 4 4.2055 -14.2503 -11.5882 22.5185 -0.4988 -2.0675
# 5 -15.6438 -5.1886 -8.8378 -0.4988 38.9344 -0.0445
# 6 -13.7033 -12.4409 -1.5960 -2.0675 -0.0445 22.9235
#
#
#
# Elastic Compliance Matrix: (Units=1/GPa)
#
#
# Indices 1 2 3 4 5 6 
#
# 1 0.009919 0.000357 -0.000081 -0.001025 0.004009 0.006033
# 2 0.000357 0.041943 0.009670 0.034094 0.008395 0.026741
# 3 -0.000081 0.009670 0.027242 0.021153 0.007721 0.009019
# 4 -0.001025 0.034094 0.021153 0.079721 0.009985 0.026573
# 5 0.004009 0.008395 0.007721 0.009985 0.030304 0.008450
# 6 0.006033 0.026741 0.009019 0.026573 0.008450 0.064784
#
#
# Mechanical properties :
#
#
# Convention : Reuss Voigt Hill
#
# Bulk Modulus (GPa) = 10.10123 25.65039 17.87581
# Shear Modulus (GPa) = 18.72525 29.99940 24.36232
#
# Velocity S-wave (km/s) = 2.76265 3.49678 3.15117
# Velocity P-wave (km/s) = 3.78067 5.17283 4.53054
#
# Compressibility (1/GPa) = 0.09899780
#
# Stress axis : x y z
#
# Youngs Moduli (GPa) = 100.81619 23.84174 36.70779
#
# Poissons Ratio (x) = -0.00852 0.00296
# Poissons Ratio (y) = -0.03602 -0.35496
# Poissons Ratio (z) = 0.00813 -0.23055
#
# Static dielectric constant tensor:
#      x y z
#    x 2.022700 0.027760 -0.015350 
#    y 0.027760 2.005320 0.012270 
#    z -0.015350 0.012270 2.022060 
# 
# From -- ./inp_files/189791.got.cif
#   From: 2010.05.17/outbox.cif.g08.bks.cpg/sg2_95_cif.got.tgz:189791.got - 2010.06.03 11:33:40.
