data_PCOD9105202
_publ_section_title
;
Structure prediction by ZEFSAII (Michael W. Deem and Ramdas Pophale) SiO2 
 PCOD9105202
Probable space group: P -1
;
_chemical_formula_sum "Si O2"
_cell_formula_units_Z 16
_cell_length_a 12.088210
_cell_length_b 15.523701
_cell_length_c 7.726032
_cell_angle_alpha 118.014099
_cell_angle_beta 102.914041
_cell_angle_gamma 128.310563
_cell_volume 672.241760
_symmetry_space_group_name_H-M "P -1"
_symmetry_group_IT_number 2
_symmetry_cell_setting 'triclinic'
loop_
_space_group_symop_operation_xyz
x,y,z
-x,-y,-z
loop_
_atom_site_type_symbol
_atom_site_label
_atom_site_fract_x
_atom_site_fract_y
_atom_site_fract_z
Si Si1 0.488296 0.276421 0.026476
Si Si2 0.056354 0.431524 0.901561
Si Si3 0.872552 0.982120 0.817294
Si Si4 0.078464 0.449694 0.510754
Si Si5 0.691376 0.047550 0.945294
Si Si6 0.442634 0.589977 0.177384
Si Si7 0.637807 0.029420 0.325990
Si Si8 0.691604 0.668953 0.858991
O O1 0.576303 0.411589 0.036109
O O2 0.425825 0.125988 0.783641
O O3 0.687293 0.396985 0.329343
O O4 0.322083 0.223889 0.013728
O O5 0.069850 0.437079 0.703301
O O6 0.856463 0.217968 0.668035
O O7 0.280282 0.554303 0.161524
O O8 0.000000 0.500000 0.000000
O O9 0.690629 0.786951 0.478227
O O10 0.729635 0.963711 0.832924
O O11 0.066599 0.172300 0.961596
O O12 0.000000 0.000000 0.000000
O O13 0.000000 0.500000 0.500000
O O14 0.915893 0.259541 0.190937
O O15 0.654025 0.027940 0.121032
O O16 0.521785 0.993845 0.737520
O O17 0.359773 0.431563 0.084287
O O18 0.500000 0.500000 0.500000
#
# Coordination Sequence:
#
# PCOD9105202 Si02
#       8
#     2   2   2   2   2   2   2   2
#     4  11  24  45  67  99 142 179 233 283 343 420
#     4  10  23  42  64  96 138 176 222 280 342 411
#     4  12  25  45  70 103 136 178 235 287 343 406
#     4  10  20  39  63  95 131 176 223 273 338 398
#     4  10  21  40  66 103 137 171 233 287 327 415
#     4  11  27  47  65 102 139 180 232 281 355 406
#     4  10  21  40  71 100 134 185 224 278 356 397
#     4  12  26  47  72 100 133 186 232 286 343 405
#
# _framework density 23.800961000000001
#
# number of rings (size 3 to 8) (size 9 to 14) (size 15 to 20)
#    0.000    1.250    2.500    2.625    1.750    2.500 
#    4.500    1.875    0.000    0.000    0.000    0.000 
#    0.000    0.000    0.000    0.000    0.000    0.000 
#
# Total GULP energy -89324.080913 kJ/mol
# GULP energy per Si atom -5582.755057 kJ/mol
# Density = 2.374679 g / cm^3
# Si number density = 23.800961 Si / 1000 Ang^3
#
#
#
# Elastic Constant Matrix: (Units=GPa)
#
#
# Indices 1 2 3 4 5 6 
#
# 1 167.5523 28.6865 24.9355 0.9693 20.9387 -12.6539
# 2 28.6865 87.8696 24.3154 19.4108 4.6942 -18.0870
# 3 24.9355 24.3154 82.7574 16.7467 30.7038 2.2082
# 4 0.9693 19.4108 16.7467 29.6116 -0.1173 3.6672
# 5 20.9387 4.6942 30.7038 -0.1173 34.5244 6.7844
# 6 -12.6539 -18.0870 2.2082 3.6672 6.7844 33.7611
#
#
#
# Elastic Compliance Matrix: (Units=1/GPa)
#
#
# Indices 1 2 3 4 5 6 
#
# 1 0.007010 -0.001593 -0.000224 0.000603 -0.004344 0.002596
# 2 -0.001593 0.017159 -0.001868 -0.011424 -0.001771 0.010314
# 3 -0.000224 -0.001868 0.022566 -0.011959 -0.020272 0.002812
# 4 0.000603 -0.011424 -0.011959 0.049727 0.014636 -0.013455
# 5 -0.004344 -0.001771 -0.020272 0.014636 0.052553 -0.013402
# 6 0.002596 0.010314 0.002812 -0.013455 -0.013402 0.040089
#
#
# Mechanical properties :
#
#
# Convention : Reuss Voigt Hill
#
# Bulk Modulus (GPa) = 25.40328 54.89489 40.14908
# Shear Modulus (GPa) = 23.85565 36.92889 30.39227
#
# Velocity S-wave (km/s) = 3.16934 3.94327 3.57730
# Velocity P-wave (km/s) = 4.90809 6.62169 5.82821
#
# Compressibility (1/GPa) = 0.03936500
#
# Stress axis : x y z
#
# Youngs Moduli (GPa) = 142.65824 58.27906 44.31475
#
# Poissons Ratio (x) = 0.09286 0.00991
# Poissons Ratio (y) = 0.22731 0.08277
# Poissons Ratio (z) = 0.03189 0.10885
#
# Static dielectric constant tensor:
#      x y z
#    x 1.914290 0.113030 -0.079310 
#    y 0.113030 1.905140 0.070430 
#    z -0.079310 0.070430 1.850970 
# 
# From -- ./inp_files/274106.got.cif
#   From: 2010.05.17/outbox.cif.g08.bks.cpg/sg2_138_cif.got.tgz:274106.got - 2010.06.03 11:33:40.
