data_PCOD9105753
_publ_section_title
;
Structure prediction by ZEFSAII (Michael W. Deem and Ramdas Pophale) SiO2 
 PCOD9105753
Probable space group: P -1
;
_chemical_formula_sum "Si O2"
_cell_formula_units_Z 14
_cell_length_a 5.624395
_cell_length_b 15.188366
_cell_length_c 8.754532
_cell_angle_alpha 96.825522
_cell_angle_beta 51.425998
_cell_angle_gamma 95.063118
_cell_volume 580.438608
_symmetry_space_group_name_H-M "P -1"
_symmetry_group_IT_number 2
_symmetry_cell_setting 'triclinic'
loop_
_space_group_symop_operation_xyz
x,y,z
-x,-y,-z
loop_
_atom_site_type_symbol
_atom_site_label
_atom_site_fract_x
_atom_site_fract_y
_atom_site_fract_z
Si Si1 0.538912 0.437752 0.207078
Si Si2 0.733730 0.945706 0.005498
Si Si3 0.016600 0.722131 0.066395
Si Si4 0.354841 0.004658 0.394613
Si Si5 0.570190 0.615999 0.095577
Si Si6 0.622116 0.824025 0.775343
Si Si7 0.880817 0.667789 0.440244
O O1 0.652033 0.538627 0.167234
O O2 0.335517 0.412819 0.429674
O O3 0.802218 0.366321 0.074005
O O4 0.371983 0.420080 0.106085
O O5 0.822428 0.868996 0.839459
O O6 0.500000 0.000000 0.000000
O O7 0.506238 0.922689 0.228463
O O8 0.000000 0.000000 0.000000
O O9 0.738357 0.711270 0.059558
O O10 0.854172 0.712159 0.293072
O O11 0.285015 0.794814 0.965151
O O12 0.439385 0.100762 0.310244
O O13 0.500000 0.000000 0.500000
O O14 0.000000 0.000000 0.500000
O O15 0.220857 0.632709 0.281534
O O16 0.798788 0.743482 0.611579
#
# Coordination Sequence:
#
# PCOD9105753 Si02
#       7
#     2   2   2   2   2   2   2
#     4   9  20  39  64  93 139 180 235 285 325 402
#     4  10  22  47  70  99 134 177 226 282 351 419
#     4  10  22  41  61  99 136 180 227 277 353 400
#     4  11  24  47  75 106 129 178 239 284 353 431
#     4  10  20  39  65  97 134 186 231 277 337 404
#     4  10  24  46  65  95 145 172 224 296 353 421
#     4  10  22  41  60  99 137 177 230 278 343 406
#
# _framework density 24.119691
#
# number of rings (size 3 to 8) (size 9 to 14) (size 15 to 20)
#    0.000    2.000    0.000    2.571    2.000    2.857 
#   30.857    0.000    0.000    0.000    0.000    0.000 
#    0.000    0.000    0.000    0.000    0.000    0.000 
#
# Total GULP energy -78008.918465 kJ/mol
# GULP energy per Si atom -5572.065605 kJ/mol
# Density = 2.406479 g / cm^3
# Si number density = 24.119691 Si / 1000 Ang^3
#
#
#
# Elastic Constant Matrix: (Units=GPa)
#
#
# Indices 1 2 3 4 5 6 
#
# 1 94.5555 42.0209 44.5223 -19.8270 7.3808 29.2542
# 2 42.0209 93.8819 27.6082 -18.2952 6.5801 8.0999
# 3 44.5223 27.6082 127.4135 -16.7553 11.9393 17.6113
# 4 -19.8270 -18.2952 -16.7553 45.1980 -0.7936 -1.9444
# 5 7.3808 6.5801 11.9393 -0.7936 29.7449 -2.6168
# 6 29.2542 8.0999 17.6113 -1.9444 -2.6168 40.5647
#
#
#
# Elastic Compliance Matrix: (Units=1/GPa)
#
#
# Indices 1 2 3 4 5 6 
#
# 1 0.019228 -0.005632 -0.003032 0.004484 -0.003193 -0.011417
# 2 -0.005632 0.013907 -0.000789 0.002919 -0.001135 0.001694
# 3 -0.003032 -0.000789 0.009911 0.001880 -0.003184 -0.002074
# 4 0.004484 0.002919 0.001880 0.025781 -0.002136 -0.003535
# 5 -0.003193 -0.001135 -0.003184 -0.002136 0.036425 0.006159
# 6 -0.011417 0.001694 -0.002074 -0.003535 0.006159 0.033676
#
#
# Mechanical properties :
#
#
# Convention : Reuss Voigt Hill
#
# Bulk Modulus (GPa) = 41.42518 60.46150 50.94334
# Shear Modulus (GPa) = 30.14227 36.54816 33.34522
#
# Velocity S-wave (km/s) = 3.53894 3.89689 3.72222
# Velocity P-wave (km/s) = 5.82331 6.73568 6.29604
#
# Compressibility (1/GPa) = 0.02413991
#
# Stress axis : x y z
#
# Youngs Moduli (GPa) = 52.00785 71.90666 100.89786
#
# Poissons Ratio (x) = 0.40499 0.30587
# Poissons Ratio (y) = 0.29292 0.07964
# Poissons Ratio (z) = 0.15766 0.05676
#
# Static dielectric constant tensor:
#      x y z
#    x 2.094020 -0.018550 0.025550 
#    y -0.018550 2.017830 0.000980 
#    z 0.025550 0.000980 1.972430 
# 
# From -- ./inp_files/137773.got.cif
#   From: 2010.05.17/outbox.cif.g08.bks.cpg/sg2_69_cif.got.tgz:137773.got - 2010.06.03 11:33:40.
