data_PCOD9105082
_publ_section_title
;
Structure prediction by ZEFSAII (Michael W. Deem and Ramdas Pophale) SiO2 
 PCOD9105082
Probable space group: P -1
;
_chemical_formula_sum "Si O2"
_cell_formula_units_Z 16
_cell_length_a 13.778994
_cell_length_b 5.599907
_cell_length_c 9.185169
_cell_angle_alpha 100.243451
_cell_angle_beta 77.804224
_cell_angle_gamma 89.508940
_cell_volume 680.916126
_symmetry_space_group_name_H-M "P -1"
_symmetry_group_IT_number 2
_symmetry_cell_setting 'triclinic'
loop_
_space_group_symop_operation_xyz
x,y,z
-x,-y,-z
loop_
_atom_site_type_symbol
_atom_site_label
_atom_site_fract_x
_atom_site_fract_y
_atom_site_fract_z
Si Si1 0.914047 0.206146 0.428237
Si Si2 0.788924 0.804338 0.267760
Si Si3 0.901277 0.038183 0.734697
Si Si4 0.453308 0.773591 0.570143
Si Si5 0.815559 0.430217 0.992872
Si Si6 0.350063 0.911907 0.891185
Si Si7 0.718303 0.498740 0.499408
Si Si8 0.714969 0.761704 0.814911
O O1 0.835909 0.430788 0.460209
O O2 0.019468 0.189429 0.311901
O O3 0.859295 0.977004 0.351948
O O4 0.928258 0.175356 0.593206
O O5 0.847609 0.588837 0.136314
O O6 0.727565 0.942111 0.174783
O O7 0.711670 0.685990 0.389125
O O8 0.789775 0.951383 0.744065
O O9 0.893082 0.216190 0.894392
O O10 0.500000 0.500000 0.500000
O O11 0.341850 0.736600 0.541853
O O12 0.500000 0.000000 0.500000
O O13 0.441560 0.831766 0.751539
O O14 0.712115 0.312960 0.060206
O O15 0.784298 0.592507 0.880724
O O16 0.363634 0.089180 0.042877
O O17 0.679507 0.608375 0.674797
#
# Coordination Sequence:
#
# PCOD9105082 Si02
#       8
#     2   2   2   2   2   2   2   2
#     4  11  22  36  61  93 138 171 229 281 324 402
#     4  11  20  38  66  89 127 178 225 272 328 409
#     4  10  22  37  56  99 134 176 224 279 327 382
#     4  12  27  46  76 105 136 170 226 291 346 416
#     4  10  20  39  63  90 129 176 217 274 331 402
#     4  10  22  43  66  96 130 174 216 274 348 399
#     4  12  23  42  67  99 125 180 223 272 347 405
#     4  10  22  39  68  91 135 177 222 265 336 409
#
# _framework density 23.497752999999999
#
# number of rings (size 3 to 8) (size 9 to 14) (size 15 to 20)
#    0.000    1.250    5.000    0.750    1.750    2.000 
#    0.000   10.000    0.000    0.000    0.000    0.000 
#    0.000    0.000    0.000    0.000    0.000    0.000 
#
# Total GULP energy -89406.940452 kJ/mol
# GULP energy per Si atom -5587.933778 kJ/mol
# Density = 2.344427 g / cm^3
# Si number density = 23.497753 Si / 1000 Ang^3
#
#
#
# Elastic Constant Matrix: (Units=GPa)
#
#
# Indices 1 2 3 4 5 6 
#
# 1 35.5388 4.9898 19.9332 6.0809 -4.3893 -3.4607
# 2 4.9898 64.9537 40.6223 13.3257 -9.3869 6.6266
# 3 19.9332 40.6223 175.8118 36.7092 -9.7144 6.8138
# 4 6.0809 13.3257 36.7092 44.4176 3.2270 -4.2641
# 5 -4.3893 -9.3869 -9.7144 3.2270 35.5777 11.9941
# 6 -3.4607 6.6266 6.8138 -4.2641 11.9941 33.4317
#
#
#
# Elastic Compliance Matrix: (Units=1/GPa)
#
#
# Indices 1 2 3 4 5 6 
#
# 1 0.030707 -0.000091 -0.003162 -0.001431 0.002045 0.002925
# 2 -0.000091 0.019887 -0.002983 -0.004617 0.007014 -0.006448
# 3 -0.003162 -0.002983 0.008257 -0.005993 0.002681 -0.003145
# 4 -0.001431 -0.004617 -0.005993 0.030561 -0.008859 0.009065
# 5 0.002045 0.007014 0.002681 -0.008859 0.037209 -0.016204
# 6 0.002925 -0.006448 -0.003145 0.009065 -0.016204 0.039103
#
#
# Mechanical properties :
#
#
# Convention : Reuss Voigt Hill
#
# Bulk Modulus (GPa) = 21.56147 45.26608 33.41378
# Shear Modulus (GPa) = 25.81897 36.73599 31.27748
#
# Velocity S-wave (km/s) = 3.31839 3.95825 3.65236
# Velocity P-wave (km/s) = 4.88653 6.34005 5.66014
#
# Compressibility (1/GPa) = 0.04637902
#
# Stress axis : x y z
#
# Youngs Moduli (GPa) = 32.56604 50.28414 121.10835
#
# Poissons Ratio (x) = 0.00456 0.38296
# Poissons Ratio (y) = 0.00295 0.36129
# Poissons Ratio (z) = 0.10298 0.15001
#
# Static dielectric constant tensor:
#      x y z
#    x 1.959990 -0.049270 -0.045190 
#    y -0.049270 1.919310 0.065540 
#    z -0.045190 0.065540 1.888750 
# 
# From -- ./inp_files/37900.got.cif
#   From: 2010.05.17/outbox.cif.g08.bks.cpg/sg2_19_cif.got.tgz:37900.got - 2010.06.03 11:33:40.
