data_PCOD9105771
_publ_section_title
;
Structure prediction by ZEFSAII (Michael W. Deem and Ramdas Pophale) SiO2 
 PCOD9105771
Probable space group: P -1
;
_chemical_formula_sum "Si O2"
_cell_formula_units_Z 16
_cell_length_a 7.173011
_cell_length_b 20.427562
_cell_length_c 8.724713
_cell_angle_alpha 149.083644
_cell_angle_beta 96.935332
_cell_angle_gamma 81.969040
_cell_volume 650.385223
_symmetry_space_group_name_H-M "P -1"
_symmetry_group_IT_number 2
_symmetry_cell_setting 'triclinic'
loop_
_space_group_symop_operation_xyz
x,y,z
-x,-y,-z
loop_
_atom_site_type_symbol
_atom_site_label
_atom_site_fract_x
_atom_site_fract_y
_atom_site_fract_z
Si Si1 0.167043 0.567944 0.066762
Si Si2 0.204580 0.588870 0.638806
Si Si3 0.127936 0.998401 0.165863
Si Si4 0.874240 0.207705 0.720126
Si Si5 0.439027 0.184973 0.591795
Si Si6 0.899844 0.283388 0.386964
Si Si7 0.325923 0.302858 0.493333
Si Si8 0.377298 0.322299 0.189641
O O1 0.094038 0.676646 0.161352
O O2 0.247900 0.657356 0.384994
O O3 0.308302 0.457709 0.794789
O O4 0.000000 0.500000 0.000000
O O5 0.093941 0.599318 0.492476
O O6 0.228489 0.447150 0.421661
O O7 0.415877 0.625533 0.696867
O O8 0.113342 0.713109 0.965397
O O9 0.325791 0.061471 0.295741
O O10 0.012483 0.087582 0.455107
O O11 0.160865 0.854499 0.939619
O O12 0.000000 0.000000 0.000000
O O13 0.662380 0.165099 0.598243
O O14 0.416946 0.266542 0.595403
O O15 0.361849 0.247421 0.873374
O O16 0.114348 0.257754 0.409436
O O17 0.369527 0.259095 0.232260
#
# Coordination Sequence:
#
# PCOD9105771 Si02
#       8
#     2   2   2   2   2   2   2   2
#     4  10  20  39  66 100 133 169 227 274 341 414
#     4  10  23  44  65 101 140 173 223 284 349 416
#     4  12  24  48  68  96 138 183 241 286 332 409
#     4  11  24  44  70  98 140 184 222 289 346 395
#     4  11  26  46  70 104 141 179 234 289 338 410
#     4  11  24  42  67  97 130 184 231 285 339 405
#     4  11  22  41  71 103 133 179 222 280 359 412
#     4  10  23  44  68 103 141 173 223 286 348 420
#
# _framework density 24.600802999999999
#
# number of rings (size 3 to 8) (size 9 to 14) (size 15 to 20)
#    0.000    1.250    3.750    1.500    3.500    3.000 
#    2.250    1.250    0.000    0.000    0.000    0.000 
#    0.000    0.000    0.000    0.000    0.000    0.000 
#
# Total GULP energy -89240.484344 kJ/mol
# GULP energy per Si atom -5577.530271 kJ/mol
# Density = 2.454481 g / cm^3
# Si number density = 24.600803 Si / 1000 Ang^3
#
#
#
# Elastic Constant Matrix: (Units=GPa)
#
#
# Indices 1 2 3 4 5 6 
#
# 1 66.2684 12.2535 50.7534 -2.7624 12.7774 13.0390
# 2 12.2535 95.7495 39.2175 -20.1919 -8.7958 14.4754
# 3 50.7534 39.2175 102.2092 5.3537 0.3916 15.9825
# 4 -2.7624 -20.1919 5.3537 45.2481 -1.6297 0.7719
# 5 12.7774 -8.7958 0.3916 -1.6297 38.2613 -4.7268
# 6 13.0390 14.4754 15.9825 0.7719 -4.7268 33.1086
#
#
#
# Elastic Compliance Matrix: (Units=1/GPa)
#
#
# Indices 1 2 3 4 5 6 
#
# 1 0.029523 0.003743 -0.015163 0.005049 -0.009546 -0.007424
# 2 0.003743 0.015735 -0.007629 0.008311 0.002238 -0.004545
# 3 -0.015163 -0.007629 0.020591 -0.006664 0.002806 -0.000077
# 4 0.005049 0.008311 -0.006664 0.026994 0.001087 -0.002880
# 5 -0.009546 0.002238 0.002806 0.001087 0.030568 0.005765
# 6 -0.007424 -0.004545 -0.000077 -0.002880 0.005765 0.036042
#
#
# Mechanical properties :
#
#
# Convention : Reuss Voigt Hill
#
# Bulk Modulus (GPa) = 36.03635 52.07509 44.05572
# Shear Modulus (GPa) = 24.17765 34.12378 29.15072
#
# Velocity S-wave (km/s) = 3.13836 3.72842 3.44604
# Velocity P-wave (km/s) = 5.27377 6.30467 5.81212
#
# Compressibility (1/GPa) = 0.02774976
#
# Stress axis : x y z
#
# Youngs Moduli (GPa) = 33.87189 63.55206 48.56500
#
# Poissons Ratio (x) = -0.23786 0.73640
# Poissons Ratio (y) = -0.12677 0.37051
# Poissons Ratio (z) = 0.51360 0.48485
#
# Static dielectric constant tensor:
#      x y z
#    x 2.013770 0.043850 -0.026370 
#    y 0.043850 2.055110 -0.125240 
#    z -0.026370 -0.125240 2.031430 
# 
# From -- ./inp_files/222769.got.cif
#   From: 2010.05.17/outbox.cif.g08.bks.cpg/sg2_112_cif.got.tgz:222769.got - 2010.06.03 11:33:40.
