data_PCOD9105622
_publ_section_title
;
Structure prediction by ZEFSAII (Michael W. Deem and Ramdas Pophale) SiO2 
 PCOD9105622
Probable space group: P -1
;
_chemical_formula_sum "Si O2"
_cell_formula_units_Z 14
_cell_length_a 8.973747
_cell_length_b 18.576915
_cell_length_c 5.648738
_cell_angle_alpha 71.127849
_cell_angle_beta 125.530116
_cell_angle_gamma 118.957971
_cell_volume 669.356561
_symmetry_space_group_name_H-M "P -1"
_symmetry_group_IT_number 2
_symmetry_cell_setting 'triclinic'
loop_
_space_group_symop_operation_xyz
x,y,z
-x,-y,-z
loop_
_atom_site_type_symbol
_atom_site_label
_atom_site_fract_x
_atom_site_fract_y
_atom_site_fract_z
Si Si1 0.373564 0.833220 0.542683
Si Si2 0.006886 0.548137 0.200801
Si Si3 0.778042 0.955494 0.555406
Si Si4 0.989842 0.123269 0.822908
Si Si5 0.424973 0.691381 0.479444
Si Si6 0.416949 0.451480 0.220747
Si Si7 0.361531 0.161627 0.835031
O O1 0.553735 0.904805 0.497844
O O2 0.158592 0.832874 0.290969
O O3 0.392456 0.746212 0.601603
O O4 0.448278 0.848330 0.863318
O O5 0.000000 0.500000 0.500000
O O6 0.205266 0.629018 0.279500
O O7 0.814366 0.569159 0.985685
O O8 0.000000 0.500000 0.000000
O O9 0.759888 0.927375 0.299113
O O10 0.853975 0.049031 0.605922
O O11 0.927458 0.917572 0.849813
O O12 0.197079 0.176503 0.830326
O O13 0.537823 0.630282 0.674094
O O14 0.549879 0.761990 0.338007
O O15 0.500000 0.500000 0.500000
O O16 0.500000 0.500000 0.000000
#
# Coordination Sequence:
#
# PCOD9105622 Si02
#       7
#     2   2   2   2   2   2   2
#     4  10  23  39  61  94 132 173 216 272 334 392
#     4  12  25  46  72 102 129 173 226 278 341 412
#     4   9  20  39  62  93 131 172 222 273 316 398
#     4  10  20  39  65  92 129 175 223 266 328 389
#     4  11  26  43  65  93 138 164 223 271 344 403
#     4  12  25  47  75 101 132 176 224 286 343 409
#     4  10  23  39  60  94 132 169 217 273 330 393
#
# _framework density 20.915610000000001
#
# number of rings (size 3 to 8) (size 9 to 14) (size 15 to 20)
#    0.000    1.429    2.857    0.857    4.000    7.429 
#    0.000    0.000    0.000    0.000    0.000    0.000 
#    0.000    0.000    0.000    0.000    0.000    0.000 
#
# Total GULP energy -77999.558169 kJ/mol
# GULP energy per Si atom -5571.397012 kJ/mol
# Density = 2.086800 g / cm^3
# Si number density = 20.915610 Si / 1000 Ang^3
#
#
#
# Elastic Constant Matrix: (Units=GPa)
#
#
# Indices 1 2 3 4 5 6 
#
# 1 91.2693 24.8919 47.6262 -8.4691 30.6003 -9.9354
# 2 24.8919 72.8371 22.8131 12.3799 0.5916 0.7921
# 3 47.6262 22.8131 88.6446 3.6078 19.7863 -6.5303
# 4 -8.4691 12.3799 3.6078 32.2732 -0.7995 4.8341
# 5 30.6003 0.5916 19.7863 -0.7995 51.9526 -4.2545
# 6 -9.9354 0.7921 -6.5303 4.8341 -4.2545 30.7973
#
#
#
# Elastic Compliance Matrix: (Units=1/GPa)
#
#
# Indices 1 2 3 4 5 6 
#
# 1 0.020543 -0.005915 -0.007681 0.007897 -0.008765 0.002700
# 2 -0.005915 0.017690 -0.001985 -0.007868 0.003834 -0.001019
# 3 -0.007681 -0.001985 0.016533 -0.003350 -0.001689 0.001371
# 4 0.007897 -0.007868 -0.003350 0.037003 -0.003060 -0.004191
# 5 -0.008765 0.003834 -0.001689 -0.003060 0.025017 0.000652
# 6 0.002700 -0.001019 0.001371 -0.004191 0.000652 0.034406
#
#
# Mechanical properties :
#
#
# Convention : Reuss Voigt Hill
#
# Bulk Modulus (GPa) = 42.36707 49.26816 45.81761
# Shear Modulus (GPa) = 26.28495 33.49927 29.89211
#
# Velocity S-wave (km/s) = 3.54886 4.00639 3.78455
# Velocity P-wave (km/s) = 6.09038 6.70883 6.40707
#
# Compressibility (1/GPa) = 0.02360324
#
# Stress axis : x y z
#
# Youngs Moduli (GPa) = 48.67753 56.52950 60.48467
#
# Poissons Ratio (x) = 0.33439 0.46459
# Poissons Ratio (y) = 0.28794 0.12007
# Poissons Ratio (z) = 0.37390 0.11222
#
# Static dielectric constant tensor:
#      x y z
#    x 1.827310 -0.022580 -0.071310 
#    y -0.022580 1.736410 0.018830 
#    z -0.071310 0.018830 1.799010 
# 
# From -- ./inp_files/43509.got.cif
#   From: 2010.05.17/outbox.cif.g08.bks.cpg/sg2_22_cif.got.tgz:43509.got - 2010.06.03 11:33:40.
