data_PCOD9105695
_publ_section_title
;
Structure prediction by ZEFSAII (Michael W. Deem and Ramdas Pophale) SiO2 
 PCOD9105695
Probable space group: P -1
;
_chemical_formula_sum "Si O2"
_cell_formula_units_Z 16
_cell_length_a 11.092932
_cell_length_b 9.590210
_cell_length_c 9.232268
_cell_angle_alpha 98.167089
_cell_angle_beta 83.826418
_cell_angle_gamma 143.525364
_cell_volume 577.903510
_symmetry_space_group_name_H-M "P -1"
_symmetry_group_IT_number 2
_symmetry_cell_setting 'triclinic'
loop_
_space_group_symop_operation_xyz
x,y,z
-x,-y,-z
loop_
_atom_site_type_symbol
_atom_site_label
_atom_site_fract_x
_atom_site_fract_y
_atom_site_fract_z
Si Si1 0.870529 0.277409 0.307623
Si Si2 0.180621 0.079490 0.212412
Si Si3 0.597649 0.267634 0.473826
Si Si4 0.807698 0.210302 0.981992
Si Si5 0.808359 0.996147 0.501782
Si Si6 0.284545 0.381345 0.011459
Si Si7 0.652928 0.573467 0.313840
Si Si8 0.686761 0.293871 0.788211
O O1 0.733057 0.267822 0.396683
O O2 0.768222 0.145288 0.147359
O O3 0.091278 0.540381 0.278734
O O4 0.915233 0.187462 0.393501
O O5 0.082720 0.970742 0.368690
O O6 0.415850 0.330376 0.266439
O O7 0.144816 0.171263 0.116061
O O8 0.160159 0.913130 0.107517
O O9 0.362984 0.054581 0.423238
O O10 0.690436 0.493040 0.421818
O O11 0.578157 0.235968 0.644827
O O12 0.645469 0.132838 0.885450
O O13 0.000000 0.500000 0.000000
O O14 0.689496 0.761247 0.400654
O O15 0.231217 0.335504 0.841143
O O16 0.500000 0.500000 0.000000
O O17 0.305018 0.557520 0.094246
#
# Coordination Sequence:
#
# PCOD9105695 Si02
#       8
#     2   2   2   2   2   2   2   2
#     4  11  24  41  60  91 127 169 210 257 313 370
#     4  10  20  39  66  94 124 162 208 259 311 366
#     4  11  21  39  64  92 128 168 209 258 308 370
#     4  10  23  42  61  88 126 168 210 256 309 372
#     4  11  22  41  65  97 129 163 208 259 310 373
#     4  10  20  39  65  95 124 162 207 256 309 370
#     4  10  21  39  65  97 126 159 207 263 312 367
#     4  11  23  42  64  92 127 167 210 260 313 372
#
# _framework density 27.686285000000002
#
# number of rings (size 3 to 8) (size 9 to 14) (size 15 to 20)
#    0.000    1.500    0.000    6.750    0.000    3.000 
#    0.000   16.250    0.000    0.000    0.000    0.000 
#    0.000    0.000    0.000    0.000    0.000    0.000 
#
# Total GULP energy -89644.378351 kJ/mol
# GULP energy per Si atom -5602.773647 kJ/mol
# Density = 2.762327 g / cm^3
# Si number density = 27.686285 Si / 1000 Ang^3
#
#
#
# Elastic Constant Matrix: (Units=GPa)
#
#
# Indices 1 2 3 4 5 6 
#
# 1 109.4226 19.5151 55.1009 1.3720 10.3762 -15.5887
# 2 19.5151 84.8998 44.6293 -22.0363 -6.1868 -19.1228
# 3 55.1009 44.6293 254.4599 -16.9543 22.1279 -24.6123
# 4 1.3720 -22.0363 -16.9543 71.2939 -14.6657 5.8659
# 5 10.3762 -6.1868 22.1279 -14.6657 66.0584 -2.1450
# 6 -15.5887 -19.1228 -24.6123 5.8659 -2.1450 47.2279
#
#
#
# Elastic Compliance Matrix: (Units=1/GPa)
#
#
# Indices 1 2 3 4 5 6 
#
# 1 0.010809 -0.001576 -0.001836 -0.001618 -0.001521 0.002105
# 2 -0.001576 0.015664 -0.001977 0.004779 0.003579 0.004361
# 3 -0.001836 -0.001977 0.004918 0.000205 -0.001464 0.001065
# 4 -0.001618 0.004779 0.000205 0.016493 0.004283 -0.000346
# 5 -0.001521 0.003579 -0.001464 0.004283 0.017168 0.000432
# 6 0.002105 0.004361 0.001065 -0.000346 0.000432 0.024252
#
#
# Mechanical properties :
#
#
# Convention : Reuss Voigt Hill
#
# Bulk Modulus (GPa) = 48.51457 76.36364 62.43910
# Shear Modulus (GPa) = 46.74974 58.88517 52.81745
#
# Velocity S-wave (km/s) = 4.11366 4.61680 4.37247
# Velocity P-wave (km/s) = 6.33434 7.48742 6.93489
#
# Compressibility (1/GPa) = 0.02061236
#
# Stress axis : x y z
#
# Youngs Moduli (GPa) = 92.51614 63.84210 203.32776
#
# Poissons Ratio (x) = 0.10062 0.37333
# Poissons Ratio (y) = 0.14582 0.40197
# Poissons Ratio (z) = 0.16987 0.12621
#
# Static dielectric constant tensor:
#      x y z
#    x 2.221830 0.168260 0.069700 
#    y 0.168260 2.243130 -0.017620 
#    z 0.069700 -0.017620 2.176320 
# 
# From -- ./inp_files/244525.got.cif
#   From: 2010.05.17/outbox.cif.g08.bks.cpg/sg2_123_cif.got.tgz:244525.got - 2010.06.03 11:33:40.
