data_PCOD9105758
_publ_section_title
;
Structure prediction by ZEFSAII (Michael W. Deem and Ramdas Pophale) SiO2 
 PCOD9105758
Probable space group: P -1
;
_chemical_formula_sum "Si O2"
_cell_formula_units_Z 14
_cell_length_a 21.448801
_cell_length_b 9.269045
_cell_length_c 5.203629
_cell_angle_alpha 105.099827
_cell_angle_beta 98.354589
_cell_angle_gamma 39.350393
_cell_volume 630.640332
_symmetry_space_group_name_H-M "P -1"
_symmetry_group_IT_number 2
_symmetry_cell_setting 'triclinic'
loop_
_space_group_symop_operation_xyz
x,y,z
-x,-y,-z
loop_
_atom_site_type_symbol
_atom_site_label
_atom_site_fract_x
_atom_site_fract_y
_atom_site_fract_z
Si Si1 0.506551 0.290778 0.281223
Si Si2 0.348846 0.430745 0.599863
Si Si3 0.351944 0.790642 0.318061
Si Si4 0.984600 0.425546 0.704674
Si Si5 0.191560 0.956604 0.629243
Si Si6 0.647398 0.778540 0.996665
Si Si7 0.773936 0.798864 0.930902
O O1 0.441124 0.360979 0.521518
O O2 0.433502 0.519352 0.162272
O O3 0.595072 0.231930 0.413300
O O4 0.552283 0.059559 0.081170
O O5 0.253595 0.711825 0.680897
O O6 0.339573 0.329154 0.314290
O O7 0.358631 0.324885 0.820436
O O8 0.252133 0.883346 0.371466
O O9 0.317806 0.985131 0.203951
O O10 0.000000 0.500000 0.500000
O O11 0.871914 0.577274 0.727414
O O12 0.075036 0.143390 0.619403
O O13 0.000000 0.500000 0.000000
O O14 0.202796 0.092186 0.850842
O O15 0.739364 0.725163 0.050767
#
# Coordination Sequence:
#
# PCOD9105758 Si02
#       7
#     2   2   2   2   2   2   2
#     4  10  22  41  63  94 129 172 219 260 316 374
#     4  11  27  42  65  90 135 173 214 257 321 377
#     4  10  20  39  65  98 124 163 217 276 310 366
#     4  10  21  38  69 100 124 157 211 268 323 374
#     4  10  22  43  65  97 125 165 215 267 319 380
#     4  12  25  44  61  94 133 174 211 262 315 381
#     4  11  23  40  71  93 129 164 216 267 322 376
#
# _framework density 22.199659
#
# number of rings (size 3 to 8) (size 9 to 14) (size 15 to 20)
#    0.000    1.429    2.857    1.714    4.000    1.714 
#    2.571    1.429    0.000    0.000    0.000    0.000 
#    0.000    0.000    0.000    0.000    0.000    0.000 
#
# Total GULP energy -78270.416066 kJ/mol
# GULP energy per Si atom -5590.744005 kJ/mol
# Density = 2.214913 g / cm^3
# Si number density = 22.199659 Si / 1000 Ang^3
#
#
#
# Elastic Constant Matrix: (Units=GPa)
#
#
# Indices 1 2 3 4 5 6 
#
# 1 86.9516 70.3315 29.0493 9.0898 -20.8854 5.0442
# 2 70.3315 144.5458 31.1863 19.5035 -26.7302 -13.1910
# 3 29.0493 31.1863 76.2274 0.0798 -8.9096 -0.0489
# 4 9.0898 19.5035 0.0798 33.9309 6.1357 -4.3426
# 5 -20.8854 -26.7302 -8.9096 6.1357 40.8856 5.6992
# 6 5.0442 -13.1910 -0.0489 -4.3426 5.6992 28.2574
#
#
#
# Elastic Compliance Matrix: (Units=1/GPa)
#
#
# Indices 1 2 3 4 5 6 
#
# 1 0.023293 -0.009769 -0.004117 -0.003148 0.006555 -0.010531
# 2 -0.009769 0.014011 -0.001570 -0.005235 0.003674 0.006736
# 3 -0.004117 -0.001570 0.015310 0.002045 -0.000152 0.000373
# 4 -0.003148 -0.005235 0.002045 0.036020 -0.010804 0.005836
# 5 0.006555 0.003674 -0.000152 -0.010804 0.032877 -0.007746
# 6 -0.010531 0.006736 0.000373 0.005836 -0.007746 0.042873
#
#
# Mechanical properties :
#
#
# Convention : Reuss Voigt Hill
#
# Bulk Modulus (GPa) = 46.08064 63.20654 54.64359
# Shear Modulus (GPa) = 24.68769 32.42529 28.55649
#
# Velocity S-wave (km/s) = 3.33840 3.82595 3.59046
# Velocity P-wave (km/s) = 5.97179 6.93187 6.46967
#
# Compressibility (1/GPa) = 0.02170109
#
# Stress axis : x y z
#
# Youngs Moduli (GPa) = 42.93219 71.37276 65.31590
#
# Poissons Ratio (x) = 0.69727 0.26890
# Poissons Ratio (y) = 0.41942 0.10254
# Poissons Ratio (z) = 0.17675 0.11205
#
# Static dielectric constant tensor:
#      x y z
#    x 1.848960 -0.030650 0.009180 
#    y -0.030650 1.846650 0.003810 
#    z 0.009180 0.003810 1.871990 
# 
# From -- ./inp_files/35441.got.cif
#   From: 2010.05.17/outbox.cif.g08.bks.cpg/sg2_18_cif.got.tgz:35441.got - 2010.06.03 11:33:40.
