data_PCOD9105578
_publ_section_title
;
Structure prediction by ZEFSAII (Michael W. Deem and Ramdas Pophale) SiO2 
 PCOD9105578
Probable space group: P -1
;
_chemical_formula_sum "Si O2"
_cell_formula_units_Z 12
_cell_length_a 11.049827
_cell_length_b 14.051704
_cell_length_c 15.027496
_cell_angle_alpha 30.028175
_cell_angle_beta 40.851210
_cell_angle_gamma 27.634365
_cell_volume 541.020177
_symmetry_space_group_name_H-M "P -1"
_symmetry_group_IT_number 2
_symmetry_cell_setting 'triclinic'
loop_
_space_group_symop_operation_xyz
x,y,z
-x,-y,-z
loop_
_atom_site_type_symbol
_atom_site_label
_atom_site_fract_x
_atom_site_fract_y
_atom_site_fract_z
Si Si1 0.768286 0.216732 0.172130
Si Si2 0.979889 0.425068 0.273283
Si Si3 0.530522 0.172632 0.194347
Si Si4 0.780780 0.934751 0.072830
Si Si5 0.067920 0.955990 0.394754
Si Si6 0.301498 0.188629 0.037041
O O1 0.628448 0.139018 0.267092
O O2 0.848151 0.138390 0.293148
O O3 0.592509 0.532766 0.002981
O O4 0.026720 0.069433 0.086707
O O5 0.871471 0.660779 0.211095
O O6 0.292628 0.196724 0.297848
O O7 0.926348 0.534866 0.112339
O O8 0.837268 0.328393 0.445608
O O9 0.764831 0.962418 0.165285
O O10 0.479419 0.178826 0.012805
O O11 0.230887 0.029898 0.235892
O O12 0.000000 0.000000 0.500000
O O13 0.500000 0.000000 0.000000
#
# Coordination Sequence:
#
# PCOD9105578 Si02
#       6
#     2   2   2   2   2   2
#     4  10  22  41  60  97 123 163 217 256 305 381
#     4  10  23  40  63  94 128 162 213 257 312 375
#     4  10  20  40  69  85 126 170 207 259 313 370
#     4  10  20  39  65  90 122 170 207 258 315 368
#     4  12  24  39  64  98 129 164 210 260 318 377
#     4  10  20  41  61  89 131 164 204 259 308 369
#
# _framework density 22.180319999999998
#
# number of rings (size 3 to 8) (size 9 to 14) (size 15 to 20)
#    0.000    1.667    5.000    1.500    2.333    4.667 
#    0.000    2.500    0.000    0.000    0.000    0.000 
#    0.000    0.000    0.000    0.000    0.000    0.000 
#
# Total GULP energy -66939.558008 kJ/mol
# GULP energy per Si atom -5578.296501 kJ/mol
# Density = 2.212984 g / cm^3
# Si number density = 22.180320 Si / 1000 Ang^3
#
#
#
# Elastic Constant Matrix: (Units=GPa)
#
#
# Indices 1 2 3 4 5 6 
#
# 1 104.0041 22.1784 19.9664 9.6395 3.7719 9.2222
# 2 22.1784 69.3237 24.0672 11.4278 -3.0611 6.4980
# 3 19.9664 24.0672 100.7711 18.1330 -14.9320 -3.2408
# 4 9.6395 11.4278 18.1330 19.3410 3.5538 0.7439
# 5 3.7719 -3.0611 -14.9320 3.5538 39.0129 9.5485
# 6 9.2222 6.4980 -3.2408 0.7439 9.5485 29.3482
#
#
#
# Elastic Compliance Matrix: (Units=1/GPa)
#
#
# Indices 1 2 3 4 5 6 
#
# 1 0.010885 -0.002389 -0.001356 -0.002478 -0.000874 -0.002694
# 2 -0.002389 0.017662 -0.002156 -0.007521 0.002457 -0.004007
# 3 -0.001356 -0.002156 0.013842 -0.012194 0.006193 0.000726
# 4 -0.002478 -0.007521 -0.012194 0.070945 -0.012287 0.003297
# 5 -0.000874 0.002457 0.006193 -0.012287 0.031750 -0.009604
# 6 -0.002694 -0.004007 0.000726 0.003297 -0.009604 0.038929
#
#
# Mechanical properties :
#
#
# Convention : Reuss Voigt Hill
#
# Bulk Modulus (GPa) = 32.69516 45.16922 38.93219
# Shear Modulus (GPa) = 24.27041 31.39953 27.83497
#
# Velocity S-wave (km/s) = 3.31151 3.76659 3.54636
# Velocity P-wave (km/s) = 5.42163 6.27097 5.86170
#
# Compressibility (1/GPa) = 0.03058557
#
# Stress axis : x y z
#
# Youngs Moduli (GPa) = 91.86866 56.61917 72.24182
#
# Poissons Ratio (x) = 0.13527 0.09799
# Poissons Ratio (y) = 0.21949 0.15577
# Poissons Ratio (z) = 0.12462 0.12209
#
# Static dielectric constant tensor:
#      x y z
#    x 1.903270 -0.047390 0.040590 
#    y -0.047390 1.877390 -0.009820 
#    z 0.040590 -0.009820 1.834820 
# 
# From -- ./inp_files/453399.got.cif
#   From: 2010.05.17/outbox.cif.g08.bks.cpg/sg2_227_cif.got.tgz:453399.got - 2010.06.03 11:33:40.
