data_PCOD9105079
_publ_section_title
;
Structure prediction by ZEFSAII (Michael W. Deem and Ramdas Pophale) SiO2 
 PCOD9105079
Probable space group: P -1
;
_chemical_formula_sum "Si O2"
_cell_formula_units_Z 14
_cell_length_a 7.568894
_cell_length_b 15.753299
_cell_length_c 7.548363
_cell_angle_alpha 73.099054
_cell_angle_beta 56.784729
_cell_angle_gamma 110.497783
_cell_volume 555.736696
_symmetry_space_group_name_H-M "P -1"
_symmetry_group_IT_number 2
_symmetry_cell_setting 'triclinic'
loop_
_space_group_symop_operation_xyz
x,y,z
-x,-y,-z
loop_
_atom_site_type_symbol
_atom_site_label
_atom_site_fract_x
_atom_site_fract_y
_atom_site_fract_z
Si Si1 0.007732 0.910457 0.155983
Si Si2 0.911328 0.426401 0.812746
Si Si3 0.112391 0.299512 0.607078
Si Si4 0.234667 0.133597 0.313865
Si Si5 0.152637 0.657033 0.718102
Si Si6 0.649139 0.644726 0.916620
Si Si7 0.434792 0.861586 0.178905
O O1 0.906971 0.790293 0.196056
O O2 0.788368 0.862038 0.465513
O O3 0.333170 0.006091 0.973746
O O4 0.000000 0.000000 0.000000
O O5 0.789085 0.352264 0.106258
O O6 0.669213 0.411681 0.845923
O O7 0.044847 0.376833 0.675812
O O8 0.118782 0.557417 0.685384
O O9 0.874960 0.199537 0.665887
O O10 0.349868 0.374273 0.286162
O O11 0.200904 0.222440 0.201768
O O12 0.471965 0.157284 0.047343
O O13 0.000000 0.000000 0.500000
O O14 0.375231 0.777262 0.423518
O O15 0.851459 0.624837 0.898348
#
# Coordination Sequence:
#
# PCOD9105079 Si02
#       7
#     2   2   2   2   2   2   2
#     4  10  22  37  64  97 130 164 213 265 318 390
#     4  11  23  46  64  94 134 164 219 276 311 380
#     4  10  22  40  66  93 125 172 213 257 327 382
#     4   9  19  37  62  90 128 166 210 258 320 381
#     4  10  25  42  65  96 126 170 221 264 323 381
#     4  10  21  42  65  93 129 170 212 265 319 386
#     4  10  20  39  63  90 127 169 210 261 313 385
#
# _framework density 25.191786
#
# number of rings (size 3 to 8) (size 9 to 14) (size 15 to 20)
#    0.000    2.000    1.429    0.857    4.000    5.714 
#    2.571    2.857    0.000    0.000    0.000    0.000 
#    0.000    0.000    0.000    0.000    0.000    0.000 
#
# Total GULP energy -77955.512594 kJ/mol
# GULP energy per Si atom -5568.250900 kJ/mol
# Density = 2.513445 g / cm^3
# Si number density = 25.191786 Si / 1000 Ang^3
#
#
#
# Elastic Constant Matrix: (Units=GPa)
#
#
# Indices 1 2 3 4 5 6 
#
# 1 76.4827 2.2276 13.0610 0.1955 10.0940 -15.8304
# 2 2.2276 122.8632 13.7345 -5.7982 -7.9048 -22.1444
# 3 13.0610 13.7345 104.2580 0.2359 11.7195 0.3338
# 4 0.1955 -5.7982 0.2359 44.5483 -8.6478 -7.4229
# 5 10.0940 -7.9048 11.7195 -8.6478 33.7111 0.1772
# 6 -15.8304 -22.1444 0.3338 -7.4229 0.1772 26.1919
#
#
#
# Elastic Compliance Matrix: (Units=1/GPa)
#
#
# Indices 1 2 3 4 5 6 
#
# 1 0.016270 0.001927 -0.001950 0.001516 -0.003416 0.011940
# 2 0.001927 0.010838 -0.002129 0.004040 0.003680 0.011475
# 3 -0.001950 -0.002129 0.010582 -0.001698 -0.004011 -0.003567
# 4 0.001516 0.004040 -0.001698 0.026457 0.007808 0.011799
# 5 -0.003416 0.003680 -0.004011 0.007808 0.034931 0.003075
# 6 0.011940 0.011475 -0.003567 0.011799 0.003075 0.058466
#
#
# Mechanical properties :
#
#
# Convention : Reuss Voigt Hill
#
# Bulk Modulus (GPa) = 29.95180 40.18334 35.06757
# Shear Modulus (GPa) = 28.90552 39.19563 34.05058
#
# Velocity S-wave (km/s) = 3.39103 3.94876 3.68047
# Velocity P-wave (km/s) = 5.21991 6.06431 5.65788
#
# Compressibility (1/GPa) = 0.03338697
#
# Stress axis : x y z
#
# Youngs Moduli (GPa) = 61.46258 92.27014 94.49651
#
# Poissons Ratio (x) = -0.17779 0.18425
# Poissons Ratio (y) = -0.11843 0.20115
# Poissons Ratio (z) = 0.11984 0.19641
#
# Static dielectric constant tensor:
#      x y z
#    x 2.406450 -0.009880 -0.020450 
#    y -0.009880 2.212060 -0.218720 
#    z -0.020450 -0.218720 2.388210 
# 
# From -- ./inp_files/200661.got.cif
#   From: 2010.05.17/outbox.cif.g08.bks.cpg/sg2_101_cif.got.tgz:200661.got - 2010.06.03 11:33:40.
