data_PCOD9105805
_publ_section_title
;
Structure prediction by ZEFSAII (Michael W. Deem and Ramdas Pophale) SiO2 
 PCOD9105805
Probable space group: P -1
;
_chemical_formula_sum "Si O2"
_cell_formula_units_Z 16
_cell_length_a 9.814435
_cell_length_b 13.338966
_cell_length_c 18.399171
_cell_angle_alpha 148.873028
_cell_angle_beta 130.826164
_cell_angle_gamma 69.945681
_cell_volume 784.361804
_symmetry_space_group_name_H-M "P -1"
_symmetry_group_IT_number 2
_symmetry_cell_setting 'triclinic'
loop_
_space_group_symop_operation_xyz
x,y,z
-x,-y,-z
loop_
_atom_site_type_symbol
_atom_site_label
_atom_site_fract_x
_atom_site_fract_y
_atom_site_fract_z
Si Si1 0.547322 0.307002 0.490216
Si Si2 0.610066 0.558410 0.972323
Si Si3 0.012349 0.713032 0.594891
Si Si4 0.763923 0.778388 0.790286
Si Si5 0.136911 0.277475 0.704747
Si Si6 0.757150 0.099627 0.357195
Si Si7 0.639101 0.901745 0.960489
Si Si8 0.538712 0.583488 0.324515
O O1 0.746407 0.562955 0.692343
O O2 0.351055 0.298084 0.375094
O O3 0.578099 0.116795 0.347501
O O4 0.506846 0.283515 0.547206
O O5 0.793429 0.587369 0.109643
O O6 0.676691 0.827370 0.157115
O O7 0.371702 0.388593 0.818907
O O8 0.579557 0.455251 0.817210
O O9 0.792001 0.677142 0.465674
O O10 0.000000 0.500000 0.500000
O O11 0.177052 0.798704 0.637783
O O12 0.116290 0.915256 0.816339
O O13 0.636100 0.851514 0.843584
O O14 0.000000 0.000000 0.000000
O O15 0.973491 0.274148 0.588604
O O16 0.000000 0.000000 0.500000
O O17 0.557747 0.667465 0.829299
O O18 0.500000 0.000000 0.000000
#
# Coordination Sequence:
#
# PCOD9105805 Si02
#       8
#     2   2   2   2   2   2   2   2
#     4  10  24  37  53  81 122 154 197 239 293 347
#     4  10  20  39  66  88 116 148 195 247 296 348
#     4  12  23  32  57  86 117 156 204 240 277 338
#     4  10  22  37  52  72 115 167 198 235 285 338
#     4   9  20  39  65  95 113 142 194 249 299 348
#     4  11  22  38  61  89 117 156 199 242 290 350
#     4  11  21  34  52  79 110 152 204 241 274 331
#     4  11  22  38  54  84 118 153 188 244 295 338
#
# _framework density 20.398748999999999
#
# number of rings (size 3 to 8) (size 9 to 14) (size 15 to 20)
#    0.000    1.500    3.750    1.500    5.250    1.000 
#    0.000    0.625    0.000    6.750    0.000    0.000 
#    0.000    0.000    0.000    0.000    0.000    0.000 
#
# Total GULP energy -89165.358098 kJ/mol
# GULP energy per Si atom -5572.834881 kJ/mol
# Density = 2.035232 g / cm^3
# Si number density = 20.398749 Si / 1000 Ang^3
#
#
#
# Elastic Constant Matrix: (Units=GPa)
#
#
# Indices 1 2 3 4 5 6 
#
# 1 53.9779 21.9275 22.7189 -0.9263 -12.4266 24.2006
# 2 21.9275 48.5034 22.1625 -23.2427 -7.5290 23.7596
# 3 22.7189 22.1625 100.6081 -23.5261 4.8487 14.6691
# 4 -0.9263 -23.2427 -23.5261 44.2177 11.9371 -7.2052
# 5 -12.4266 -7.5290 4.8487 11.9371 38.9482 -5.3254
# 6 24.2006 23.7596 14.6691 -7.2052 -5.3254 27.8597
#
#
#
# Elastic Compliance Matrix: (Units=1/GPa)
#
#
# Indices 1 2 3 4 5 6 
#
# 1 0.038137 -0.006322 -0.007467 -0.014012 0.012753 -0.024991
# 2 -0.006322 0.048056 0.000507 0.021317 -0.003552 -0.030924
# 3 -0.007467 0.000507 0.014097 0.009450 -0.006971 -0.000257
# 4 -0.014012 0.021317 0.009450 0.042079 -0.014824 -0.002935
# 5 0.012753 -0.003552 -0.006971 -0.014824 0.034241 -0.001667
# 6 -0.024991 -0.030924 -0.000257 -0.002935 -0.001667 0.083034
#
#
# Mechanical properties :
#
#
# Convention : Reuss Voigt Hill
#
# Bulk Modulus (GPa) = 13.56374 37.41189 25.48782
# Shear Modulus (GPa) = 16.08836 31.29049 23.68942
#
# Velocity S-wave (km/s) = 2.81142 3.92081 3.41151
# Velocity P-wave (km/s) = 4.14759 6.23515 5.29526
#
# Compressibility (1/GPa) = 0.07372597
#
# Stress axis : x y z
#
# Youngs Moduli (GPa) = 26.22121 20.80902 70.93526
#
# Poissons Ratio (x) = 0.13156 0.52964
# Poissons Ratio (y) = 0.16578 -0.03593
# Poissons Ratio (z) = 0.19578 -0.01054
#
# Static dielectric constant tensor:
#      x y z
#    x 1.674150 0.018250 -0.076920 
#    y 0.018250 1.756700 -0.020460 
#    z -0.076920 -0.020460 1.720820 
# 
# From -- ./inp_files/213406.got.cif
#   From: 2010.05.17/outbox.cif.g08.bks.cpg/sg2_107_cif.got.tgz:213406.got - 2010.06.03 11:33:40.
