data_PCOD9105042
_publ_section_title
;
Structure prediction by ZEFSAII (Michael W. Deem and Ramdas Pophale) SiO2 
 PCOD9105042
Probable space group: P -1
;
_chemical_formula_sum "Si O2"
_cell_formula_units_Z 14
_cell_length_a 11.848133
_cell_length_b 11.757556
_cell_length_c 9.305955
_cell_angle_alpha 149.997679
_cell_angle_beta 79.147140
_cell_angle_gamma 97.315281
_cell_volume 634.947539
_symmetry_space_group_name_H-M "P -1"
_symmetry_group_IT_number 2
_symmetry_cell_setting 'triclinic'
loop_
_space_group_symop_operation_xyz
x,y,z
-x,-y,-z
loop_
_atom_site_type_symbol
_atom_site_label
_atom_site_fract_x
_atom_site_fract_y
_atom_site_fract_z
Si Si1 0.731750 0.437962 0.725467
Si Si2 0.642412 0.980300 0.789575
Si Si3 0.722212 0.261421 0.840509
Si Si4 0.958955 0.123246 0.289566
Si Si5 0.868227 0.653335 0.334271
Si Si6 0.551472 0.328837 0.422080
Si Si7 0.879496 0.828719 0.218110
O O1 0.683333 0.392166 0.847144
O O2 0.828253 0.234538 0.438895
O O3 0.632915 0.448171 0.642861
O O4 0.800251 0.663714 0.970314
O O5 0.767923 0.850336 0.608267
O O6 0.550050 0.790799 0.602848
O O7 0.630685 0.157866 0.854176
O O8 0.623295 0.124740 0.097105
O O9 0.801136 0.046245 0.529545
O O10 0.802151 0.424691 0.088133
O O11 0.036198 0.324666 0.543744
O O12 0.969711 0.933059 0.205225
O O13 0.000000 0.000000 0.000000
O O14 0.919196 0.701770 0.216284
O O15 0.500000 0.500000 0.500000
#
# Coordination Sequence:
#
# PCOD9105042 Si02
#       7
#     2   2   2   2   2   2   2
#     4  10  23  41  61  90 122 157 203 251 299 353
#     4  10  22  40  64  90 117 159 202 245 301 359
#     4   9  20  40  64  90 119 156 204 251 296 352
#     4  11  23  37  60  92 124 158 197 245 297 358
#     4  10  20  39  63  89 122 158 197 243 301 359
#     4  11  24  41  62  88 123 162 200 247 303 360
#     4   9  21  38  59  88 123 160 197 243 297 357
#
# _framework density 22.049064999999999
#
# number of rings (size 3 to 8) (size 9 to 14) (size 15 to 20)
#    0.000    2.000    0.000    2.143    0.000   15.429 
#    0.000   10.000    0.000    0.000    0.000    0.000 
#    0.000    0.000    0.000    0.000    0.000    0.000 
#
# Total GULP energy -78278.640470 kJ/mol
# GULP energy per Si atom -5591.331462 kJ/mol
# Density = 2.199888 g / cm^3
# Si number density = 22.049065 Si / 1000 Ang^3
#
#
#
# Elastic Constant Matrix: (Units=GPa)
#
#
# Indices 1 2 3 4 5 6 
#
# 1 97.4331 54.8858 39.8604 -11.4343 25.0608 -11.9737
# 2 54.8858 95.1270 41.7392 0.0891 14.0715 20.1578
# 3 39.8604 41.7392 82.8199 -0.7624 31.9592 -0.7862
# 4 -11.4343 0.0891 -0.7624 36.3687 -0.7273 -2.8870
# 5 25.0608 14.0715 31.9592 -0.7273 39.8608 -7.5470
# 6 -11.9737 20.1578 -0.7862 -2.8870 -7.5470 29.9985
#
#
#
# Elastic Compliance Matrix: (Units=1/GPa)
#
#
# Indices 1 2 3 4 5 6 
#
# 1 0.026885 -0.019351 -0.001123 0.010256 -0.004525 0.023553
# 2 -0.019351 0.030738 -0.007032 -0.008588 0.001293 -0.029064
# 3 -0.001123 -0.007032 0.021491 -0.000053 -0.013784 0.001367
# 4 0.010256 -0.008588 -0.000053 0.031751 -0.000366 0.012826
# 5 -0.004525 0.001293 -0.013784 -0.000366 0.039836 0.006950
# 6 0.023553 -0.029064 0.001367 0.012826 0.006950 0.065284
#
#
# Mechanical properties :
#
#
# Convention : Reuss Voigt Hill
#
# Bulk Modulus (GPa) = 41.49058 60.92787 51.20923
# Shear Modulus (GPa) = 17.91911 30.50524 24.21218
#
# Velocity S-wave (km/s) = 2.85387 3.72360 3.31736
# Velocity P-wave (km/s) = 5.45139 6.79557 6.16025
#
# Compressibility (1/GPa) = 0.02410186
#
# Stress axis : x y z
#
# Youngs Moduli (GPa) = 37.19487 32.53316 46.53206
#
# Poissons Ratio (x) = 0.62953 0.05228
# Poissons Ratio (y) = 0.71974 0.32721
# Poissons Ratio (z) = 0.04179 0.22877
#
# Static dielectric constant tensor:
#      x y z
#    x 1.805050 -0.000400 -0.032520 
#    y -0.000400 1.845660 0.011030 
#    z -0.032520 0.011030 1.788680 
# 
# From -- ./inp_files/26739.got.cif
#   From: 2010.05.17/outbox.cif.g08.bks.cpg/sg2_14_cif.got.tgz:26739.got - 2010.06.03 11:33:40.
