data_PCOD9105950
_publ_section_title
;
Structure prediction by ZEFSAII (Michael W. Deem and Ramdas Pophale) SiO2 
 PCOD9105950
Probable space group: P -1
;
_chemical_formula_sum "Si O2"
_cell_formula_units_Z 14
_cell_length_a 18.086722
_cell_length_b 9.513593
_cell_length_c 7.059012
_cell_angle_alpha 57.249159
_cell_angle_beta 111.599284
_cell_angle_gamma 149.002675
_cell_volume 513.117777
_symmetry_space_group_name_H-M "P -1"
_symmetry_group_IT_number 2
_symmetry_cell_setting 'triclinic'
loop_
_space_group_symop_operation_xyz
x,y,z
-x,-y,-z
loop_
_atom_site_type_symbol
_atom_site_label
_atom_site_fract_x
_atom_site_fract_y
_atom_site_fract_z
Si Si1 0.263817 0.833303 0.837673
Si Si2 0.438518 0.252576 0.361550
Si Si3 0.213261 0.654735 0.329708
Si Si4 0.637956 0.358325 0.310500
Si Si5 0.880679 0.062720 0.334204
Si Si6 0.291873 0.331954 0.200827
Si Si7 0.020302 0.847704 0.056630
O O1 0.402235 0.097114 0.638685
O O2 0.205984 0.916017 0.776378
O O3 0.277592 0.760373 0.100038
O O4 0.132083 0.520118 0.818886
O O5 0.312907 0.965836 0.306856
O O6 0.592102 0.458985 0.274100
O O7 0.416133 0.409027 0.257372
O O8 0.234199 0.517922 0.558937
O O9 0.040081 0.383340 0.345784
O O10 0.500000 0.000000 0.500000
O O11 0.660026 0.426960 0.057922
O O12 0.779593 0.768106 0.588352
O O13 0.075034 0.930439 0.831910
O O14 0.151169 0.007974 0.190766
O O15 0.000000 0.000000 0.000000
#
# Coordination Sequence:
#
# PCOD9105950 Si02
#       7
#     2   2   2   2   2   2   2
#     4  10  21  41  70  99 133 174 219 265 329 404
#     4  10  21  41  68  91 130 177 229 265 321 390
#     4  10  20  39  66  95 134 170 211 275 331 390
#     4  10  24  41  64  92 130 177 223 277 332 379
#     4  10  22  42  69 101 134 173 217 265 334 405
#     4  11  23  41  65  94 132 175 219 275 326 394
#     4  11  24  38  65 104 140 168 208 270 339 399
#
# _framework density 27.284184
#
# number of rings (size 3 to 8) (size 9 to 14) (size 15 to 20)
#    0.000    1.714    0.000    4.714    6.000    3.429 
#    2.571    2.857    0.000   10.286    0.000    0.000 
#    0.000    0.000    0.000    0.000    0.000    0.000 
#
# Total GULP energy -78544.230921 kJ/mol
# GULP energy per Si atom -5610.302209 kJ/mol
# Density = 2.722208 g / cm^3
# Si number density = 27.284184 Si / 1000 Ang^3
#
#
#
# Elastic Constant Matrix: (Units=GPa)
#
#
# Indices 1 2 3 4 5 6 
#
# 1 142.2872 18.2126 36.4805 14.0256 -14.0280 -0.2625
# 2 18.2126 88.8217 -3.0815 3.1669 -7.9283 -18.8908
# 3 36.4805 -3.0815 156.0153 -2.4817 -34.6879 5.8052
# 4 14.0256 3.1669 -2.4817 34.2180 1.0798 -0.3017
# 5 -14.0280 -7.9283 -34.6879 1.0798 51.0440 -1.7183
# 6 -0.2625 -18.8908 5.8052 -0.3017 -1.7183 42.8181
#
#
#
# Elastic Compliance Matrix: (Units=1/GPa)
#
#
# Indices 1 2 3 4 5 6 
#
# 1 0.008100 -0.001619 -0.001781 -0.003329 0.000821 -0.000414
# 2 -0.001619 0.013077 0.000959 -0.000504 0.002441 0.005724
# 3 -0.001781 0.000959 0.008004 0.001058 0.005061 -0.000463
# 4 -0.003329 -0.000504 0.001058 0.030740 -0.000931 -0.000207
# 5 0.000821 0.002441 0.005061 -0.000931 0.023700 0.001340
# 6 -0.000414 0.005724 -0.000463 -0.000207 0.001340 0.025992
#
#
# Mechanical properties :
#
#
# Convention : Reuss Voigt Hill
#
# Bulk Modulus (GPa) = 41.15420 54.48303 47.81862
# Shear Modulus (GPa) = 40.78450 47.98352 44.38401
#
# Velocity S-wave (km/s) = 3.87046 4.19818 4.03765
# Velocity P-wave (km/s) = 5.92370 6.59634 6.26905
#
# Compressibility (1/GPa) = 0.02429886
#
# Stress axis : x y z
#
# Youngs Moduli (GPa) = 123.45387 76.47076 124.93293
#
# Poissons Ratio (x) = 0.12378 0.22252
# Poissons Ratio (y) = 0.19983 -0.11975
# Poissons Ratio (z) = 0.21988 -0.07330
#
# Static dielectric constant tensor:
#      x y z
#    x 2.102780 0.001790 -0.000270 
#    y 0.001790 2.202730 -0.000400 
#    z -0.000270 -0.000400 2.124910 
# 
# From -- ./inp_files/345882.got.cif
#   From: 2010.05.17/outbox.cif.g08.bks.cpg/sg2_173_cif.got.tgz:345882.got - 2010.06.03 11:33:40.
