data_PCOD9105924
_publ_section_title
;
Structure prediction by ZEFSAII (Michael W. Deem and Ramdas Pophale) SiO2 
 PCOD9105924
Probable space group: P -1
;
_chemical_formula_sum "Si O2"
_cell_formula_units_Z 14
_cell_length_a 12.621392
_cell_length_b 7.049322
_cell_length_c 14.861994
_cell_angle_alpha 40.297716
_cell_angle_beta 122.204504
_cell_angle_gamma 126.868512
_cell_volume 676.891030
_symmetry_space_group_name_H-M "P -1"
_symmetry_group_IT_number 2
_symmetry_cell_setting 'triclinic'
loop_
_space_group_symop_operation_xyz
x,y,z
-x,-y,-z
loop_
_atom_site_type_symbol
_atom_site_label
_atom_site_fract_x
_atom_site_fract_y
_atom_site_fract_z
Si Si1 0.734648 0.578321 0.289676
Si Si2 0.610061 0.963760 0.997662
Si Si3 0.115150 0.722400 0.909699
Si Si4 0.635264 0.288914 0.715589
Si Si5 0.548877 0.320201 0.461214
Si Si6 0.055361 0.397619 0.287399
Si Si7 0.063790 0.701245 0.542788
O O1 0.671217 0.542424 0.373822
O O2 0.785415 0.301130 0.386082
O O3 0.860841 0.905960 0.219706
O O4 0.632667 0.643217 0.150300
O O5 0.585903 0.006248 0.867108
O O6 0.744364 0.243718 0.993108
O O7 0.500000 0.000000 0.000000
O O8 0.064947 0.594014 0.834366
O O9 0.000000 0.500000 0.000000
O O10 0.593034 0.255954 0.603866
O O11 0.567496 0.532826 0.634470
O O12 0.796223 0.392282 0.751614
O O13 0.500000 0.000000 0.500000
O O14 0.019351 0.461056 0.348617
O O15 0.060634 0.048000 0.413322
O O16 0.000000 0.500000 0.500000
#
# Coordination Sequence:
#
# PCOD9105924 Si02
#       7
#     2   2   2   2   2   2   2
#     4  10  21  40  66  90 134 170 211 277 318 387
#     4  10  20  41  67  88 132 175 214 270 326 383
#     4  10  20  39  66  94 129 172 223 263 327 392
#     4  11  22  41  67  91 127 173 219 271 331 390
#     4  11  24  42  63  97 130 169 224 277 323 391
#     4  11  22  37  67  95 127 177 209 264 342 380
#     4  11  21  37  59  96 132 162 210 266 321 395
#
# _framework density 20.682796
#
# number of rings (size 3 to 8) (size 9 to 14) (size 15 to 20)
#    0.857    0.571    4.286    1.714    2.000    0.000 
#    2.571    5.000    0.000    0.000    0.000    0.000 
#    0.000    0.000    0.000    0.000    0.000    0.000 
#
# Total GULP energy -77985.883335 kJ/mol
# GULP energy per Si atom -5570.420238 kJ/mol
# Density = 2.063572 g / cm^3
# Si number density = 20.682796 Si / 1000 Ang^3
#
#
#
# Elastic Constant Matrix: (Units=GPa)
#
#
# Indices 1 2 3 4 5 6 
#
# 1 107.9427 22.2660 35.4026 6.8589 -15.2387 -7.8890
# 2 22.2660 57.4676 25.6848 14.2012 -10.4504 -13.2733
# 3 35.4026 25.6848 138.8594 24.3058 -17.0802 -14.8750
# 4 6.8589 14.2012 24.3058 20.2249 2.4068 -8.9328
# 5 -15.2387 -10.4504 -17.0802 2.4068 42.4504 1.7538
# 6 -7.8890 -13.2733 -14.8750 -8.9328 1.7538 31.2155
#
#
#
# Elastic Compliance Matrix: (Units=1/GPa)
#
#
# Indices 1 2 3 4 5 6 
#
# 1 0.010849 -0.002942 -0.002016 0.000817 0.002287 0.000636
# 2 -0.002942 0.024307 0.000023 -0.014484 0.005546 0.005147
# 3 -0.002016 0.000023 0.010396 -0.011962 0.004110 0.000800
# 4 0.000817 -0.014484 -0.011962 0.080652 -0.013161 0.012167
# 5 0.002287 0.005546 0.004110 -0.013161 0.028162 -0.000454
# 6 0.000636 0.005147 0.000800 0.012167 -0.000454 0.038273
#
#
# Mechanical properties :
#
#
# Convention : Reuss Voigt Hill
#
# Bulk Modulus (GPa) = 28.02443 52.33072 40.17758
# Shear Modulus (GPa) = 23.32036 33.50590 28.41313
#
# Velocity S-wave (km/s) = 3.36151 4.02927 3.71044
# Velocity P-wave (km/s) = 5.35213 6.85589 6.15015
#
# Compressibility (1/GPa) = 0.03568315
#
# Stress axis : x y z
#
# Youngs Moduli (GPa) = 92.17017 41.13990 96.18763
#
# Poissons Ratio (x) = 0.12104 0.19387
# Poissons Ratio (y) = 0.27117 -0.00218
# Poissons Ratio (z) = 0.18578 -0.00093
#
# Static dielectric constant tensor:
#      x y z
#    x 1.715340 0.014170 0.028170 
#    y 0.014170 1.728260 -0.010680 
#    z 0.028170 -0.010680 1.806170 
# 
# From -- ./inp_files/408986.got.cif
#   From: 2010.05.17/outbox.cif.g08.bks.cpg/sg2_205_cif.got.tgz:408986.got - 2010.06.03 11:33:40.
