data_PCOD9105774
_publ_section_title
;
Structure prediction by ZEFSAII (Michael W. Deem and Ramdas Pophale) SiO2 
 PCOD9105774
Probable space group: P -1
;
_chemical_formula_sum "Si O2"
_cell_formula_units_Z 14
_cell_length_a 4.975593
_cell_length_b 22.825152
_cell_length_c 5.532203
_cell_angle_alpha 62.462386
_cell_angle_beta 91.745401
_cell_angle_gamma 72.736827
_cell_volume 521.475522
_symmetry_space_group_name_H-M "P -1"
_symmetry_group_IT_number 2
_symmetry_cell_setting 'triclinic'
loop_
_space_group_symop_operation_xyz
x,y,z
-x,-y,-z
loop_
_atom_site_type_symbol
_atom_site_label
_atom_site_fract_x
_atom_site_fract_y
_atom_site_fract_z
Si Si1 0.306159 0.611235 0.957989
Si Si2 0.192910 0.014111 0.191423
Si Si3 0.339701 0.117402 0.665871
Si Si4 0.768950 0.645074 0.168239
Si Si5 0.739544 0.533736 0.734861
Si Si6 0.274136 0.217508 0.859829
Si Si7 0.127455 0.853180 0.777910
O O1 0.459087 0.654828 0.033309
O O2 0.366159 0.530963 0.203943
O O3 0.971742 0.645303 0.945904
O O4 0.467757 0.594607 0.737109
O O5 0.993154 0.066376 0.282182
O O6 0.432168 0.938343 0.396245
O O7 0.350544 0.064826 0.988722
O O8 0.000000 0.000000 0.000000
O O9 0.385874 0.183636 0.666962
O O10 0.027277 0.143237 0.488739
O O11 0.846807 0.571016 0.452138
O O12 0.794069 0.700773 0.256853
O O13 0.000000 0.500000 0.000000
O O14 0.008518 0.193760 0.970942
O O15 0.534132 0.181969 0.121343
#
# Coordination Sequence:
#
# PCOD9105774 Si02
#       7
#     2   2   2   2   2   2   2
#     4  11  25  44  71 106 136 179 232 290 355 422
#     4  10  20  39  66 101 131 172 234 293 352 412
#     4  10  23  41  66  96 137 175 229 296 345 415
#     4  12  26  45  70  98 148 186 227 297 354 415
#     4  11  25  44  75 108 137 177 239 293 354 420
#     4  11  26  46  62  98 137 186 236 278 350 436
#     4  11  24  43  69  95 136 184 233 287 355 418
#
# _framework density 26.846896999999998
#
# number of rings (size 3 to 8) (size 9 to 14) (size 15 to 20)
#    0.000    1.143    2.857    2.143    6.000    1.714 
#    2.571    1.429    0.000    0.000    0.000    0.000 
#    0.000    0.000    0.000    0.000    0.000    0.000 
#
# Total GULP energy -78369.720143 kJ/mol
# GULP energy per Si atom -5597.837153 kJ/mol
# Density = 2.678579 g / cm^3
# Si number density = 26.846897 Si / 1000 Ang^3
#
#
#
# Elastic Constant Matrix: (Units=GPa)
#
#
# Indices 1 2 3 4 5 6 
#
# 1 120.1324 20.9706 13.2391 6.3463 -8.9310 -2.6972
# 2 20.9706 167.6560 -1.4340 3.1508 -14.2410 24.5295
# 3 13.2391 -1.4340 40.8279 4.7622 2.8433 -6.0047
# 4 6.3463 3.1508 4.7622 29.4569 1.9707 -2.3797
# 5 -8.9310 -14.2410 2.8433 1.9707 43.9879 8.5834
# 6 -2.6972 24.5295 -6.0047 -2.3797 8.5834 46.9549
#
#
#
# Elastic Compliance Matrix: (Units=1/GPa)
#
#
# Indices 1 2 3 4 5 6 
#
# 1 0.009029 -0.001027 -0.002866 -0.001460 0.001692 0.000306
# 2 -0.001027 0.006996 -0.000141 -0.001051 0.002956 -0.004325
# 3 -0.002866 -0.000141 0.026530 -0.003164 -0.002918 0.003674
# 4 -0.001460 -0.001051 -0.003164 0.035237 -0.002459 0.002296
# 5 0.001692 0.002956 -0.002918 -0.002459 0.025626 -0.006630
# 6 0.000306 -0.004325 0.003674 0.002296 -0.006630 0.025372
#
#
# Mechanical properties :
#
#
# Convention : Reuss Voigt Hill
#
# Bulk Modulus (GPa) = 28.99704 43.79639 36.39672
# Shear Modulus (GPa) = 33.70300 43.80264 38.75282
#
# Velocity S-wave (km/s) = 3.54697 4.04365 3.80343
# Velocity P-wave (km/s) = 5.25348 6.17659 5.73364
#
# Compressibility (1/GPa) = 0.03448628
#
# Stress axis : x y z
#
# Youngs Moduli (GPa) = 110.75212 142.94676 37.69272
#
# Poissons Ratio (x) = 0.14687 0.10804
# Poissons Ratio (y) = 0.11379 0.00530
# Poissons Ratio (z) = 0.31747 0.02008
#
# Static dielectric constant tensor:
#      x y z
#    x 2.127390 -0.051840 -0.057700 
#    y -0.051840 2.122040 0.034230 
#    z -0.057700 0.034230 2.116000 
# 
# From -- ./inp_files/10406.got.cif
#   From: 2010.05.17/outbox.cif.g08.bks.cpg/sg2_6_cif.got.tgz:10406.got - 2010.06.03 11:33:40.
