data_PCOD9105896
_publ_section_title
;
Structure prediction by ZEFSAII (Michael W. Deem and Ramdas Pophale) SiO2 
 PCOD9105896
Probable space group: P -1
;
_chemical_formula_sum "Si O2"
_cell_formula_units_Z 14
_cell_length_a 9.197146
_cell_length_b 7.515615
_cell_length_c 30.192969
_cell_angle_alpha 141.217787
_cell_angle_beta 144.884601
_cell_angle_gamma 64.342330
_cell_volume 618.857572
_symmetry_space_group_name_H-M "P -1"
_symmetry_group_IT_number 2
_symmetry_cell_setting 'triclinic'
loop_
_space_group_symop_operation_xyz
x,y,z
-x,-y,-z
loop_
_atom_site_type_symbol
_atom_site_label
_atom_site_fract_x
_atom_site_fract_y
_atom_site_fract_z
Si Si1 0.709817 0.224437 0.025823
Si Si2 0.825584 0.634478 0.410948
Si Si3 0.451792 0.428402 0.818781
Si Si4 0.776850 0.049522 0.550436
Si Si5 0.549913 0.706691 0.115197
Si Si6 0.831704 0.570547 0.591482
Si Si7 0.731280 0.637939 0.839952
O O1 0.642398 0.274511 0.968052
O O2 0.568197 0.828550 0.924929
O O3 0.560507 0.374575 0.046526
O O4 0.079066 0.439468 0.161233
O O5 0.529217 0.372728 0.255815
O O6 0.064863 0.527031 0.446917
O O7 0.722406 0.716124 0.446609
O O8 0.000000 0.000000 0.500000
O O9 0.562848 0.325942 0.869098
O O10 0.561797 0.383015 0.789681
O O11 0.084635 0.202943 0.685070
O O12 0.850774 0.340190 0.589056
O O13 0.500000 0.000000 0.500000
O O14 0.896700 0.032748 0.257086
O O15 0.500000 0.500000 0.500000
O O16 0.000000 0.000000 0.000000
#
# Coordination Sequence:
#
# PCOD9105896 Si02
#       7
#     2   2   2   2   2   2   2
#     4  10  23  41  63  94 133 175 220 272 339 395
#     4  10  21  41  67  91 135 180 218 274 337 401
#     4  11  21  41  65  92 130 170 222 273 330 401
#     4  11  23  41  67  97 129 181 227 270 337 404
#     4  11  23  40  64  94 133 169 220 283 323 394
#     4  11  22  40  64  94 133 172 218 277 336 389
#     4  10  20  39  66  93 126 175 218 266 338 394
#
# _framework density 22.622332
#
# number of rings (size 3 to 8) (size 9 to 14) (size 15 to 20)
#    0.000    1.429    4.286    2.143    6.000    0.571 
#    0.000    4.286    0.000    0.000    0.000    0.000 
#    0.000    0.000    0.000    0.000    0.000    0.000 
#
# Total GULP energy -78137.561474 kJ/mol
# GULP energy per Si atom -5581.254391 kJ/mol
# Density = 2.257084 g / cm^3
# Si number density = 22.622332 Si / 1000 Ang^3
#
#
#
# Elastic Constant Matrix: (Units=GPa)
#
#
# Indices 1 2 3 4 5 6 
#
# 1 126.2028 18.7523 31.3015 -13.4641 6.8656 -7.7811
# 2 18.7523 73.7783 15.2726 -7.4603 -4.1373 7.1798
# 3 31.3015 15.2726 62.2129 -1.1564 12.1442 -9.8415
# 4 -13.4641 -7.4603 -1.1564 26.5684 -7.4530 -0.7100
# 5 6.8656 -4.1373 12.1442 -7.4530 30.7628 -6.7489
# 6 -7.7811 7.1798 -9.8415 -0.7100 -6.7489 43.5367
#
#
#
# Elastic Compliance Matrix: (Units=1/GPa)
#
#
# Indices 1 2 3 4 5 6 
#
# 1 0.009736 -0.001125 -0.004523 0.004686 0.000840 0.001110
# 2 -0.001125 0.015863 -0.004645 0.004931 0.004744 -0.003051
# 3 -0.004523 -0.004645 0.021620 -0.004978 -0.008603 0.003430
# 4 0.004686 0.004931 -0.004978 0.044814 0.012793 0.001613
# 5 0.000840 0.004744 -0.008603 0.012793 0.040304 0.003880
# 6 0.001110 -0.003051 0.003430 0.001613 0.003880 0.025074
#
#
# Mechanical properties :
#
#
# Convention : Reuss Voigt Hill
#
# Bulk Modulus (GPa) = 37.55051 43.64963 40.60007
# Shear Modulus (GPa) = 26.75598 33.29809 30.02703
#
# Velocity S-wave (km/s) = 3.44281 3.84071 3.64719
# Velocity P-wave (km/s) = 5.69551 6.24539 5.97678
#
# Compressibility (1/GPa) = 0.02663080
#
# Stress axis : x y z
#
# Youngs Moduli (GPa) = 102.71658 63.03878 46.25436
#
# Poissons Ratio (x) = 0.07092 0.20923
# Poissons Ratio (y) = 0.11556 0.21486
# Poissons Ratio (z) = 0.46464 0.29283
#
# Static dielectric constant tensor:
#      x y z
#    x 1.946970 -0.045790 -0.049900 
#    y -0.045790 1.843140 0.008840 
#    z -0.049900 0.008840 1.867980 
# 
# From -- ./inp_files/622348.got.cif
#   From: 2010.05.17/outbox.cif.g08.bks.cpg/sg2_312_cif.got.tgz:622348.got - 2010.06.03 11:33:40.
