data_PCOD9105550
_publ_section_title
;
Structure prediction by ZEFSAII (Michael W. Deem and Ramdas Pophale) SiO2 
 PCOD9105550
Probable space group: P -1
;
_chemical_formula_sum "Si O2"
_cell_formula_units_Z 14
_cell_length_a 5.415342
_cell_length_b 9.086211
_cell_length_c 11.127571
_cell_angle_alpha 73.551102
_cell_angle_beta 78.867681
_cell_angle_gamma 83.826218
_cell_volume 514.427773
_symmetry_space_group_name_H-M "P -1"
_symmetry_group_IT_number 2
_symmetry_cell_setting 'triclinic'
loop_
_space_group_symop_operation_xyz
x,y,z
-x,-y,-z
loop_
_atom_site_type_symbol
_atom_site_label
_atom_site_fract_x
_atom_site_fract_y
_atom_site_fract_z
Si Si1 0.706336 0.364757 0.985259
Si Si2 0.997003 0.113464 0.589083
Si Si3 0.129225 0.392263 0.412627
Si Si4 0.551472 0.374107 0.628741
Si Si5 0.388427 0.171377 0.876764
Si Si6 0.803308 0.918289 0.852784
Si Si7 0.983873 0.371599 0.185324
O O1 0.590844 0.250482 0.927767
O O2 0.168699 0.125722 0.998191
O O3 0.945627 0.457393 0.894998
O O4 0.790104 0.308724 0.123032
O O5 0.752611 0.235041 0.602459
O O6 0.997409 0.015829 0.734848
O O7 0.209754 0.232254 0.506343
O O8 0.000000 0.000000 0.500000
O O9 0.332360 0.504254 0.315756
O O10 0.933744 0.363693 0.331862
O O11 0.000000 0.500000 0.500000
O O12 0.500000 0.500000 0.500000
O O13 0.342533 0.287973 0.743456
O O14 0.541548 0.019874 0.850151
O O15 0.500000 0.500000 0.000000
O O16 0.787930 0.757087 0.823500
#
# Coordination Sequence:
#
# PCOD9105550 Si02
#       7
#     2   2   2   2   2   2   2
#     4  11  23  39  64  97 127 170 215 274 323 390
#     4  10  20  39  65  87 130 173 215 270 327 397
#     4  10  21  40  64  91 127 170 217 270 326 393
#     4  10  22  41  66  98 125 174 223 273 334 390
#     4  10  21  41  66  90 137 170 219 275 324 395
#     4  10  21  40  63  93 130 177 215 269 332 394
#     4  11  22  40  65  95 128 170 222 268 330 390
#
# _framework density 27.214704000000001
#
# number of rings (size 3 to 8) (size 9 to 14) (size 15 to 20)
#    0.000    1.714    4.286    0.000    0.000    2.857 
#    0.000    5.000    0.000    0.000    0.000    0.000 
#    0.000    0.000    0.000    0.000    0.000    0.000 
#
# Total GULP energy -78138.949150 kJ/mol
# GULP energy per Si atom -5581.353511 kJ/mol
# Density = 2.715276 g / cm^3
# Si number density = 27.214704 Si / 1000 Ang^3
#
#
#
# Elastic Constant Matrix: (Units=GPa)
#
#
# Indices 1 2 3 4 5 6 
#
# 1 58.8568 26.8700 26.5648 2.2415 8.6809 8.3436
# 2 26.8700 178.5334 64.2508 -11.8004 -6.6586 4.6386
# 3 26.5648 64.2508 220.0100 -32.3777 4.3001 7.0272
# 4 2.2415 -11.8004 -32.3777 64.3027 6.5035 -10.1791
# 5 8.6809 -6.6586 4.3001 6.5035 45.7367 -1.7060
# 6 8.3436 4.6386 7.0272 -10.1791 -1.7060 37.0894
#
#
#
# Elastic Compliance Matrix: (Units=1/GPa)
#
#
# Indices 1 2 3 4 5 6 
#
# 1 0.020342 -0.002585 -0.001836 -0.002468 -0.003891 -0.004761
# 2 -0.002585 0.006648 -0.001612 0.000377 0.001565 0.000231
# 3 -0.001836 -0.001612 0.005647 0.002733 -0.000796 0.000258
# 4 -0.002468 0.000377 0.002733 0.018065 -0.002121 0.004851
# 5 -0.003891 0.001565 -0.000796 -0.002121 0.023256 0.001318
# 6 -0.004761 0.000231 0.000258 0.004851 0.001318 0.029347
#
#
# Mechanical properties :
#
#
# Convention : Reuss Voigt Hill
#
# Bulk Modulus (GPa) = 48.61330 76.97459 62.79394
# Shear Modulus (GPa) = 40.90669 52.07338 46.49003
#
# Velocity S-wave (km/s) = 3.88120 4.37902 4.13760
# Velocity P-wave (km/s) = 6.16333 7.34257 6.77864
#
# Compressibility (1/GPa) = 0.02057050
#
# Stress axis : x y z
#
# Youngs Moduli (GPa) = 49.15834 150.43052 177.07988
#
# Poissons Ratio (x) = 0.38891 0.32518
# Poissons Ratio (y) = 0.12709 0.28540
# Poissons Ratio (z) = 0.09027 0.24245
#
# Static dielectric constant tensor:
#      x y z
#    x 2.512650 0.068690 -0.031240 
#    y 0.068690 2.090120 -0.033860 
#    z -0.031240 -0.033860 2.218590 
# 
# From -- ./inp_files/375813.got.cif
#   From: 2010.05.17/outbox.cif.g08.bks.cpg/sg2_188_cif.got.tgz:375813.got - 2010.06.03 11:33:40.
