data_PCOD9105636
_publ_section_title
;
Structure prediction by ZEFSAII (Michael W. Deem and Ramdas Pophale) SiO2 
 PCOD9105636
Probable space group: P -1
;
_chemical_formula_sum "Si O2"
_cell_formula_units_Z 16
_cell_length_a 25.316243
_cell_length_b 11.444362
_cell_length_c 8.095183
_cell_angle_alpha 117.062437
_cell_angle_beta 62.735271
_cell_angle_gamma 157.445088
_cell_volume 796.167297
_symmetry_space_group_name_H-M "P -1"
_symmetry_group_IT_number 2
_symmetry_cell_setting 'triclinic'
loop_
_space_group_symop_operation_xyz
x,y,z
-x,-y,-z
loop_
_atom_site_type_symbol
_atom_site_label
_atom_site_fract_x
_atom_site_fract_y
_atom_site_fract_z
Si Si1 0.672447 0.481488 0.508268
Si Si2 0.482707 0.561288 0.719934
Si Si3 0.580038 0.818484 0.289086
Si Si4 0.774990 0.765919 0.193815
Si Si5 0.711582 0.187733 0.646671
Si Si6 0.358719 0.656223 0.169356
Si Si7 0.934329 0.722991 0.908389
Si Si8 0.655362 0.172199 0.158593
O O1 0.548706 0.341481 0.584205
O O2 0.768867 0.718236 0.367463
O O3 0.702791 0.532714 0.695605
O O4 0.644697 0.273587 0.367756
O O5 0.500000 0.500000 0.500000
O O6 0.465490 0.423180 0.802916
O O7 0.340821 0.357479 0.763161
O O8 0.618316 0.923029 0.743586
O O9 0.696277 0.074369 0.428403
O O10 0.635685 0.993090 0.156422
O O11 0.724188 0.546581 0.006449
O O12 0.933966 0.107598 0.137702
O O13 0.642800 0.191271 0.712185
O O14 0.861895 0.525973 0.717712
O O15 0.516039 0.922256 0.094544
O O16 0.805077 0.470043 0.054405
O O17 0.000000 0.000000 0.000000
#
# Coordination Sequence:
#
# PCOD9105636 Si02
#       8
#     2   2   2   2   2   2   2   2
#     4  11  19  36  64  95 124 153 206 267 311 353
#     4  10  21  39  70  86 117 167 213 256 305 362
#     4  10  20  39  65  93 119 156 214 266 301 360
#     4  12  23  42  60  91 133 160 203 262 306 376
#     4  11  19  38  60  93 119 159 209 248 311 364
#     4  11  21  36  66  96 119 159 209 264 318 349
#     4  12  25  36  57  94 131 167 198 248 326 376
#     4  11  20  37  61  93 128 155 202 267 309 369
#
# _framework density 20.09628
#
# number of rings (size 3 to 8) (size 9 to 14) (size 15 to 20)
#    0.000    1.000    7.500    1.500    0.000    1.500 
#    2.250   10.625    0.000    0.000    0.000    0.000 
#    0.000    0.000    0.000    0.000    0.000    0.000 
#
# Total GULP energy -89151.098412 kJ/mol
# GULP energy per Si atom -5571.943651 kJ/mol
# Density = 2.005054 g / cm^3
# Si number density = 20.096280 Si / 1000 Ang^3
#
#
#
# Elastic Constant Matrix: (Units=GPa)
#
#
# Indices 1 2 3 4 5 6 
#
# 1 102.7456 58.5058 9.7220 -3.4597 0.4170 -15.9188
# 2 58.5058 131.7346 28.4073 -6.1539 10.7701 9.1337
# 3 9.7220 28.4073 58.4822 -7.1528 6.1180 6.3904
# 4 -3.4597 -6.1539 -7.1528 30.9947 -4.1790 -2.0431
# 5 0.4170 10.7701 6.1180 -4.1790 20.3286 -0.5772
# 6 -15.9188 9.1337 6.3904 -2.0431 -0.5772 29.0650
#
#
#
# Elastic Compliance Matrix: (Units=1/GPa)
#
#
# Indices 1 2 3 4 5 6 
#
# 1 0.016397 -0.008369 -0.000275 0.001540 0.004834 0.011875
# 2 -0.008369 0.013097 -0.003516 -0.000492 -0.006040 -0.008081
# 3 -0.000275 -0.003516 0.019976 0.003181 -0.003583 -0.003285
# 4 0.001540 -0.000492 0.003181 0.034116 0.006365 0.002823
# 5 0.004834 -0.006040 -0.003583 0.006365 0.054874 0.006871
# 6 0.011875 -0.008081 -0.003285 0.002823 0.006871 0.044506
#
#
# Mechanical properties :
#
#
# Convention : Reuss Voigt Hill
#
# Bulk Modulus (GPa) = 39.76419 54.02585 46.89502
# Shear Modulus (GPa) = 23.18349 29.16616 26.17482
#
# Velocity S-wave (km/s) = 3.40018 3.81375 3.61289
# Velocity P-wave (km/s) = 5.93673 6.80697 6.38669
#
# Compressibility (1/GPa) = 0.02514825
#
# Stress axis : x y z
#
# Youngs Moduli (GPa) = 60.98813 76.35182 50.06063
#
# Poissons Ratio (x) = 0.63901 0.01379
# Poissons Ratio (y) = 0.51043 0.17601
# Poissons Ratio (z) = 0.01680 0.26845
#
# Static dielectric constant tensor:
#      x y z
#    x 1.794800 -0.041300 0.031710 
#    y -0.041300 1.731630 -0.001760 
#    z 0.031710 -0.001760 1.793990 
# 
# From -- ./inp_files/215517.got.cif
#   From: 2010.05.17/outbox.cif.g08.bks.cpg/sg2_108_cif.got.tgz:215517.got - 2010.06.03 11:33:40.
