data_PCOD9105274
_publ_section_title
;
Structure prediction by ZEFSAII (Michael W. Deem and Ramdas Pophale) SiO2 
 PCOD9105274
Probable space group: P -1
;
_chemical_formula_sum "Si O2"
_cell_formula_units_Z 16
_cell_length_a 5.349134
_cell_length_b 21.756830
_cell_length_c 5.394946
_cell_angle_alpha 90.561055
_cell_angle_beta 95.157926
_cell_angle_gamma 72.502002
_cell_volume 596.288981
_symmetry_space_group_name_H-M "P -1"
_symmetry_group_IT_number 2
_symmetry_cell_setting 'triclinic'
loop_
_space_group_symop_operation_xyz
x,y,z
-x,-y,-z
loop_
_atom_site_type_symbol
_atom_site_label
_atom_site_fract_x
_atom_site_fract_y
_atom_site_fract_z
Si Si1 0.792542 0.592994 0.091299
Si Si2 0.639179 0.553514 0.574335
Si Si3 0.689089 0.862054 0.161294
Si Si4 0.041678 0.900110 0.527715
Si Si5 0.549791 0.802510 0.660909
Si Si6 0.240033 0.987634 0.214983
Si Si7 0.821062 0.321741 0.940490
Si Si8 0.702773 0.299938 0.429595
O O1 0.822122 0.560137 0.361545
O O2 0.497089 0.644341 0.076629
O O3 0.013242 0.628000 0.066772
O O4 0.772383 0.548509 0.854855
O O5 0.500000 0.500000 0.500000
O O6 0.411626 0.622582 0.564658
O O7 0.959523 0.873541 0.265633
O O8 0.617588 0.828446 0.403595
O O9 0.493000 0.935829 0.118954
O O10 0.681444 0.821169 0.916447
O O11 0.240916 0.842017 0.683295
O O12 0.196449 0.948629 0.453390
O O13 0.794409 0.941811 0.668378
O O14 0.534893 0.730320 0.621799
O O15 0.000000 0.000000 0.000000
O O16 0.859315 0.279173 0.696262
O O17 0.882120 0.285661 0.203929
#
# Coordination Sequence:
#
# PCOD9105274 Si02
#       8
#     2   2   2   2   2   2   2   2
#     4  10  21  40  65  98 131 169 219 276 341 405
#     4  10  21  41  67  97 132 173 223 280 339 406
#     4  11  24  40  66  93 127 170 218 261 331 387
#     4  10  23  40  60  97 122 173 209 270 325 387
#     4  11  24  44  61  92 132 165 220 274 317 406
#     4  10  20  39  64  87 135 159 215 267 321 387
#     4  10  21  42  67  94 132 172 224 274 336 409
#     4  10  22  43  64  91 131 171 218 275 341 397
#
# _framework density 26.832625
#
# number of rings (size 3 to 8) (size 9 to 14) (size 15 to 20)
#    0.000    1.750    1.250    2.250    1.750    0.500 
#   13.500   15.000    0.000    0.000    0.000    0.000 
#    0.000    0.000    0.000    0.000    0.000    0.000 
#
# Total GULP energy -89605.532889 kJ/mol
# GULP energy per Si atom -5600.345806 kJ/mol
# Density = 2.677155 g / cm^3
# Si number density = 26.832625 Si / 1000 Ang^3
#
#
#
# Elastic Constant Matrix: (Units=GPa)
#
#
# Indices 1 2 3 4 5 6 
#
# 1 86.2020 26.3562 28.9324 5.0026 3.8527 -2.5617
# 2 26.3562 115.2103 36.9035 19.8132 -3.8663 3.1547
# 3 28.9324 36.9035 235.2401 7.7215 2.4734 8.0312
# 4 5.0026 19.8132 7.7215 40.3998 20.7192 -10.5372
# 5 3.8527 -3.8663 2.4734 20.7192 42.8478 4.9717
# 6 -2.5617 3.1547 8.0312 -10.5372 4.9717 47.7034
#
#
#
# Elastic Compliance Matrix: (Units=1/GPa)
#
#
# Indices 1 2 3 4 5 6 
#
# 1 0.012991 -0.003028 -0.001217 0.001831 -0.002461 0.001764
# 2 -0.003028 0.011607 -0.001095 -0.009195 0.006227 -0.003426
# 3 -0.001217 -0.001095 0.004617 -0.000458 0.000068 -0.000879
# 4 0.001831 -0.009195 -0.000458 0.045037 -0.024285 0.013263
# 5 -0.002461 0.006227 0.000068 -0.024285 0.036995 -0.009775
# 6 0.001764 -0.003426 -0.000879 0.013263 -0.009775 0.025380
#
#
# Mechanical properties :
#
#
# Convention : Reuss Voigt Hill
#
# Bulk Modulus (GPa) = 53.95265 69.00407 61.47836
# Shear Modulus (GPa) = 32.57618 49.15421 40.86520
#
# Velocity S-wave (km/s) = 3.48810 4.28469 3.90675
# Velocity P-wave (km/s) = 6.03102 7.08875 6.58117
#
# Compressibility (1/GPa) = 0.01853477
#
# Stress axis : x y z
#
# Youngs Moduli (GPa) = 76.97568 86.15190 216.59907
#
# Poissons Ratio (x) = 0.26085 0.26365
# Poissons Ratio (y) = 0.23307 0.23722
# Poissons Ratio (z) = 0.09370 0.09435
#
# Static dielectric constant tensor:
#      x y z
#    x 2.205300 -0.092980 -0.028790 
#    y -0.092980 2.116060 -0.032490 
#    z -0.028790 -0.032490 2.151820 
# 
# From -- ./inp_files/10979.got.cif
#   From: 2010.05.17/outbox.cif.g08.bks.cpg/sg2_6_cif.got.tgz:10979.got - 2010.06.03 11:33:40.
