data_PCOD9105679
_publ_section_title
;
Structure prediction by ZEFSAII (Michael W. Deem and Ramdas Pophale) SiO2 
 PCOD9105679
Probable space group: P -1
;
_chemical_formula_sum "Si O2"
_cell_formula_units_Z 16
_cell_length_a 9.165139
_cell_length_b 10.743737
_cell_length_c 16.381861
_cell_angle_alpha 144.759494
_cell_angle_beta 65.193140
_cell_angle_gamma 128.832897
_cell_volume 709.501984
_symmetry_space_group_name_H-M "P -1"
_symmetry_group_IT_number 2
_symmetry_cell_setting 'triclinic'
loop_
_space_group_symop_operation_xyz
x,y,z
-x,-y,-z
loop_
_atom_site_type_symbol
_atom_site_label
_atom_site_fract_x
_atom_site_fract_y
_atom_site_fract_z
Si Si1 0.440033 0.197905 0.089638
Si Si2 0.854353 0.517734 0.139879
Si Si3 0.254124 0.468316 0.265732
Si Si4 0.856157 0.272948 0.169723
Si Si5 0.590676 0.343773 0.370159
Si Si6 0.249941 0.814932 0.173705
Si Si7 0.219263 0.739631 0.565252
Si Si8 0.503191 0.301705 0.830625
O O1 0.648328 0.462219 0.180993
O O2 0.300714 0.280225 0.202860
O O3 0.500000 0.000000 0.000000
O O4 0.310369 0.029880 0.952144
O O5 0.898701 0.361574 0.112710
O O6 0.054517 0.788790 0.233817
O O7 0.809258 0.394506 0.994683
O O8 0.281713 0.692841 0.437998
O O9 0.396545 0.571249 0.210484
O O10 0.039536 0.327039 0.204635
O O11 0.764098 0.423208 0.310051
O O12 0.500000 0.500000 0.500000
O O13 0.668169 0.300691 0.412074
O O14 0.406561 0.081862 0.240365
O O15 0.356305 0.769975 0.197607
O O16 0.000000 0.500000 0.500000
O O17 0.295013 0.039899 0.721987
O O18 0.500000 0.500000 0.000000
#
# Coordination Sequence:
#
# PCOD9105679 Si02
#       8
#     2   2   2   2   2   2   2   2
#     4  10  23  39  66 103 136 177 235 291 346 426
#     4  10  20  39  65  94 130 173 220 291 337 406
#     4  12  24  44  71 101 140 193 230 296 362 420
#     4  11  22  41  66  99 139 181 240 283 350 425
#     4  11  25  44  66  95 139 183 233 289 354 417
#     4  10  21  42  64  95 136 174 228 287 346 411
#     4  11  26  48  69 102 144 185 242 292 358 428
#     4  11  25  46  71 104 142 188 241 297 354 422
#
# _framework density 22.551027999999999
#
# number of rings (size 3 to 8) (size 9 to 14) (size 15 to 20)
#    0.000    1.250    3.750    1.500    5.250    1.000 
#    6.750    0.625    0.000    0.000    0.000    0.000 
#    0.000    0.000    0.000    0.000    0.000    0.000 
#
# Total GULP energy -89096.678100 kJ/mol
# GULP energy per Si atom -5568.542381 kJ/mol
# Density = 2.249970 g / cm^3
# Si number density = 22.551028 Si / 1000 Ang^3
#
#
#
# Elastic Constant Matrix: (Units=GPa)
#
#
# Indices 1 2 3 4 5 6 
#
# 1 122.9172 37.4270 24.6264 12.2157 15.6471 24.7751
# 2 37.4270 83.1663 33.1028 -1.3358 5.9647 16.7878
# 3 24.6264 33.1028 106.2451 3.3126 9.7951 15.5042
# 4 12.2157 -1.3358 3.3126 25.5329 0.7794 13.2780
# 5 15.6471 5.9647 9.7951 0.7794 36.0714 -1.9913
# 6 24.7751 16.7878 15.5042 13.2780 -1.9913 45.6389
#
#
#
# Elastic Compliance Matrix: (Units=1/GPa)
#
#
# Indices 1 2 3 4 5 6 
#
# 1 0.010965 -0.003827 -0.000331 -0.003390 -0.004161 -0.003628
# 2 -0.003827 0.016166 -0.003671 0.005344 -0.000363 -0.004193
# 3 -0.000331 -0.003671 0.011200 -0.000207 -0.002415 -0.002320
# 4 -0.003390 0.005344 -0.000207 0.048528 -0.001191 -0.014226
# 5 -0.004161 -0.000363 -0.002415 -0.001191 0.030539 0.004892
# 6 -0.003628 -0.004193 -0.002320 -0.014226 0.004892 0.030563
#
#
# Mechanical properties :
#
#
# Convention : Reuss Voigt Hill
#
# Bulk Modulus (GPa) = 44.10323 55.84899 49.97611
# Shear Modulus (GPa) = 29.20994 35.92681 32.56838
#
# Velocity S-wave (km/s) = 3.60291 3.99574 3.80440
# Velocity P-wave (km/s) = 6.07515 6.79023 6.44262
#
# Compressibility (1/GPa) = 0.02267408
#
# Stress axis : x y z
#
# Youngs Moduli (GPa) = 91.20216 61.85999 89.28360
#
# Poissons Ratio (x) = 0.23671 0.02952
# Poissons Ratio (y) = 0.34899 0.32776
# Poissons Ratio (z) = 0.03015 0.22709
#
# Static dielectric constant tensor:
#      x y z
#    x 1.814020 -0.016180 0.001230 
#    y -0.016180 2.005020 0.028490 
#    z 0.001230 0.028490 1.885420 
# 
# From -- ./inp_files/560150.got.cif
#   From: 2010.05.17/outbox.cif.g08.bks.cpg/sg2_281_cif.got.tgz:560150.got - 2010.06.03 11:33:40.
