data_PCOD9105810
_publ_section_title
;
Structure prediction by ZEFSAII (Michael W. Deem and Ramdas Pophale) SiO2 
 PCOD9105810
Probable space group: P -1
;
_chemical_formula_sum "Si O2"
_cell_formula_units_Z 12
_cell_length_a 8.226568
_cell_length_b 11.963034
_cell_length_c 13.772749
_cell_angle_alpha 23.807758
_cell_angle_beta 108.778910
_cell_angle_gamma 106.856908
_cell_volume 517.987264
_symmetry_space_group_name_H-M "P -1"
_symmetry_group_IT_number 2
_symmetry_cell_setting 'triclinic'
loop_
_space_group_symop_operation_xyz
x,y,z
-x,-y,-z
loop_
_atom_site_type_symbol
_atom_site_label
_atom_site_fract_x
_atom_site_fract_y
_atom_site_fract_z
Si Si1 0.731128 0.526177 0.886257
Si Si2 0.400752 0.369698 0.841234
Si Si3 0.937582 0.869196 0.783195
Si Si4 0.845353 0.706657 0.568237
Si Si5 0.508404 0.750084 0.377124
Si Si6 0.967470 0.806835 0.054695
O O1 0.538772 0.423501 0.911739
O O2 0.776120 0.691103 0.861053
O O3 0.765433 0.728189 0.641576
O O4 0.890026 0.309722 0.070421
O O5 0.442193 0.595533 0.585745
O O6 0.198619 0.379652 0.811418
O O7 0.424704 0.035050 0.095346
O O8 0.932169 0.951727 0.829217
O O9 0.973291 0.144955 0.511543
O O10 0.706134 0.828319 0.371219
O O11 0.874721 0.396519 0.780729
O O12 0.500000 0.500000 0.500000
O O13 0.000000 0.000000 0.000000
#
# Coordination Sequence:
#
# PCOD9105810 Si02
#       6
#     2   2   2   2   2   2
#     4   9  20  40  64  93 120 162 220 268 309 379
#     4  11  24  42  62  97 129 168 212 271 320 379
#     4  10  20  39  66  88 125 166 213 262 323 375
#     4  10  21  39  64  93 120 169 215 263 320 379
#     4  11  23  40  67  91 127 172 221 264 311 380
#     4  11  26  40  59  93 134 168 208 262 328 388
#
# _framework density 23.166592000000001
#
# number of rings (size 3 to 8) (size 9 to 14) (size 15 to 20)
#    0.000    1.667    1.667    2.000    4.667    1.333 
#    0.000    0.833    0.000    0.000    0.000    0.000 
#    0.000    0.000    0.000    0.000    0.000    0.000 
#
# Total GULP energy -66821.007600 kJ/mol
# GULP energy per Si atom -5568.417300 kJ/mol
# Density = 2.311386 g / cm^3
# Si number density = 23.166592 Si / 1000 Ang^3
#
#
#
# Elastic Constant Matrix: (Units=GPa)
#
#
# Indices 1 2 3 4 5 6 
#
# 1 66.3535 31.0801 7.0349 -4.6128 -18.0369 18.1437
# 2 31.0801 121.0389 15.8617 -18.1067 -6.8624 8.5814
# 3 7.0349 15.8617 47.6665 -7.7177 -13.0819 -6.8191
# 4 -4.6128 -18.1067 -7.7177 16.4656 7.8203 -8.4441
# 5 -18.0369 -6.8624 -13.0819 7.8203 36.4183 -5.3629
# 6 18.1437 8.5814 -6.8191 -8.4441 -5.3629 28.7844
#
#
#
# Elastic Compliance Matrix: (Units=1/GPa)
#
#
# Indices 1 2 3 4 5 6 
#
# 1 0.025057 -0.006483 -0.003644 -0.015815 0.010718 -0.017367
# 2 -0.006483 0.011735 -0.001163 0.014360 -0.003943 0.003790
# 3 -0.003644 -0.001163 0.028574 0.015544 0.007156 0.015306
# 4 -0.015815 0.014360 0.015544 0.106649 -0.016922 0.037503
# 5 0.010718 -0.003943 0.007156 -0.016922 0.037967 -0.001775
# 6 -0.017367 0.003790 0.015306 0.037503 -0.001775 0.058855
#
#
# Mechanical properties :
#
#
# Convention : Reuss Voigt Hill
#
# Bulk Modulus (GPa) = 23.37268 38.11248 30.74258
# Shear Modulus (GPa) = 16.35702 28.40580 22.38141
#
# Velocity S-wave (km/s) = 2.66006 3.50545 3.11160
# Velocity P-wave (km/s) = 4.42102 5.73336 5.11942
#
# Compressibility (1/GPa) = 0.04278500
#
# Stress axis : x y z
#
# Youngs Moduli (GPa) = 39.90940 85.21670 34.99631
#
# Poissons Ratio (x) = 0.55249 0.12753
# Poissons Ratio (y) = 0.25874 0.04070
# Poissons Ratio (z) = 0.14544 0.09910
#
# Static dielectric constant tensor:
#      x y z
#    x 1.944900 0.023170 -0.013020 
#    y 0.023170 1.887580 0.030220 
#    z -0.013020 0.030220 2.034780 
# 
# From -- ./inp_files/18866.got.cif
#   From: 2010.05.17/outbox.cif.g08.bks.cpg/sg2_10_cif.got.tgz:18866.got - 2010.06.03 11:33:40.
