data_PCOD9105949
_publ_section_title
;
Structure prediction by ZEFSAII (Michael W. Deem and Ramdas Pophale) SiO2 
 PCOD9105949
Probable space group: P -1
;
_chemical_formula_sum "Si O2"
_cell_formula_units_Z 12
_cell_length_a 8.478327
_cell_length_b 8.974468
_cell_length_c 11.635394
_cell_angle_alpha 128.751992
_cell_angle_beta 52.138566
_cell_angle_gamma 97.227431
_cell_volume 494.774085
_symmetry_space_group_name_H-M "P -1"
_symmetry_group_IT_number 2
_symmetry_cell_setting 'triclinic'
loop_
_space_group_symop_operation_xyz
x,y,z
-x,-y,-z
loop_
_atom_site_type_symbol
_atom_site_label
_atom_site_fract_x
_atom_site_fract_y
_atom_site_fract_z
Si Si1 0.226527 0.336082 0.378558
Si Si2 0.444448 0.048638 0.414307
Si Si3 0.022050 0.680682 0.804490
Si Si4 0.694300 0.120835 0.121262
Si Si5 0.040070 0.606778 0.147247
Si Si6 0.214993 0.918485 0.286209
O O1 0.487722 0.233845 0.183583
O O2 0.000000 0.500000 0.500000
O O3 0.216600 0.502505 0.562334
O O4 0.201526 0.125266 0.325477
O O5 0.601224 0.108331 0.287237
O O6 0.203018 0.236008 0.625656
O O7 0.500000 0.000000 0.500000
O O8 0.408676 0.869313 0.269247
O O9 0.885250 0.568620 0.872075
O O10 0.140758 0.769092 0.886214
O O11 0.850124 0.878049 0.905770
O O12 0.192516 0.732953 0.134625
O O13 0.000000 0.500000 0.000000
O O14 0.000000 0.000000 0.500000
#
# Coordination Sequence:
#
# PCOD9105949 Si02
#       6
#     2   2   2   2   2   2
#     4  11  23  41  69  96 135 180 219 280 348 399
#     4  10  20  39  66  95 133 175 219 281 335 399
#     4  11  22  42  67  94 136 179 225 284 327 417
#     4  10  23  42  65  98 137 172 231 278 333 407
#     4  11  22  40  67  96 133 180 227 274 347 400
#     4   9  19  41  63  90 138 168 221 281 323 406
#
# _framework density 24.253494
#
# number of rings (size 3 to 8) (size 9 to 14) (size 15 to 20)
#    0.000    1.667    5.000    1.500    0.000    6.000 
#    0.000    9.167    0.000    0.000    0.000    0.000 
#    0.000    0.000    0.000    0.000    0.000    0.000 
#
# Total GULP energy -66827.923462 kJ/mol
# GULP energy per Si atom -5568.993622 kJ/mol
# Density = 2.419829 g / cm^3
# Si number density = 24.253494 Si / 1000 Ang^3
#
#
#
# Elastic Constant Matrix: (Units=GPa)
#
#
# Indices 1 2 3 4 5 6 
#
# 1 135.7080 50.2510 30.2512 21.4826 -4.6387 -3.9470
# 2 50.2510 90.0190 33.5355 19.6619 1.6441 21.2340
# 3 30.2512 33.5355 100.6814 15.6586 -6.2292 19.7822
# 4 21.4826 19.6619 15.6586 42.8381 1.1298 4.0316
# 5 -4.6387 1.6441 -6.2292 1.1298 52.0896 4.1337
# 6 -3.9470 21.2340 19.7822 4.0316 4.1337 33.1384
#
#
#
# Elastic Compliance Matrix: (Units=1/GPa)
#
#
# Indices 1 2 3 4 5 6 
#
# 1 0.010765 -0.006332 -0.002066 -0.002389 0.000423 0.006810
# 2 -0.006332 0.018721 -0.001543 -0.003778 -0.000359 -0.011325
# 3 -0.002066 -0.001543 0.012924 -0.002381 0.002012 -0.006934
# 4 -0.002389 -0.003778 -0.002381 0.027137 -0.000997 0.000380
# 5 0.000423 -0.000359 0.002012 -0.000997 0.019768 -0.003266
# 6 0.006810 -0.011325 -0.006934 0.000380 -0.003266 0.042744
#
#
# Mechanical properties :
#
#
# Convention : Reuss Voigt Hill
#
# Bulk Modulus (GPa) = 44.38697 61.60930 52.99814
# Shear Modulus (GPa) = 31.35794 39.77128 35.56461
#
# Velocity S-wave (km/s) = 3.59963 4.05386 3.83348
# Velocity P-wave (km/s) = 5.96803 6.88252 6.44152
#
# Compressibility (1/GPa) = 0.02252913
#
# Stress axis : x y z
#
# Youngs Moduli (GPa) = 92.89730 53.41528 77.37549
#
# Poissons Ratio (x) = 0.33822 0.15984
# Poissons Ratio (y) = 0.58822 0.11937
# Poissons Ratio (z) = 0.19190 0.08240
#
# Static dielectric constant tensor:
#      x y z
#    x 2.087130 -0.056670 0.074100 
#    y -0.056670 1.989330 -0.019830 
#    z 0.074100 -0.019830 1.940820 
# 
# From -- ./inp_files/383435.got.cif
#   From: 2010.05.17/outbox.cif.g08.bks.cpg/sg2_192_cif.got.tgz:383435.got - 2010.06.03 11:33:40.
