data_PCOD9105288
_publ_section_title
;
Structure prediction by ZEFSAII (Michael W. Deem and Ramdas Pophale) SiO2 
 PCOD9105288
Probable space group: P -1
;
_chemical_formula_sum "Si O2"
_cell_formula_units_Z 16
_cell_length_a 8.610664
_cell_length_b 14.785957
_cell_length_c 9.611080
_cell_angle_alpha 80.267605
_cell_angle_beta 66.861069
_cell_angle_gamma 125.444288
_cell_volume 777.440095
_symmetry_space_group_name_H-M "P -1"
_symmetry_group_IT_number 2
_symmetry_cell_setting 'triclinic'
loop_
_space_group_symop_operation_xyz
x,y,z
-x,-y,-z
loop_
_atom_site_type_symbol
_atom_site_label
_atom_site_fract_x
_atom_site_fract_y
_atom_site_fract_z
Si Si1 0.995301 0.128115 0.112978
Si Si2 0.897427 0.409632 0.693250
Si Si3 0.302042 0.145804 0.785536
Si Si4 0.228973 0.767395 0.868849
Si Si5 0.334615 0.495550 0.857797
Si Si6 0.487857 0.375071 0.942120
Si Si7 0.428044 0.864527 0.071171
Si Si8 0.338966 0.659730 0.628929
O O1 0.807032 0.138337 0.172503
O O2 0.214311 0.240470 0.107591
O O3 0.863146 0.981535 0.222525
O O4 0.141957 0.163502 0.908063
O O5 0.834407 0.276558 0.743892
O O6 0.000000 0.500000 0.500000
O O7 0.078120 0.518319 0.716907
O O8 0.637161 0.351678 0.830183
O O9 0.387558 0.109907 0.889325
O O10 0.516070 0.263082 0.582228
O O11 0.315511 0.738601 0.717399
O O12 0.399026 0.822073 0.930062
O O13 0.950524 0.630147 0.031534
O O14 0.373694 0.540510 0.991601
O O15 0.445010 0.615936 0.690411
O O16 0.467450 0.449604 0.819385
O O17 0.500000 0.000000 0.000000
#
# Coordination Sequence:
#
# PCOD9105288 Si02
#       8
#     2   2   2   2   2   2   2   2
#     4  10  22  43  63  85 127 185 212 252 324 409
#     4  12  22  40  65  97 132 166 214 279 330 375
#     4  11  24  43  64  89 135 174 219 261 329 391
#     4  11  22  38  69  95 126 164 222 269 323 388
#     4  10  21  37  62  95 125 158 209 262 333 381
#     4  10  20  39  64  88 123 172 207 257 322 395
#     4  12  23  41  64  97 127 181 217 259 324 406
#     4  12  23  40  66 104 126 162 217 289 321 371
#
# _framework density 20.580362999999998
#
# number of rings (size 3 to 8) (size 9 to 14) (size 15 to 20)
#    0.000    1.000    6.250    1.125    0.000    0.500 
#    2.250    2.500    0.000    0.000    0.000    0.000 
#    0.000    0.000    0.000    0.000    0.000    0.000 
#
# Total GULP energy -89093.222230 kJ/mol
# GULP energy per Si atom -5568.326389 kJ/mol
# Density = 2.053352 g / cm^3
# Si number density = 20.580363 Si / 1000 Ang^3
#
#
#
# Elastic Constant Matrix: (Units=GPa)
#
#
# Indices 1 2 3 4 5 6 
#
# 1 82.2941 29.8576 31.2914 0.4632 12.4843 -5.9815
# 2 29.8576 126.8915 25.7158 -7.5980 6.8926 -11.5781
# 3 31.2914 25.7158 48.5477 -11.8542 11.6504 -10.1472
# 4 0.4632 -7.5980 -11.8542 25.1334 6.6356 4.9639
# 5 12.4843 6.8926 11.6504 6.6356 17.8746 -5.2423
# 6 -5.9815 -11.5781 -10.1472 4.9639 -5.2423 31.9009
#
#
#
# Elastic Compliance Matrix: (Units=1/GPa)
#
#
# Indices 1 2 3 4 5 6 
#
# 1 0.017451 -0.002124 -0.010997 -0.005425 -0.002345 -0.000538
# 2 -0.002124 0.009193 -0.002798 0.001168 -0.000130 0.001845
# 3 -0.010997 -0.002798 0.042984 0.026885 -0.028741 0.001688
# 4 -0.005425 0.001168 0.026885 0.065569 -0.041168 -0.009010
# 5 -0.002345 -0.000130 -0.028741 -0.041168 0.095297 0.012437
# 6 -0.000538 0.001845 0.001688 -0.009010 0.012437 0.035899
#
#
# Mechanical properties :
#
#
# Convention : Reuss Voigt Hill
#
# Bulk Modulus (GPa) = 26.46320 47.94031 37.20176
# Shear Modulus (GPa) = 16.08608 26.37302 21.22955
#
# Velocity S-wave (km/s) = 2.79878 3.58364 3.21525
# Velocity P-wave (km/s) = 4.83018 6.36145 5.64795
#
# Compressibility (1/GPa) = 0.03778833
#
# Stress axis : x y z
#
# Youngs Moduli (GPa) = 57.30330 108.77814 23.26470
#
# Poissons Ratio (x) = 0.23105 0.25585
# Poissons Ratio (y) = 0.12172 0.06510
# Poissons Ratio (z) = 0.63018 0.30440
#
# Static dielectric constant tensor:
#      x y z
#    x 1.813080 -0.002100 0.038320 
#    y -0.002100 1.837090 -0.018720 
#    z 0.038320 -0.018720 1.715090 
# 
# From -- ./inp_files/206772.got.cif
#   From: 2010.05.17/outbox.cif.g08.bks.cpg/sg2_104_cif.got.tgz:206772.got - 2010.06.03 11:33:40.
