data_PCOD9105683
_publ_section_title
;
Structure prediction by ZEFSAII (Michael W. Deem and Ramdas Pophale) SiO2 
 PCOD9105683
Probable space group: P -1
;
_chemical_formula_sum "Si O2"
_cell_formula_units_Z 16
_cell_length_a 12.560289
_cell_length_b 11.561730
_cell_length_c 6.908863
_cell_angle_alpha 59.099343
_cell_angle_beta 76.682461
_cell_angle_gamma 115.226237
_cell_volume 635.119504
_symmetry_space_group_name_H-M "P -1"
_symmetry_group_IT_number 2
_symmetry_cell_setting 'triclinic'
loop_
_space_group_symop_operation_xyz
x,y,z
-x,-y,-z
loop_
_atom_site_type_symbol
_atom_site_label
_atom_site_fract_x
_atom_site_fract_y
_atom_site_fract_z
Si Si1 0.280408 0.959878 0.308459
Si Si2 0.013727 0.399589 0.248969
Si Si3 0.681651 0.663023 0.594818
Si Si4 0.874055 0.653819 0.102754
Si Si5 0.204626 0.955005 0.798978
Si Si6 0.362170 0.329431 0.933011
Si Si7 0.447502 0.947082 0.789901
Si Si8 0.228900 0.560544 0.330195
O O1 0.243844 0.952691 0.559611
O O2 0.129144 0.782605 0.449067
O O3 0.335487 0.150280 0.055042
O O4 0.402220 0.942664 0.253478
O O5 0.109043 0.530560 0.270705
O O6 0.095814 0.352663 0.128757
O O7 0.000000 0.500000 0.000000
O O8 0.661484 0.668367 0.828572
O O9 0.769215 0.596730 0.583043
O O10 0.757364 0.860797 0.328800
O O11 0.526207 0.514131 0.686713
O O12 0.803814 0.470624 0.402481
O O13 0.757201 0.679215 0.122470
O O14 0.030991 0.800437 0.010486
O O15 0.320831 0.954826 0.864378
O O16 0.500000 0.000000 0.500000
O O17 0.374700 0.745044 0.038712
#
# Coordination Sequence:
#
# PCOD9105683 Si02
#       8
#     2   2   2   2   2   2   2   2
#     4   9  19  37  64  91 125 176 214 268 325 383
#     4  11  24  42  66  97 130 174 219 266 325 390
#     4  10  21  38  66  99 121 176 224 261 322 389
#     4  11  25  41  65  98 135 169 210 274 328 380
#     4   9  21  37  62  95 132 170 210 272 324 382
#     4  10  20  39  65  94 133 166 220 274 322 379
#     4  10  20  40  65  92 131 169 215 266 330 380
#     4  12  24  42  69  98 130 172 221 263 323 397
#
# _framework density 25.19211
#
# number of rings (size 3 to 8) (size 9 to 14) (size 15 to 20)
#    0.000    1.750    2.500    2.250    3.500    5.500 
#    0.000    0.000    0.000    6.000    0.000    0.000 
#    0.000    0.000    0.000    0.000    0.000    0.000 
#
# Total GULP energy -89497.424475 kJ/mol
# GULP energy per Si atom -5593.589030 kJ/mol
# Density = 2.513477 g / cm^3
# Si number density = 25.192110 Si / 1000 Ang^3
#
#
#
# Elastic Constant Matrix: (Units=GPa)
#
#
# Indices 1 2 3 4 5 6 
#
# 1 155.2190 38.4590 54.3627 -9.8388 5.1208 20.1019
# 2 38.4590 82.1302 46.4061 -3.7892 -3.3362 10.9143
# 3 54.3627 46.4061 133.7397 -16.8058 -8.6044 15.9290
# 4 -9.8388 -3.7892 -16.8058 50.7611 0.3704 2.8929
# 5 5.1208 -3.3362 -8.6044 0.3704 43.3112 3.2022
# 6 20.1019 10.9143 15.9290 2.8929 3.2022 48.6848
#
#
#
# Elastic Compliance Matrix: (Units=1/GPa)
#
#
# Indices 1 2 3 4 5 6 
#
# 1 0.008172 -0.002289 -0.002275 0.000788 -0.001448 -0.002068
# 2 -0.002289 0.015944 -0.004505 -0.000684 0.000695 -0.001160
# 3 -0.002275 -0.004505 0.010683 0.002850 0.002157 -0.001857
# 4 0.000788 -0.000684 0.002850 0.020877 0.000417 -0.002373
# 5 -0.001448 0.000695 0.002157 0.000417 0.023876 -0.001859
# 6 -0.002068 -0.001160 -0.001857 -0.002373 -0.001859 0.022525
#
#
# Mechanical properties :
#
#
# Convention : Reuss Voigt Hill
#
# Bulk Modulus (GPa) = 60.01988 72.17160 66.09574
# Shear Modulus (GPa) = 39.75501 44.00884 41.88192
#
# Velocity S-wave (km/s) = 3.97681 4.18416 4.08180
# Velocity P-wave (km/s) = 6.70546 7.21482 6.96480
#
# Compressibility (1/GPa) = 0.01666115
#
# Stress axis : x y z
#
# Youngs Moduli (GPa) = 122.36732 62.71994 93.60283
#
# Poissons Ratio (x) = 0.14354 0.21299
# Poissons Ratio (y) = 0.28006 0.42168
# Poissons Ratio (z) = 0.27844 0.28255
#
# Static dielectric constant tensor:
#      x y z
#    x 1.995820 -0.015670 -0.014370 
#    y -0.015670 2.005780 0.057630 
#    z -0.014370 0.057630 1.974770 
# 
# From -- ./inp_files/271577.got.cif
#   From: 2010.05.17/outbox.cif.g08.bks.cpg/sg2_136_cif.got.tgz:271577.got - 2010.06.03 11:33:40.
