data_PCOD9105044
_publ_section_title
;
Structure prediction by ZEFSAII (Michael W. Deem and Ramdas Pophale) SiO2 
 PCOD9105044
Probable space group: P -1
;
_chemical_formula_sum "Si O2"
_cell_formula_units_Z 14
_cell_length_a 15.799142
_cell_length_b 17.714817
_cell_length_c 7.892485
_cell_angle_alpha 114.139708
_cell_angle_beta 140.445267
_cell_angle_gamma 34.375323
_cell_volume 615.210058
_symmetry_space_group_name_H-M "P -1"
_symmetry_group_IT_number 2
_symmetry_cell_setting 'triclinic'
loop_
_space_group_symop_operation_xyz
x,y,z
-x,-y,-z
loop_
_atom_site_type_symbol
_atom_site_label
_atom_site_fract_x
_atom_site_fract_y
_atom_site_fract_z
Si Si1 0.121093 0.023279 0.166790
Si Si2 0.135089 0.856865 0.457778
Si Si3 0.556720 0.895886 0.222024
Si Si4 0.957898 0.383071 0.062087
Si Si5 0.578533 0.733040 0.852309
Si Si6 0.067878 0.708924 0.743707
Si Si7 0.906556 0.291175 0.592445
O O1 0.421849 0.859375 0.566717
O O2 0.925403 0.198957 0.111881
O O3 0.000000 0.000000 0.000000
O O4 0.091301 0.049660 0.944598
O O5 0.375104 0.773771 0.652060
O O6 0.224738 0.725095 0.572612
O O7 0.000000 0.000000 0.500000
O O8 0.713808 0.801299 0.558564
O O9 0.739030 0.866599 0.384800
O O10 0.612761 0.782646 0.095620
O O11 0.235769 0.091109 0.912065
O O12 0.832627 0.402311 0.050115
O O13 0.852256 0.534321 0.040119
O O14 0.868068 0.382452 0.757149
O O15 0.177736 0.635260 0.658115
#
# Coordination Sequence:
#
# PCOD9105044 Si02
#       7
#     2   2   2   2   2   2   2
#     4  10  20  39  63  89 122 163 209 253 307 368
#     4  11  21  39  67  92 120 166 220 252 306 382
#     4  10  21  40  67  88 132 163 214 250 311 373
#     4  10  25  39  63  97 129 164 203 264 322 357
#     4  11  22  42  63  92 132 163 201 272 316 356
#     4  10  22  40  66  91 122 168 212 254 308 375
#     4  12  20  41  64  93 122 169 217 252 301 385
#
# _framework density 22.756454999999999
#
# number of rings (size 3 to 8) (size 9 to 14) (size 15 to 20)
#    0.857    0.571    4.286    2.143    0.000    0.571 
#    2.571    1.429    0.000    0.000    0.000    0.000 
#    0.000    0.000    0.000    0.000    0.000    0.000 
#
# Total GULP energy -78184.471952 kJ/mol
# GULP energy per Si atom -5584.605139 kJ/mol
# Density = 2.270466 g / cm^3
# Si number density = 22.756455 Si / 1000 Ang^3
#
#
#
# Elastic Constant Matrix: (Units=GPa)
#
#
# Indices 1 2 3 4 5 6 
#
# 1 71.1066 10.7825 22.1554 11.4074 -17.7669 -5.6693
# 2 10.7825 91.3975 37.5451 15.8604 -22.8028 2.1013
# 3 22.1554 37.5451 57.2155 13.6960 -19.5093 -9.8908
# 4 11.4074 15.8604 13.6960 39.4288 -5.5374 -1.3947
# 5 -17.7669 -22.8028 -19.5093 -5.5374 48.3976 10.2297
# 6 -5.6693 2.1013 -9.8908 -1.3947 10.2297 29.0580
#
#
#
# Elastic Compliance Matrix: (Units=1/GPa)
#
#
# Indices 1 2 3 4 5 6 
#
# 1 0.017182 0.002074 -0.005743 -0.003167 0.004728 -0.000569
# 2 0.002074 0.017115 -0.010461 -0.003294 0.005611 -0.006527
# 3 -0.005743 -0.010461 0.029920 -0.003830 0.002754 0.008667
# 4 -0.003167 -0.003294 -0.003830 0.028799 -0.000972 0.000041
# 5 0.004728 0.005611 0.002754 -0.000972 0.027813 -0.008384
# 6 -0.000569 -0.006527 0.008667 0.000041 -0.008384 0.040678
#
#
# Mechanical properties :
#
#
# Convention : Reuss Voigt Hill
#
# Bulk Modulus (GPa) = 27.80947 40.07619 33.94283
# Shear Modulus (GPa) = 24.78280 33.32598 29.05439
#
# Velocity S-wave (km/s) = 3.30365 3.83098 3.57705
# Velocity P-wave (km/s) = 5.17679 6.10063 5.65760
#
# Compressibility (1/GPa) = 0.03595897
#
# Stress axis : x y z
#
# Youngs Moduli (GPa) = 58.19986 58.42687 33.42222
#
# Poissons Ratio (x) = -0.12119 0.19193
# Poissons Ratio (y) = -0.12071 0.34963
# Poissons Ratio (z) = 0.33422 0.61120
#
# Static dielectric constant tensor:
#      x y z
#    x 1.863770 -0.007610 -0.018640 
#    y -0.007610 1.821810 -0.014550 
#    z -0.018640 -0.014550 1.913040 
# 
# From -- ./inp_files/336030.got.cif
#   From: 2010.05.17/outbox.cif.g08.bks.cpg/sg2_169_cif.got.tgz:336030.got - 2010.06.03 11:33:40.
