data_PCOD9105772
_publ_section_title
;
Structure prediction by ZEFSAII (Michael W. Deem and Ramdas Pophale) SiO2 
 PCOD9105772
Probable space group: P -1
;
_chemical_formula_sum "Si O2"
_cell_formula_units_Z 16
_cell_length_a 8.926682
_cell_length_b 9.111359
_cell_length_c 12.535039
_cell_angle_alpha 61.600456
_cell_angle_beta 114.680707
_cell_angle_gamma 124.202948
_cell_volume 725.743847
_symmetry_space_group_name_H-M "P -1"
_symmetry_group_IT_number 2
_symmetry_cell_setting 'triclinic'
loop_
_space_group_symop_operation_xyz
x,y,z
-x,-y,-z
loop_
_atom_site_type_symbol
_atom_site_label
_atom_site_fract_x
_atom_site_fract_y
_atom_site_fract_z
Si Si1 0.718661 0.574369 0.026589
Si Si2 0.715942 0.925574 0.831926
Si Si3 0.658068 0.719708 0.455453
Si Si4 0.423047 0.030032 0.824121
Si Si5 0.053747 0.656910 0.208246
Si Si6 0.739876 0.289505 0.971280
Si Si7 0.457855 0.176696 0.412696
Si Si8 0.828081 0.497912 0.509811
O O1 0.832237 0.549467 0.168236
O O2 0.500000 0.500000 0.000000
O O3 0.791882 0.794386 0.953808
O O4 0.754025 0.470147 0.973090
O O5 0.620140 0.832732 0.724573
O O6 0.557629 0.946988 0.846562
O O7 0.875741 0.135892 0.795039
O O8 0.500000 0.500000 0.500000
O O9 0.606983 0.849728 0.318835
O O10 0.684718 0.814466 0.545849
O O11 0.821266 0.692350 0.457412
O O12 0.535252 0.177499 0.898621
O O13 0.251982 0.855226 0.888553
O O14 0.127976 0.672105 0.103968
O O15 0.153795 0.568342 0.342630
O O16 0.648948 0.354632 0.440711
O O17 0.500000 0.000000 0.500000
O O18 0.000000 0.500000 0.500000
#
# Coordination Sequence:
#
# PCOD9105772 Si02
#       8
#     2   2   2   2   2   2   2   2
#     4  12  26  41  69 101 127 178 232 276 336 399
#     4  11  22  41  69 100 136 176 220 279 335 401
#     4  10  21  40  68 101 131 181 223 269 337 400
#     4  10  20  39  66 100 141 169 224 277 336 399
#     4  11  25  48  64  95 142 172 224 281 342 394
#     4  10  22  41  65  96 132 181 219 279 333 395
#     4  11  20  41  72  97 131 177 221 266 337 404
#     4  11  26  44  67  99 137 175 221 284 332 396
#
# _framework density 22.046344000000001
#
# number of rings (size 3 to 8) (size 9 to 14) (size 15 to 20)
#    0.000    1.250    3.750    3.000    7.000    0.000 
#    2.250    0.625    0.000    0.000    0.000    0.000 
#    0.000    0.000    0.000    0.000    0.000    0.000 
#
# Total GULP energy -89343.846508 kJ/mol
# GULP energy per Si atom -5583.990407 kJ/mol
# Density = 2.199617 g / cm^3
# Si number density = 22.046344 Si / 1000 Ang^3
#
#
#
# Elastic Constant Matrix: (Units=GPa)
#
#
# Indices 1 2 3 4 5 6 
#
# 1 85.2025 39.7858 19.1755 12.9294 -2.9407 -15.7485
# 2 39.7858 83.3350 26.2602 17.2736 4.6793 -28.7549
# 3 19.1755 26.2602 97.9328 12.8482 -1.9533 -9.9549
# 4 12.9294 17.2736 12.8482 42.1862 -1.9307 6.6362
# 5 -2.9407 4.6793 -1.9533 -1.9307 28.7715 0.4616
# 6 -15.7485 -28.7549 -9.9549 6.6362 0.4616 39.5234
#
#
#
# Elastic Compliance Matrix: (Units=1/GPa)
#
#
# Indices 1 2 3 4 5 6 
#
# 1 0.015581 -0.006246 -0.000870 -0.002123 0.002378 0.001774
# 2 -0.006246 0.023436 -0.002306 -0.009697 -0.005509 0.015674
# 3 -0.000870 -0.002306 0.011466 -0.002440 0.000881 0.001263
# 4 -0.002123 -0.009697 -0.002440 0.031406 0.003524 -0.013830
# 5 0.002378 -0.005509 0.000881 0.003524 0.036254 -0.003853
# 6 0.001774 0.015674 0.001263 -0.013830 -0.003853 0.040097
#
#
# Mechanical properties :
#
#
# Convention : Reuss Voigt Hill
#
# Bulk Modulus (GPa) = 31.60568 48.54589 40.07579
# Shear Modulus (GPa) = 26.64839 34.17947 30.41393
#
# Velocity S-wave (km/s) = 3.48047 3.94172 3.71825
# Velocity P-wave (km/s) = 5.52437 6.54094 6.05403
#
# Compressibility (1/GPa) = 0.03163988
#
# Stress axis : x y z
#
# Youngs Moduli (GPa) = 64.17947 42.66963 87.21679
#
# Poissons Ratio (x) = 0.26652 0.07585
# Poissons Ratio (y) = 0.40088 0.20109
# Poissons Ratio (z) = 0.05582 0.09838
#
# Static dielectric constant tensor:
#      x y z
#    x 1.901760 0.063320 -0.012550 
#    y 0.063320 1.814310 -0.026580 
#    z -0.012550 -0.026580 1.865150 
# 
# From -- ./inp_files/272215.got.cif
#   From: 2010.05.17/outbox.cif.g08.bks.cpg/sg2_137_cif.got.tgz:272215.got - 2010.06.03 11:33:40.
