data_PCOD9105591
_publ_section_title
;
Structure prediction by ZEFSAII (Michael W. Deem and Ramdas Pophale) SiO2 
 PCOD9105591
Probable space group: P -1
;
_chemical_formula_sum "Si O2"
_cell_formula_units_Z 14
_cell_length_a 13.077878
_cell_length_b 8.156284
_cell_length_c 8.815607
_cell_angle_alpha 89.043370
_cell_angle_beta 141.979414
_cell_angle_gamma 98.232177
_cell_volume 566.056928
_symmetry_space_group_name_H-M "P -1"
_symmetry_group_IT_number 2
_symmetry_cell_setting 'triclinic'
loop_
_space_group_symop_operation_xyz
x,y,z
-x,-y,-z
loop_
_atom_site_type_symbol
_atom_site_label
_atom_site_fract_x
_atom_site_fract_y
_atom_site_fract_z
Si Si1 0.833336 0.750322 0.551857
Si Si2 0.844019 0.285884 0.927229
Si Si3 0.104219 0.864296 0.314928
Si Si4 0.617873 0.497137 0.495176
Si Si5 0.040049 0.318650 0.582246
Si Si6 0.684278 0.141413 0.040542
Si Si7 0.537202 0.219169 0.161968
O O1 0.687005 0.676856 0.498673
O O2 0.803396 0.701848 0.340877
O O3 0.895593 0.947411 0.639854
O O4 0.984825 0.657173 0.777842
O O5 0.897046 0.162856 0.865582
O O6 0.772180 0.422259 0.747111
O O7 0.703882 0.200772 0.888389
O O8 0.960265 0.733843 0.241787
O O9 0.286264 0.829354 0.576556
O O10 0.500000 0.500000 0.500000
O O11 0.531595 0.377012 0.258917
O O12 0.876187 0.185439 0.328848
O O13 0.000000 0.500000 0.500000
O O14 0.572962 0.233534 0.022264
O O15 0.605269 0.945256 0.966525
#
# Coordination Sequence:
#
# PCOD9105591 Si02
#       7
#     2   2   2   2   2   2   2
#     4  11  22  39  62  89 126 160 213 259 305 369
#     4  10  22  39  62  87 125 162 210 258 320 354
#     4  10  21  36  65  94 121 163 209 256 310 371
#     4  11  25  40  62  92 126 168 210 257 312 370
#     4  10  20  39  65  91 123 164 207 254 312 371
#     4   9  19  36  66  86 119 165 204 250 313 369
#     4   9  20  40  61  86 129 163 206 249 318 369
#
# _framework density 24.732496000000001
#
# number of rings (size 3 to 8) (size 9 to 14) (size 15 to 20)
#    0.000    2.000    0.000    3.857    4.000    2.286 
#    0.000    0.714   18.857    0.000    0.000    0.000 
#    0.000    0.000    0.000    0.000    0.000    0.000 
#
# Total GULP energy -78276.660466 kJ/mol
# GULP energy per Si atom -5591.190033 kJ/mol
# Density = 2.467620 g / cm^3
# Si number density = 24.732496 Si / 1000 Ang^3
#
#
#
# Elastic Constant Matrix: (Units=GPa)
#
#
# Indices 1 2 3 4 5 6 
#
# 1 210.4896 73.4904 9.9969 2.8589 -44.8654 29.4700
# 2 73.4904 97.1093 12.2619 -7.7822 -21.9936 10.3717
# 3 9.9969 12.2619 59.8033 -10.1847 -18.4533 6.1288
# 4 2.8589 -7.7822 -10.1847 25.1035 -1.0709 -2.0092
# 5 -44.8654 -21.9936 -18.4533 -1.0709 43.1404 0.1811
# 6 29.4700 10.3717 6.1288 -2.0092 0.1811 48.7144
#
#
#
# Elastic Compliance Matrix: (Units=1/GPa)
#
#
# Indices 1 2 3 4 5 6 
#
# 1 0.008490 -0.004684 0.001953 -0.001676 0.007254 -0.004480
# 2 -0.004684 0.014917 -0.000614 0.005014 0.002595 -0.000068
# 3 0.001953 -0.000614 0.021833 0.008648 0.011287 -0.003483
# 4 -0.001676 0.005014 0.008648 0.045386 0.005636 0.000709
# 5 0.007254 0.002595 0.011287 0.005636 0.037041 -0.006266
# 6 -0.004480 -0.000068 -0.003483 0.000709 -0.006266 0.023743
#
#
# Mechanical properties :
#
#
# Convention : Reuss Voigt Hill
#
# Bulk Modulus (GPa) = 25.93991 62.10006 44.01998
# Shear Modulus (GPa) = 29.24815 41.50186 35.37501
#
# Velocity S-wave (km/s) = 3.44260 4.10082 3.78604
# Velocity P-wave (km/s) = 5.12961 6.89822 6.07859
#
# Compressibility (1/GPa) = 0.03855063
#
# Stress axis : x y z
#
# Youngs Moduli (GPa) = 117.78921 67.03697 45.80147
#
# Poissons Ratio (x) = 0.31403 -0.08947
# Poissons Ratio (y) = 0.55177 0.02811
# Poissons Ratio (z) = -0.23008 0.04114
#
# Static dielectric constant tensor:
#      x y z
#    x 2.057560 0.001370 -0.028850 
#    y 0.001370 1.924590 -0.020610 
#    z -0.028850 -0.020610 2.041980 
# 
# From -- ./inp_files/244244.got.cif
#   From: 2010.05.17/outbox.cif.g08.bks.cpg/sg2_123_cif.got.tgz:244244.got - 2010.06.03 11:33:40.
