data_PCOD9105356
_publ_section_title
;
Structure prediction by ZEFSAII (Michael W. Deem and Ramdas Pophale) SiO2 
 PCOD9105356
Probable space group: P -1
;
_chemical_formula_sum "Si O2"
_cell_formula_units_Z 14
_cell_length_a 21.513158
_cell_length_b 13.012472
_cell_length_c 10.524518
_cell_angle_alpha 138.269601
_cell_angle_beta 25.462403
_cell_angle_gamma 146.942147
_cell_volume 690.249639
_symmetry_space_group_name_H-M "P -1"
_symmetry_group_IT_number 2
_symmetry_cell_setting 'triclinic'
loop_
_space_group_symop_operation_xyz
x,y,z
-x,-y,-z
loop_
_atom_site_type_symbol
_atom_site_label
_atom_site_fract_x
_atom_site_fract_y
_atom_site_fract_z
Si Si1 0.792025 0.504962 0.717498
Si Si2 0.364300 0.555347 0.646384
Si Si3 0.919101 0.020378 0.795540
Si Si4 0.393174 0.350346 0.952730
Si Si5 0.046416 0.917671 0.717751
Si Si6 0.004659 0.424671 0.062609
Si Si7 0.567446 0.753856 0.698104
O O1 0.875018 0.420483 0.402416
O O2 0.932842 0.686342 0.714942
O O3 0.746386 0.607840 0.794351
O O4 0.604247 0.344992 0.982460
O O5 0.485758 0.612601 0.353586
O O6 0.474469 0.710200 0.693270
O O7 0.348393 0.368065 0.553945
O O8 0.190330 0.531454 0.894395
O O9 0.961331 0.222389 0.924833
O O10 0.000000 0.000000 0.500000
O O11 0.988249 0.975377 0.752153
O O12 0.711420 0.865543 0.017221
O O13 0.500000 0.500000 0.000000
O O14 0.259946 0.030878 0.415900
O O15 0.000000 0.000000 0.000000
O O16 0.000000 0.500000 0.000000
#
# Coordination Sequence:
#
# PCOD9105356 Si02
#       7
#     2   2   2   2   2   2   2
#     4  10  24  39  63  97 135 165 214 283 333 380
#     4  10  20  39  64  91 126 169 219 265 321 392
#     4  11  23  40  68  96 125 178 223 267 335 403
#     4  10  20  39  64  92 122 169 226 269 312 397
#     4  11  21  42  70  98 129 174 231 274 321 404
#     4  12  24  44  62  97 139 172 211 277 342 394
#     4  10  20  40  67  95 122 173 226 264 320 396
#
# _framework density 20.282515
#
# number of rings (size 3 to 8) (size 9 to 14) (size 15 to 20)
#    0.000    1.429    1.429    6.857    2.000    0.571 
#    2.571    2.143    0.000    0.000    0.000    0.000 
#    0.000    0.000    0.000    0.000    0.000    0.000 
#
# Total GULP energy -78024.137081 kJ/mol
# GULP energy per Si atom -5573.152649 kJ/mol
# Density = 2.023635 g / cm^3
# Si number density = 20.282515 Si / 1000 Ang^3
#
#
#
# Elastic Constant Matrix: (Units=GPa)
#
#
# Indices 1 2 3 4 5 6 
#
# 1 124.5104 40.1617 53.9605 -8.0116 10.4819 22.8729
# 2 40.1617 151.2034 -50.9807 45.4563 -17.8878 -17.5037
# 3 53.9605 -50.9807 262.9202 -93.0059 46.6304 83.6446
# 4 -8.0116 45.4563 -93.0059 97.4749 -15.2308 -51.0183
# 5 10.4819 -17.8878 46.6304 -15.2308 47.8104 16.7792
# 6 22.8729 -17.5037 83.6446 -51.0183 16.7792 62.8979
#
#
#
# Elastic Compliance Matrix: (Units=1/GPa)
#
#
# Indices 1 2 3 4 5 6 
#
# 1 0.010700 -0.003713 -0.002360 -0.001027 -0.000928 -0.002371
# 2 -0.003713 0.009287 0.001256 -0.003846 0.002359 -0.001485
# 3 -0.002360 0.001256 0.008385 0.003390 -0.003957 -0.006137
# 4 -0.001027 -0.003846 0.003390 0.021622 -0.002163 0.012910
# 5 -0.000928 0.002359 -0.003957 -0.002163 0.026029 -0.002443
# 6 -0.002371 -0.001485 -0.006137 0.012910 -0.002443 0.035633
#
#
# Mechanical properties :
#
#
# Convention : Reuss Voigt Hill
#
# Bulk Modulus (GPa) = 53.37099 69.43521 61.40310
# Shear Modulus (GPa) = 39.20459 74.66949 56.93704
#
# Velocity S-wave (km/s) = 4.40127 6.07409 5.30405
# Velocity P-wave (km/s) = 7.22490 9.13790 8.23712
#
# Compressibility (1/GPa) = 0.01873677
#
# Stress axis : x y z
#
# Youngs Moduli (GPa) = 93.45989 107.67836 119.26097
#
# Poissons Ratio (x) = 0.39985 0.28151
# Poissons Ratio (y) = 0.34705 -0.14984
# Poissons Ratio (z) = 0.22061 -0.13529
#
# Static dielectric constant tensor:
#      x y z
#    x 1.735220 0.007300 -0.033150 
#    y 0.007300 1.750040 0.024510 
#    z -0.033150 0.024510 1.705470 
# 
# From -- ./inp_files/160125.got.cif
#   From: 2010.05.17/outbox.cif.g08.bks.cpg/sg2_81_cif.got.tgz:160125.got - 2010.06.03 11:33:40.
