data_PCOD9105201
_publ_section_title
;
Structure prediction by ZEFSAII (Michael W. Deem and Ramdas Pophale) SiO2 
 PCOD9105201
Probable space group: P -1
;
_chemical_formula_sum "Si O2"
_cell_formula_units_Z 16
_cell_length_a 8.971699
_cell_length_b 12.732712
_cell_length_c 11.495591
_cell_angle_alpha 101.329126
_cell_angle_beta 101.871487
_cell_angle_gamma 34.385616
_cell_volume 724.927512
_symmetry_space_group_name_H-M "P -1"
_symmetry_group_IT_number 2
_symmetry_cell_setting 'triclinic'
loop_
_space_group_symop_operation_xyz
x,y,z
-x,-y,-z
loop_
_atom_site_type_symbol
_atom_site_label
_atom_site_fract_x
_atom_site_fract_y
_atom_site_fract_z
Si Si1 0.238907 0.082466 0.500799
Si Si2 0.060621 0.546500 0.415227
Si Si3 0.730774 0.338492 0.834825
Si Si4 0.602377 0.146953 0.308481
Si Si5 0.765829 0.247869 0.080150
Si Si6 0.897125 0.015681 0.724485
Si Si7 0.921385 0.661600 0.167812
Si Si8 0.414010 0.242981 0.054164
O O1 0.221279 0.002780 0.383020
O O2 0.988409 0.306184 0.511692
O O3 0.500000 0.000000 0.500000
O O4 0.280387 0.001618 0.612555
O O5 0.346443 0.350628 0.367994
O O6 0.000000 0.500000 0.500000
O O7 0.876424 0.650969 0.291616
O O8 0.439340 0.557283 0.842019
O O9 0.935237 0.305359 0.805809
O O10 0.737073 0.218340 0.752202
O O11 0.816022 0.270069 0.967767
O O12 0.537091 0.129494 0.169955
O O13 0.818309 0.112401 0.308074
O O14 0.607015 0.226952 0.037848
O O15 0.027981 0.076344 0.158590
O O16 0.150764 0.453591 0.105743
O O17 0.674504 0.785329 0.068689
#
# Coordination Sequence:
#
# PCOD9105201 Si02
#       8
#     2   2   2   2   2   2   2   2
#     4  12  26  43  62  95 125 170 223 269 324 388
#     4  11  23  44  66  90 133 170 217 277 319 383
#     4  10  20  39  63  95 131 168 209 268 320 383
#     4  10  22  43  67  92 132 171 214 270 324 388
#     4   9  20  39  61  94 132 169 212 260 322 386
#     4  11  24  41  64  92 132 171 217 266 321 394
#     4   9  18  35  65  94 121 166 211 256 321 376
#     4   8  17  36  62  94 126 160 208 262 313 380
#
# _framework density 22.071171
#
# number of rings (size 3 to 8) (size 9 to 14) (size 15 to 20)
#    0.000    2.000    1.250    2.250    0.000    3.500 
#    6.750    5.625    0.000    0.000    0.000    0.000 
#    0.000    0.000    0.000    0.000    0.000    0.000 
#
# Total GULP energy -89420.273035 kJ/mol
# GULP energy per Si atom -5588.767065 kJ/mol
# Density = 2.202094 g / cm^3
# Si number density = 22.071171 Si / 1000 Ang^3
#
#
#
# Elastic Constant Matrix: (Units=GPa)
#
#
# Indices 1 2 3 4 5 6 
#
# 1 64.2303 30.2065 75.6782 -1.1627 15.3974 13.2353
# 2 30.2065 117.5029 40.7885 22.3129 5.8112 25.1591
# 3 75.6782 40.7885 117.8783 4.1227 4.8361 12.2585
# 4 -1.1627 22.3129 4.1227 37.4512 6.2878 -4.5502
# 5 15.3974 5.8112 4.8361 6.2878 40.5244 6.5280
# 6 13.2353 25.1591 12.2585 -4.5502 6.5280 30.5353
#
#
#
# Elastic Compliance Matrix: (Units=1/GPa)
#
#
# Indices 1 2 3 4 5 6 
#
# 1 0.094564 -0.004866 -0.057872 0.016680 -0.030138 -0.004817
# 2 -0.004866 0.014257 -0.000350 -0.010611 0.003394 -0.011804
# 3 -0.057872 -0.000350 0.045139 -0.009287 0.017760 0.002071
# 4 0.016680 -0.010611 -0.009287 0.038179 -0.011799 0.013453
# 5 -0.030138 0.003394 0.017760 -0.011799 0.036383 -0.006399
# 6 -0.004817 -0.011804 0.002071 0.013453 -0.006399 0.047105
#
#
# Mechanical properties :
#
#
# Convention : Reuss Voigt Hill
#
# Bulk Modulus (GPa) = 35.99204 65.88419 50.93812
# Shear Modulus (GPa) = 12.16354 31.89806 22.03080
#
# Velocity S-wave (km/s) = 2.35011 3.80575 3.16281
# Velocity P-wave (km/s) = 4.86895 7.01621 6.03879
#
# Compressibility (1/GPa) = 0.02778392
#
# Stress axis : x y z
#
# Youngs Moduli (GPa) = 10.57490 70.13917 22.15358
#
# Poissons Ratio (x) = 0.34129 1.28208
# Poissons Ratio (y) = 0.05146 0.00775
# Poissons Ratio (z) = 0.61199 0.02455
#
# Static dielectric constant tensor:
#      x y z
#    x 1.615730 -0.133830 0.095420 
#    y -0.133830 1.749730 0.078960 
#    z 0.095420 0.078960 1.773050 
# 
# From -- ./inp_files/390209.got.cif
#   From: 2010.05.17/outbox.cif.g08.bks.cpg/sg2_196_cif.got.tgz:390209.got - 2010.06.03 11:33:40.
