data_PCOD9105146
_publ_section_title
;
Structure prediction by ZEFSAII (Michael W. Deem and Ramdas Pophale) SiO2 
 PCOD9105146
Probable space group: P -1
;
_chemical_formula_sum "Si O2"
_cell_formula_units_Z 12
_cell_length_a 8.328517
_cell_length_b 22.323797
_cell_length_c 16.865664
_cell_angle_alpha 163.538863
_cell_angle_beta 29.862709
_cell_angle_gamma 149.451799
_cell_volume 432.637153
_symmetry_space_group_name_H-M "P -1"
_symmetry_group_IT_number 2
_symmetry_cell_setting 'triclinic'
loop_
_space_group_symop_operation_xyz
x,y,z
-x,-y,-z
loop_
_atom_site_type_symbol
_atom_site_label
_atom_site_fract_x
_atom_site_fract_y
_atom_site_fract_z
Si Si1 0.137764 0.759627 0.862676
Si Si2 0.779749 0.144283 0.464811
Si Si3 0.830112 0.170581 0.721124
Si Si4 0.550273 0.122529 0.949306
Si Si5 0.945622 0.307893 0.429397
Si Si6 0.710297 0.632042 0.349910
O O1 0.432773 0.712683 0.621840
O O2 0.902472 0.526369 0.683430
O O3 0.280686 0.835592 0.984913
O O4 0.968331 0.943150 0.131454
O O5 0.395616 0.032041 0.484989
O O6 0.849536 0.282464 0.530219
O O7 0.945462 0.294011 0.654408
O O8 0.795483 0.133048 0.782864
O O9 0.183596 0.250266 0.629973
O O10 0.661050 0.376482 0.041833
O O11 0.264576 0.906569 0.792671
O O12 0.333333 0.303869 0.256312
#
# Coordination Sequence:
#
# PCOD9105146 Si02
#       6
#     2   2   2   2   2   2
#     4  12  23  39  71  99 124 163 224 271 311 375
#     4  11  24  41  67  98 127 168 218 267 316 382
#     4  10  23  42  64  92 134 175 208 257 335 385
#     4  10  20  39  63  93 126 171 212 261 316 381
#     4  10  21  39  63  95 130 165 211 267 320 372
#     4  11  22  39  65  96 129 171 213 262 322 391
#
# _framework density 27.736868000000001
#
# number of rings (size 3 to 8) (size 9 to 14) (size 15 to 20)
#    0.000    1.333    3.333    2.500    0.000    2.000 
#    0.000    0.833    0.000   23.000    0.000    0.000 
#    0.000    0.000    0.000    0.000    0.000    0.000 
#
# Total GULP energy -67380.072242 kJ/mol
# GULP energy per Si atom -5615.006020 kJ/mol
# Density = 2.767374 g / cm^3
# Si number density = 27.736868 Si / 1000 Ang^3
#
#
#
# Elastic Constant Matrix: (Units=GPa)
#
#
# Indices 1 2 3 4 5 6 
#
# 1 129.8853 45.6587 28.3994 -5.9590 1.6668 -23.9248
# 2 45.6587 153.9520 34.7076 2.1357 5.1118 -32.4620
# 3 28.3994 34.7076 85.5107 -3.1305 0.8609 -0.7690
# 4 -5.9590 2.1357 -3.1305 55.4770 0.7924 -1.5833
# 5 1.6668 5.1118 0.8609 0.7924 47.1440 -0.7802
# 6 -23.9248 -32.4620 -0.7690 -1.5833 -0.7802 57.5396
#
#
#
# Elastic Compliance Matrix: (Units=1/GPa)
#
#
# Indices 1 2 3 4 5 6 
#
# 1 0.009392 -0.001629 -0.002393 0.001023 -0.000080 0.002981
# 2 -0.001629 0.008520 -0.002893 -0.000540 -0.000737 0.004066
# 3 -0.002393 -0.002893 0.013661 0.000554 0.000099 -0.002428
# 4 0.001023 -0.000540 0.000554 0.018209 -0.000284 0.000625
# 5 -0.000080 -0.000737 0.000099 -0.000284 0.021295 -0.000167
# 6 0.002981 0.004066 -0.002428 0.000625 -0.000167 0.020895
#
#
# Mechanical properties :
#
#
# Convention : Reuss Voigt Hill
#
# Bulk Modulus (GPa) = 56.35953 65.20882 60.78418
# Shear Modulus (GPa) = 44.75611 49.40426 47.08018
#
# Velocity S-wave (km/s) = 4.02132 4.22498 4.12440
# Velocity P-wave (km/s) = 6.47494 6.88196 6.68155
#
# Compressibility (1/GPa) = 0.01774323
#
# Stress axis : x y z
#
# Youngs Moduli (GPa) = 106.47308 117.36897 73.20156
#
# Poissons Ratio (x) = 0.19118 0.17517
# Poissons Ratio (y) = 0.17343 0.21177
# Poissons Ratio (z) = 0.25480 0.33955
#
# Static dielectric constant tensor:
#      x y z
#    x 2.150480 0.005320 -0.059320 
#    y 0.005320 2.134410 0.016540 
#    z -0.059320 0.016540 2.188790 
# 
# From -- ./inp_files/563317.got.cif
#   From: 2010.05.17/outbox.cif.g08.bks.cpg/sg2_282_cif.got.tgz:563317.got - 2010.06.03 11:33:40.
