data_PCOD9105250
_publ_section_title
;
Structure prediction by ZEFSAII (Michael W. Deem and Ramdas Pophale) SiO2 
 PCOD9105250
Probable space group: P -1
;
_chemical_formula_sum "Si O2"
_cell_formula_units_Z 16
_cell_length_a 14.124215
_cell_length_b 7.672800
_cell_length_c 19.523563
_cell_angle_alpha 85.503209
_cell_angle_beta 22.345160
_cell_angle_gamma 99.127577
_cell_volume 635.527506
_symmetry_space_group_name_H-M "P -1"
_symmetry_group_IT_number 2
_symmetry_cell_setting 'triclinic'
loop_
_space_group_symop_operation_xyz
x,y,z
-x,-y,-z
loop_
_atom_site_type_symbol
_atom_site_label
_atom_site_fract_x
_atom_site_fract_y
_atom_site_fract_z
Si Si1 0.518028 0.160080 0.280287
Si Si2 0.621079 0.873483 0.481960
Si Si3 0.612021 0.715641 0.779661
Si Si4 0.274539 0.248875 0.965976
Si Si5 0.651680 0.298177 0.464879
Si Si6 0.148157 0.718384 0.470360
Si Si7 0.849752 0.743247 0.107042
Si Si8 0.278393 0.573048 0.126445
O O1 0.460988 0.222287 0.243718
O O2 0.393010 0.207773 0.429458
O O3 0.313162 0.895503 0.416143
O O4 0.881718 0.271507 0.046088
O O5 0.539941 0.044872 0.545359
O O6 0.377972 0.683623 0.597517
O O7 0.962670 0.024616 0.212176
O O8 0.387981 0.448657 0.933779
O O9 0.953229 0.774818 0.555355
O O10 0.529411 0.782003 0.903441
O O11 0.567507 0.245879 0.760803
O O12 0.224912 0.311731 0.921677
O O13 0.437238 0.344111 0.647221
O O14 0.983263 0.450588 0.275323
O O15 0.906685 0.479973 0.676001
O O16 0.000000 0.000000 0.000000
O O17 0.500000 0.500000 0.000000
#
# Coordination Sequence:
#
# PCOD9105250 Si02
#       8
#     2   2   2   2   2   2   2   2
#     4  12  23  41  60  94 125 161 199 253 311 357
#     4  11  20  33  65  86 122 159 205 245 292 371
#     4  11  26  39  60  94 129 155 197 262 314 344
#     4  12  21  39  65  93 117 157 214 251 295 357
#     4  11  18  36  60  92 111 154 216 243 284 358
#     4  11  21  43  68  85 118 168 212 240 292 381
#     4  12  19  36  65  89 119 159 209 251 290 369
#     4  10  20  39  64  86 115 161 206 246 293 366
#
# _framework density 25.175939
#
# number of rings (size 3 to 8) (size 9 to 14) (size 15 to 20)
#    0.000    0.750    7.500    1.500    0.000    0.500 
#    0.000    3.750    0.000    0.000    0.000    0.000 
#    0.000    0.000    0.000    0.000    0.000    0.000 
#
# Total GULP energy -89292.038097 kJ/mol
# GULP energy per Si atom -5580.752381 kJ/mol
# Density = 2.511864 g / cm^3
# Si number density = 25.175939 Si / 1000 Ang^3
#
#
#
# Elastic Constant Matrix: (Units=GPa)
#
#
# Indices 1 2 3 4 5 6 
#
# 1 175.3021 19.4462 86.6929 20.0924 6.2996 -12.5893
# 2 19.4462 30.0945 18.6685 7.1220 4.7205 0.1845
# 3 86.6929 18.6685 177.5222 37.3359 3.9254 -29.0011
# 4 20.0924 7.1220 37.3359 24.2196 3.1024 -1.7268
# 5 6.2996 4.7205 3.9254 3.1024 49.1590 -0.4638
# 6 -12.5893 0.1845 -29.0011 -1.7268 -0.4638 35.2599
#
#
#
# Elastic Compliance Matrix: (Units=1/GPa)
#
#
# Indices 1 2 3 4 5 6 
#
# 1 0.007753 -0.002741 -0.003443 -0.000266 -0.000439 -0.000068
# 2 -0.002741 0.038003 -0.001846 -0.005911 -0.002806 -0.003023
# 3 -0.003443 -0.001846 0.011763 -0.014264 0.000653 0.007765
# 4 -0.000266 -0.005911 -0.014264 0.064931 -0.002439 -0.008648
# 5 -0.000439 -0.002806 0.000653 -0.002439 0.020775 0.000549
# 6 -0.000068 -0.003023 0.007765 -0.008648 0.000549 0.034323
#
#
# Mechanical properties :
#
#
# Convention : Reuss Voigt Hill
#
# Bulk Modulus (GPa) = 24.12166 70.28154 47.20160
# Shear Modulus (GPa) = 24.10475 38.93511 31.51993
#
# Velocity S-wave (km/s) = 3.09763 3.93685 3.54218
# Velocity P-wave (km/s) = 4.73242 6.97437 5.95976
#
# Compressibility (1/GPa) = 0.04145652
#
# Stress axis : x y z
#
# Youngs Moduli (GPa) = 128.98728 26.31382 85.01410
#
# Poissons Ratio (x) = 0.07213 0.29273
# Poissons Ratio (y) = 0.35360 0.15696
# Poissons Ratio (z) = 0.44414 0.04858
#
# Static dielectric constant tensor:
#      x y z
#    x 2.089410 0.010630 0.083300 
#    y 0.010630 2.121190 -0.068690 
#    z 0.083300 -0.068690 2.077280 
# 
# From -- ./inp_files/597371.got.cif
#   From: 2010.05.17/outbox.cif.g08.bks.cpg/sg2_299_cif.got.tgz:597371.got - 2010.06.03 11:33:40.
