data_PCOD9105594
_publ_section_title
;
Structure prediction by ZEFSAII (Michael W. Deem and Ramdas Pophale) SiO2 
 PCOD9105594
Probable space group: P -1
;
_chemical_formula_sum "Si O2"
_cell_formula_units_Z 16
_cell_length_a 8.718828
_cell_length_b 16.238034
_cell_length_c 7.822371
_cell_angle_alpha 67.307932
_cell_angle_beta 114.209515
_cell_angle_gamma 144.629287
_cell_volume 581.914174
_symmetry_space_group_name_H-M "P -1"
_symmetry_group_IT_number 2
_symmetry_cell_setting 'triclinic'
loop_
_space_group_symop_operation_xyz
x,y,z
-x,-y,-z
loop_
_atom_site_type_symbol
_atom_site_label
_atom_site_fract_x
_atom_site_fract_y
_atom_site_fract_z
Si Si1 0.566974 0.423785 0.592195
Si Si2 0.124222 0.591475 0.808971
Si Si3 0.006270 0.369179 0.788481
Si Si4 0.588662 0.817256 0.433889
Si Si5 0.209859 0.274561 0.837837
Si Si6 0.885370 0.021097 0.075816
Si Si7 0.763778 0.054390 0.519874
Si Si8 0.309849 0.835478 0.866606
O O1 0.500000 0.500000 0.500000
O O2 0.882905 0.539020 0.637716
O O3 0.421292 0.293890 0.502327
O O4 0.478466 0.357429 0.798127
O O5 0.188346 0.530650 0.779605
O O6 0.322022 0.752664 0.817299
O O7 0.000000 0.500000 0.000000
O O8 0.724466 0.281871 0.642084
O O9 0.183637 0.368056 0.782740
O O10 0.882706 0.274609 0.980356
O O11 0.761154 0.920791 0.263620
O O12 0.708845 0.928430 0.550035
O O13 0.985784 0.160752 0.680105
O O14 0.133691 0.192501 0.042350
O O15 0.623008 0.974746 0.947340
O O16 0.000000 0.000000 0.000000
O O17 0.817455 0.131525 0.308357
O O18 0.500000 0.000000 0.500000
#
# Coordination Sequence:
#
# PCOD9105594 Si02
#       8
#     2   2   2   2   2   2   2   2
#     4  11  24  44  63  92 136 174 207 267 336 383
#     4   9  20  41  68  86 118 176 222 255 310 385
#     4   9  19  38  65  94 119 173 221 260 315 381
#     4  10  21  41  66  91 132 173 213 258 328 390
#     4  12  23  39  64  98 131 161 217 271 323 385
#     4  11  21  38  65  97 125 166 208 269 329 383
#     4  12  22  37  60  98 130 162 213 263 319 390
#     4  10  20  39  65  91 128 164 214 269 317 380
#
# _framework density 27.495463000000001
#
# number of rings (size 3 to 8) (size 9 to 14) (size 15 to 20)
#    0.000    1.500    3.750    2.250    0.000    2.500 
#    2.250    4.375    2.750    0.000    0.000    0.000 
#    0.000    0.000    0.000    0.000    0.000    0.000 
#
# Total GULP energy -89558.626946 kJ/mol
# GULP energy per Si atom -5597.414184 kJ/mol
# Density = 2.743288 g / cm^3
# Si number density = 27.495463 Si / 1000 Ang^3
#
#
#
# Elastic Constant Matrix: (Units=GPa)
#
#
# Indices 1 2 3 4 5 6 
#
# 1 156.6762 45.1228 23.5816 -4.6122 -16.9057 -23.9074
# 2 45.1228 99.7200 23.7936 -5.6407 -1.4212 -41.0705
# 3 23.5816 23.7936 75.6591 -15.0960 -4.8572 5.7514
# 4 -4.6122 -5.6407 -15.0960 36.7107 5.1637 -3.0888
# 5 -16.9057 -1.4212 -4.8572 5.1637 49.0406 -10.7895
# 6 -23.9074 -41.0705 5.7514 -3.0888 -10.7895 72.9902
#
#
#
# Elastic Compliance Matrix: (Units=1/GPa)
#
#
# Indices 1 2 3 4 5 6 
#
# 1 0.007914 -0.002411 -0.001726 -0.000346 0.002917 0.001788
# 2 -0.002411 0.015875 -0.004677 0.000804 0.000993 0.008692
# 3 -0.001726 -0.004677 0.016640 0.005629 -0.000635 -0.004364
# 4 -0.000346 0.000804 0.005629 0.030058 -0.002529 0.000794
# 5 0.002917 0.000993 -0.000635 -0.002529 0.022688 0.004811
# 6 0.001788 0.008692 -0.004364 0.000794 0.004811 0.020266
#
#
# Mechanical properties :
#
#
# Convention : Reuss Voigt Hill
#
# Bulk Modulus (GPa) = 43.85870 57.45016 50.65443
# Shear Modulus (GPa) = 36.05705 47.71878 41.88792
#
# Velocity S-wave (km/s) = 3.62523 4.17047 3.90737
# Velocity P-wave (km/s) = 5.78869 6.64306 6.23054
#
# Compressibility (1/GPa) = 0.02280049
#
# Stress axis : x y z
#
# Youngs Moduli (GPa) = 126.35551 62.99370 60.09475
#
# Poissons Ratio (x) = 0.15186 0.10374
# Poissons Ratio (y) = 0.30460 0.28109
# Poissons Ratio (z) = 0.21812 0.29465
#
# Static dielectric constant tensor:
#      x y z
#    x 2.107860 -0.027340 -0.063980 
#    y -0.027340 2.122130 -0.012040 
#    z -0.063980 -0.012040 2.330110 
# 
# From -- ./inp_files/206498.got.cif
#   From: 2010.05.17/outbox.cif.g08.bks.cpg/sg2_104_cif.got.tgz:206498.got - 2010.06.03 11:33:40.
