data_PCOD9105095
_publ_section_title
;
Structure prediction by ZEFSAII (Michael W. Deem and Ramdas Pophale) SiO2 
 PCOD9105095
Probable space group: P -1
;
_chemical_formula_sum "Si O2"
_cell_formula_units_Z 15
_cell_length_a 19.948135
_cell_length_b 6.773405
_cell_length_c 8.573063
_cell_angle_alpha 127.047920
_cell_angle_beta 53.384599
_cell_angle_gamma 132.531490
_cell_volume 645.090406
_symmetry_space_group_name_H-M "P -1"
_symmetry_group_IT_number 2
_symmetry_cell_setting 'triclinic'
loop_
_space_group_symop_operation_xyz
x,y,z
-x,-y,-z
loop_
_atom_site_type_symbol
_atom_site_label
_atom_site_fract_x
_atom_site_fract_y
_atom_site_fract_z
Si Si1 0.123911 0.958216 0.983729
Si Si2 0.000000 0.000000 0.000000
Si Si3 0.106793 0.078211 0.580659
Si Si4 0.434315 0.923729 0.401692
Si Si5 0.675474 0.657410 0.566322
Si Si6 0.503016 0.701529 0.949153
Si Si7 0.341255 0.315882 0.749718
Si Si8 0.004873 0.378962 0.713679
O O1 0.051534 0.719258 0.838118
O O2 0.083160 0.167807 0.107217
O O3 0.235006 0.106779 0.866160
O O4 0.081665 0.784558 0.117887
O O5 0.083461 0.141794 0.814013
O O6 0.039891 0.766321 0.454687
O O7 0.213795 0.129874 0.456107
O O8 0.085383 0.291414 0.605262
O O9 0.352663 0.603676 0.401069
O O10 0.500000 0.000000 0.500000
O O11 0.390146 0.126602 0.553685
O O12 0.491141 0.937004 0.172771
O O13 0.601695 0.772170 0.760469
O O14 0.664499 0.564160 0.355006
O O15 0.410639 0.531748 0.886496
O O16 0.500000 0.500000 0.000000
#
# Coordination Sequence:
#
# PCOD9105095 Si02
#       8
#     2   1   2   2   2   2   2   2
#     4  10  21  39  62  92 122 168 207 260 320 376
#     4  10  20  40  56  88 132 154 204 260 316 364
#     4  10  20  39  63  91 124 168 203 266 316 376
#     4  11  24  43  67  92 131 172 214 269 322 384
#     4  11  23  42  65  98 129 172 218 268 325 387
#     4  10  23  42  66  95 129 169 216 267 324 384
#     4  12  23  44  67  96 134 172 214 273 321 390
#     4   9  21  38  64  89 125 164 217 257 312 391
#
# _framework density 23.252555000000001
#
# number of rings (size 3 to 8) (size 9 to 14) (size 15 to 20)
#    0.000    1.600    4.000    1.200    3.733    1.067 
#    2.400    0.000    0.000    0.000    0.000    0.000 
#    0.000    0.000    0.000    0.000    0.000    0.000 
#
# Total GULP energy -83592.349784 kJ/mol
# GULP energy per Si atom -5572.823319 kJ/mol
# Density = 2.319963 g / cm^3
# Si number density = 23.252555 Si / 1000 Ang^3
#
#
#
# Elastic Constant Matrix: (Units=GPa)
#
#
# Indices 1 2 3 4 5 6 
#
# 1 82.2592 55.8333 37.7358 -9.4867 8.7829 22.8653
# 2 55.8333 84.3251 62.4699 -10.8922 6.3359 26.3019
# 3 37.7358 62.4699 130.2522 -3.9498 7.8103 37.0073
# 4 -9.4867 -10.8922 -3.9498 32.4422 3.6589 -8.6358
# 5 8.7829 6.3359 7.8103 3.6589 34.6803 -7.1014
# 6 22.8653 26.3019 37.0073 -8.6358 -7.1014 44.8131
#
#
#
# Elastic Compliance Matrix: (Units=1/GPa)
#
#
# Indices 1 2 3 4 5 6 
#
# 1 0.023521 -0.014995 0.002334 0.001179 -0.005034 -0.005698
# 2 -0.014995 0.029692 -0.009405 0.004130 -0.000199 -0.001244
# 3 0.002334 -0.009405 0.013989 -0.002584 -0.003443 -0.008267
# 4 0.001179 0.004130 -0.002584 0.033957 -0.002993 0.005178
# 5 -0.005034 -0.000199 -0.003443 -0.002993 0.033333 0.010235
# 6 -0.005698 -0.001244 -0.008267 0.005178 0.010235 0.035399
#
#
# Mechanical properties :
#
#
# Convention : Reuss Voigt Hill
#
# Bulk Modulus (GPa) = 43.34815 67.65717 55.50266
# Shear Modulus (GPa) = 22.55167 31.77363 27.16265
#
# Velocity S-wave (km/s) = 3.11763 3.70057 3.42154
# Velocity P-wave (km/s) = 5.62515 6.88613 6.28733
#
# Compressibility (1/GPa) = 0.02306904
#
# Stress axis : x y z
#
# Youngs Moduli (GPa) = 42.51466 33.67954 71.48545
#
# Poissons Ratio (x) = 0.50503 -0.16684
# Poissons Ratio (y) = 0.63751 0.67234
# Poissons Ratio (z) = -0.09923 0.31677
#
# Static dielectric constant tensor:
#      x y z
#    x 1.810090 0.197770 0.158580 
#    y 0.197770 1.802740 -0.136410 
#    z 0.158580 -0.136410 1.798880 
# 
# From -- ./inp_files/342217.got.cif
#   From: 2010.05.17/outbox.cif.g08.bks.cpg/sg2_172_cif.got.tgz:342217.got - 2010.06.03 11:33:40.
