data_PCOD9105150
_publ_section_title
;
Structure prediction by ZEFSAII (Michael W. Deem and Ramdas Pophale) SiO2 
 PCOD9105150
Probable space group: P -1
;
_chemical_formula_sum "Si O2"
_cell_formula_units_Z 16
_cell_length_a 20.936595
_cell_length_b 9.594010
_cell_length_c 15.610730
_cell_angle_alpha 144.009849
_cell_angle_beta 152.665503
_cell_angle_gamma 34.790258
_cell_volume 782.734169
_symmetry_space_group_name_H-M "P -1"
_symmetry_group_IT_number 2
_symmetry_cell_setting 'triclinic'
loop_
_space_group_symop_operation_xyz
x,y,z
-x,-y,-z
loop_
_atom_site_type_symbol
_atom_site_label
_atom_site_fract_x
_atom_site_fract_y
_atom_site_fract_z
Si Si1 0.889588 0.365559 0.963486
Si Si2 0.559817 0.280313 0.788524
Si Si3 0.138629 0.082872 0.730918
Si Si4 0.188493 0.971633 0.161587
Si Si5 0.699018 0.798330 0.451382
Si Si6 0.644316 0.295945 0.524173
Si Si7 0.395484 0.835183 0.785046
Si Si8 0.681236 0.334314 0.124928
O O1 0.779530 0.378269 0.759000
O O2 0.825727 0.264982 0.921105
O O3 0.902840 0.631320 0.138803
O O4 0.046990 0.131948 0.015374
O O5 0.468515 0.571888 0.795451
O O6 0.651035 0.118938 0.737497
O O7 0.446036 0.183899 0.656053
O O8 0.691836 0.261233 0.002828
O O9 0.240055 0.017273 0.733652
O O10 0.248510 0.900000 0.843780
O O11 0.000000 0.000000 0.500000
O O12 0.181954 0.175942 0.328445
O O13 0.663285 0.027054 0.456366
O O14 0.755255 0.533037 0.337137
O O15 0.500000 0.500000 0.500000
O O16 0.624830 0.257738 0.381104
O O17 0.500000 0.000000 0.000000
O O18 0.500000 0.500000 0.000000
#
# Coordination Sequence:
#
# PCOD9105150 Si02
#       8
#     2   2   2   2   2   2   2   2
#     4  10  24  42  64  91 140 176 215 278 345 399
#     4  11  22  38  67  96 126 174 228 271 327 404
#     4  12  25  45  68 101 139 180 226 285 341 399
#     4  10  21  42  63  93 129 179 218 269 339 410
#     4  10  20  39  63  93 127 169 213 274 331 393
#     4  11  24  40  66  98 136 172 220 281 341 394
#     4  12  24  42  71 102 134 177 233 278 338 408
#     4  10  21  39  63  92 130 171 219 274 333 384
#
# _framework density 20.441167
#
# number of rings (size 3 to 8) (size 9 to 14) (size 15 to 20)
#    0.000    1.250    2.500    4.875    5.250    1.000 
#    0.000    1.250    0.000    7.500    0.000    0.000 
#    0.000    0.000    0.000    0.000    0.000    0.000 
#
# Total GULP energy -89233.641702 kJ/mol
# GULP energy per Si atom -5577.102606 kJ/mol
# Density = 2.039464 g / cm^3
# Si number density = 20.441167 Si / 1000 Ang^3
#
#
#
# Elastic Constant Matrix: (Units=GPa)
#
#
# Indices 1 2 3 4 5 6 
#
# 1 69.8486 17.1407 36.2267 3.4598 -5.4069 0.3373
# 2 17.1407 67.0107 33.4470 1.6330 -16.0524 7.5120
# 3 36.2267 33.4470 131.5532 13.1754 -11.3126 8.1402
# 4 3.4598 1.6330 13.1754 36.1769 -5.1341 -1.6481
# 5 -5.4069 -16.0524 -11.3126 -5.1341 32.7603 -3.9442
# 6 0.3373 7.5120 8.1402 -1.6481 -3.9442 21.4889
#
#
#
# Elastic Compliance Matrix: (Units=1/GPa)
#
#
# Indices 1 2 3 4 5 6 
#
# 1 0.017114 -0.002416 -0.004215 0.000180 0.000487 0.002276
# 2 -0.002416 0.019572 -0.003560 0.001563 0.007736 -0.003916
# 3 -0.004215 -0.003560 0.010182 -0.003236 0.000238 -0.002751
# 4 0.000180 0.001563 -0.003236 0.029584 0.004775 0.003822
# 5 0.000487 0.007736 0.000238 0.004775 0.035722 0.004121
# 6 0.002276 -0.003916 -0.002751 0.003822 0.004121 0.049960
#
#
# Mechanical properties :
#
#
# Convention : Reuss Voigt Hill
#
# Bulk Modulus (GPa) = 37.75775 49.11571 43.43673
# Shear Modulus (GPa) = 26.13073 30.19177 28.16125
#
# Velocity S-wave (km/s) = 3.57926 3.84736 3.71573
# Velocity P-wave (km/s) = 5.96599 6.61938 6.30116
#
# Compressibility (1/GPa) = 0.02648463
#
# Stress axis : x y z
#
# Youngs Moduli (GPa) = 58.43257 51.09412 98.21126
#
# Poissons Ratio (x) = 0.12346 0.41400
# Poissons Ratio (y) = 0.14119 0.34961
# Poissons Ratio (z) = 0.24632 0.18188
#
# Static dielectric constant tensor:
#      x y z
#    x 1.733540 -0.010300 -0.009700 
#    y -0.010300 1.863300 -0.145160 
#    z -0.009700 -0.145160 1.858270 
# 
# From -- ./inp_files/540333.got.cif
#   From: 2010.05.17/outbox.cif.g08.bks.cpg/sg2_271_cif.got.tgz:540333.got - 2010.06.03 11:33:40.
