data_PCOD9105601
_publ_section_title
;
Structure prediction by ZEFSAII (Michael W. Deem and Ramdas Pophale) SiO2 
 PCOD9105601
Probable space group: P -1
;
_chemical_formula_sum "Si O2"
_cell_formula_units_Z 16
_cell_length_a 12.692513
_cell_length_b 22.477941
_cell_length_c 12.853817
_cell_angle_alpha 152.377671
_cell_angle_beta 146.493349
_cell_angle_gamma 26.169663
_cell_volume 736.373932
_symmetry_space_group_name_H-M "P -1"
_symmetry_group_IT_number 2
_symmetry_cell_setting 'triclinic'
loop_
_space_group_symop_operation_xyz
x,y,z
-x,-y,-z
loop_
_atom_site_type_symbol
_atom_site_label
_atom_site_fract_x
_atom_site_fract_y
_atom_site_fract_z
Si Si1 0.348815 0.022824 0.012331
Si Si2 0.932329 0.504594 0.205618
Si Si3 0.295171 0.193271 0.638155
Si Si4 0.139183 0.816980 0.787699
Si Si5 0.771807 0.799245 0.176053
Si Si6 0.205107 0.800701 0.579675
Si Si7 0.098397 0.598404 0.766192
Si Si8 0.350118 0.531265 0.667113
O O1 0.126870 0.211382 0.139246
O O2 0.536128 0.938115 0.131608
O O3 0.500000 0.000000 0.000000
O O4 0.238880 0.927712 0.759083
O O5 0.717704 0.681916 0.257075
O O6 0.847603 0.445497 0.135978
O O7 0.142975 0.513874 0.434541
O O8 0.065824 0.365504 0.012444
O O9 0.293700 0.237530 0.824937
O O10 0.053922 0.213572 0.445270
O O11 0.500000 0.000000 0.500000
O O12 0.259012 0.789360 0.730559
O O13 0.300299 0.685996 0.807413
O O14 0.000000 0.000000 0.000000
O O15 0.938876 0.852821 0.423138
O O16 0.397622 0.629061 0.415321
O O17 0.310496 0.552379 0.791091
O O18 0.000000 0.500000 0.500000
#
# Coordination Sequence:
#
# PCOD9105601 Si02
#       8
#     2   2   2   2   2   2   2   2
#     4  12  23  44  72  94 131 177 216 268 333 389
#     4  10  20  42  62  93 130 172 221 262 328 392
#     4  10  24  38  63  97 132 171 218 273 328 385
#     4  10  22  38  62  95 132 172 221 273 327 386
#     4  11  24  42  67 100 129 172 218 272 329 386
#     4  11  24  42  64 100 132 170 224 268 327 391
#     4  10  21  38  68  96 123 175 224 260 327 395
#     4  10  20  39  65  91 133 177 217 268 327 391
#
# _framework density 21.728089000000001
#
# number of rings (size 3 to 8) (size 9 to 14) (size 15 to 20)
#    0.000    1.500    2.500    2.250    7.000    1.500 
#    0.000    0.625    0.000    0.000    0.000    0.000 
#    0.000    0.000    0.000    0.000    0.000    0.000 
#
# Total GULP energy -89429.390496 kJ/mol
# GULP energy per Si atom -5589.336906 kJ/mol
# Density = 2.167864 g / cm^3
# Si number density = 21.728089 Si / 1000 Ang^3
#
#
#
# Elastic Constant Matrix: (Units=GPa)
#
#
# Indices 1 2 3 4 5 6 
#
# 1 97.9117 40.6633 16.0718 20.5488 -24.9922 7.5371
# 2 40.6633 122.3717 37.4029 24.7346 -1.5328 16.0590
# 3 16.0718 37.4029 67.5927 19.0688 -6.3780 6.0371
# 4 20.5488 24.7346 19.0688 52.9611 -7.9808 3.8738
# 5 -24.9922 -1.5328 -6.3780 -7.9808 45.1661 1.3516
# 6 7.5371 16.0590 6.0371 3.8738 1.3516 27.9352
#
#
#
# Elastic Compliance Matrix: (Units=1/GPa)
#
#
# Indices 1 2 3 4 5 6 
#
# 1 0.014425 -0.004089 0.000416 -0.002588 0.007493 -0.001635
# 2 -0.004089 0.012038 -0.004901 -0.002385 -0.002839 -0.004290
# 3 0.000416 -0.004901 0.018890 -0.004309 0.001996 -0.000876
# 4 -0.002588 -0.002385 -0.004309 0.022861 0.001926 -0.000263
# 5 0.007493 -0.002839 0.001996 0.001926 0.026884 -0.002389
# 6 -0.001635 -0.004290 -0.000876 -0.000263 -0.002389 0.039046
#
#
# Mechanical properties :
#
#
# Convention : Reuss Voigt Hill
#
# Bulk Modulus (GPa) = 35.45471 52.90577 44.18024
# Shear Modulus (GPa) = 31.11531 38.12836 34.62184
#
# Velocity S-wave (km/s) = 3.78832 4.19357 3.99609
# Velocity P-wave (km/s) = 5.95719 6.91737 6.45515
#
# Compressibility (1/GPa) = 0.02820499
#
# Stress axis : x y z
#
# Youngs Moduli (GPa) = 69.32469 83.07032 52.93863
#
# Poissons Ratio (x) = 0.33967 -0.02202
# Poissons Ratio (y) = 0.28346 0.25945
# Poissons Ratio (z) = -0.02884 0.40712
#
# Static dielectric constant tensor:
#      x y z
#    x 1.809310 0.014250 -0.015620 
#    y 0.014250 1.789930 -0.038080 
#    z -0.015620 -0.038080 1.768350 
# 
# From -- ./inp_files/259481.got.cif
#   From: 2010.05.17/outbox.cif.g08.bks.cpg/sg2_130_cif.got.tgz:259481.got - 2010.06.03 11:33:40.
