data_PCOD9105996
_publ_section_title
;
Structure prediction by ZEFSAII (Michael W. Deem and Ramdas Pophale) SiO2 
 PCOD9105996
Probable space group: P -1
;
_chemical_formula_sum "Si O2"
_cell_formula_units_Z 16
_cell_length_a 9.104796
_cell_length_b 9.222481
_cell_length_c 14.800217
_cell_angle_alpha 138.689890
_cell_angle_beta 75.448239
_cell_angle_gamma 114.376892
_cell_volume 743.670732
_symmetry_space_group_name_H-M "P -1"
_symmetry_group_IT_number 2
_symmetry_cell_setting 'triclinic'
loop_
_space_group_symop_operation_xyz
x,y,z
-x,-y,-z
loop_
_atom_site_type_symbol
_atom_site_label
_atom_site_fract_x
_atom_site_fract_y
_atom_site_fract_z
Si Si1 0.328209 0.539695 0.035206
Si Si2 0.764483 0.012811 0.720151
Si Si3 0.691012 0.658131 0.404273
Si Si4 0.886293 0.729620 0.891754
Si Si5 0.910203 0.456476 0.343851
Si Si6 0.848869 0.748383 0.234155
Si Si7 0.842734 0.216675 0.420635
Si Si8 0.678336 0.588455 0.678807
O O1 0.329625 0.803058 0.174205
O O2 0.206621 0.368990 0.047831
O O3 0.500000 0.500000 0.000000
O O4 0.245701 0.467644 0.916024
O O5 0.958023 0.153573 0.766970
O O6 0.723520 0.879069 0.567801
O O7 0.713281 0.806644 0.707044
O O8 0.731821 0.456671 0.358417
O O9 0.814652 0.711493 0.327640
O O10 0.510921 0.550193 0.346538
O O11 0.759754 0.678327 0.804531
O O12 0.003668 0.589544 0.779166
O O13 0.000000 0.000000 0.000000
O O14 0.911525 0.272801 0.335300
O O15 0.014243 0.702490 0.489207
O O16 0.767182 0.942149 0.312296
O O17 0.746379 0.390266 0.537469
#
# Coordination Sequence:
#
# PCOD9105996 Si02
#       8
#     2   2   2   2   2   2   2   2
#     4  12  29  48  67 101 141 184 228 286 349 402
#     4  12  25  46  70  99 141 182 227 279 347 414
#     4  12  25  41  69 108 137 176 228 288 349 394
#     4  11  24  46  72  98 135 189 235 274 339 417
#     4  10  20  39  66  99 131 174 230 275 326 409
#     4  12  25  44  70 101 138 182 228 281 340 414
#     4  10  20  39  66  98 137 172 224 273 338 400
#     4  11  25  42  69 105 137 178 227 287 342 405
#
# _framework density 21.514899
#
# number of rings (size 3 to 8) (size 9 to 14) (size 15 to 20)
#    0.000    0.750    2.500    5.625    5.250    2.500 
#    0.000    1.875    0.000    0.000    0.000    0.000 
#    0.000    0.000    0.000    0.000    0.000    0.000 
#
# Total GULP energy -89413.638827 kJ/mol
# GULP energy per Si atom -5588.352427 kJ/mol
# Density = 2.146593 g / cm^3
# Si number density = 21.514899 Si / 1000 Ang^3
#
#
#
# Elastic Constant Matrix: (Units=GPa)
#
#
# Indices 1 2 3 4 5 6 
#
# 1 108.8664 -3.1799 40.2686 21.9973 -13.5826 -6.3651
# 2 -3.1799 46.8172 25.7091 7.5262 -18.9823 -5.4564
# 3 40.2686 25.7091 113.4536 1.5415 -1.5508 -15.2390
# 4 21.9973 7.5262 1.5415 23.6253 -5.0224 3.0722
# 5 -13.5826 -18.9823 -1.5508 -5.0224 29.3670 5.5835
# 6 -6.3651 -5.4564 -15.2390 3.0722 5.5835 15.8689
#
#
#
# Elastic Compliance Matrix: (Units=1/GPa)
#
#
# Indices 1 2 3 4 5 6 
#
# 1 0.019171 0.016083 -0.009649 -0.019486 0.014952 0.002466
# 2 0.016083 0.048676 -0.015954 -0.022174 0.034246 0.000110
# 3 -0.009649 -0.015954 0.016924 0.008568 -0.014374 0.010295
# 4 -0.019486 -0.022174 0.008568 0.067542 -0.008021 -0.017467
# 5 0.014952 0.034246 -0.014374 -0.008021 0.064219 -0.017073
# 6 0.002466 0.000110 0.010295 -0.017467 -0.017073 0.083319
#
#
# Mechanical properties :
#
#
# Convention : Reuss Voigt Hill
#
# Bulk Modulus (GPa) = 15.21359 43.85919 29.53639
# Shear Modulus (GPa) = 14.67133 27.52818 21.09976
#
# Velocity S-wave (km/s) = 2.61418 3.58088 3.13502
# Velocity P-wave (km/s) = 4.02473 6.12590 5.18291
#
# Compressibility (1/GPa) = 0.06573069
#
# Stress axis : x y z
#
# Youngs Moduli (GPa) = 52.16175 20.54404 59.08745
#
# Poissons Ratio (x) = -0.33040 0.57011
# Poissons Ratio (y) = -0.83890 0.94270
# Poissons Ratio (z) = 0.50329 0.32777
#
# Static dielectric constant tensor:
#      x y z
#    x 1.794090 -0.017580 -0.012760 
#    y -0.017580 1.826850 0.023680 
#    z -0.012760 0.023680 1.787560 
# 
# From -- ./inp_files/495829.got.cif
#   From: 2010.05.17/outbox.cif.g08.bks.cpg/sg2_248_cif.got.tgz:495829.got - 2010.06.03 11:33:40.
