data_PCOD9105698
_publ_section_title
;
Structure prediction by ZEFSAII (Michael W. Deem and Ramdas Pophale) SiO2 
 PCOD9105698
Probable space group: P -1
;
_chemical_formula_sum "Si O2"
_cell_formula_units_Z 14
_cell_length_a 9.519829
_cell_length_b 8.480060
_cell_length_c 11.712035
_cell_angle_alpha 127.321779
_cell_angle_beta 103.939963
_cell_angle_gamma 50.180222
_cell_volume 560.450214
_symmetry_space_group_name_H-M "P -1"
_symmetry_group_IT_number 2
_symmetry_cell_setting 'triclinic'
loop_
_space_group_symop_operation_xyz
x,y,z
-x,-y,-z
loop_
_atom_site_type_symbol
_atom_site_label
_atom_site_fract_x
_atom_site_fract_y
_atom_site_fract_z
Si Si1 0.523981 0.256800 0.444610
Si Si2 0.241380 0.286598 0.827227
Si Si3 0.261774 0.903628 0.948992
Si Si4 0.093908 0.973184 0.168363
Si Si5 0.264460 0.485022 0.683029
Si Si6 0.815517 0.181168 0.620634
Si Si7 0.790934 0.606955 0.884495
O O1 0.500000 0.500000 0.500000
O O2 0.341647 0.341356 0.514418
O O3 0.673910 0.145925 0.528271
O O4 0.624862 0.023240 0.273747
O O5 0.297849 0.339455 0.742540
O O6 0.020123 0.419551 0.839052
O O7 0.263135 0.391276 0.993822
O O8 0.262211 0.851651 0.059997
O O9 0.300152 0.100217 0.029909
O O10 0.346717 0.638439 0.784894
O O11 0.044396 0.073075 0.933425
O O12 0.959419 0.283873 0.268839
O O13 0.137307 0.898701 0.274081
O O14 0.739286 0.473744 0.732267
O O15 0.000000 0.000000 0.500000
#
# Coordination Sequence:
#
# PCOD9105698 Si02
#       7
#     2   2   2   2   2   2   2
#     4  12  26  44  61  89 136 174 205 259 328 378
#     4  11  21  39  69  94 122 171 214 254 318 377
#     4   9  17  37  69  98 121 162 212 258 316 368
#     4   9  18  37  65  92 124 159 215 257 305 368
#     4  10  20  39  65  95 126 164 206 259 323 378
#     4  12  24  40  61  97 127 165 215 264 311 369
#     4  11  20  37  67  98 121 159 222 263 295 374
#
# _framework density 24.979918999999999
#
# number of rings (size 3 to 8) (size 9 to 14) (size 15 to 20)
#    0.857    0.571    2.857    4.714    0.000    0.000 
#    0.000   11.429    0.000    0.000    0.000    0.000 
#    0.000    0.000    0.000    0.000    0.000    0.000 
#
# Total GULP energy -78248.530736 kJ/mol
# GULP energy per Si atom -5589.180767 kJ/mol
# Density = 2.492306 g / cm^3
# Si number density = 24.979919 Si / 1000 Ang^3
#
#
#
# Elastic Constant Matrix: (Units=GPa)
#
#
# Indices 1 2 3 4 5 6 
#
# 1 45.8967 11.3092 17.1564 2.0573 -18.0021 6.7135
# 2 11.3092 87.3185 26.2122 5.0862 -8.6358 28.9852
# 3 17.1564 26.2122 137.6550 8.0424 -18.2775 7.2713
# 4 2.0573 5.0862 8.0424 46.1601 7.3917 -5.3234
# 5 -18.0021 -8.6358 -18.2775 7.3917 38.0343 -1.6233
# 6 6.7135 28.9852 7.2713 -5.3234 -1.6233 31.2250
#
#
#
# Elastic Compliance Matrix: (Units=1/GPa)
#
#
# Indices 1 2 3 4 5 6 
#
# 1 0.028541 0.000251 -0.001268 -0.003932 0.013462 -0.006045
# 2 0.000251 0.018249 -0.001901 -0.004212 0.003438 -0.017091
# 3 -0.001268 -0.001901 0.008324 -0.001715 0.003301 -0.000022
# 4 -0.003932 -0.004212 -0.001715 0.024936 -0.008104 0.008985
# 5 0.013462 0.003438 0.003301 -0.008104 0.036335 -0.006347
# 6 -0.006045 -0.017091 -0.000022 0.008985 -0.006347 0.050397
#
#
# Mechanical properties :
#
#
# Convention : Reuss Voigt Hill
#
# Bulk Modulus (GPa) = 20.29308 42.24732 31.27020
# Shear Modulus (GPa) = 26.44883 37.49673 31.97278
#
# Velocity S-wave (km/s) = 3.25746 3.87857 3.58151
# Velocity P-wave (km/s) = 4.72117 6.08334 5.44502
#
# Compressibility (1/GPa) = 0.04927788
#
# Stress axis : x y z
#
# Youngs Moduli (GPa) = 35.03727 54.79742 120.13106
#
# Poissons Ratio (x) = -0.01376 0.15239
# Poissons Ratio (y) = -0.00880 0.22836
# Poissons Ratio (z) = 0.04444 0.10416
#
# Static dielectric constant tensor:
#      x y z
#    x 2.035800 -0.012530 -0.027830 
#    y -0.012530 2.026750 0.057850 
#    z -0.027830 0.057850 1.974110 
# 
# From -- ./inp_files/420055.got.cif
#   From: 2010.05.17/outbox.cif.g08.bks.cpg/sg2_211_cif.got.tgz:420055.got - 2010.06.03 11:33:40.
