data_PCOD9105737
_publ_section_title
;
Structure prediction by ZEFSAII (Michael W. Deem and Ramdas Pophale) SiO2 
 PCOD9105737
Probable space group: P -1
;
_chemical_formula_sum "Si O2"
_cell_formula_units_Z 14
_cell_length_a 8.719504
_cell_length_b 14.888249
_cell_length_c 5.313993
_cell_angle_alpha 54.147011
_cell_angle_beta 79.071830
_cell_angle_gamma 81.871166
_cell_volume 548.601771
_symmetry_space_group_name_H-M "P -1"
_symmetry_group_IT_number 2
_symmetry_cell_setting 'triclinic'
loop_
_space_group_symop_operation_xyz
x,y,z
-x,-y,-z
loop_
_atom_site_type_symbol
_atom_site_label
_atom_site_fract_x
_atom_site_fract_y
_atom_site_fract_z
Si Si1 0.926180 0.447262 0.355666
Si Si2 0.138675 0.955376 0.849731
Si Si3 0.353753 0.300323 0.914571
Si Si4 0.417671 0.578473 0.684912
Si Si5 0.324517 0.141769 0.556274
Si Si6 0.062673 0.224426 0.878109
Si Si7 0.592707 0.171833 0.721096
O O1 0.741547 0.460467 0.330061
O O2 0.000000 0.500000 0.500000
O O3 0.969538 0.316333 0.589863
O O4 0.000000 0.500000 0.000000
O O5 0.236853 0.056327 0.544646
O O6 0.261954 0.890866 0.098164
O O7 0.060052 0.864930 0.842831
O O8 0.000000 0.000000 0.000000
O O9 0.349164 0.269067 0.256730
O O10 0.449951 0.395616 0.604995
O O11 0.172454 0.292566 0.915577
O O12 0.462870 0.197929 0.936644
O O13 0.369192 0.704240 0.590691
O O14 0.500000 0.500000 0.000000
O O15 0.196200 0.159248 0.783964
O O16 0.496349 0.104955 0.655116
#
# Coordination Sequence:
#
# PCOD9105737 Si02
#       7
#     2   2   2   2   2   2   2
#     4  12  28  47  75 108 145 192 243 308 372 434
#     4  10  20  39  65  96 137 183 227 288 361 423
#     4   9  21  38  67  93 130 178 231 287 349 433
#     4  10  22  46  70  98 139 190 236 301 365 435
#     4  10  21  37  69  97 134 184 225 294 354 425
#     4  10  21  43  62  97 144 174 237 290 354 429
#     4   9  20  40  62  93 136 172 232 283 348 433
#
# _framework density 25.51942
#
# number of rings (size 3 to 8) (size 9 to 14) (size 15 to 20)
#    0.857    1.143    1.429    1.286    2.000    2.286 
#    0.000    5.000    0.000    0.000    0.000    0.000 
#    0.000    0.000    0.000    0.000    0.000    0.000 
#
# Total GULP energy -78026.669321 kJ/mol
# GULP energy per Si atom -5573.333523 kJ/mol
# Density = 2.546134 g / cm^3
# Si number density = 25.519420 Si / 1000 Ang^3
#
#
#
# Elastic Constant Matrix: (Units=GPa)
#
#
# Indices 1 2 3 4 5 6 
#
# 1 216.5422 63.2830 69.9971 -12.6975 23.3198 34.9008
# 2 63.2830 60.0141 28.9673 -16.5092 -9.2739 22.9267
# 3 69.9971 28.9673 114.9746 -20.4510 -3.1824 25.8215
# 4 -12.6975 -16.5092 -20.4510 29.3654 2.2515 3.7465
# 5 23.3198 -9.2739 -3.1824 2.2515 49.1875 -17.3601
# 6 34.9008 22.9267 25.8215 3.7465 -17.3601 57.3139
#
#
#
# Elastic Compliance Matrix: (Units=1/GPa)
#
#
# Indices 1 2 3 4 5 6 
#
# 1 0.009472 -0.009153 -0.003571 -0.002665 -0.007210 -0.002507
# 2 -0.009153 0.034218 0.001968 0.017093 0.007351 -0.007891
# 3 -0.003571 0.001968 0.013154 0.009293 0.000754 -0.004918
# 4 -0.002665 0.017093 0.009293 0.050830 -0.001937 -0.013311
# 5 -0.007210 0.007351 0.000754 -0.001937 0.028786 0.009956
# 6 -0.002507 -0.007891 -0.004918 -0.013311 0.009956 0.028233
#
#
# Mechanical properties :
#
#
# Convention : Reuss Voigt Hill
#
# Bulk Modulus (GPa) = 28.30422 79.55842 53.93132
# Shear Modulus (GPa) = 25.25490 42.45890 33.85690
#
# Velocity S-wave (km/s) = 3.14926 4.08338 3.64636
# Velocity P-wave (km/s) = 4.93347 7.31268 6.23756
#
# Compressibility (1/GPa) = 0.03533042
#
# Stress axis : x y z
#
# Youngs Moduli (GPa) = 105.57850 29.22479 76.02222
#
# Poissons Ratio (x) = 0.26751 0.27145
# Poissons Ratio (y) = 0.96641 -0.14959
# Poissons Ratio (z) = 0.37699 -0.05751
#
# Static dielectric constant tensor:
#      x y z
#    x 2.042940 0.088440 0.034000 
#    y 0.088440 2.242330 -0.063820 
#    z 0.034000 -0.063820 2.117290 
# 
# From -- ./inp_files/27018.got.cif
#   From: 2010.05.17/outbox.cif.g08.bks.cpg/sg2_14_cif.got.tgz:27018.got - 2010.06.03 11:33:40.
