data_PCOD9105478
_publ_section_title
;
Structure prediction by ZEFSAII (Michael W. Deem and Ramdas Pophale) SiO2 
 PCOD9105478
Probable space group: P -1
;
_chemical_formula_sum "Si O2"
_cell_formula_units_Z 15
_cell_length_a 22.068659
_cell_length_b 9.545950
_cell_length_c 18.632269
_cell_angle_alpha 146.438554
_cell_angle_beta 163.443645
_cell_angle_gamma 38.001374
_cell_volume 616.909045
_symmetry_space_group_name_H-M "P -1"
_symmetry_group_IT_number 2
_symmetry_cell_setting 'triclinic'
loop_
_space_group_symop_operation_xyz
x,y,z
-x,-y,-z
loop_
_atom_site_type_symbol
_atom_site_label
_atom_site_fract_x
_atom_site_fract_y
_atom_site_fract_z
Si Si1 0.188773 0.999436 0.659138
Si Si2 0.296013 0.149717 0.112894
Si Si3 0.406637 0.727752 0.685510
Si Si4 0.000000 0.000000 0.000000
Si Si5 0.200181 0.453991 0.758141
Si Si6 0.645282 0.379209 0.716650
Si Si7 0.042883 0.909161 0.844812
Si Si8 0.407314 0.160103 0.758714
O O1 0.150688 0.200251 0.639407
O O2 0.234969 0.739174 0.559264
O O3 0.392922 0.110086 0.982529
O O4 0.000000 0.000000 0.500000
O O5 0.502378 0.239896 0.433078
O O6 0.257375 0.362070 0.100735
O O7 0.370329 0.896762 0.049974
O O8 0.108932 0.099088 0.935740
O O9 0.485778 0.467773 0.635232
O O10 0.351869 0.895309 0.626086
O O11 0.939856 0.982219 0.010618
O O12 0.818959 0.206651 0.870503
O O13 0.399502 0.381666 0.904183
O O14 0.000000 0.500000 0.500000
O O15 0.203013 0.685951 0.915896
O O16 0.794923 0.809737 0.509532
#
# Coordination Sequence:
#
# PCOD9105478 Si02
#       8
#     2   2   2   1   2   2   2   2
#     4  10  20  39  64  97 126 167 217 264 324 392
#     4  10  22  43  68  90 125 170 226 259 329 393
#     4   9  20  38  63  91 131 164 213 271 317 383
#     4  12  24  42  64  88 142 162 216 276 328 374
#     4   9  20  38  62  90 130 159 207 269 323 378
#     4  10  22  43  63  95 127 170 219 276 316 395
#     4  11  23  41  63  94 130 173 213 271 326 388
#     4   9  19  41  63  92 125 164 215 267 315 398
#
# _framework density 24.314765000000001
#
# number of rings (size 3 to 8) (size 9 to 14) (size 15 to 20)
#    0.000    2.133    1.333    0.800    0.000    8.000 
#    4.800    8.000    0.000    0.000    0.000    0.000 
#    0.000    0.000    0.000    0.000    0.000    0.000 
#
# Total GULP energy -83590.144146 kJ/mol
# GULP energy per Si atom -5572.676276 kJ/mol
# Density = 2.425942 g / cm^3
# Si number density = 24.314765 Si / 1000 Ang^3
#
#
#
# Elastic Constant Matrix: (Units=GPa)
#
#
# Indices 1 2 3 4 5 6 
#
# 1 181.0646 36.2162 31.1886 -15.7905 13.9419 -33.8038
# 2 36.2162 120.0005 27.1205 -34.0529 -8.5048 -21.3326
# 3 31.1886 27.1205 59.6560 -14.8459 12.1628 4.4624
# 4 -15.7905 -34.0529 -14.8459 26.7423 2.9426 -2.7779
# 5 13.9419 -8.5048 12.1628 2.9426 19.6822 -5.5645
# 6 -33.8038 -21.3326 4.4624 -2.7779 -5.5645 51.0032
#
#
#
# Elastic Compliance Matrix: (Units=1/GPa)
#
#
# Indices 1 2 3 4 5 6 
#
# 1 0.007500 0.000315 -0.002969 0.004002 -0.002438 0.005315
# 2 0.000315 0.017889 -0.006781 0.018999 0.011857 0.010613
# 3 -0.002969 -0.006781 0.028236 0.006733 -0.021911 -0.009298
# 4 0.004002 0.018999 0.006733 0.069661 -0.005466 0.013207
# 5 -0.002438 0.011857 -0.021911 -0.005466 0.075754 0.013228
# 6 0.005315 0.010613 -0.009298 0.013207 0.013228 0.030544
#
#
# Mechanical properties :
#
#
# Convention : Reuss Voigt Hill
#
# Bulk Modulus (GPa) = 28.77211 61.08573 44.92892
# Shear Modulus (GPa) = 19.22796 37.23191 28.22994
#
# Velocity S-wave (km/s) = 2.81516 3.91736 3.41107
# Velocity P-wave (km/s) = 4.73558 6.75562 5.83370
#
# Compressibility (1/GPa) = 0.03475588
#
# Stress axis : x y z
#
# Youngs Moduli (GPa) = 133.33011 55.90045 35.41609
#
# Poissons Ratio (x) = -0.01761 0.10515
# Poissons Ratio (y) = -0.04201 0.24014
# Poissons Ratio (z) = 0.39586 0.37904
#
# Static dielectric constant tensor:
#      x y z
#    x 1.971890 -0.023280 0.043670 
#    y -0.023280 1.978470 0.068440 
#    z 0.043670 0.068440 1.951940 
# 
# From -- ./inp_files/577652.got.cif
#   From: 2010.05.17/outbox.cif.g08.bks.cpg/sg2_289_cif.got.tgz:577652.got - 2010.06.03 11:33:40.
