data_PCOD9105610
_publ_section_title
;
Structure prediction by ZEFSAII (Michael W. Deem and Ramdas Pophale) SiO2 
 PCOD9105610
Probable space group: P -1
;
_chemical_formula_sum "Si O2"
_cell_formula_units_Z 16
_cell_length_a 9.654435
_cell_length_b 7.491443
_cell_length_c 16.115347
_cell_angle_alpha 96.546572
_cell_angle_beta 142.543813
_cell_angle_gamma 96.741233
_cell_volume 661.215342
_symmetry_space_group_name_H-M "P -1"
_symmetry_group_IT_number 2
_symmetry_cell_setting 'triclinic'
loop_
_space_group_symop_operation_xyz
x,y,z
-x,-y,-z
loop_
_atom_site_type_symbol
_atom_site_label
_atom_site_fract_x
_atom_site_fract_y
_atom_site_fract_z
Si Si1 0.400353 0.562214 0.618109
Si Si2 0.072416 0.656169 0.702863
Si Si3 0.719537 0.349873 0.752633
Si Si4 0.784315 0.109496 0.639995
Si Si5 0.568982 0.527608 0.181072
Si Si6 0.900036 0.821278 0.788540
Si Si7 0.082172 0.037878 0.634981
Si Si8 0.825235 0.308827 0.972807
O O1 0.461351 0.369505 0.615458
O O2 0.408712 0.559193 0.721740
O O3 0.623390 0.728823 0.689194
O O4 0.131198 0.515419 0.452840
O O5 0.304083 0.587660 0.822180
O O6 0.948596 0.694251 0.730059
O O7 0.134404 0.855396 0.690179
O O8 0.815839 0.307364 0.709536
O O9 0.893234 0.552402 0.882525
O O10 0.719675 0.227325 0.828318
O O11 0.879045 0.081236 0.595132
O O12 0.500000 0.000000 0.500000
O O13 0.914034 0.015475 0.762139
O O14 0.707455 0.756245 0.252997
O O15 0.303261 0.543807 0.047030
O O16 0.134169 0.854668 0.960653
O O17 0.000000 0.000000 0.500000
#
# Coordination Sequence:
#
# PCOD9105610 Si02
#       8
#     2   2   2   2   2   2   2   2
#     4  10  20  39  65  92 124 166 214 272 322 380
#     4  11  23  41  61  98 129 166 221 268 329 383
#     4   9  19  41  66  91 127 167 218 265 316 383
#     4  11  25  40  66 102 126 165 215 275 335 374
#     4  11  24  41  67  91 129 181 212 261 330 390
#     4  10  23  40  63  94 128 164 219 268 314 384
#     4  11  25  43  61  97 137 166 213 271 328 393
#     4   9  21  42  63  90 127 176 218 258 313 389
#
# _framework density 24.197865
#
# number of rings (size 3 to 8) (size 9 to 14) (size 15 to 20)
#    0.000    1.750    1.250    3.000    7.000    1.000 
#    2.250    1.250    0.000    0.000    0.000    0.000 
#    0.000    0.000    0.000    0.000    0.000    0.000 
#
# Total GULP energy -89176.562992 kJ/mol
# GULP energy per Si atom -5573.535187 kJ/mol
# Density = 2.414279 g / cm^3
# Si number density = 24.197865 Si / 1000 Ang^3
#
#
#
# Elastic Constant Matrix: (Units=GPa)
#
#
# Indices 1 2 3 4 5 6 
#
# 1 108.6241 14.3343 5.1755 -2.2054 4.6718 -4.5293
# 2 14.3343 84.5197 3.1210 -16.5889 -5.5720 0.4988
# 3 5.1755 3.1210 45.4298 -18.0530 10.7588 -4.9017
# 4 -2.2054 -16.5889 -18.0530 32.7096 -3.7396 4.8891
# 5 4.6718 -5.5720 10.7588 -3.7396 26.0455 -1.7587
# 6 -4.5293 0.4988 -4.9017 4.8891 -1.7587 30.0111
#
#
#
# Elastic Compliance Matrix: (Units=1/GPa)
#
#
# Indices 1 2 3 4 5 6 
#
# 1 0.009624 -0.001980 -0.000861 -0.001261 -0.001878 0.001440
# 2 -0.001980 0.014041 0.001582 0.008513 0.003831 -0.001436
# 3 -0.000861 0.001582 0.031082 0.016524 -0.009862 0.001650
# 4 -0.001261 0.008513 0.016524 0.044802 0.001326 -0.004854
# 5 -0.001878 0.003831 -0.009862 0.001326 0.043842 0.000395
# 6 0.001440 -0.001436 0.001650 -0.004854 0.000395 0.034646
#
#
# Mechanical properties :
#
#
# Convention : Reuss Voigt Hill
#
# Bulk Modulus (GPa) = 19.14715 31.53723 25.34219
# Shear Modulus (GPa) = 25.25723 32.14944 28.70333
#
# Velocity S-wave (km/s) = 3.23426 3.64896 3.44785
# Velocity P-wave (km/s) = 4.67731 5.55109 5.13282
#
# Compressibility (1/GPa) = 0.05222708
#
# Stress axis : x y z
#
# Youngs Moduli (GPa) = 103.91133 71.22060 32.17338
#
# Poissons Ratio (x) = 0.14102 0.02771
# Poissons Ratio (y) = 0.20575 -0.05089
# Poissons Ratio (z) = 0.08948 -0.11265
#
# Static dielectric constant tensor:
#      x y z
#    x 2.231430 0.247020 -0.093110 
#    y 0.247020 2.250660 -0.155360 
#    z -0.093110 -0.155360 2.088370 
# 
# From -- ./inp_files/418409.got.cif
#   From: 2010.05.17/outbox.cif.g08.bks.cpg/sg2_210_cif.got.tgz:418409.got - 2010.06.03 11:33:40.
