data_PCOD9105168
_publ_section_title
;
Structure prediction by ZEFSAII (Michael W. Deem and Ramdas Pophale) SiO2 
 PCOD9105168
Probable space group: P -1
;
_chemical_formula_sum "Si O2"
_cell_formula_units_Z 16
_cell_length_a 19.165382
_cell_length_b 11.285513
_cell_length_c 6.656529
_cell_angle_alpha 110.735634
_cell_angle_beta 139.120329
_cell_angle_gamma 49.856988
_cell_volume 694.237439
_symmetry_space_group_name_H-M "P -1"
_symmetry_group_IT_number 2
_symmetry_cell_setting 'triclinic'
loop_
_space_group_symop_operation_xyz
x,y,z
-x,-y,-z
loop_
_atom_site_type_symbol
_atom_site_label
_atom_site_fract_x
_atom_site_fract_y
_atom_site_fract_z
Si Si1 0.939167 0.739436 0.224438
Si Si2 0.418800 0.160833 0.550947
Si Si3 0.170985 0.385026 0.844103
Si Si4 0.854187 0.962430 0.537736
Si Si5 0.838032 0.255595 0.792364
Si Si6 0.596980 0.547676 0.197801
Si Si7 0.749457 0.843943 0.497302
Si Si8 0.219711 0.608698 0.864416
O O1 0.950628 0.598386 0.290880
O O2 0.854571 0.893406 0.281417
O O3 0.083849 0.700391 0.489907
O O4 0.865314 0.769424 0.874182
O O5 0.465598 0.270090 0.768652
O O6 0.377483 0.120986 0.642772
O O7 0.500000 0.000000 0.500000
O O8 0.285781 0.279304 0.198702
O O9 0.207110 0.279378 0.661336
O O10 0.190209 0.514673 0.896318
O O11 0.743233 0.982751 0.455393
O O12 0.839641 0.122467 0.596078
O O13 0.004150 0.823728 0.874988
O O14 0.733275 0.421242 0.547091
O O15 0.782097 0.275289 0.911701
O O16 0.650572 0.506055 0.059491
O O17 0.500000 0.500000 0.000000
#
# Coordination Sequence:
#
# PCOD9105168 Si02
#       8
#     2   2   2   2   2   2   2   2
#     4   9  20  34  64 100 130 156 198 257 319 392
#     4  11  25  45  64  90 129 167 220 277 317 377
#     4  10  20  39  63  94 124 157 205 254 327 381
#     4   9  20  39  65  98 129 171 201 257 325 392
#     4  10  22  42  64  92 135 165 214 260 315 390
#     4  12  27  44  63  93 127 175 226 270 313 375
#     4  10  20  39  64  96 125 160 209 257 326 378
#     4  11  21  40  63  91 128 169 203 256 320 376
#
# _framework density 23.046869999999998
#
# number of rings (size 3 to 8) (size 9 to 14) (size 15 to 20)
#    0.000    1.750    2.500    1.125    0.000    6.500 
#    2.250    3.750    0.000    0.000    0.000    0.000 
#    0.000    0.000    0.000    0.000    0.000    0.000 
#
# Total GULP energy -89290.433106 kJ/mol
# GULP energy per Si atom -5580.652069 kJ/mol
# Density = 2.299441 g / cm^3
# Si number density = 23.046870 Si / 1000 Ang^3
#
#
#
# Elastic Constant Matrix: (Units=GPa)
#
#
# Indices 1 2 3 4 5 6 
#
# 1 125.6891 46.1538 21.8211 17.0917 5.7978 -6.6858
# 2 46.1538 95.9310 14.7065 18.1907 9.6377 1.5812
# 3 21.8211 14.7065 69.0279 20.1702 -16.1715 1.4090
# 4 17.0917 18.1907 20.1702 32.6687 3.6433 -2.1119
# 5 5.7978 9.6377 -16.1715 3.6433 19.1141 3.4001
# 6 -6.6858 1.5812 1.4090 -2.1119 3.4001 20.3075
#
#
#
# Elastic Compliance Matrix: (Units=1/GPa)
#
#
# Indices 1 2 3 4 5 6 
#
# 1 0.010626 -0.004073 -0.003825 -0.000019 -0.005285 0.004964
# 2 -0.004073 0.014130 -0.002178 -0.003740 -0.006743 -0.001550
# 3 -0.003825 -0.002178 0.029905 -0.019651 0.033221 -0.010771
# 4 -0.000019 -0.003740 -0.019651 0.048441 -0.025929 0.011027
# 5 -0.005285 -0.006743 0.033221 -0.025929 0.094284 -0.022002
# 6 0.004964 -0.001550 -0.010771 0.011027 -0.022002 0.056576
#
#
# Mechanical properties :
#
#
# Convention : Reuss Voigt Hill
#
# Bulk Modulus (GPa) = 28.97827 50.66786 39.82307
# Shear Modulus (GPa) = 17.50592 28.28248 22.89420
#
# Velocity S-wave (km/s) = 2.75904 3.50690 3.15521
# Velocity P-wave (km/s) = 4.76976 6.19921 5.53086
#
# Compressibility (1/GPa) = 0.03450862
#
# Stress axis : x y z
#
# Youngs Moduli (GPa) = 94.10464 70.77127 33.43919
#
# Poissons Ratio (x) = 0.28827 0.12791
# Poissons Ratio (y) = 0.38332 0.07283
# Poissons Ratio (z) = 0.35997 0.15413
#
# Static dielectric constant tensor:
#      x y z
#    x 1.893450 0.054980 0.054850 
#    y 0.054980 1.953700 0.015540 
#    z 0.054850 0.015540 1.958010 
# 
# From -- ./inp_files/109827.got.cif
#   From: 2010.05.17/outbox.cif.g08.bks.cpg/sg2_55_cif.got.tgz:109827.got - 2010.06.03 11:33:40.
