data_PCOD9105216
_publ_section_title
;
Structure prediction by ZEFSAII (Michael W. Deem and Ramdas Pophale) SiO2 
 PCOD9105216
Probable space group: P -1
;
_chemical_formula_sum "Si O2"
_cell_formula_units_Z 16
_cell_length_a 11.411019
_cell_length_b 14.219514
_cell_length_c 11.105276
_cell_angle_alpha 32.538575
_cell_angle_beta 67.083449
_cell_angle_gamma 89.293230
_cell_volume 687.627812
_symmetry_space_group_name_H-M "P -1"
_symmetry_group_IT_number 2
_symmetry_cell_setting 'triclinic'
loop_
_space_group_symop_operation_xyz
x,y,z
-x,-y,-z
loop_
_atom_site_type_symbol
_atom_site_label
_atom_site_fract_x
_atom_site_fract_y
_atom_site_fract_z
Si Si1 0.359910 0.736011 0.385632
Si Si2 0.459619 0.532829 0.769129
Si Si3 0.841769 0.974234 0.601863
Si Si4 0.121708 0.954732 0.049129
Si Si5 0.260790 0.773259 0.749248
Si Si6 0.387373 0.033211 0.666024
Si Si7 0.945207 0.289111 0.432010
Si Si8 0.355388 0.435094 0.538965
O O1 0.426447 0.659970 0.544674
O O2 0.192016 0.679264 0.557112
O O3 0.306389 0.574356 0.465519
O O4 0.500000 0.000000 0.000000
O O5 0.538365 0.703952 0.664635
O O6 0.583032 0.502953 0.689531
O O7 0.299337 0.277680 0.116321
O O8 0.836930 0.143256 0.344118
O O9 0.855175 0.059416 0.639286
O O10 0.000000 0.000000 0.500000
O O11 0.034561 0.742617 0.401677
O O12 0.243545 0.956112 0.905828
O O13 0.231797 0.168239 0.863960
O O14 0.000000 0.000000 0.000000
O O15 0.432667 0.908200 0.459153
O O16 0.308006 0.859740 0.774558
O O17 0.127920 0.500825 0.083682
O O18 0.500000 0.500000 0.500000
#
# Coordination Sequence:
#
# PCOD9105216 Si02
#       8
#     2   2   2   2   2   2   2   2
#     4  11  20  36  66  99 141 175 225 290 352 419
#     4  10  20  39  63  97 130 181 232 276 342 415
#     4  12  25  42  71 101 140 182 238 295 348 416
#     4  11  26  46  71 105 144 182 237 301 365 425
#     4  11  26  47  70 102 143 193 239 284 353 430
#     4  10  24  49  69  98 146 188 241 282 356 432
#     4  12  25  43  71 105 137 182 236 296 359 414
#     4   9  19  38  63  96 132 176 222 278 348 417
#
# _framework density 23.268401000000001
#
# number of rings (size 3 to 8) (size 9 to 14) (size 15 to 20)
#    0.000    1.250    0.000    7.125    3.500    2.000 
#   11.250    0.000    0.000    0.000    0.000    0.000 
#    0.000    0.000    0.000    0.000    0.000    0.000 
#
# Total GULP energy -89089.595781 kJ/mol
# GULP energy per Si atom -5568.099736 kJ/mol
# Density = 2.321544 g / cm^3
# Si number density = 23.268401 Si / 1000 Ang^3
#
#
#
# Elastic Constant Matrix: (Units=GPa)
#
#
# Indices 1 2 3 4 5 6 
#
# 1 86.2085 2.3646 4.9177 20.9196 -6.6123 -10.9339
# 2 2.3646 81.5395 -28.6392 -37.6822 -6.5052 -20.4709
# 3 4.9177 -28.6392 62.9169 -3.9135 -3.7988 6.5578
# 4 20.9196 -37.6822 -3.9135 6.0891 5.1955 -17.1133
# 5 -6.6123 -6.5052 -3.7988 5.1955 24.6194 -2.4955
# 6 -10.9339 -20.4709 6.5578 -17.1133 -2.4955 38.4529
#
#
#
# Elastic Compliance Matrix: (Units=1/GPa)
#
#
# Indices 1 2 3 4 5 6 
#
# 1 0.011670 0.004212 0.000734 0.004398 0.004210 0.007666
# 2 0.004212 0.002521 0.000547 -0.019063 0.005328 -0.005692
# 3 0.000734 0.000547 0.016408 -0.008735 0.004117 -0.005919
# 4 0.004398 -0.019063 -0.008735 -0.024078 -0.001972 -0.018252
# 5 0.004210 0.005328 0.004117 -0.001972 0.044751 0.005358
# 6 0.007666 -0.005692 -0.005919 -0.018252 0.005358 0.018390
#
#
# Mechanical properties :
#
#
# Convention : Reuss Voigt Hill
#
# Bulk Modulus (GPa) = 24.04673 20.88347 22.46510
# Shear Modulus (GPa) = 68.93062 30.63374 49.78218
#
# Velocity S-wave (km/s) = 5.44871 3.63235 4.63046
# Velocity P-wave (km/s) = 7.06693 5.15621 6.18579
#
# Compressibility (1/GPa) = 0.04158569
#
# Stress axis : x y z
#
# Youngs Moduli (GPa) = 85.68711 396.72031 60.94628
#
# Poissons Ratio (x) = -1.67106 -0.04473
# Poissons Ratio (y) = -0.36093 -0.03336
# Poissons Ratio (z) = -0.06288 -0.21714
#
# Static dielectric constant tensor:
#      x y z
#    x 1.888540 0.031890 0.029740 
#    y 0.031890 1.878720 0.133830 
#    z 0.029740 0.133830 1.852590 
# 
# From -- ./inp_files/433650.got.cif
#   From: 2010.05.17/outbox.cif.g08.bks.cpg/sg2_217_cif.got.tgz:433650.got - 2010.06.03 11:33:40.
