data_PCOD9105047
_publ_section_title
;
Structure prediction by ZEFSAII (Michael W. Deem and Ramdas Pophale) SiO2 
 PCOD9105047
Probable space group: P -1
;
_chemical_formula_sum "Si O2"
_cell_formula_units_Z 14
_cell_length_a 8.705051
_cell_length_b 9.740500
_cell_length_c 9.068002
_cell_angle_alpha 64.656470
_cell_angle_beta 83.871772
_cell_angle_gamma 65.513037
_cell_volume 630.050241
_symmetry_space_group_name_H-M "P -1"
_symmetry_group_IT_number 2
_symmetry_cell_setting 'triclinic'
loop_
_space_group_symop_operation_xyz
x,y,z
-x,-y,-z
loop_
_atom_site_type_symbol
_atom_site_label
_atom_site_fract_x
_atom_site_fract_y
_atom_site_fract_z
Si Si1 0.764749 0.492970 0.345044
Si Si2 0.419381 0.053719 0.142373
Si Si3 0.585047 0.751246 0.484901
Si Si4 0.071086 0.133269 0.243895
Si Si5 0.774113 0.161406 0.411480
Si Si6 0.109371 0.426416 0.256128
Si Si7 0.360445 0.431276 0.011453
O O1 0.633814 0.602109 0.429967
O O2 0.811632 0.296389 0.445838
O O3 0.934052 0.529282 0.310527
O O4 0.689221 0.532619 0.170913
O O5 0.226190 0.065738 0.145786
O O6 0.413742 0.232408 0.106418
O O7 0.522856 0.918889 0.317622
O O8 0.500000 0.000000 0.000000
O O9 0.427647 0.770451 0.596704
O O10 0.752526 0.698490 0.589338
O O11 0.056457 0.316116 0.198585
O O12 0.880882 0.142851 0.258647
O O13 0.152384 0.013006 0.431189
O O14 0.207129 0.510292 0.109477
O O15 0.500000 0.500000 0.000000
#
# Coordination Sequence:
#
# PCOD9105047 Si02
#       7
#     2   2   2   2   2   2   2
#     4  11  21  37  59  87 127 162 195 251 309 358
#     4  10  20  39  63  89 124 161 204 244 313 364
#     4  11  21  36  63  89 120 159 204 252 301 357
#     4   8  18  35  57  85 116 158 198 245 300 357
#     4   9  18  33  56  89 114 149 203 246 295 352
#     4  10  22  38  58  88 119 165 206 244 297 371
#     4  11  23  39  62  91 121 160 206 251 301 364
#
# _framework density 22.220451000000001
#
# number of rings (size 3 to 8) (size 9 to 14) (size 15 to 20)
#    0.000    2.000    1.429    2.143    0.000    6.286 
#    0.000    0.000    0.000    0.857    0.000    0.000 
#    0.000    0.000    0.000    0.000    0.000    0.000 
#
# Total GULP energy -78092.933031 kJ/mol
# GULP energy per Si atom -5578.066645 kJ/mol
# Density = 2.216988 g / cm^3
# Si number density = 22.220451 Si / 1000 Ang^3
#
#
#
# Elastic Constant Matrix: (Units=GPa)
#
#
# Indices 1 2 3 4 5 6 
#
# 1 161.0535 28.5321 60.0278 14.3647 -24.5330 -19.0248
# 2 28.5321 70.0120 25.0641 -4.3577 -7.0704 -8.9904
# 3 60.0278 25.0641 93.3842 8.1708 -12.6596 -5.5182
# 4 14.3647 -4.3577 8.1708 32.0892 -5.7838 -12.1257
# 5 -24.5330 -7.0704 -12.6596 -5.7838 42.8449 1.5238
# 6 -19.0248 -8.9904 -5.5182 -12.1257 1.5238 30.5851
#
#
#
# Elastic Compliance Matrix: (Units=1/GPa)
#
#
# Indices 1 2 3 4 5 6 
#
# 1 0.009329 -0.001260 -0.004873 -0.000981 0.003419 0.003994
# 2 -0.001260 0.017566 -0.003884 0.006590 0.001698 0.006207
# 3 -0.004873 -0.003884 0.015089 -0.003084 0.000707 -0.002709
# 4 -0.000981 0.006590 -0.003084 0.040339 0.004472 0.016540
# 5 0.003419 0.001698 0.000707 0.004472 0.026276 0.003218
# 6 0.003994 0.006207 -0.002709 0.016540 0.003218 0.042913
#
#
# Mechanical properties :
#
#
# Convention : Reuss Voigt Hill
#
# Bulk Modulus (GPa) = 45.55978 61.29971 53.42975
# Shear Modulus (GPa) = 27.95428 35.15888 31.55658
#
# Velocity S-wave (km/s) = 3.55074 3.98210 3.77259
# Velocity P-wave (km/s) = 6.11215 6.98497 6.56308
#
# Compressibility (1/GPa) = 0.02194918
#
# Stress axis : x y z
#
# Youngs Moduli (GPa) = 107.19532 56.92766 66.27330
#
# Poissons Ratio (x) = 0.07173 0.32295
# Poissons Ratio (y) = 0.13508 0.25743
# Poissons Ratio (z) = 0.52236 0.22112
#
# Static dielectric constant tensor:
#      x y z
#    x 1.909710 -0.057180 -0.031970 
#    y -0.057180 1.833170 -0.022910 
#    z -0.031970 -0.022910 1.835240 
# 
# From -- ./inp_files/157347.got.cif
#   From: 2010.05.17/outbox.cif.g08.bks.cpg/sg2_79_cif.got.tgz:157347.got - 2010.06.03 11:33:40.
