data_PCOD9105917
_publ_section_title
;
Structure prediction by ZEFSAII (Michael W. Deem and Ramdas Pophale) SiO2 
 PCOD9105917
Probable space group: P -1
;
_chemical_formula_sum "Si O2"
_cell_formula_units_Z 16
_cell_length_a 25.733732
_cell_length_b 9.073300
_cell_length_c 9.237937
_cell_angle_alpha 108.522770
_cell_angle_beta 41.550728
_cell_angle_gamma 139.223378
_cell_volume 764.566204
_symmetry_space_group_name_H-M "P -1"
_symmetry_group_IT_number 2
_symmetry_cell_setting 'triclinic'
loop_
_space_group_symop_operation_xyz
x,y,z
-x,-y,-z
loop_
_atom_site_type_symbol
_atom_site_label
_atom_site_fract_x
_atom_site_fract_y
_atom_site_fract_z
Si Si1 0.812473 0.581447 0.370326
Si Si2 0.819167 0.143603 0.914875
Si Si3 0.778800 0.245037 0.536859
Si Si4 0.464477 0.688828 0.091304
Si Si5 0.777140 0.962840 0.256754
Si Si6 0.468610 0.398899 0.797023
Si Si7 0.921933 0.586001 0.641532
Si Si8 0.098558 0.178812 0.047425
O O1 0.831011 0.447045 0.367272
O O2 0.661439 0.398762 0.667693
O O3 0.833132 0.618444 0.166490
O O4 0.934139 0.893388 0.272295
O O5 0.879753 0.400460 0.800989
O O6 0.914554 0.165563 0.651718
O O7 0.830761 0.143516 0.062096
O O8 0.659992 0.864815 0.112739
O O9 0.847882 0.403443 0.593872
O O10 0.804739 0.110787 0.388705
O O11 0.612725 0.992297 0.821263
O O12 0.491683 0.666258 0.187980
O O13 0.426319 0.480698 0.003907
O O14 0.610277 0.670702 0.503122
O O15 0.841553 0.897098 0.102907
O O16 0.880129 0.689499 0.809727
#
# Coordination Sequence:
#
# PCOD9105917 Si02
#       8
#     2   2   2   2   2   2   2   2
#     4  11  23  41  66  93 128 168 213 259 316 373
#     4  11  23  41  66  93 128 168 213 259 316 373
#     4  11  24  43  68  95 127 167 212 261 316 379
#     4  10  20  39  66  94 126 166 212 261 316 374
#     4  11  24  43  68  95 127 167 212 261 316 379
#     4  10  20  39  66  94 126 166 212 261 316 374
#     4  11  25  42  64  96 132 167 209 262 315 374
#     4  11  25  42  64  96 132 167 209 262 315 374
#
# _framework density 20.926898999999999
#
# number of rings (size 3 to 8) (size 9 to 14) (size 15 to 20)
#    0.000    1.250    2.500    3.000    0.000    9.000 
#    0.000    3.750    0.000    0.000    0.000    0.000 
#    0.000    0.000    0.000    0.000    0.000    0.000 
#
# Total GULP energy -89455.188892 kJ/mol
# GULP energy per Si atom -5590.949306 kJ/mol
# Density = 2.087927 g / cm^3
# Si number density = 20.926899 Si / 1000 Ang^3
#
#
#
# Elastic Constant Matrix: (Units=GPa)
#
#
# Indices 1 2 3 4 5 6 
#
# 1 64.1194 26.5659 40.9646 14.5920 9.1443 -6.5479
# 2 26.5659 70.2611 54.5493 30.7984 -5.6687 1.5781
# 3 40.9646 54.5493 105.0750 10.5760 2.3654 -3.2415
# 4 14.5920 30.7984 10.5760 32.8586 -8.4190 1.6499
# 5 9.1443 -5.6687 2.3654 -8.4190 34.1399 -5.3390
# 6 -6.5479 1.5781 -3.2415 1.6499 -5.3390 27.3137
#
#
#
# Elastic Compliance Matrix: (Units=1/GPa)
#
#
# Indices 1 2 3 4 5 6 
#
# 1 0.025131 0.003196 -0.009815 -0.013290 -0.008192 0.003877
# 2 0.003196 0.046512 -0.021578 -0.038324 -0.001473 -0.002455
# 3 -0.009815 -0.021578 0.022745 0.017725 0.001984 0.000910
# 4 -0.013290 -0.038324 0.017725 0.069943 0.013134 -0.000526
# 5 -0.008192 -0.001473 0.001984 0.013134 0.035032 0.004411
# 6 0.003877 -0.002455 0.000910 -0.000526 0.004411 0.038685
#
#
# Mechanical properties :
#
#
# Convention : Reuss Voigt Hill
#
# Bulk Modulus (GPa) = 26.31987 53.73503 40.02745
# Shear Modulus (GPa) = 16.28095 26.68748 21.48421
#
# Velocity S-wave (km/s) = 2.79228 3.57497 3.20758
# Velocity P-wave (km/s) = 4.79584 6.54017 5.73471
#
# Compressibility (1/GPa) = 0.03799410
#
# Stress axis : x y z
#
# Youngs Moduli (GPa) = 39.79133 21.49964 43.96609
#
# Poissons Ratio (x) = -0.06870 0.43152
# Poissons Ratio (y) = -0.12716 0.94869
# Poissons Ratio (z) = 0.39055 0.46391
#
# Static dielectric constant tensor:
#      x y z
#    x 1.742390 -0.009100 0.012680 
#    y -0.009100 1.741320 -0.005320 
#    z 0.012680 -0.005320 1.752310 
# 
# From -- ./inp_files/356619.got.cif
#   From: 2010.05.17/outbox.cif.g08.bks.cpg/sg2_179_cif.got.tgz:356619.got - 2010.06.03 11:33:40.
