data_PCOD9105587
_publ_section_title
;
Structure prediction by ZEFSAII (Michael W. Deem and Ramdas Pophale) SiO2 
 PCOD9105587
Probable space group: P -1
;
_chemical_formula_sum "Si O2"
_cell_formula_units_Z 16
_cell_length_a 13.521269
_cell_length_b 5.146596
_cell_length_c 14.815399
_cell_angle_alpha 114.752579
_cell_angle_beta 131.336485
_cell_angle_gamma 52.965914
_cell_volume 617.575477
_symmetry_space_group_name_H-M "P -1"
_symmetry_group_IT_number 2
_symmetry_cell_setting 'triclinic'
loop_
_space_group_symop_operation_xyz
x,y,z
-x,-y,-z
loop_
_atom_site_type_symbol
_atom_site_label
_atom_site_fract_x
_atom_site_fract_y
_atom_site_fract_z
Si Si1 0.396364 0.833838 0.932953
Si Si2 0.783796 0.207644 0.554176
Si Si3 0.492926 0.712506 0.401269
Si Si4 0.407376 0.313247 0.742214
Si Si5 0.747038 0.861300 0.937105
Si Si6 0.176969 0.856862 0.148817
Si Si7 0.121460 0.239420 0.604217
Si Si8 0.932518 0.634728 0.704722
O O1 0.367763 0.676259 0.804156
O O2 0.500000 0.500000 0.000000
O O3 0.500000 0.000000 0.000000
O O4 0.256970 0.048488 0.946323
O O5 0.604917 0.374444 0.467221
O O6 0.833604 0.469850 0.654249
O O7 0.849496 0.094025 0.475850
O O8 0.849514 0.905642 0.616899
O O9 0.573350 0.696128 0.353222
O O10 0.330054 0.767395 0.284054
O O11 0.500000 0.000000 0.500000
O O12 0.274689 0.252299 0.685645
O O13 0.567395 0.029394 0.833615
O O14 0.828030 0.478316 0.911035
O O15 0.803799 0.030167 0.922715
O O16 0.051257 0.159233 0.173417
O O17 0.000000 0.500000 0.500000
O O18 0.069402 0.349645 0.691076
#
# Coordination Sequence:
#
# PCOD9105587 Si02
#       8
#     2   2   2   2   2   2   2   2
#     4  10  20  39  65  91 119 150 197 258 318 362
#     4  11  22  39  55  82 117 166 213 248 291 341
#     4  11  21  34  56  86 124 155 192 247 301 367
#     4  10  22  39  61  92 121 160 204 247 310 362
#     4  10  21  39  61  89 117 148 196 264 312 363
#     4  11  22  36  57  87 119 156 198 239 317 362
#     4  10  22  39  59  83 124 168 214 247 282 350
#     4  11  23  38  57  81 117 168 208 247 288 354
#
# _framework density 25.907767
#
# number of rings (size 3 to 8) (size 9 to 14) (size 15 to 20)
#    0.000    1.500    1.250    5.625    1.750    3.500 
#    0.000    0.000    0.000    1.500    0.000    0.000 
#    0.000    0.000    0.000    0.000    0.000    0.000 
#
# Total GULP energy -89631.736142 kJ/mol
# GULP energy per Si atom -5601.983509 kJ/mol
# Density = 2.584880 g / cm^3
# Si number density = 25.907767 Si / 1000 Ang^3
#
#
#
# Elastic Constant Matrix: (Units=GPa)
#
#
# Indices 1 2 3 4 5 6 
#
# 1 76.4242 14.6688 27.6485 2.6582 -18.2918 -7.7775
# 2 14.6688 116.4459 42.0579 23.8953 -1.1560 3.1155
# 3 27.6485 42.0579 117.8528 28.9211 -19.4166 -13.3190
# 4 2.6582 23.8953 28.9211 54.2590 -14.4392 -5.9181
# 5 -18.2918 -1.1560 -19.4166 -14.4392 47.1468 12.4681
# 6 -7.7775 3.1155 -13.3190 -5.9181 12.4681 50.7241
#
#
#
# Elastic Compliance Matrix: (Units=1/GPa)
#
#
# Indices 1 2 3 4 5 6 
#
# 1 0.015730 -0.001522 -0.002879 0.003006 0.005610 0.000721
# 2 -0.001522 0.010691 -0.003094 -0.003780 -0.002346 -0.001567
# 3 -0.002879 -0.003094 0.011793 -0.004065 0.001917 0.001900
# 4 0.003006 -0.003780 -0.004065 0.023937 0.006514 0.000817
# 5 0.005610 -0.002346 0.001917 0.006514 0.027288 -0.004440
# 6 0.000721 -0.001567 0.001900 0.000817 -0.004440 0.021607
#
#
# Mechanical properties :
#
#
# Convention : Reuss Voigt Hill
#
# Bulk Modulus (GPa) = 43.06025 53.27480 48.16753
# Shear Modulus (GPa) = 37.37548 45.51580 41.44564
#
# Velocity S-wave (km/s) = 3.80233 4.19601 4.00401
# Velocity P-wave (km/s) = 5.99446 6.63952 6.32522
#
# Compressibility (1/GPa) = 0.02322327
#
# Stress axis : x y z
#
# Youngs Moduli (GPa) = 63.57242 93.53427 84.79736
#
# Poissons Ratio (x) = 0.14237 0.24413
# Poissons Ratio (y) = 0.09676 0.26239
# Poissons Ratio (z) = 0.18303 0.28943
#
# Static dielectric constant tensor:
#      x y z
#    x 2.012730 -0.066670 -0.035970 
#    y -0.066670 2.021830 -0.016690 
#    z -0.035970 -0.016690 2.111530 
# 
# From -- ./inp_files/526006.got.cif
#   From: 2010.05.17/outbox.cif.g08.bks.cpg/sg2_264_cif.got.tgz:526006.got - 2010.06.03 11:33:40.
