data_PCOD9105325
_publ_section_title
;
Structure prediction by ZEFSAII (Michael W. Deem and Ramdas Pophale) SiO2 
 PCOD9105325
Probable space group: P -1
;
_chemical_formula_sum "Si O2"
_cell_formula_units_Z 12
_cell_length_a 19.764186
_cell_length_b 10.454703
_cell_length_c 8.085981
_cell_angle_alpha 63.465593
_cell_angle_beta 142.847171
_cell_angle_gamma 143.892024
_cell_volume 495.039352
_symmetry_space_group_name_H-M "P -1"
_symmetry_group_IT_number 2
_symmetry_cell_setting 'triclinic'
loop_
_space_group_symop_operation_xyz
x,y,z
-x,-y,-z
loop_
_atom_site_type_symbol
_atom_site_label
_atom_site_fract_x
_atom_site_fract_y
_atom_site_fract_z
Si Si1 0.808605 0.105074 0.809811
Si Si2 0.663810 0.755775 0.281293
Si Si3 0.925444 0.910867 0.216525
Si Si4 0.455583 0.070591 0.135481
Si Si5 0.431721 0.679760 0.120513
Si Si6 0.189958 0.634657 0.093843
O O1 0.849875 0.255420 0.955975
O O2 0.582995 0.899904 0.425614
O O3 0.979728 0.325042 0.878206
O O4 0.823850 0.955253 0.964536
O O5 0.561818 0.683492 0.298153
O O6 0.500000 0.500000 0.000000
O O7 0.676448 0.924102 0.122416
O O8 0.873291 0.895791 0.612906
O O9 0.780666 0.619391 0.076918
O O10 0.000000 0.000000 0.500000
O O11 0.633086 0.252238 0.515305
O O12 0.286658 0.771763 0.025249
O O13 0.570354 0.212708 0.100824
#
# Coordination Sequence:
#
# PCOD9105325 Si02
#       6
#     2   2   2   2   2   2
#     4  11  24  40  60  95 122 160 211 247 308 360
#     4  10  20  39  64  90 121 161 200 253 302 366
#     4  12  21  40  68  90 122 163 202 251 312 365
#     4   9  21  41  60  92 117 165 211 240 309 358
#     4  10  24  41  61  99 121 155 206 263 303 353
#     4  10  21  41  65  82 126 172 199 248 296 378
#
# _framework density 24.240497999999999
#
# number of rings (size 3 to 8) (size 9 to 14) (size 15 to 20)
#    1.000    0.667    1.667    3.500    0.000    3.333 
#    6.000    0.000    0.000    0.000    0.000    0.000 
#    0.000    0.000    0.000    0.000    0.000    0.000 
#
# Total GULP energy -67045.120350 kJ/mol
# GULP energy per Si atom -5587.093362 kJ/mol
# Density = 2.418533 g / cm^3
# Si number density = 24.240498 Si / 1000 Ang^3
#
#
#
# Elastic Constant Matrix: (Units=GPa)
#
#
# Indices 1 2 3 4 5 6 
#
# 1 39.4715 6.3929 -4.2227 5.3009 19.8462 2.2425
# 2 6.3929 152.7043 47.0311 11.6703 -12.4925 10.0467
# 3 -4.2227 47.0311 77.4819 -2.8662 6.2899 4.0479
# 4 5.3009 11.6703 -2.8662 45.0928 -5.1442 7.2064
# 5 19.8462 -12.4925 6.2899 -5.1442 24.9221 8.1446
# 6 2.2425 10.0467 4.0479 7.2064 8.1446 25.2573
#
#
#
# Elastic Compliance Matrix: (Units=1/GPa)
#
#
# Indices 1 2 3 4 5 6 
#
# 1 0.072613 -0.016109 0.018367 -0.017354 -0.083566 0.028916
# 2 -0.016109 0.013066 -0.010247 0.002664 0.026220 -0.011340
# 3 0.018367 -0.010247 0.021889 -0.002851 -0.028832 0.009048
# 4 -0.017354 0.002664 -0.002851 0.029010 0.027119 -0.016084
# 5 -0.083566 0.026220 -0.028832 0.027119 0.150557 -0.054676
# 6 0.028916 -0.011340 0.009048 -0.016084 -0.054676 0.062306
#
#
# Mechanical properties :
#
#
# Convention : Reuss Voigt Hill
#
# Bulk Modulus (GPa) = 10.91812 40.89560 25.90686
# Shear Modulus (GPa) = 12.62783 33.75154 23.18968
#
# Velocity S-wave (km/s) = 2.28489 3.73548 3.09633
# Velocity P-wave (km/s) = 3.38745 5.95924 4.84703
#
# Compressibility (1/GPa) = 0.09159084
#
# Stress axis : x y z
#
# Youngs Moduli (GPa) = 13.77155 76.53238 45.68445
#
# Poissons Ratio (x) = 1.23288 -0.83908
# Poissons Ratio (y) = 0.22185 0.46811
# Poissons Ratio (z) = -0.25294 0.78420
#
# Static dielectric constant tensor:
#      x y z
#    x 2.035590 -0.001010 -0.038500 
#    y -0.001010 1.960590 0.037570 
#    z -0.038500 0.037570 1.944680 
# 
# From -- ./inp_files/194887.got.cif
#   From: 2010.05.17/outbox.cif.g08.bks.cpg/sg2_98_cif.got.tgz:194887.got - 2010.06.03 11:33:40.
