data_PCOD9105412
_publ_section_title
;
Structure prediction by ZEFSAII (Michael W. Deem and Ramdas Pophale) SiO2 
 PCOD9105412
Probable space group: P -1
;
_chemical_formula_sum "Si O2"
_cell_formula_units_Z 16
_cell_length_a 13.650406
_cell_length_b 10.651603
_cell_length_c 19.979275
_cell_angle_alpha 27.348939
_cell_angle_beta 140.027882
_cell_angle_gamma 139.253174
_cell_volume 827.725261
_symmetry_space_group_name_H-M "P -1"
_symmetry_group_IT_number 2
_symmetry_cell_setting 'triclinic'
loop_
_space_group_symop_operation_xyz
x,y,z
-x,-y,-z
loop_
_atom_site_type_symbol
_atom_site_label
_atom_site_fract_x
_atom_site_fract_y
_atom_site_fract_z
Si Si1 0.152008 0.456993 0.640183
Si Si2 0.672522 0.910031 0.589970
Si Si3 0.884203 0.500810 0.877177
Si Si4 0.620663 0.070257 0.634770
Si Si5 0.918219 0.599039 0.093335
Si Si6 0.036614 0.740090 0.232095
Si Si7 0.367539 0.071648 0.945902
Si Si8 0.554274 0.511204 0.946217
O O1 0.246044 0.231344 0.771659
O O2 0.000000 0.500000 0.500000
O O3 0.086752 0.361333 0.725105
O O4 0.273932 0.762968 0.557736
O O5 0.809119 0.762419 0.718463
O O6 0.513472 0.777536 0.528176
O O7 0.643038 0.906628 0.655525
O O8 0.983769 0.520868 0.852551
O O9 0.000000 0.500000 0.000000
O O10 0.741614 0.217330 0.943517
O O11 0.789480 0.270415 0.648351
O O12 0.566045 0.828895 0.775850
O O13 0.980504 0.581801 0.208816
O O14 0.731027 0.472419 0.052917
O O15 0.947639 0.929505 0.931412
O O16 0.447812 0.283561 0.947637
O O17 0.500000 0.000000 0.000000
O O18 0.500000 0.500000 0.000000
#
# Coordination Sequence:
#
# PCOD9105412 Si02
#       8
#     2   2   2   2   2   2   2   2
#     4  12  22  39  65  97 125 170 219 265 324 398
#     4  11  23  39  64  94 133 168 208 273 332 392
#     4  12  24  42  64  96 132 169 213 276 336 388
#     4  10  21  39  63  90 129 165 214 259 326 381
#     4  10  22  39  64  92 128 161 216 267 331 370
#     4  10  20  39  64  94 119 168 216 268 309 402
#     4  12  25  41  66 100 132 168 225 279 324 385
#     4  11  23  41  68  96 129 171 221 272 320 396
#
# _framework density 19.330083999999999
#
# number of rings (size 3 to 8) (size 9 to 14) (size 15 to 20)
#    0.000    1.000    3.750    4.500    5.250    0.000 
#    0.000    1.250    2.750    0.000    0.000    0.000 
#    0.000    0.000    0.000    0.000    0.000    0.000 
#
# Total GULP energy -89390.322472 kJ/mol
# GULP energy per Si atom -5586.895155 kJ/mol
# Density = 1.928609 g / cm^3
# Si number density = 19.330084 Si / 1000 Ang^3
#
#
#
# Elastic Constant Matrix: (Units=GPa)
#
#
# Indices 1 2 3 4 5 6 
#
# 1 154.5859 34.4758 47.2585 16.7212 0.9298 -1.7595
# 2 34.4758 73.4470 11.8428 24.6679 -1.2796 3.3823
# 3 47.2585 11.8428 67.8900 16.4325 10.5358 -1.0533
# 4 16.7212 24.6679 16.4325 38.9156 9.2613 -2.8902
# 5 0.9298 -1.2796 10.5358 9.2613 39.8482 -0.6193
# 6 -1.7595 3.3823 -1.0533 -2.8902 -0.6193 24.8742
#
#
#
# Elastic Compliance Matrix: (Units=1/GPa)
#
#
# Indices 1 2 3 4 5 6 
#
# 1 0.009014 -0.003525 -0.005986 0.000697 0.001112 0.000972
# 2 -0.003525 0.019486 0.001538 -0.012550 0.003153 -0.004214
# 3 -0.005986 0.001538 0.020737 -0.006288 -0.003841 -0.000581
# 4 0.000697 -0.012550 -0.006288 0.038232 -0.007553 0.005744
# 5 0.001112 0.003153 -0.003841 -0.007553 0.027931 -0.000695
# 6 0.000972 -0.004214 -0.000581 0.005744 -0.000695 0.041470
#
#
# Mechanical properties :
#
#
# Convention : Reuss Voigt Hill
#
# Bulk Modulus (GPa) = 30.03850 53.67522 41.85686
# Shear Modulus (GPa) = 27.18671 34.21731 30.70201
#
# Velocity S-wave (km/s) = 3.75433 4.21189 3.98967
# Velocity P-wave (km/s) = 5.86232 7.17505 6.55165
#
# Compressibility (1/GPa) = 0.03329061
#
# Stress axis : x y z
#
# Youngs Moduli (GPa) = 110.93725 51.31897 48.22193
#
# Poissons Ratio (x) = 0.18092 0.28865
# Poissons Ratio (y) = 0.39109 -0.07416
# Poissons Ratio (z) = 0.66406 -0.07892
#
# Static dielectric constant tensor:
#      x y z
#    x 1.680640 0.039470 0.005150 
#    y 0.039470 1.717410 0.015280 
#    z 0.005150 0.015280 1.689550 
# 
# From -- ./inp_files/256341.got.cif
#   From: 2010.05.17/outbox.cif.g08.bks.cpg/sg2_129_cif.got.tgz:256341.got - 2010.06.03 11:33:40.
