data_PCOD9105829
_publ_section_title
;
Structure prediction by ZEFSAII (Michael W. Deem and Ramdas Pophale) SiO2 
 PCOD9105829
Probable space group: P -1
;
_chemical_formula_sum "Si O2"
_cell_formula_units_Z 16
_cell_length_a 22.773832
_cell_length_b 15.446201
_cell_length_c 7.581545
_cell_angle_alpha 66.499844
_cell_angle_beta 109.083228
_cell_angle_gamma 163.791906
_cell_volume 666.161415
_symmetry_space_group_name_H-M "P -1"
_symmetry_group_IT_number 2
_symmetry_cell_setting 'triclinic'
loop_
_space_group_symop_operation_xyz
x,y,z
-x,-y,-z
loop_
_atom_site_type_symbol
_atom_site_label
_atom_site_fract_x
_atom_site_fract_y
_atom_site_fract_z
Si Si1 0.796532 0.380386 0.626906
Si Si2 0.881512 0.212179 0.080091
Si Si3 0.149201 0.646645 0.640806
Si Si4 0.248876 0.173839 0.829208
Si Si5 0.794240 0.558249 0.698197
Si Si6 0.470560 0.143475 0.986866
Si Si7 0.762189 0.696597 0.012449
Si Si8 0.430467 0.618349 0.560583
O O1 0.003299 0.363042 0.258866
O O2 0.818658 0.392836 0.431907
O O3 0.772318 0.452859 0.602083
O O4 0.599547 0.029891 0.787301
O O5 0.040124 0.453364 0.871017
O O6 0.744317 0.107165 0.050568
O O7 0.727248 0.901142 0.122149
O O8 0.000000 0.500000 0.500000
O O9 0.360963 0.018386 0.576571
O O10 0.242733 0.202475 0.003428
O O11 0.422450 0.493316 0.640593
O O12 0.013926 0.858442 0.774619
O O13 0.767377 0.622698 0.539576
O O14 0.589129 0.249283 0.876574
O O15 0.644186 0.480973 0.905609
O O16 0.620469 0.443148 0.234198
O O17 0.000000 0.000000 0.000000
#
# Coordination Sequence:
#
# PCOD9105829 Si02
#       8
#     2   2   2   2   2   2   2   2
#     4  11  24  43  65 100 139 171 226 273 338 395
#     4  11  25  43  72  99 138 176 223 276 339 397
#     4  12  24  44  69 100 136 178 223 281 330 399
#     4   9  22  43  65  96 133 172 224 273 331 403
#     4  11  23  39  69  97 134 172 225 278 332 397
#     4  12  21  42  65  98 134 180 217 274 343 397
#     4  10  20  39  66  89 132 174 220 271 330 393
#     4  10  22  42  66  92 135 171 224 275 325 399
#
# _framework density 24.018201999999999
#
# number of rings (size 3 to 8) (size 9 to 14) (size 15 to 20)
#    0.750    0.500    3.750    1.875    1.750    3.000 
#    0.000    1.875    0.000    0.000    0.000    0.000 
#    0.000    0.000    0.000    0.000    0.000    0.000 
#
# Total GULP energy -89262.950756 kJ/mol
# GULP energy per Si atom -5578.934422 kJ/mol
# Density = 2.396354 g / cm^3
# Si number density = 24.018202 Si / 1000 Ang^3
#
#
#
# Elastic Constant Matrix: (Units=GPa)
#
#
# Indices 1 2 3 4 5 6 
#
# 1 65.2956 28.4041 40.3598 7.7483 -28.3579 -35.8179
# 2 28.4041 79.1515 17.7113 -19.7520 -1.9389 -17.8523
# 3 40.3598 17.7113 61.6313 -4.6644 -11.6796 -13.4573
# 4 7.7483 -19.7520 -4.6644 17.0787 2.7040 3.6007
# 5 -28.3579 -1.9389 -11.6796 2.7040 34.5787 -1.0542
# 6 -35.8179 -17.8523 -13.4573 3.6007 -1.0542 41.6275
#
#
#
# Elastic Compliance Matrix: (Units=1/GPa)
#
#
# Indices 1 2 3 4 5 6 
#
# 1 -0.053588 0.023547 0.017229 0.071087 -0.043515 -0.037691
# 2 0.023547 0.009499 -0.010716 -0.010103 0.017691 0.022192
# 3 0.017229 -0.010716 0.013930 -0.023305 0.020583 0.017269
# 4 0.071087 -0.010103 -0.023305 -0.010898 0.052284 0.051565
# 5 -0.043515 0.017691 0.020583 0.052284 -0.003760 -0.027819
# 6 -0.037691 0.022192 0.017269 0.051565 -0.027819 0.001527
#
#
# Mechanical properties :
#
#
# Convention : Reuss Voigt Hill
#
# Bulk Modulus (GPa) = 33.37605 42.11430 37.74518
# Shear Modulus (GPa) = -53.52088 26.63052 -13.44518
#
# Velocity S-wave (km/s) = -4.72566 3.33342 -2.36856
# Velocity P-wave (km/s) = 3.98114 5.69105 2.87563
#
# Compressibility (1/GPa) = 0.02996160
#
# Stress axis : x y z
#
# Youngs Moduli (GPa) = -18.66107 105.27122 71.78673
#
# Poissons Ratio (x) = -2.47886 -1.23680
# Poissons Ratio (y) = 0.43942 0.76930
# Poissons Ratio (z) = 0.32151 1.12813
#
# Static dielectric constant tensor:
#      x y z
#    x 1.848970 0.105620 0.107170 
#    y 0.105620 1.820150 -0.162040 
#    z 0.107170 -0.162040 1.701010 
# 
# From -- ./inp_files/347542.got.cif
#   From: 2010.05.17/outbox.cif.g08.bks.cpg/sg2_174_cif.got.tgz:347542.got - 2010.06.03 11:33:40.
