data_PCOD9105131
_publ_section_title
;
Structure prediction by ZEFSAII (Michael W. Deem and Ramdas Pophale) SiO2 
 PCOD9105131
Probable space group: P -1
;
_chemical_formula_sum "Si O2"
_cell_formula_units_Z 14
_cell_length_a 5.158603
_cell_length_b 22.908368
_cell_length_c 9.533716
_cell_angle_alpha 43.360257
_cell_angle_beta 131.962432
_cell_angle_gamma 125.298218
_cell_volume 565.836782
_symmetry_space_group_name_H-M "P -1"
_symmetry_group_IT_number 2
_symmetry_cell_setting 'triclinic'
loop_
_space_group_symop_operation_xyz
x,y,z
-x,-y,-z
loop_
_atom_site_type_symbol
_atom_site_label
_atom_site_fract_x
_atom_site_fract_y
_atom_site_fract_z
Si Si1 0.087037 0.445969 0.961133
Si Si2 0.647362 0.590297 0.604799
Si Si3 0.042467 0.689038 0.326571
Si Si4 0.957027 0.281101 0.037108
Si Si5 0.497398 0.180511 0.526910
Si Si6 0.522556 0.854290 0.749390
Si Si7 0.020200 0.013900 0.649027
O O1 0.760288 0.497468 0.771465
O O2 0.500000 0.500000 0.000000
O O3 0.085833 0.389708 0.201041
O O4 0.012045 0.381416 0.918603
O O5 0.293871 0.619135 0.489590
O O6 0.750859 0.639641 0.412286
O O7 0.238631 0.765679 0.362425
O O8 0.946577 0.725539 0.078799
O O9 0.587640 0.219419 0.045852
O O10 0.194272 0.239402 0.305891
O O11 0.547992 0.176952 0.382594
O O12 0.377941 0.079802 0.702633
O O13 0.262589 0.924411 0.535653
O O14 0.892433 0.915783 0.821955
O O15 0.000000 0.000000 0.500000
#
# Coordination Sequence:
#
# PCOD9105131 Si02
#       7
#     2   2   2   2   2   2   2
#     4  11  22  45  70  92 126 173 218 270 325 381
#     4  11  24  45  64  92 132 167 217 269 321 385
#     4  12  26  43  64  98 132 171 217 263 324 385
#     4  11  24  39  64  95 126 171 213 271 318 384
#     4  10  20  39  63  92 129 171 211 265 318 382
#     4   9  18  36  63  93 125 167 214 259 318 383
#     4   8  16  33  62  93 123 165 212 258 316 376
#
# _framework density 24.742117
#
# number of rings (size 3 to 8) (size 9 to 14) (size 15 to 20)
#    0.000    1.714    2.857    0.857    4.000    2.286 
#    0.000    0.714    0.000   29.143    0.000    0.000 
#    0.000    0.000    0.000    0.000    0.000    0.000 
#
# Total GULP energy -77938.398591 kJ/mol
# GULP energy per Si atom -5567.028471 kJ/mol
# Density = 2.468580 g / cm^3
# Si number density = 24.742117 Si / 1000 Ang^3
#
#
#
# Elastic Constant Matrix: (Units=GPa)
#
#
# Indices 1 2 3 4 5 6 
#
# 1 97.3414 34.6354 23.0296 -6.9637 -15.2949 -17.9936
# 2 34.6354 143.5188 33.0928 7.4524 -4.6485 -20.0287
# 3 23.0296 33.0928 109.1011 3.8962 -18.0676 8.5929
# 4 -6.9637 7.4524 3.8962 30.3889 -5.7295 3.2378
# 5 -15.2949 -4.6485 -18.0676 -5.7295 35.2608 -2.1782
# 6 -17.9936 -20.0287 8.5929 3.2378 -2.1782 35.9015
#
#
#
# Elastic Compliance Matrix: (Units=1/GPa)
#
#
# Indices 1 2 3 4 5 6 
#
# 1 0.013851 -0.002054 -0.001984 0.004365 0.005815 0.006230
# 2 -0.002054 0.008879 -0.002747 -0.003055 -0.001329 0.004776
# 3 -0.001984 -0.002747 0.011538 0.000104 0.004396 -0.005031
# 4 0.004365 -0.003055 0.000104 0.036270 0.007291 -0.002371
# 5 0.005815 -0.001329 0.004396 0.007291 0.034301 0.002544
# 6 0.006230 0.004776 -0.005031 -0.002371 0.002544 0.035213
#
#
# Mechanical properties :
#
#
# Convention : Reuss Voigt Hill
#
# Bulk Modulus (GPa) = 48.31406 59.05298 53.68352
# Shear Modulus (GPa) = 31.14831 37.59048 34.36939
#
# Velocity S-wave (km/s) = 3.55197 3.90204 3.73111
# Velocity P-wave (km/s) = 6.03253 6.64984 6.34870
#
# Compressibility (1/GPa) = 0.02069791
#
# Stress axis : x y z
#
# Youngs Moduli (GPa) = 72.19733 112.62614 86.66769
#
# Poissons Ratio (x) = 0.23133 0.17198
# Poissons Ratio (y) = 0.14829 0.23806
# Poissons Ratio (z) = 0.14327 0.30937
#
# Static dielectric constant tensor:
#      x y z
#    x 1.809110 0.285980 -0.100330 
#    y 0.285980 1.921960 -0.000280 
#    z -0.100330 -0.000280 1.943630 
# 
# From -- ./inp_files/42384.got.cif
#   From: 2010.05.17/outbox.cif.g08.bks.cpg/sg2_22_cif.got.tgz:42384.got - 2010.06.03 11:33:40.
