data_PCOD9105113
_publ_section_title
;
Structure prediction by ZEFSAII (Michael W. Deem and Ramdas Pophale) SiO2 
 PCOD9105113
Probable space group: P -1
;
_chemical_formula_sum "Si O2"
_cell_formula_units_Z 15
_cell_length_a 10.533921
_cell_length_b 8.942263
_cell_length_c 11.712495
_cell_angle_alpha 115.347069
_cell_angle_beta 101.796248
_cell_angle_gamma 41.494139
_cell_volume 648.038198
_symmetry_space_group_name_H-M "P -1"
_symmetry_group_IT_number 2
_symmetry_cell_setting 'triclinic'
loop_
_space_group_symop_operation_xyz
x,y,z
-x,-y,-z
loop_
_atom_site_type_symbol
_atom_site_label
_atom_site_fract_x
_atom_site_fract_y
_atom_site_fract_z
Si Si1 0.926612 0.979756 0.866650
Si Si2 0.213299 0.168217 0.059241
Si Si3 0.088011 0.744122 0.582091
Si Si4 0.588382 0.816254 0.562091
Si Si5 0.920793 0.712741 0.168882
Si Si6 0.767974 0.081703 0.457936
Si Si7 0.564702 0.803748 0.149284
Si Si8 0.500000 0.500000 0.000000
O O1 0.887647 0.830056 0.854250
O O2 0.713235 0.262461 0.899166
O O3 0.062893 0.841048 0.736036
O O4 0.000000 0.000000 0.000000
O O5 0.134310 0.429367 0.120572
O O6 0.441176 0.925275 0.047705
O O7 0.141454 0.157049 0.923057
O O8 0.198885 0.463426 0.510671
O O9 0.208065 0.752803 0.523235
O O10 0.872937 0.946257 0.552900
O O11 0.443783 0.797417 0.545640
O O12 0.500000 0.000000 0.500000
O O13 0.565112 0.962766 0.711739
O O14 0.768360 0.705894 0.152634
O O15 0.891685 0.865394 0.314819
O O16 0.585291 0.590626 0.105905
#
# Coordination Sequence:
#
# PCOD9105113 Si02
#       8
#     2   2   2   2   2   2   2   1
#     4  11  24  39  66  96 132 178 221 284 338 402
#     4  10  21  36  61  91 127 167 221 272 330 402
#     4  11  25  45  69 101 140 183 234 282 345 410
#     4  11  26  42  72 100 139 184 231 287 343 408
#     4  10  20  39  63  91 131 173 221 271 340 402
#     4  10  24  44  67 100 137 183 228 287 343 411
#     4  10  22  41  62  95 127 174 218 279 334 399
#     4  10  24  42  62  96 136 164 226 276 344 394
#
# _framework density 23.146782999999999
#
# number of rings (size 3 to 8) (size 9 to 14) (size 15 to 20)
#    0.000    1.600    0.000    3.200    9.333    1.600 
#    0.000   10.667    0.000    0.000    0.000    0.000 
#    0.000    0.000    0.000    0.000    0.000    0.000 
#
# Total GULP energy -83519.620100 kJ/mol
# GULP energy per Si atom -5567.974673 kJ/mol
# Density = 2.309410 g / cm^3
# Si number density = 23.146783 Si / 1000 Ang^3
#
#
#
# Elastic Constant Matrix: (Units=GPa)
#
#
# Indices 1 2 3 4 5 6 
#
# 1 62.6672 9.1126 5.5697 -0.5766 8.8080 6.0534
# 2 9.1126 92.3759 43.1360 13.0751 -0.0444 -9.0820
# 3 5.5697 43.1360 75.7169 4.7877 -4.6259 -4.2923
# 4 -0.5766 13.0751 4.7877 36.3854 -3.7730 -3.4194
# 5 8.8080 -0.0444 -4.6259 -3.7730 31.2779 5.4045
# 6 6.0534 -9.0820 -4.2923 -3.4194 5.4045 12.5359
#
#
#
# Elastic Compliance Matrix: (Units=1/GPa)
#
#
# Indices 1 2 3 4 5 6 
#
# 1 0.017717 -0.002289 -0.000722 -0.000010 -0.003557 -0.008930
# 2 -0.002289 0.016720 -0.008681 -0.004232 -0.002914 0.010348
# 3 -0.000722 -0.008681 0.018294 0.000954 0.003145 -0.000772
# 4 -0.000010 -0.004232 0.000954 0.029570 0.003008 0.004035
# 5 -0.003557 -0.002914 0.003145 0.003008 0.036237 -0.014118
# 6 -0.008930 0.010348 -0.000772 0.004035 -0.014118 0.098502
#
#
# Mechanical properties :
#
#
# Convention : Reuss Voigt Hill
#
# Bulk Modulus (GPa) = 34.07528 38.48853 36.28191
# Shear Modulus (GPa) = 19.98368 27.56927 23.77648
#
# Velocity S-wave (km/s) = 2.94146 3.45492 3.20848
# Velocity P-wave (km/s) = 5.12734 5.70784 5.42536
#
# Compressibility (1/GPa) = 0.02934678
#
# Stress axis : x y z
#
# Youngs Moduli (GPa) = 56.44362 59.81011 54.66381
#
# Poissons Ratio (x) = 0.13688 0.03949
# Poissons Ratio (y) = 0.12918 0.47452
# Poissons Ratio (z) = 0.04077 0.51919
#
# Static dielectric constant tensor:
#      x y z
#    x 1.946220 0.034920 0.011720 
#    y 0.034920 1.884470 -0.040730 
#    z 0.011720 -0.040730 1.857660 
# 
# From -- ./inp_files/418189.got.cif
#   From: 2010.05.17/outbox.cif.g08.bks.cpg/sg2_210_cif.got.tgz:418189.got - 2010.06.03 11:33:40.
