data_PCOD9105267
_publ_section_title
;
Structure prediction by ZEFSAII (Michael W. Deem and Ramdas Pophale) SiO2 
 PCOD9105267
Probable space group: P -1
;
_chemical_formula_sum "Si O2"
_cell_formula_units_Z 16
_cell_length_a 9.369169
_cell_length_b 15.816426
_cell_length_c 10.584043
_cell_angle_alpha 115.566702
_cell_angle_beta 76.276626
_cell_angle_gamma 51.365806
_cell_volume 768.081498
_symmetry_space_group_name_H-M "P -1"
_symmetry_group_IT_number 2
_symmetry_cell_setting 'triclinic'
loop_
_space_group_symop_operation_xyz
x,y,z
-x,-y,-z
loop_
_atom_site_type_symbol
_atom_site_label
_atom_site_fract_x
_atom_site_fract_y
_atom_site_fract_z
Si Si1 0.591682 0.895117 0.789106
Si Si2 0.048265 0.229134 0.016422
Si Si3 0.838590 0.487358 0.021758
Si Si4 0.671768 0.501133 0.454724
Si Si5 0.935815 0.075143 0.919017
Si Si6 0.535967 0.244214 0.541322
Si Si7 0.625670 0.681972 0.786234
Si Si8 0.060387 0.364742 0.638546
O O1 0.606929 0.780020 0.760922
O O2 0.854694 0.759327 0.560656
O O3 0.355123 0.045137 0.840334
O O4 0.500000 0.000000 0.000000
O O5 0.910779 0.200585 0.015633
O O6 0.961750 0.347340 0.003158
O O7 0.956862 0.320723 0.228731
O O8 0.548203 0.670811 0.249247
O O9 0.000000 0.500000 0.000000
O O10 0.884640 0.424087 0.831001
O O11 0.500000 0.500000 0.500000
O O12 0.546488 0.630342 0.455624
O O13 0.661119 0.570057 0.623839
O O14 0.169696 0.934351 0.679182
O O15 0.660451 0.175440 0.998861
O O16 0.000000 0.000000 0.000000
O O17 0.332279 0.267040 0.568859
O O18 0.881988 0.542392 0.729938
#
# Coordination Sequence:
#
# PCOD9105267 Si02
#       8
#     2   2   2   2   2   2   2   2
#     4  12  25  37  62  98 130 155 203 267 324 366
#     4  11  21  37  62  95 120 161 217 250 302 372
#     4   9  23  40  63  88 121 173 217 248 297 371
#     4  11  19  33  61  90 120 162 201 251 313 379
#     4  12  19  39  61  97 125 156 197 263 315 371
#     4  10  20  39  64  87 123 160 210 254 300 368
#     4  12  24  38  62  92 135 159 196 261 332 367
#     4  11  22  44  60  87 129 170 200 255 313 367
#
# _framework density 20.831121
#
# number of rings (size 3 to 8) (size 9 to 14) (size 15 to 20)
#    0.000    1.000    6.250    1.125    5.250    0.500 
#    0.000    1.250    0.000    0.000    0.000    0.000 
#    0.000    0.000    0.000    0.000    0.000    0.000 
#
# Total GULP energy -89199.800872 kJ/mol
# GULP energy per Si atom -5574.987555 kJ/mol
# Density = 2.078371 g / cm^3
# Si number density = 20.831121 Si / 1000 Ang^3
#
#
#
# Elastic Constant Matrix: (Units=GPa)
#
#
# Indices 1 2 3 4 5 6 
#
# 1 34.4444 11.2054 26.0287 -0.3978 6.3604 9.6221
# 2 11.2054 69.3793 40.7940 5.2622 5.1996 14.5175
# 3 26.0287 40.7940 216.3637 -5.8300 -1.3604 -13.5059
# 4 -0.3978 5.2622 -5.8300 37.2305 -3.6665 -0.2775
# 5 6.3604 5.1996 -1.3604 -3.6665 27.4570 2.4319
# 6 9.6221 14.5175 -13.5059 -0.2775 2.4319 19.6724
#
#
#
# Elastic Compliance Matrix: (Units=1/GPa)
#
#
# Indices 1 2 3 4 5 6 
#
# 1 0.043368 0.004696 -0.008047 -0.002574 -0.009099 -0.029113
# 2 0.004696 0.023070 -0.006529 -0.004836 -0.004359 -0.023333
# 3 -0.008047 -0.006529 0.007763 0.002410 0.002585 0.013798
# 4 -0.002574 -0.004836 0.002410 0.028420 0.004870 0.006281
# 5 -0.009099 -0.004359 0.002585 0.004870 0.039725 0.004600
# 6 -0.029113 -0.023333 0.013798 0.006281 0.004600 0.091284
#
#
# Mechanical properties :
#
#
# Convention : Reuss Voigt Hill
#
# Bulk Modulus (GPa) = 18.36794 52.91596 35.64195
# Shear Modulus (GPa) = 18.41372 33.01594 25.71483
#
# Velocity S-wave (km/s) = 2.97636 3.98544 3.51728
# Velocity P-wave (km/s) = 4.54404 6.82904 5.80018
#
# Compressibility (1/GPa) = 0.05444270
#
# Stress axis : x y z
#
# Youngs Moduli (GPa) = 23.05822 43.34656 128.81110
#
# Poissons Ratio (x) = -0.20355 1.03648
# Poissons Ratio (y) = -0.10828 0.84098
# Poissons Ratio (z) = 0.18554 0.28300
#
# Static dielectric constant tensor:
#      x y z
#    x 1.736860 -0.053030 0.007620 
#    y -0.053030 1.748020 -0.028320 
#    z 0.007620 -0.028320 1.853510 
# 
# From -- ./inp_files/354516.got.cif
#   From: 2010.05.17/outbox.cif.g08.bks.cpg/sg2_178_cif.got.tgz:354516.got - 2010.06.03 11:33:40.
