data_PCOD9105206
_publ_section_title
;
Structure prediction by ZEFSAII (Michael W. Deem and Ramdas Pophale) SiO2 
 PCOD9105206
Probable space group: P -1
;
_chemical_formula_sum "Si O2"
_cell_formula_units_Z 14
_cell_length_a 19.693709
_cell_length_b 8.129858
_cell_length_c 14.245618
_cell_angle_alpha 33.385300
_cell_angle_beta 33.377311
_cell_angle_gamma 38.320189
_cell_volume 661.147564
_symmetry_space_group_name_H-M "P -1"
_symmetry_group_IT_number 2
_symmetry_cell_setting 'triclinic'
loop_
_space_group_symop_operation_xyz
x,y,z
-x,-y,-z
loop_
_atom_site_type_symbol
_atom_site_label
_atom_site_fract_x
_atom_site_fract_y
_atom_site_fract_z
Si Si1 0.873666 0.277378 0.925068
Si Si2 0.538813 0.434025 0.381122
Si Si3 0.733825 0.347928 0.509034
Si Si4 0.054840 0.586806 0.495345
Si Si5 0.986086 0.161385 0.196167
Si Si6 0.645869 0.819642 0.947584
Si Si7 0.231545 0.148666 0.628502
O O1 0.733098 0.501868 0.947292
O O2 0.959083 0.518893 0.717596
O O3 0.947861 0.032244 0.878720
O O4 0.851648 0.083122 0.132962
O O5 0.500000 0.500000 0.500000
O O6 0.408651 0.504586 0.437584
O O7 0.625821 0.082190 0.434069
O O8 0.622131 0.669368 0.144548
O O9 0.835965 0.213252 0.372026
O O10 0.777044 0.604059 0.396347
O O11 0.721828 0.072680 0.723380
O O12 0.186267 0.341499 0.493612
O O13 0.000000 0.500000 0.500000
O O14 0.055232 0.940439 0.309119
O O15 0.000000 0.500000 0.000000
O O16 0.500000 0.000000 0.000000
#
# Coordination Sequence:
#
# PCOD9105206 Si02
#       7
#     2   2   2   2   2   2   2
#     4  10  20  39  63  96 125 176 211 260 315 390
#     4  10  24  42  68  92 125 170 222 267 317 382
#     4  11  22  43  65  94 133 168 210 270 321 378
#     4  10  23  39  63  90 128 169 212 258 313 383
#     4  11  22  40  63  97 134 166 211 268 322 379
#     4   9  20  40  66  91 125 172 218 258 320 385
#     4  11  23  42  65  96 129 167 218 264 328 377
#
# _framework density 21.175301999999999
#
# number of rings (size 3 to 8) (size 9 to 14) (size 15 to 20)
#    0.000    1.714    2.857    0.857    4.000    1.714 
#    2.571    0.714    0.000    0.000    0.000    0.000 
#    0.000    0.000    0.000    0.000    0.000    0.000 
#
# Total GULP energy -77943.399784 kJ/mol
# GULP energy per Si atom -5567.385699 kJ/mol
# Density = 2.112711 g / cm^3
# Si number density = 21.175302 Si / 1000 Ang^3
#
#
#
# Elastic Constant Matrix: (Units=GPa)
#
#
# Indices 1 2 3 4 5 6 
#
# 1 56.7408 36.4573 21.2521 -9.6420 13.2652 -11.5453
# 2 36.4573 170.6821 54.2279 -3.4594 15.1009 -19.0933
# 3 21.2521 54.2279 153.4046 -19.4487 14.1473 -7.8666
# 4 -9.6420 -3.4594 -19.4487 47.8487 -5.9825 10.0993
# 5 13.2652 15.1009 14.1473 -5.9825 19.4930 -3.0611
# 6 -11.5453 -19.0933 -7.8666 10.0993 -3.0611 35.4262
#
#
#
# Elastic Compliance Matrix: (Units=1/GPa)
#
#
# Indices 1 2 3 4 5 6 
#
# 1 0.024021 -0.003367 -0.000557 0.001957 -0.012059 0.004290
# 2 -0.003367 0.007755 -0.002155 -0.001900 -0.002272 0.002949
# 3 -0.000557 -0.002155 0.007946 0.002718 -0.002980 -0.000611
# 4 0.001957 -0.001900 0.002718 0.024160 0.004597 -0.006273
# 5 -0.012059 -0.002272 -0.002980 0.004597 0.064598 -0.001545
# 6 0.004290 0.002949 -0.000611 -0.006273 -0.001545 0.032734
#
#
# Mechanical properties :
#
#
# Convention : Reuss Voigt Hill
#
# Bulk Modulus (GPa) = 36.28079 67.18912 51.73495
# Shear Modulus (GPa) = 27.38809 38.47960 32.93385
#
# Velocity S-wave (km/s) = 3.60029 4.26748 3.94800
# Velocity P-wave (km/s) = 5.86971 7.48870 6.72808
#
# Compressibility (1/GPa) = 0.02756280
#
# Stress axis : x y z
#
# Youngs Moduli (GPa) = 41.63023 128.94502 125.85310
#
# Poissons Ratio (x) = 0.43420 0.07012
# Poissons Ratio (y) = 0.14018 0.27122
# Poissons Ratio (z) = 0.02320 0.27789
#
# Static dielectric constant tensor:
#      x y z
#    x 1.807210 -0.027210 -0.024920 
#    y -0.027210 1.855560 -0.021980 
#    z -0.024920 -0.021980 1.828130 
# 
# From -- ./inp_files/184793.got.cif
#   From: 2010.05.17/outbox.cif.g08.bks.cpg/sg2_93_cif.got.tgz:184793.got - 2010.06.03 11:33:40.
