data_PCOD9105960
_publ_section_title
;
Structure prediction by ZEFSAII (Michael W. Deem and Ramdas Pophale) SiO2 
 PCOD9105960
Probable space group: P -1
;
_chemical_formula_sum "Si O2"
_cell_formula_units_Z 15
_cell_length_a 9.053158
_cell_length_b 7.440645
_cell_length_c 15.165750
_cell_angle_alpha 76.793406
_cell_angle_beta 138.523141
_cell_angle_gamma 114.467361
_cell_volume 610.149623
_symmetry_space_group_name_H-M "P -1"
_symmetry_group_IT_number 2
_symmetry_cell_setting 'triclinic'
loop_
_space_group_symop_operation_xyz
x,y,z
-x,-y,-z
loop_
_atom_site_type_symbol
_atom_site_label
_atom_site_fract_x
_atom_site_fract_y
_atom_site_fract_z
Si Si1 0.688989 0.389783 0.694666
Si Si2 0.849592 0.460466 0.026925
Si Si3 0.698147 0.301977 0.261719
Si Si4 0.393980 0.072172 0.858852
Si Si5 0.773709 0.577424 0.531851
Si Si6 0.542487 0.937548 0.663810
Si Si7 0.141685 0.017802 0.368372
Si Si8 0.500000 0.500000 0.000000
O O1 0.689100 0.403725 0.586571
O O2 0.461951 0.432669 0.624982
O O3 0.654721 0.163889 0.727731
O O4 0.942293 0.556881 0.815561
O O5 0.737600 0.583549 0.026365
O O6 0.605903 0.279722 0.913791
O O7 0.000000 0.500000 0.000000
O O8 0.653634 0.429881 0.148522
O O9 0.977785 0.401245 0.403550
O O10 0.650977 0.088145 0.219082
O O11 0.520761 0.235183 0.272808
O O12 0.143183 0.099048 0.760458
O O13 0.500000 0.000000 0.000000
O O14 0.833305 0.782852 0.590066
O O15 0.290794 0.920112 0.506244
O O16 0.725722 0.932368 0.671220
#
# Coordination Sequence:
#
# PCOD9105960 Si02
#       8
#     2   2   2   2   2   2   2   1
#     4  10  20  39  66  96 128 173 221 270 332 404
#     4  12  26  43  66  97 135 177 221 274 340 402
#     4  11  23  43  68  98 131 178 227 280 344 399
#     4  11  22  42  67  94 136 176 221 271 335 408
#     4   9  19  39  70  88 130 172 215 276 336 396
#     4  10  22  40  68 100 131 169 225 278 337 403
#     4   9  21  40  67 100 134 171 218 280 338 397
#     4  12  26  46  66  98 136 178 228 286 330 404
#
# _framework density 24.584133999999999
#
# number of rings (size 3 to 8) (size 9 to 14) (size 15 to 20)
#    0.000    1.600    2.667    1.600    1.867    8.000 
#    0.000    2.000    0.000    9.600    0.000    0.000 
#    0.000    0.000    0.000    0.000    0.000    0.000 
#
# Total GULP energy -83500.825688 kJ/mol
# GULP energy per Si atom -5566.721713 kJ/mol
# Density = 2.452818 g / cm^3
# Si number density = 24.584134 Si / 1000 Ang^3
#
#
#
# Elastic Constant Matrix: (Units=GPa)
#
#
# Indices 1 2 3 4 5 6 
#
# 1 132.2387 35.1073 60.5581 1.6279 14.3195 28.5254
# 2 35.1073 68.1915 22.2429 11.3278 0.6804 10.9285
# 3 60.5581 22.2429 115.0977 17.0654 41.9444 7.2121
# 4 1.6279 11.3278 17.0654 30.3584 14.9620 -0.2560
# 5 14.3195 0.6804 41.9444 14.9620 49.0850 8.7962
# 6 28.5254 10.9285 7.2121 -0.2560 8.7962 38.7574
#
#
#
# Elastic Compliance Matrix: (Units=1/GPa)
#
#
# Indices 1 2 3 4 5 6 
#
# 1 0.013262 -0.003762 -0.007268 0.003328 0.002806 -0.007962
# 2 -0.003762 0.019428 -0.002557 -0.008775 0.006357 -0.003734
# 3 -0.007268 -0.002557 0.017876 -0.001973 -0.013559 0.005808
# 4 0.003328 -0.008775 -0.001973 0.043643 -0.013121 0.003658
# 5 0.002806 0.006357 -0.013559 -0.013121 0.036804 -0.009774
# 6 -0.007962 -0.003734 0.005808 0.003658 -0.009774 0.033877
#
#
# Mechanical properties :
#
#
# Convention : Reuss Voigt Hill
#
# Bulk Modulus (GPa) = 42.74739 61.26050 52.00395
# Shear Modulus (GPa) = 25.01751 36.81481 30.91616
#
# Velocity S-wave (km/s) = 3.19349 3.87396 3.55006
# Velocity P-wave (km/s) = 5.56990 6.70693 6.16468
#
# Compressibility (1/GPa) = 0.02339324
#
# Stress axis : x y z
#
# Youngs Moduli (GPa) = 75.40470 51.47224 55.93968
#
# Poissons Ratio (x) = 0.19362 0.40656
# Poissons Ratio (y) = 0.28365 0.14303
# Poissons Ratio (z) = 0.54803 0.13161
#
# Static dielectric constant tensor:
#      x y z
#    x 1.974990 -0.085070 -0.049020 
#    y -0.085070 1.920500 -0.059800 
#    z -0.049020 -0.059800 1.975340 
# 
# From -- ./inp_files/376933.got.cif
#   From: 2010.05.17/outbox.cif.g08.bks.cpg/sg2_189_cif.got.tgz:376933.got - 2010.06.03 11:33:40.
