data_PCOD9105514
_publ_section_title
;
Structure prediction by ZEFSAII (Michael W. Deem and Ramdas Pophale) SiO2 
 PCOD9105514
Probable space group: P -1
;
_chemical_formula_sum "Si O2"
_cell_formula_units_Z 16
_cell_length_a 8.964188
_cell_length_b 9.850850
_cell_length_c 12.374035
_cell_angle_alpha 61.053135
_cell_angle_beta 102.574051
_cell_angle_gamma 64.256531
_cell_volume 723.296080
_symmetry_space_group_name_H-M "P -1"
_symmetry_group_IT_number 2
_symmetry_cell_setting 'triclinic'
loop_
_space_group_symop_operation_xyz
x,y,z
-x,-y,-z
loop_
_atom_site_type_symbol
_atom_site_label
_atom_site_fract_x
_atom_site_fract_y
_atom_site_fract_z
Si Si1 0.979159 0.490393 0.128461
Si Si2 0.261902 0.782374 0.203785
Si Si3 0.739271 0.207291 0.476644
Si Si4 0.690237 0.617290 0.625535
Si Si5 0.832698 0.068786 0.103428
Si Si6 0.723258 0.810146 0.137925
Si Si7 0.311018 0.417690 0.596226
Si Si8 0.153408 0.769425 0.748204
O O1 0.842649 0.702846 0.087637
O O2 0.879534 0.389441 0.174670
O O3 0.188366 0.369256 0.270345
O O4 0.000000 0.500000 0.000000
O O5 0.262688 0.596129 0.273628
O O6 0.451347 0.723412 0.317548
O O7 0.278405 0.823869 0.066482
O O8 0.058580 0.969898 0.151126
O O9 0.545754 0.229186 0.459670
O O10 0.749582 0.362953 0.484658
O O11 0.728460 0.269588 0.326512
O O12 0.938261 0.985397 0.613638
O O13 0.756428 0.614052 0.514891
O O14 0.756081 0.209287 0.139902
O O15 0.816480 0.895768 0.182457
O O16 0.738296 0.652645 0.279887
O O17 0.500000 0.000000 0.000000
#
# Coordination Sequence:
#
# PCOD9105514 Si02
#       8
#     2   2   2   2   2   2   2   2
#     4  12  28  48  68 101 145 180 225 285 347 407
#     4  10  20  39  65 101 128 169 235 276 329 399
#     4  10  23  42  66 101 138 176 226 280 340 409
#     4  11  23  42  69  98 132 182 226 277 344 399
#     4  11  22  39  70  96 132 182 227 275 339 406
#     4  12  26  46  69 106 136 178 231 285 338 403
#     4  11  22  42  69  99 136 170 231 285 330 405
#     4  11  24  43  67  99 141 180 224 280 345 402
#
# _framework density 22.120957000000001
#
# number of rings (size 3 to 8) (size 9 to 14) (size 15 to 20)
#    0.000    1.000    3.750    3.750    1.750    5.000 
#    0.000    2.500    0.000    0.000    0.000    0.000 
#    0.000    0.000    0.000    0.000    0.000    0.000 
#
# Total GULP energy -89525.611755 kJ/mol
# GULP energy per Si atom -5595.350735 kJ/mol
# Density = 2.207061 g / cm^3
# Si number density = 22.120957 Si / 1000 Ang^3
#
#
#
# Elastic Constant Matrix: (Units=GPa)
#
#
# Indices 1 2 3 4 5 6 
#
# 1 55.5494 23.4394 5.4696 16.2544 0.4033 -2.8303
# 2 23.4394 68.6444 23.1525 34.2082 1.4721 2.9342
# 3 5.4696 23.1525 53.8242 25.5072 -5.8885 -5.8019
# 4 16.2544 34.2082 25.5072 46.2239 -4.4739 0.4836
# 5 0.4033 1.4721 -5.8885 -4.4739 33.6097 1.5267
# 6 -2.8303 2.9342 -5.8019 0.4836 1.5267 32.4382
#
#
#
# Elastic Compliance Matrix: (Units=1/GPa)
#
#
# Indices 1 2 3 4 5 6 
#
# 1 0.021903 -0.006227 0.003052 -0.004833 -0.000240 0.003104
# 2 -0.006227 0.025715 -0.004116 -0.014885 -0.003608 -0.003214
# 3 0.003052 -0.004116 0.026963 -0.012680 0.002929 0.005512
# 4 -0.004833 -0.014885 -0.012680 0.041771 0.004147 -0.002161
# 5 -0.000240 -0.003608 0.002929 0.004147 0.031011 -0.000692
# 6 0.003104 -0.003214 0.005512 -0.002161 -0.000692 0.032440
#
#
# Mechanical properties :
#
#
# Convention : Reuss Voigt Hill
#
# Bulk Modulus (GPa) = 16.66694 31.34899 24.00797
# Shear Modulus (GPa) = 23.32257 30.85147 27.08702
#
# Velocity S-wave (km/s) = 3.25055 3.73858 3.50308
# Velocity P-wave (km/s) = 4.65177 5.73048 5.21907
#
# Compressibility (1/GPa) = 0.05999900
#
# Stress axis : x y z
#
# Youngs Moduli (GPa) = 45.65513 38.88787 37.08786
#
# Poissons Ratio (x) = 0.24217 -0.11318
# Poissons Ratio (y) = 0.28431 0.15264
# Poissons Ratio (z) = -0.13933 0.16005
#
# Static dielectric constant tensor:
#      x y z
#    x 1.812690 -0.022980 0.010170 
#    y -0.022980 1.803130 0.002840 
#    z 0.010170 0.002840 1.836750 
# 
# From -- ./inp_files/297807.got.cif
#   From: 2010.05.17/outbox.cif.g08.bks.cpg/sg2_149_cif.got.tgz:297807.got - 2010.06.03 11:33:40.
