data_PCOD9105224
_publ_section_title
;
Structure prediction by ZEFSAII (Michael W. Deem and Ramdas Pophale) SiO2 
 PCOD9105224
Probable space group: P -1
;
_chemical_formula_sum "Si O2"
_cell_formula_units_Z 14
_cell_length_a 6.689868
_cell_length_b 9.261115
_cell_length_c 10.201072
_cell_angle_alpha 67.485989
_cell_angle_beta 89.606695
_cell_angle_gamma 102.245885
_cell_volume 567.838632
_symmetry_space_group_name_H-M "P -1"
_symmetry_group_IT_number 2
_symmetry_cell_setting 'triclinic'
loop_
_space_group_symop_operation_xyz
x,y,z
-x,-y,-z
loop_
_atom_site_type_symbol
_atom_site_label
_atom_site_fract_x
_atom_site_fract_y
_atom_site_fract_z
Si Si1 0.318626 0.656509 0.246062
Si Si2 0.195163 0.781371 0.774906
Si Si3 0.472153 0.616078 0.695960
Si Si4 0.053151 0.844135 0.492116
Si Si5 0.040603 0.824944 0.036444
Si Si6 0.120975 0.376284 0.660081
Si Si7 0.517166 0.866865 0.397449
O O1 0.389004 0.508119 0.232996
O O2 0.252521 0.789084 0.106835
O O3 0.105299 0.585164 0.349641
O O4 0.489435 0.750940 0.312035
O O5 0.352057 0.664695 0.804181
O O6 0.332535 0.963158 0.694801
O O7 0.064131 0.739732 0.657641
O O8 0.052654 0.778847 0.901565
O O9 0.310761 0.525452 0.617042
O O10 0.569726 0.779814 0.559842
O O11 0.906181 0.754329 0.409659
O O12 0.283974 0.887355 0.416240
O O13 0.000000 0.000000 0.500000
O O14 0.875312 0.707210 0.168181
O O15 0.000000 0.000000 0.000000
#
# Coordination Sequence:
#
# PCOD9105224 Si02
#       7
#     2   2   2   2   2   2   2
#     4   9  23  42  68 101 130 186 226 273 356 399
#     4  11  25  42  69 100 141 178 229 290 339 409
#     4  11  22  45  69 102 141 176 228 296 338 403
#     4  10  20  39  63  98 130 173 226 280 337 391
#     4  10  23  47  68 100 139 182 232 278 341 421
#     4   9  23  44  66 100 135 178 235 273 344 411
#     4  10  23  43  63 103 136 176 235 278 347 408
#
# _framework density 24.654890999999999
#
# number of rings (size 3 to 8) (size 9 to 14) (size 15 to 20)
#    0.857    1.143    0.000    3.000    4.000    6.857 
#   12.857    0.000    0.000    0.000    0.000    0.000 
#    0.000    0.000    0.000    0.000    0.000    0.000 
#
# Total GULP energy -78247.209877 kJ/mol
# GULP energy per Si atom -5589.086420 kJ/mol
# Density = 2.459878 g / cm^3
# Si number density = 24.654891 Si / 1000 Ang^3
#
#
#
# Elastic Constant Matrix: (Units=GPa)
#
#
# Indices 1 2 3 4 5 6 
#
# 1 78.2395 47.5385 25.7155 -2.0679 -5.0135 -11.3639
# 2 47.5385 179.7868 39.6527 2.2941 -13.0747 -25.3917
# 3 25.7155 39.6527 85.9727 15.1748 -9.0984 2.3201
# 4 -2.0679 2.2941 15.1748 43.4893 -15.6977 1.9126
# 5 -5.0135 -13.0747 -9.0984 -15.6977 30.1903 -2.9094
# 6 -11.3639 -25.3917 2.3201 1.9126 -2.9094 67.2580
#
#
#
# Elastic Compliance Matrix: (Units=1/GPa)
#
#
# Indices 1 2 3 4 5 6 
#
# 1 0.016392 -0.003155 -0.003803 0.002872 0.001868 0.001709
# 2 -0.003155 0.007486 -0.002494 0.001246 0.002853 0.002467
# 3 -0.003803 -0.002494 0.014877 -0.005197 -0.000119 -0.001955
# 4 0.002872 0.001246 -0.005197 0.030372 0.015333 0.000935
# 5 0.001868 0.002853 -0.000119 0.015333 0.042877 0.002815
# 6 0.001709 0.002467 -0.001955 0.000935 0.002815 0.016251
#
#
# Mechanical properties :
#
#
# Convention : Reuss Voigt Hill
#
# Bulk Modulus (GPa) = 50.37514 63.31248 56.84381
# Shear Modulus (GPa) = 32.51480 43.59365 38.05423
#
# Velocity S-wave (km/s) = 3.63546 4.20950 3.93297
# Velocity P-wave (km/s) = 6.17241 7.02580 6.61288
#
# Compressibility (1/GPa) = 0.01985106
#
# Stress axis : x y z
#
# Youngs Moduli (GPa) = 61.00514 133.57540 67.21783
#
# Poissons Ratio (x) = 0.42143 0.25565
# Poissons Ratio (y) = 0.19247 0.16764
# Poissons Ratio (z) = 0.23202 0.33313
#
# Static dielectric constant tensor:
#      x y z
#    x 2.077910 -0.069530 0.039480 
#    y -0.069530 1.958040 -0.042440 
#    z 0.039480 -0.042440 2.000620 
# 
# From -- ./inp_files/377930.got.cif
#   From: 2010.05.17/outbox.cif.g08.bks.cpg/sg2_189_cif.got.tgz:377930.got - 2010.06.03 11:33:40.
