data_PCOD9105193
_publ_section_title
;
Structure prediction by ZEFSAII (Michael W. Deem and Ramdas Pophale) SiO2 
 PCOD9105193
Probable space group: P -1
;
_chemical_formula_sum "Si O2"
_cell_formula_units_Z 16
_cell_length_a 11.925452
_cell_length_b 21.463272
_cell_length_c 8.253455
_cell_angle_alpha 37.241210
_cell_angle_beta 141.252032
_cell_angle_gamma 146.002046
_cell_volume 668.487514
_symmetry_space_group_name_H-M "P -1"
_symmetry_group_IT_number 2
_symmetry_cell_setting 'triclinic'
loop_
_space_group_symop_operation_xyz
x,y,z
-x,-y,-z
loop_
_atom_site_type_symbol
_atom_site_label
_atom_site_fract_x
_atom_site_fract_y
_atom_site_fract_z
Si Si1 0.848801 0.972826 0.140202
Si Si2 0.149776 0.922070 0.423510
Si Si3 0.556826 0.627971 0.725946
Si Si4 0.191847 0.338817 0.568254
Si Si5 0.380473 0.603045 0.212810
Si Si6 0.808913 0.356703 0.607531
Si Si7 0.373873 0.793081 0.979245
Si Si8 0.998484 0.770716 0.072626
O O1 0.809499 0.998518 0.856565
O O2 0.899957 0.087189 0.069898
O O3 0.622444 0.853045 0.184279
O O4 0.055677 0.964661 0.369854
O O5 0.345462 0.906651 0.704899
O O6 0.961513 0.781918 0.458968
O O7 0.464840 0.604549 0.488131
O O8 0.420838 0.660772 0.621105
O O9 0.500000 0.500000 0.000000
O O10 0.811217 0.720298 0.833220
O O11 0.197927 0.460695 0.273072
O O12 0.428255 0.366694 0.753223
O O13 0.116428 0.301865 0.742359
O O14 0.335541 0.710698 0.946950
O O15 0.000000 0.500000 0.500000
O O16 0.840807 0.269104 0.711121
O O17 0.794902 0.303864 0.880753
#
# Coordination Sequence:
#
# PCOD9105193 Si02
#       8
#     2   2   2   2   2   2   2   2
#     4  10  23  44  63  95 136 165 227 268 313 394
#     4  10  22  41  69  91 131 177 210 269 337 374
#     4  11  21  41  68  89 130 176 206 258 339 384
#     4  10  20  39  63  95 128 162 215 274 321 384
#     4  10  21  38  63  97 130 159 217 271 320 395
#     4  11  24  41  64  96 131 167 219 268 320 397
#     4  11  23  41  67  94 133 175 214 269 329 384
#     4  11  23  42  65  95 128 173 214 271 323 387
#
# _framework density 23.934628
#
# number of rings (size 3 to 8) (size 9 to 14) (size 15 to 20)
#    0.000    1.500    3.750    1.125    1.750    2.000 
#    4.500    4.375    0.000    0.000    0.000    0.000 
#    0.000    0.000    0.000    0.000    0.000    0.000 
#
# Total GULP energy -89450.678025 kJ/mol
# GULP energy per Si atom -5590.667377 kJ/mol
# Density = 2.388015 g / cm^3
# Si number density = 23.934628 Si / 1000 Ang^3
#
#
#
# Elastic Constant Matrix: (Units=GPa)
#
#
# Indices 1 2 3 4 5 6 
#
# 1 141.9292 29.5725 39.1275 -21.4047 28.9670 -9.9821
# 2 29.5725 93.8172 -7.3916 -24.7919 3.7365 1.2523
# 3 39.1275 -7.3916 78.6650 -12.0094 26.6268 -7.2208
# 4 -21.4047 -24.7919 -12.0094 32.0640 -10.6006 7.2634
# 5 28.9670 3.7365 26.6268 -10.6006 42.3952 -16.4999
# 6 -9.9821 1.2523 -7.2208 7.2634 -16.4999 36.4941
#
#
#
# Elastic Compliance Matrix: (Units=1/GPa)
#
#
# Indices 1 2 3 4 5 6 
#
# 1 0.009590 -0.002675 -0.003506 0.001809 -0.003660 0.000006
# 2 -0.002675 0.015110 0.004476 0.012099 -0.000447 -0.002975
# 3 -0.003506 0.004476 0.018661 0.005636 -0.009396 -0.002790
# 4 0.001809 0.012099 0.005636 0.046412 0.003196 -0.006598
# 5 -0.003660 -0.000447 -0.009396 0.003196 0.038194 0.013788
# 6 0.000006 -0.002975 -0.002790 -0.006598 0.013788 0.034500
#
#
# Mechanical properties :
#
#
# Convention : Reuss Voigt Hill
#
# Bulk Modulus (GPa) = 25.03088 48.55869 36.79478
# Shear Modulus (GPa) = 27.90253 39.06420 33.48336
#
# Velocity S-wave (km/s) = 3.41806 4.04433 3.74431
# Velocity P-wave (km/s) = 5.10472 6.49161 5.83948
#
# Compressibility (1/GPa) = 0.03995065
#
# Stress axis : x y z
#
# Youngs Moduli (GPa) = 104.27606 66.18164 53.58704
#
# Poissons Ratio (x) = 0.17707 0.18787
# Poissons Ratio (y) = 0.27899 -0.23986
# Poissons Ratio (z) = 0.36557 -0.29623
#
# Static dielectric constant tensor:
#      x y z
#    x 1.902420 -0.006900 0.023830 
#    y -0.006900 1.901690 -0.002660 
#    z 0.023830 -0.002660 2.029470 
# 
# From -- ./inp_files/282814.got.cif
#   From: 2010.05.17/outbox.cif.g08.bks.cpg/sg2_142_cif.got.tgz:282814.got - 2010.06.03 11:33:40.
