data_PCOD9105665
_publ_section_title
;
Structure prediction by ZEFSAII (Michael W. Deem and Ramdas Pophale) SiO2 
 PCOD9105665
Probable space group: P -1
;
_chemical_formula_sum "Si O2"
_cell_formula_units_Z 15
_cell_length_a 12.029428
_cell_length_b 8.974343
_cell_length_c 16.449646
_cell_angle_alpha 134.053651
_cell_angle_beta 32.680909
_cell_angle_gamma 116.027699
_cell_volume 638.181918
_symmetry_space_group_name_H-M "P -1"
_symmetry_group_IT_number 2
_symmetry_cell_setting 'triclinic'
loop_
_space_group_symop_operation_xyz
x,y,z
-x,-y,-z
loop_
_atom_site_type_symbol
_atom_site_label
_atom_site_fract_x
_atom_site_fract_y
_atom_site_fract_z
Si Si1 0.854569 0.419054 0.201678
Si Si2 0.438843 0.950718 0.802059
Si Si3 0.000000 0.000000 0.000000
Si Si4 0.132586 0.651650 0.506536
Si Si5 0.742159 0.211471 0.678915
Si Si6 0.891739 0.280414 0.776573
Si Si7 0.687680 0.077449 0.950549
Si Si8 0.629973 0.463386 0.510901
O O1 0.799367 0.303233 0.277529
O O2 0.617790 0.534911 0.346214
O O3 0.990093 0.570359 0.197205
O O4 0.994178 0.176685 0.988791
O O5 0.610118 0.703434 0.576096
O O6 0.221516 0.038229 0.916156
O O7 0.554387 0.128549 0.796006
O O8 0.390169 0.876448 0.892277
O O9 0.287653 0.664823 0.341629
O O10 0.264009 0.578093 0.481978
O O11 0.000000 0.500000 0.500000
O O12 0.931813 0.886519 0.732696
O O13 0.797105 0.351629 0.770758
O O14 0.942000 0.974355 0.443795
O O15 0.716621 0.257806 0.940400
O O16 0.500000 0.000000 0.000000
#
# Coordination Sequence:
#
# PCOD9105665 Si02
#       8
#     2   2   1   2   2   2   2   2
#     4  10  20  41  66  92 122 172 210 258 315 375
#     4  11  21  43  63  92 126 169 204 260 319 370
#     4  10  24  40  62  92 130 162 208 264 314 372
#     4  11  23  39  61  97 125 167 211 261 309 376
#     4  10  21  38  67  93 126 161 214 259 307 382
#     4  10  20  39  65  94 120 171 210 258 311 382
#     4  11  22  39  63  92 132 161 207 263 324 357
#     4  10  21  39  68  88 125 165 215 252 313 377
#
# _framework density 23.504270999999999
#
# number of rings (size 3 to 8) (size 9 to 14) (size 15 to 20)
#    0.000    1.600    2.667    2.400    1.867    0.000 
#    7.200    4.000    0.000    0.000    0.000    0.000 
#    0.000    0.000    0.000    0.000    0.000    0.000 
#
# Total GULP energy -83541.122750 kJ/mol
# GULP energy per Si atom -5569.408183 kJ/mol
# Density = 2.345077 g / cm^3
# Si number density = 23.504271 Si / 1000 Ang^3
#
#
#
# Elastic Constant Matrix: (Units=GPa)
#
#
# Indices 1 2 3 4 5 6 
#
# 1 181.7652 47.9514 35.2784 -18.1609 -23.6426 -2.8411
# 2 47.9514 92.6058 37.8797 -23.3824 -3.1314 18.2073
# 3 35.2784 37.8797 85.0416 -1.1344 -19.5144 -14.2712
# 4 -18.1609 -23.3824 -1.1344 39.4608 -7.3818 -4.3629
# 5 -23.6426 -3.1314 -19.5144 -7.3818 38.0665 -0.2323
# 6 -2.8411 18.2073 -14.2712 -4.3629 -0.2323 41.2688
#
#
#
# Elastic Compliance Matrix: (Units=1/GPa)
#
#
# Indices 1 2 3 4 5 6 
#
# 1 0.007315 -0.003480 0.000034 0.002455 0.004764 0.002337
# 2 -0.003480 0.021852 -0.011396 0.008732 -0.004591 -0.012924
# 3 0.000034 -0.011396 0.020924 -0.003072 0.009287 0.011993
# 4 0.002455 0.008732 -0.003072 0.032730 0.007008 -0.001246
# 5 0.004764 -0.004591 0.009287 0.007008 0.035011 0.006503
# 6 0.002337 -0.012924 0.011993 -0.001246 0.006503 0.034146
#
#
# Mechanical properties :
#
#
# Convention : Reuss Voigt Hill
#
# Bulk Modulus (GPa) = 49.00339 66.84795 57.92567
# Shear Modulus (GPa) = 26.53032 39.64610 33.08821
#
# Velocity S-wave (km/s) = 3.36332 4.11148 3.75607
# Velocity P-wave (km/s) = 5.99805 7.14433 6.59614
#
# Compressibility (1/GPa) = 0.02040675
#
# Stress axis : x y z
#
# Youngs Moduli (GPa) = 136.71324 45.76223 47.79273
#
# Poissons Ratio (x) = 0.15924 -0.00162
# Poissons Ratio (y) = 0.47573 0.54464
# Poissons Ratio (z) = -0.00463 0.52150
#
# Static dielectric constant tensor:
#      x y z
#    x 1.977390 0.080180 0.224220 
#    y 0.080180 2.052740 0.303660 
#    z 0.224220 0.303660 2.531230 
# 
# From -- ./inp_files/188780.got.cif
#   From: 2010.05.17/outbox.cif.g08.bks.cpg/sg2_95_cif.got.tgz:188780.got - 2010.06.03 11:33:40.
