data_PCOD9105755
_publ_section_title
;
Structure prediction by ZEFSAII (Michael W. Deem and Ramdas Pophale) SiO2 
 PCOD9105755
Probable space group: P -1
;
_chemical_formula_sum "Si O2"
_cell_formula_units_Z 16
_cell_length_a 12.380044
_cell_length_b 8.538103
_cell_length_c 9.273892
_cell_angle_alpha 82.760823
_cell_angle_beta 48.865466
_cell_angle_gamma 78.280424
_cell_volume 722.877271
_symmetry_space_group_name_H-M "P -1"
_symmetry_group_IT_number 2
_symmetry_cell_setting 'triclinic'
loop_
_space_group_symop_operation_xyz
x,y,z
-x,-y,-z
loop_
_atom_site_type_symbol
_atom_site_label
_atom_site_fract_x
_atom_site_fract_y
_atom_site_fract_z
Si Si1 0.150097 0.504769 0.948085
Si Si2 0.570859 0.733569 0.246709
Si Si3 0.385233 0.684040 0.181522
Si Si4 0.847331 0.515614 0.720144
Si Si5 0.629724 0.070366 0.068706
Si Si6 0.867498 0.859150 0.701826
Si Si7 0.846899 0.093566 0.446174
Si Si8 0.684083 0.211213 0.313697
O O1 0.262412 0.337752 0.859359
O O2 0.235146 0.636641 0.789043
O O3 0.123601 0.547146 0.135229
O O4 0.000000 0.500000 0.000000
O O5 0.515750 0.621739 0.183692
O O6 0.468778 0.739335 0.475350
O O7 0.553701 0.915352 0.180219
O O8 0.278369 0.567515 0.231476
O O9 0.283301 0.804813 0.362718
O O10 0.439039 0.784814 0.991302
O O11 0.794785 0.704847 0.760739
O O12 0.000000 0.500000 0.500000
O O13 0.660944 0.139202 0.187579
O O14 0.773733 0.994347 0.864200
O O15 0.017206 0.814321 0.662369
O O16 0.892231 0.930302 0.514122
O O17 0.788193 0.085770 0.338434
#
# Coordination Sequence:
#
# PCOD9105755 Si02
#       8
#     2   2   2   2   2   2   2   2
#     4  12  27  48  70 102 146 182 225 288 346 417
#     4  11  25  47  69 100 139 188 229 285 349 402
#     4  10  22  42  70  98 139 179 234 291 336 410
#     4  12  23  44  70 105 135 183 234 286 346 409
#     4  11  22  43  67 101 137 178 238 284 341 410
#     4  10  20  39  65  97 138 177 236 284 338 395
#     4   9  20  39  64  97 135 184 223 287 341 400
#     4  11  24  45  69 101 142 183 227 280 351 420
#
# _framework density 22.133773000000001
#
# number of rings (size 3 to 8) (size 9 to 14) (size 15 to 20)
#    0.000    1.250    3.750    1.875    1.750    1.000 
#    2.250    0.000    0.000    0.000    0.000    0.000 
#    0.000    0.000    0.000    0.000    0.000    0.000 
#
# Total GULP energy -89412.720255 kJ/mol
# GULP energy per Si atom -5588.295016 kJ/mol
# Density = 2.208340 g / cm^3
# Si number density = 22.133773 Si / 1000 Ang^3
#
#
#
# Elastic Constant Matrix: (Units=GPa)
#
#
# Indices 1 2 3 4 5 6 
#
# 1 135.0294 46.0839 31.6930 6.0722 2.1540 10.5902
# 2 46.0839 54.0113 28.0029 -4.7535 -2.7204 14.9799
# 3 31.6930 28.0029 111.4874 -7.6612 1.0669 2.6277
# 4 6.0722 -4.7535 -7.6612 26.6844 4.6421 -4.5701
# 5 2.1540 -2.7204 1.0669 4.6421 43.0193 -1.0725
# 6 10.5902 14.9799 2.6277 -4.5701 -1.0725 29.7573
#
#
#
# Elastic Compliance Matrix: (Units=1/GPa)
#
#
# Indices 1 2 3 4 5 6 
#
# 1 0.011031 -0.009304 -0.001095 -0.004342 -0.000641 0.000165
# 2 -0.009304 0.032896 -0.005068 0.004115 0.001926 -0.012100
# 3 -0.001095 -0.005068 0.010709 0.002974 -0.000792 0.002423
# 4 -0.004342 0.004115 0.002974 0.041675 -0.003957 0.005469
# 5 -0.000641 0.001926 -0.000792 -0.003957 0.023835 -0.000420
# 6 0.000165 -0.012100 0.002423 0.005469 -0.000420 0.040248
#
#
# Mechanical properties :
#
#
# Convention : Reuss Voigt Hill
#
# Bulk Modulus (GPa) = 42.19276 56.89862 49.54569
# Shear Modulus (GPa) = 25.09675 32.87542 28.98608
#
# Velocity S-wave (km/s) = 3.37095 3.85815 3.62275
# Velocity P-wave (km/s) = 5.85278 6.75349 6.31920
#
# Compressibility (1/GPa) = 0.02370075
#
# Stress axis : x y z
#
# Youngs Moduli (GPa) = 90.65543 30.39887 93.38225
#
# Poissons Ratio (x) = 0.28284 0.10224
# Poissons Ratio (y) = 0.84348 0.47328
# Poissons Ratio (z) = 0.09926 0.15407
#
# Static dielectric constant tensor:
#      x y z
#    x 1.827660 -0.026150 -0.018270 
#    y -0.026150 1.847410 -0.025830 
#    z -0.018270 -0.025830 1.836890 
# 
# From -- ./inp_files/243315.got.cif
#   From: 2010.05.17/outbox.cif.g08.bks.cpg/sg2_122_cif.got.tgz:243315.got - 2010.06.03 11:33:40.
