data_PCOD9105289
_publ_section_title
;
Structure prediction by ZEFSAII (Michael W. Deem and Ramdas Pophale) SiO2 
 PCOD9105289
Probable space group: P -1
;
_chemical_formula_sum "Si O2"
_cell_formula_units_Z 16
_cell_length_a 9.636681
_cell_length_b 13.442899
_cell_length_c 12.179777
_cell_angle_alpha 42.600422
_cell_angle_beta 116.654930
_cell_angle_gamma 137.481060
_cell_volume 706.415207
_symmetry_space_group_name_H-M "P -1"
_symmetry_group_IT_number 2
_symmetry_cell_setting 'triclinic'
loop_
_space_group_symop_operation_xyz
x,y,z
-x,-y,-z
loop_
_atom_site_type_symbol
_atom_site_label
_atom_site_fract_x
_atom_site_fract_y
_atom_site_fract_z
Si Si1 0.691132 0.970655 0.886460
Si Si2 0.726409 0.696113 0.210141
Si Si3 0.884396 0.358357 0.769773
Si Si4 0.235248 0.782269 0.928806
Si Si5 0.565303 0.779713 0.290292
Si Si6 0.085065 0.830488 0.626429
Si Si7 0.927968 0.258935 0.559961
Si Si8 0.662195 0.725179 0.600916
O O1 0.824317 0.161779 0.859505
O O2 0.718045 0.066842 0.699994
O O3 0.449792 0.826897 0.956050
O O4 0.776917 0.859198 0.009316
O O5 0.628784 0.734169 0.241813
O O6 0.550803 0.482937 0.263527
O O7 0.897223 0.707166 0.327109
O O8 0.675520 0.324816 0.709755
O O9 0.053373 0.552943 0.599091
O O10 0.912204 0.366751 0.903713
O O11 0.145407 0.746406 0.805062
O O12 0.308106 0.989438 0.830235
O O13 0.615522 0.710524 0.467155
O O14 0.052236 0.774407 0.532907
O O15 0.869397 0.759090 0.656820
O O16 0.267944 0.070569 0.499373
#
# Coordination Sequence:
#
# PCOD9105289 Si02
#       8
#     2   2   2   2   2   2   2   2
#     4  11  24  40  62  93 128 159 199 259 306 360
#     4  12  20  38  65  93 117 155 210 255 305 349
#     4  11  20  40  64  93 118 156 209 257 301 349
#     4  10  21  38  63  85 126 160 201 249 303 357
#     4  10  16  33  63  92 112 147 201 261 301 332
#     4  10  23  38  59  92 129 160 201 248 311 361
#     4  12  25  39  63  92 128 163 202 245 311 374
#     4  10  20  36  62  93 120 156 206 261 299 353
#
# _framework density 22.649567999999999
#
# number of rings (size 3 to 8) (size 9 to 14) (size 15 to 20)
#    0.000    1.250    5.000    2.625    0.000    1.000 
#    0.000    0.625    0.000    0.000    0.000    0.000 
#    0.000    0.000    0.000    0.000    0.000    0.000 
#
# Total GULP energy -89329.514644 kJ/mol
# GULP energy per Si atom -5583.094665 kJ/mol
# Density = 2.259802 g / cm^3
# Si number density = 22.649568 Si / 1000 Ang^3
#
#
#
# Elastic Constant Matrix: (Units=GPa)
#
#
# Indices 1 2 3 4 5 6 
#
# 1 41.2612 10.2361 19.8399 10.1412 7.3275 -1.0653
# 2 10.2361 94.0799 39.2928 6.6831 11.0593 -9.0465
# 3 19.8399 39.2928 154.1864 8.4930 -1.1512 2.9121
# 4 10.1412 6.6831 8.4930 20.5466 -1.2224 -0.6816
# 5 7.3275 11.0593 -1.1512 -1.2224 29.3727 7.9601
# 6 -1.0653 -9.0465 2.9121 -0.6816 7.9601 14.3522
#
#
#
# Elastic Compliance Matrix: (Units=1/GPa)
#
#
# Indices 1 2 3 4 5 6 
#
# 1 0.031839 0.001675 -0.003982 -0.014995 -0.012129 0.010241
# 2 0.001675 0.015463 -0.004325 -0.004175 -0.011113 0.016714
# 3 -0.003982 -0.004325 0.008278 -0.000002 0.004967 -0.007456
# 4 -0.014995 -0.004175 -0.000002 0.057783 0.009402 -0.006214
# 5 -0.012129 -0.011113 0.004967 0.009402 0.051942 -0.037275
# 6 0.010241 0.016714 -0.007456 -0.006214 -0.037275 0.102862
#
#
# Mechanical properties :
#
#
# Convention : Reuss Voigt Hill
#
# Bulk Modulus (GPa) = 23.63141 47.58502 35.60822
# Shear Modulus (GPa) = 16.91835 27.53156 22.22495
#
# Velocity S-wave (km/s) = 2.73602 3.49025 3.13589
# Velocity P-wave (km/s) = 4.52076 6.10715 5.37283
#
# Compressibility (1/GPa) = 0.04231657
#
# Stress axis : x y z
#
# Youngs Moduli (GPa) = 31.40827 64.66861 120.80027
#
# Poissons Ratio (x) = -0.10829 0.48098
# Poissons Ratio (y) = -0.05259 0.52244
# Poissons Ratio (z) = 0.12505 0.27968
#
# Static dielectric constant tensor:
#      x y z
#    x 1.838650 0.009400 -0.021630 
#    y 0.009400 1.862270 -0.084720 
#    z -0.021630 -0.084720 1.929730 
# 
# From -- ./inp_files/307475.got.cif
#   From: 2010.05.17/outbox.cif.g08.bks.cpg/sg2_154_cif.got.tgz:307475.got - 2010.06.03 11:33:40.
