data_PCOD9105330
_publ_section_title
;
Structure prediction by ZEFSAII (Michael W. Deem and Ramdas Pophale) SiO2 
 PCOD9105330
Probable space group: P -1
;
_chemical_formula_sum "Si O2"
_cell_formula_units_Z 16
_cell_length_a 16.295095
_cell_length_b 19.847840
_cell_length_c 9.099822
_cell_angle_alpha 141.731600
_cell_angle_beta 46.672188
_cell_angle_gamma 159.606186
_cell_volume 618.093418
_symmetry_space_group_name_H-M "P -1"
_symmetry_group_IT_number 2
_symmetry_cell_setting 'triclinic'
loop_
_space_group_symop_operation_xyz
x,y,z
-x,-y,-z
loop_
_atom_site_type_symbol
_atom_site_label
_atom_site_fract_x
_atom_site_fract_y
_atom_site_fract_z
Si Si1 0.302715 0.852711 0.221953
Si Si2 0.028296 0.489017 0.698750
Si Si3 0.128148 0.152492 0.822182
Si Si4 0.541585 0.347611 0.040481
Si Si5 0.090143 0.867157 0.336360
Si Si6 0.391252 0.432022 0.251118
Si Si7 0.739082 0.366468 0.606819
Si Si8 0.354243 0.150060 0.220239
O O1 0.156280 0.833242 0.314080
O O2 0.198940 0.736054 0.308619
O O3 0.579761 0.124025 0.351996
O O4 0.228080 0.698437 0.929668
O O5 0.134975 0.493107 0.459537
O O6 0.930854 0.499103 0.724520
O O7 0.363351 0.378556 0.820742
O O8 0.120284 0.015624 0.609608
O O9 0.173943 0.244217 0.081636
O O10 0.893608 0.996505 0.761086
O O11 0.382309 0.321060 0.180074
O O12 0.446082 0.187665 0.013958
O O13 0.813941 0.616496 0.200283
O O14 0.560436 0.301961 0.785112
O O15 0.274030 0.010137 0.216976
O O16 0.441030 0.588498 0.535664
#
# Coordination Sequence:
#
# PCOD9105330 Si02
#       8
#     2   2   2   2   2   2   2   2
#     4  11  23  45  71  99 128 165 213 264 328 392
#     4  10  24  46  73  96 128 166 210 270 326 390
#     4  10  20  39  65  89 125 174 220 263 322 367
#     4  12  23  40  64  94 133 168 218 262 317 384
#     4  11  22  42  63  94 134 166 212 271 316 377
#     4  10  20  39  64  90 124 173 222 266 311 378
#     4  11  24  45  68 100 130 167 211 267 325 385
#     4  11  23  41  62  90 133 178 210 269 319 366
#
# _framework density 25.886056
#
# number of rings (size 3 to 8) (size 9 to 14) (size 15 to 20)
#    0.000    1.250    3.750    2.625    0.000    2.500 
#    4.500    0.000    0.000    0.000    0.000    0.000 
#    0.000    0.000    0.000    0.000    0.000    0.000 
#
# Total GULP energy -89676.943515 kJ/mol
# GULP energy per Si atom -5604.808970 kJ/mol
# Density = 2.582714 g / cm^3
# Si number density = 25.886056 Si / 1000 Ang^3
#
#
#
# Elastic Constant Matrix: (Units=GPa)
#
#
# Indices 1 2 3 4 5 6 
#
# 1 59.0500 19.7776 23.5598 -6.9604 6.3737 -7.4216
# 2 19.7776 83.4766 24.8597 -14.7043 4.5563 -16.3701
# 3 23.5598 24.8597 68.1671 -2.8343 23.3485 -4.7794
# 4 -6.9604 -14.7043 -2.8343 43.8428 1.0435 11.6846
# 5 6.3737 4.5563 23.3485 1.0435 27.6959 -0.9617
# 6 -7.4216 -16.3701 -4.7794 11.6846 -0.9617 27.3542
#
#
#
# Elastic Compliance Matrix: (Units=1/GPa)
#
#
# Indices 1 2 3 4 5 6 
#
# 1 0.020635 -0.002288 -0.006433 0.001387 0.001088 0.002551
# 2 -0.002288 0.015753 -0.005205 0.002705 0.002458 0.006828
# 3 -0.006433 -0.005205 0.025185 -0.000439 -0.018911 -0.000937
# 4 0.001387 0.002705 -0.000439 0.026467 -0.001719 -0.009447
# 5 0.001088 0.002458 -0.018911 -0.001719 0.051494 0.001007
# 6 0.002551 0.006828 -0.000937 -0.009447 0.001007 0.045243
#
#
# Mechanical properties :
#
#
# Convention : Reuss Voigt Hill
#
# Bulk Modulus (GPa) = 29.65570 38.56531 34.11051
# Shear Modulus (GPa) = 22.33463 29.27836 25.80649
#
# Velocity S-wave (km/s) = 2.94054 3.36675 3.16084
# Velocity P-wave (km/s) = 4.79689 5.48122 5.15044
#
# Compressibility (1/GPa) = 0.03372033
#
# Stress axis : x y z
#
# Youngs Moduli (GPa) = 48.46248 63.48066 39.70646
#
# Poissons Ratio (x) = 0.14523 0.25544
# Poissons Ratio (y) = 0.11087 0.20667
# Poissons Ratio (z) = 0.31177 0.33041
#
# Static dielectric constant tensor:
#      x y z
#    x 2.025720 -0.000110 -0.028580 
#    y -0.000110 2.034680 -0.066730 
#    z -0.028580 -0.066730 2.080720 
# 
# From -- ./inp_files/337814.got.cif
#   From: 2010.05.17/outbox.cif.g08.bks.cpg/sg2_169_cif.got.tgz:337814.got - 2010.06.03 11:33:40.
