data_PCOD9105798
_publ_section_title
;
Structure prediction by ZEFSAII (Michael W. Deem and Ramdas Pophale) SiO2 
 PCOD9105798
Probable space group: P -1
;
_chemical_formula_sum "Si O2"
_cell_formula_units_Z 15
_cell_length_a 10.365479
_cell_length_b 15.823323
_cell_length_c 12.540045
_cell_angle_alpha 26.283193
_cell_angle_beta 54.770039
_cell_angle_gamma 50.857318
_cell_volume 706.006760
_symmetry_space_group_name_H-M "P -1"
_symmetry_group_IT_number 2
_symmetry_cell_setting 'triclinic'
loop_
_space_group_symop_operation_xyz
x,y,z
-x,-y,-z
loop_
_atom_site_type_symbol
_atom_site_label
_atom_site_fract_x
_atom_site_fract_y
_atom_site_fract_z
Si Si1 0.243818 0.457421 0.826866
Si Si2 0.839603 0.998978 0.443057
Si Si3 0.473707 0.021783 0.267017
Si Si4 0.960614 0.735485 0.240467
Si Si5 0.500000 0.500000 0.500000
Si Si6 0.389159 0.187964 0.771163
Si Si7 0.822833 0.002256 0.208446
Si Si8 0.065589 0.667165 0.873374
O O1 0.331838 0.575604 0.574900
O O2 0.212161 0.531223 0.881774
O O3 0.375545 0.232359 0.018152
O O4 0.063074 0.442027 0.899015
O O5 0.653282 0.028972 0.535750
O O6 0.956962 0.834035 0.652552
O O7 0.864183 0.925128 0.394954
O O8 0.876529 0.207900 0.206576
O O9 0.629194 0.052998 0.218002
O O10 0.536755 0.852723 0.337595
O O11 0.799977 0.813973 0.150855
O O12 0.000000 0.500000 0.500000
O O13 0.912088 0.841872 0.257810
O O14 0.113592 0.805671 0.050297
O O15 0.401371 0.387223 0.595971
O O16 0.500000 0.000000 0.000000
#
# Coordination Sequence:
#
# PCOD9105798 Si02
#       8
#     2   2   2   2   1   2   2   2
#     4  10  21  38  57  93 129 162 213 266 321 386
#     4  10  20  39  66  87 121 167 211 265 323 385
#     4  10  21  42  61  89 131 161 215 268 323 375
#     4  10  25  44  64  92 135 170 214 261 324 394
#     4  12  24  34  68  96 128 170 214 268 332 384
#     4  11  24  41  65  98 128 170 216 269 323 386
#     4  10  23  43  66  88 126 173 212 257 322 389
#     4   9  21  39  61  91 129 163 210 272 328 379
#
# _framework density 21.246255999999999
#
# number of rings (size 3 to 8) (size 9 to 14) (size 15 to 20)
#    0.000    1.867    1.333    1.200    3.733    4.267 
#    4.800    0.667    0.000    0.000    0.000    0.000 
#    0.000    0.000    0.000    0.000    0.000    0.000 
#
# Total GULP energy -83517.146338 kJ/mol
# GULP energy per Si atom -5567.809756 kJ/mol
# Density = 2.119790 g / cm^3
# Si number density = 21.246256 Si / 1000 Ang^3
#
#
#
# Elastic Constant Matrix: (Units=GPa)
#
#
# Indices 1 2 3 4 5 6 
#
# 1 120.9967 43.4210 37.5829 8.4702 -19.9723 20.5954
# 2 43.4210 57.6049 7.6344 2.9051 -8.5922 12.6209
# 3 37.5829 7.6344 43.7840 3.6307 -12.4705 4.2888
# 4 8.4702 2.9051 3.6307 33.9414 0.8379 -6.6483
# 5 -19.9723 -8.5922 -12.4705 0.8379 23.8633 -7.2335
# 6 20.5954 12.6209 4.2888 -6.6483 -7.2335 29.1756
#
#
#
# Elastic Compliance Matrix: (Units=1/GPa)
#
#
# Indices 1 2 3 4 5 6 
#
# 1 0.016842 -0.009192 -0.011018 -0.003551 0.003244 -0.006298
# 2 -0.009192 0.025139 0.004789 -0.001370 0.002457 -0.004793
# 3 -0.011018 0.004789 0.034519 -0.000997 0.011569 0.003273
# 4 -0.003551 -0.001370 -0.000997 0.032615 -0.002049 0.010170
# 5 0.003244 0.002457 0.011569 -0.002049 0.054008 0.007870
# 6 -0.006298 -0.004793 0.003273 0.010170 0.007870 0.044582
#
#
# Mechanical properties :
#
#
# Convention : Reuss Voigt Hill
#
# Bulk Modulus (GPa) = 21.90181 44.40690 33.15435
# Shear Modulus (GPa) = 19.70313 26.31254 23.00784
#
# Velocity S-wave (km/s) = 3.04858 3.52299 3.29433
# Velocity P-wave (km/s) = 4.76683 6.12332 5.48715
#
# Compressibility (1/GPa) = 0.04565832
#
# Stress axis : x y z
#
# Youngs Moduli (GPa) = 59.37634 39.77863 28.96927
#
# Poissons Ratio (x) = 0.36564 0.31920
# Poissons Ratio (y) = 0.54578 -0.13875
# Poissons Ratio (z) = 0.65424 -0.19052
#
# Static dielectric constant tensor:
#      x y z
#    x 1.750660 -0.002520 0.005240 
#    y -0.002520 1.783160 0.010240 
#    z 0.005240 0.010240 1.809360 
# 
# From -- ./inp_files/396850.got.cif
#   From: 2010.05.17/outbox.cif.g08.bks.cpg/sg2_199_cif.got.tgz:396850.got - 2010.06.03 11:33:40.
