data_PCOD9105543
_publ_section_title
;
Structure prediction by ZEFSAII (Michael W. Deem and Ramdas Pophale) SiO2 
 PCOD9105543
Probable space group: P -1
;
_chemical_formula_sum "Si O2"
_cell_formula_units_Z 16
_cell_length_a 5.443207
_cell_length_b 13.175365
_cell_length_c 16.271189
_cell_angle_alpha 139.336433
_cell_angle_beta 114.013986
_cell_angle_gamma 60.745950
_cell_volume 662.047709
_symmetry_space_group_name_H-M "P -1"
_symmetry_group_IT_number 2
_symmetry_cell_setting 'triclinic'
loop_
_space_group_symop_operation_xyz
x,y,z
-x,-y,-z
loop_
_atom_site_type_symbol
_atom_site_label
_atom_site_fract_x
_atom_site_fract_y
_atom_site_fract_z
Si Si1 0.902041 0.969350 0.057462
Si Si2 0.773979 0.861281 0.559629
Si Si3 0.592462 0.486379 0.774042
Si Si4 0.568774 0.820875 0.807497
Si Si5 0.568478 0.052924 0.801287
Si Si6 0.671138 0.593493 0.022484
Si Si7 0.781120 0.118836 0.605486
Si Si8 0.051575 0.509515 0.339369
O O1 0.148232 0.897989 0.110557
O O2 0.743541 0.149285 0.182789
O O3 0.719823 0.853415 0.932787
O O4 0.000000 0.000000 0.000000
O O5 0.534715 0.858650 0.458778
O O6 0.014268 0.689010 0.481752
O O7 0.628193 0.907490 0.655005
O O8 0.854083 0.021180 0.640441
O O9 0.765270 0.306152 0.720458
O O10 0.269315 0.498494 0.714210
O O11 0.782442 0.503027 0.732608
O O12 0.564583 0.604527 0.920172
O O13 0.748045 0.652212 0.689203
O O14 0.513121 0.972087 0.829188
O O15 0.363856 0.220282 0.841288
O O16 0.500000 0.500000 0.000000
O O17 0.000000 0.500000 0.000000
O O18 0.000000 0.000000 0.500000
#
# Coordination Sequence:
#
# PCOD9105543 Si02
#       8
#     2   2   2   2   2   2   2   2
#     4   9  21  41  66  96 125 178 216 269 328 402
#     4  10  23  41  63  95 131 173 225 271 330 393
#     4  11  24  42  69  94 133 172 226 276 330 393
#     4  10  23  40  68  95 131 172 225 267 330 405
#     4  11  25  42  66  95 137 175 212 276 342 393
#     4  12  28  44  65 100 136 172 217 281 338 399
#     4  10  20  39  65  87 123 177 223 268 321 388
#     4  11  24  42  68 101 126 177 227 275 321 393
#
# _framework density 24.167441
#
# number of rings (size 3 to 8) (size 9 to 14) (size 15 to 20)
#    0.000    1.500    1.250    2.250   12.250    1.500 
#    0.000    0.625    0.000    0.000    0.000    0.000 
#    0.000    0.000    0.000    0.000    0.000    0.000 
#
# Total GULP energy -89225.680244 kJ/mol
# GULP energy per Si atom -5576.605015 kJ/mol
# Density = 2.411243 g / cm^3
# Si number density = 24.167441 Si / 1000 Ang^3
#
#
#
# Elastic Constant Matrix: (Units=GPa)
#
#
# Indices 1 2 3 4 5 6 
#
# 1 88.8248 44.4293 11.7360 16.4378 -24.5401 -0.8011
# 2 44.4293 116.3924 34.6512 41.7219 -11.3300 -9.0974
# 3 11.7360 34.6512 77.0740 26.5758 -26.3813 3.8171
# 4 16.4378 41.7219 26.5758 50.8340 -8.9498 -13.8111
# 5 -24.5401 -11.3300 -26.3813 -8.9498 31.1169 5.8378
# 6 -0.8011 -9.0974 3.8171 -13.8111 5.8378 37.5956
#
#
#
# Elastic Compliance Matrix: (Units=1/GPa)
#
#
# Indices 1 2 3 4 5 6 
#
# 1 0.020384 -0.007880 0.009111 -0.002978 0.021352 -0.006807
# 2 -0.007880 0.015620 -0.006178 -0.007810 -0.008516 0.002692
# 3 0.009111 -0.006178 0.028582 -0.011298 0.028310 -0.012749
# 4 -0.002978 -0.007810 -0.011298 0.035305 -0.007105 0.013266
# 5 0.021352 -0.008516 0.028310 -0.007105 0.071239 -0.018152
# 6 -0.006807 0.002692 -0.012749 0.013266 -0.018152 0.036092
#
#
# Mechanical properties :
#
#
# Convention : Reuss Voigt Hill
#
# Bulk Modulus (GPa) = 18.28408 51.54713 34.91560
# Shear Modulus (GPa) = 21.24538 36.67429 28.95984
#
# Velocity S-wave (km/s) = 2.96816 3.89975 3.46540
# Velocity P-wave (km/s) = 4.39644 6.45390 5.52184
#
# Compressibility (1/GPa) = 0.05469239
#
# Stress axis : x y z
#
# Youngs Moduli (GPa) = 49.05733 64.02183 34.98733
#
# Poissons Ratio (x) = 0.50448 -0.31877
# Poissons Ratio (y) = 0.38656 0.21614
# Poissons Ratio (z) = -0.44695 0.39551
#
# Static dielectric constant tensor:
#      x y z
#    x 2.550210 0.062030 0.150600 
#    y 0.062030 2.082150 0.090430 
#    z 0.150600 0.090430 1.990650 
# 
# From -- ./inp_files/484529.got.cif
#   From: 2010.05.17/outbox.cif.g08.bks.cpg/sg2_243_cif.got.tgz:484529.got - 2010.06.03 11:33:40.
