data_PCOD9105736
_publ_section_title
;
Structure prediction by ZEFSAII (Michael W. Deem and Ramdas Pophale) SiO2 
 PCOD9105736
Probable space group: P -1
;
_chemical_formula_sum "Si O2"
_cell_formula_units_Z 15
_cell_length_a 21.814035
_cell_length_b 7.284342
_cell_length_c 8.506572
_cell_angle_alpha 120.845989
_cell_angle_beta 136.309343
_cell_angle_gamma 39.469608
_cell_volume 590.339707
_symmetry_space_group_name_H-M "P -1"
_symmetry_group_IT_number 2
_symmetry_cell_setting 'triclinic'
loop_
_space_group_symop_operation_xyz
x,y,z
-x,-y,-z
loop_
_atom_site_type_symbol
_atom_site_label
_atom_site_fract_x
_atom_site_fract_y
_atom_site_fract_z
Si Si1 0.673894 0.893685 0.207482
Si Si2 0.172233 0.388727 0.340043
Si Si3 0.440245 0.365915 0.133296
Si Si4 0.531697 0.220977 0.592343
Si Si5 0.296698 0.444430 0.341687
Si Si6 0.920643 0.753071 0.171150
Si Si7 0.000000 0.000000 0.500000
Si Si8 0.874684 0.454953 0.173366
O O1 0.744599 0.840496 0.472231
O O2 0.766368 0.775014 0.186494
O O3 0.538068 0.198431 0.100659
O O4 0.651653 0.674655 0.074124
O O5 0.234989 0.480406 0.405772
O O6 0.047598 0.666524 0.314051
O O7 0.138060 0.261960 0.095230
O O8 0.507489 0.215089 0.360487
O O9 0.397208 0.676044 0.208895
O O10 0.397653 0.460883 0.524081
O O11 0.614213 0.903279 0.678331
O O12 0.191556 0.609611 0.090953
O O13 0.946177 0.509177 0.222511
O O14 0.873448 0.044622 0.286748
O O15 0.948317 0.219100 0.339989
#
# Coordination Sequence:
#
# PCOD9105736 Si02
#       8
#     2   2   2   2   2   2   1   2
#     4  11  21  40  65  95 137 175 215 280 330 384
#     4  10  21  42  66  88 133 177 214 273 338 379
#     4  10  22  37  64 100 132 175 225 270 327 407
#     4  10  20  39  65  96 134 175 223 269 327 416
#     4  10  21  41  66  95 135 181 215 272 340 397
#     4  10  24  45  67  93 130 177 222 279 331 395
#     4  12  24  42  70  98 126 170 234 278 322 404
#     4  11  24  43  68  96 136 179 219 275 344 389
#
# _framework density 25.409096999999999
#
# number of rings (size 3 to 8) (size 9 to 14) (size 15 to 20)
#    0.000    1.600    4.000    0.400    0.000    3.200 
#    2.400    7.333    0.000    0.000    0.000    0.000 
#    0.000    0.000    0.000    0.000    0.000    0.000 
#
# Total GULP energy -83620.787711 kJ/mol
# GULP energy per Si atom -5574.719181 kJ/mol
# Density = 2.535126 g / cm^3
# Si number density = 25.409097 Si / 1000 Ang^3
#
#
#
# Elastic Constant Matrix: (Units=GPa)
#
#
# Indices 1 2 3 4 5 6 
#
# 1 95.5786 11.0143 13.5850 -1.2055 15.0864 -12.9932
# 2 11.0143 62.8617 30.0272 1.5778 7.4552 12.9280
# 3 13.5850 30.0272 116.8039 15.9379 1.5754 27.5607
# 4 -1.2055 1.5778 15.9379 27.8471 7.6338 12.5979
# 5 15.0864 7.4552 1.5754 7.6338 36.2356 -4.2707
# 6 -12.9932 12.9280 27.5607 12.5979 -4.2707 42.4350
#
#
#
# Elastic Compliance Matrix: (Units=1/GPa)
#
#
# Indices 1 2 3 4 5 6 
#
# 1 0.012350 -0.001641 -0.002266 0.000795 -0.004273 0.005087
# 2 -0.001641 0.019866 -0.004169 0.005239 -0.005023 -0.005908
# 3 -0.002266 -0.004169 0.011813 -0.004526 0.001582 -0.005593
# 4 0.000795 0.005239 -0.004526 0.048144 -0.013006 -0.014015
# 5 -0.004273 -0.005023 0.001582 -0.013006 0.033843 0.006462
# 6 0.005087 -0.005908 -0.005593 -0.014015 0.006462 0.035366
#
#
# Mechanical properties :
#
#
# Convention : Reuss Voigt Hill
#
# Bulk Modulus (GPa) = 35.87214 42.72191 39.29703
# Shear Modulus (GPa) = 26.76293 36.01139 31.38716
#
# Velocity S-wave (km/s) = 3.24895 3.76874 3.51846
# Velocity P-wave (km/s) = 5.31251 5.98231 5.65733
#
# Compressibility (1/GPa) = 0.02787678
#
# Stress axis : x y z
#
# Youngs Moduli (GPa) = 80.97312 50.33671 84.65555
#
# Poissons Ratio (x) = 0.08260 0.19179
# Poissons Ratio (y) = 0.13287 0.35296
# Poissons Ratio (z) = 0.18345 0.20987
#
# Static dielectric constant tensor:
#      x y z
#    x 2.105230 -0.178150 -0.029050 
#    y -0.178150 2.303410 0.215350 
#    z -0.029050 0.215350 2.141020 
# 
# From -- ./inp_files/341268.got.cif
#   From: 2010.05.17/outbox.cif.g08.bks.cpg/sg2_171_cif.got.tgz:341268.got - 2010.06.03 11:33:40.
