data_PCOD9105132
_publ_section_title
;
Structure prediction by ZEFSAII (Michael W. Deem and Ramdas Pophale) SiO2 
 PCOD9105132
Probable space group: P -1
;
_chemical_formula_sum "Si O2"
_cell_formula_units_Z 16
_cell_length_a 17.301473
_cell_length_b 8.681164
_cell_length_c 8.758959
_cell_angle_alpha 94.757025
_cell_angle_beta 63.415798
_cell_angle_gamma 51.843179
_cell_volume 795.131768
_symmetry_space_group_name_H-M "P -1"
_symmetry_group_IT_number 2
_symmetry_cell_setting 'triclinic'
loop_
_space_group_symop_operation_xyz
x,y,z
-x,-y,-z
loop_
_atom_site_type_symbol
_atom_site_label
_atom_site_fract_x
_atom_site_fract_y
_atom_site_fract_z
Si Si1 0.000180 0.024491 0.740588
Si Si2 0.804430 0.148929 0.713828
Si Si3 0.500293 0.782013 0.347164
Si Si4 0.098766 0.685263 0.863509
Si Si5 0.688369 0.331214 0.322403
Si Si6 0.569539 0.419210 0.750669
Si Si7 0.297823 0.929656 0.970942
Si Si8 0.697910 0.792321 0.221777
O O1 0.863532 0.186664 0.791152
O O2 0.099308 0.955919 0.521521
O O3 0.035330 0.810170 0.766635
O O4 0.992411 0.148096 0.902128
O O5 0.661220 0.360649 0.797773
O O6 0.789978 0.004661 0.803626
O O7 0.559875 0.577315 0.392403
O O8 0.463895 0.720921 0.231254
O O9 0.610525 0.765842 0.233274
O O10 0.384766 0.015493 0.556704
O O11 0.210542 0.665700 0.763046
O O12 0.172805 0.434539 0.828559
O O13 0.658772 0.313008 0.514402
O O14 0.731655 0.144423 0.151715
O O15 0.444249 0.689600 0.863242
O O16 0.282712 0.118192 0.929693
#
# Coordination Sequence:
#
# PCOD9105132 Si02
#       8
#     2   2   2   2   2   2   2   2
#     4  10  22  41  60  87 104 152 210 243 271 325
#     4  11  23  36  62  82 119 151 194 237 281 342
#     4   9  18  31  56  89 120 143 185 235 285 339
#     4  10  20  38  66  82 107 147 205 249 277 316
#     4  10  16  33  60  88 115 144 195 236 273 333
#     4  11  19  35  59  92 117 152 185 232 283 346
#     4  11  20  36  57  94 120 147 186 230 292 352
#     4  10  19  33  59  90 117 145 184 245 290 334
#
# _framework density 20.122450000000001
#
# number of rings (size 3 to 8) (size 9 to 14) (size 15 to 20)
#    0.000    1.750    5.000    1.125    0.000    0.000 
#    0.000    1.875    5.500    0.000    0.000    0.000 
#    0.000    0.000    0.000    0.000    0.000    0.000 
#
# Total GULP energy -89116.304361 kJ/mol
# GULP energy per Si atom -5569.769023 kJ/mol
# Density = 2.007665 g / cm^3
# Si number density = 20.122450 Si / 1000 Ang^3
#
#
#
# Elastic Constant Matrix: (Units=GPa)
#
#
# Indices 1 2 3 4 5 6 
#
# 1 77.6217 36.9375 9.4737 -5.4443 -4.4973 -17.8357
# 2 36.9375 108.2280 39.5484 -8.7699 -4.0202 4.0641
# 3 9.4737 39.5484 112.4271 -27.2392 0.4361 4.9426
# 4 -5.4443 -8.7699 -27.2392 33.9721 1.3301 -4.8636
# 5 -4.4973 -4.0202 0.4361 1.3301 11.2651 -4.0182
# 6 -17.8357 4.0641 4.9426 -4.8636 -4.0182 32.4143
#
#
#
# Elastic Compliance Matrix: (Units=1/GPa)
#
#
# Indices 1 2 3 4 5 6 
#
# 1 0.020074 -0.007085 0.001092 0.003820 0.009829 0.013559
# 2 -0.007085 0.013291 -0.004320 -0.001922 0.000477 -0.005135
# 3 0.001092 -0.004320 0.012568 0.009281 -0.002582 0.000299
# 4 0.003820 -0.001922 0.009281 0.037979 -0.001717 0.006413
# 5 0.009829 0.000477 -0.002582 -0.001717 0.099524 0.017822
# 6 0.013559 -0.005135 0.000299 0.006413 0.017822 0.042081
#
#
# Mechanical properties :
#
#
# Convention : Reuss Voigt Hill
#
# Bulk Modulus (GPa) = 39.51470 52.24398 45.87934
# Shear Modulus (GPa) = 19.64035 29.68479 24.66257
#
# Velocity S-wave (km/s) = 3.12756 3.84501 3.50469
# Velocity P-wave (km/s) = 5.72031 6.76251 6.26312
#
# Compressibility (1/GPa) = 0.02530704
#
# Stress axis : x y z
#
# Youngs Moduli (GPa) = 49.81570 75.23773 79.56852
#
# Poissons Ratio (x) = 0.53303 -0.08688
# Poissons Ratio (y) = 0.35293 0.34376
# Poissons Ratio (z) = -0.05440 0.32505
#
# Static dielectric constant tensor:
#      x y z
#    x 1.777810 -0.042680 -0.009140 
#    y -0.042680 1.757090 -0.007540 
#    z -0.009140 -0.007540 1.748410 
# 
# From -- ./inp_files/179247.got.cif
#   From: 2010.05.17/outbox.cif.g08.bks.cpg/sg2_90_cif.got.tgz:179247.got - 2010.06.03 11:33:40.
