data_PCOD9105249
_publ_section_title
;
Structure prediction by ZEFSAII (Michael W. Deem and Ramdas Pophale) SiO2 
 PCOD9105249
Probable space group: P -1
;
_chemical_formula_sum "Si O2"
_cell_formula_units_Z 12
_cell_length_a 9.551736
_cell_length_b 10.659009
_cell_length_c 11.621776
_cell_angle_alpha 70.210452
_cell_angle_beta 141.536990
_cell_angle_gamma 82.632966
_cell_volume 512.823114
_symmetry_space_group_name_H-M "P -1"
_symmetry_group_IT_number 2
_symmetry_cell_setting 'triclinic'
loop_
_space_group_symop_operation_xyz
x,y,z
-x,-y,-z
loop_
_atom_site_type_symbol
_atom_site_label
_atom_site_fract_x
_atom_site_fract_y
_atom_site_fract_z
Si Si1 0.195768 0.324733 0.027846
Si Si2 0.838129 0.555292 0.501825
Si Si3 0.480109 0.589373 0.669880
Si Si4 0.925741 0.179399 0.859412
Si Si5 0.876614 0.070347 0.526494
Si Si6 0.384347 0.946843 0.039420
O O1 0.231026 0.446349 0.086665
O O2 0.983414 0.285442 0.942960
O O3 0.548860 0.132449 0.313322
O O4 0.068910 0.427511 0.791825
O O5 0.583722 0.540519 0.340483
O O6 0.656683 0.764540 0.334682
O O7 0.000000 0.500000 0.500000
O O8 0.228905 0.739088 0.559384
O O9 0.384278 0.689087 0.453034
O O10 0.179981 0.105120 0.948995
O O11 0.000000 0.000000 0.000000
O O12 0.000000 0.000000 0.500000
O O13 0.155602 0.932219 0.835041
O O14 0.500000 0.000000 0.000000
#
# Coordination Sequence:
#
# PCOD9105249 Si02
#       6
#     2   2   2   2   2   2
#     4   9  20  37  55  81 115 152 191 236 291 341
#     4  11  20  35  56  83 122 157 188 236 296 346
#     4   8  20  36  52  81 115 150 192 231 290 340
#     4  10  20  39  64  86 112 154 196 245 288 341
#     4   9  16  33  54  79 112 148 188 234 276 335
#     4  11  22  38  57  88 120 147 196 244 286 348
#
# _framework density 23.39988
#
# number of rings (size 3 to 8) (size 9 to 14) (size 15 to 20)
#    1.000    1.333    0.000    5.000    0.000    1.333 
#    6.000    3.333    0.000    2.000    0.000    0.000 
#    0.000    0.000    0.000    0.000    0.000    0.000 
#
# Total GULP energy -66848.537687 kJ/mol
# GULP energy per Si atom -5570.711474 kJ/mol
# Density = 2.334662 g / cm^3
# Si number density = 23.399880 Si / 1000 Ang^3
#
#
#
# Elastic Constant Matrix: (Units=GPa)
#
#
# Indices 1 2 3 4 5 6 
#
# 1 70.8827 16.7594 19.7326 9.6264 9.4430 15.3754
# 2 16.7594 111.0527 58.5786 22.4740 -25.9950 20.6408
# 3 19.7326 58.5786 130.6032 14.7016 -7.6566 24.5666
# 4 9.6264 22.4740 14.7016 51.3826 1.2373 2.3113
# 5 9.4430 -25.9950 -7.6566 1.2373 25.0512 -6.2368
# 6 15.3754 20.6408 24.5666 2.3113 -6.2368 38.4141
#
#
#
# Elastic Compliance Matrix: (Units=1/GPa)
#
#
# Indices 1 2 3 4 5 6 
#
# 1 0.018615 -0.004290 -0.000229 -0.000907 -0.013261 -0.007098
# 2 -0.004290 0.018577 -0.005652 -0.006114 0.019177 -0.001169
# 3 -0.000229 -0.005652 0.010879 -0.000316 -0.003529 -0.004383
# 4 -0.000907 -0.006114 -0.000316 0.022499 -0.006866 0.001382
# 5 -0.013261 0.019177 -0.003529 -0.006866 0.066173 0.008417
# 6 -0.007098 -0.001169 -0.004383 0.001382 0.008417 0.033588
#
#
# Mechanical properties :
#
#
# Convention : Reuss Voigt Hill
#
# Bulk Modulus (GPa) = 36.06057 55.85331 45.95694
# Shear Modulus (GPa) = 25.01063 37.46743 31.23903
#
# Velocity S-wave (km/s) = 3.27285 4.00582 3.65774
# Velocity P-wave (km/s) = 5.45217 6.73174 6.12546
#
# Compressibility (1/GPa) = 0.02773112
#
# Stress axis : x y z
#
# Youngs Moduli (GPa) = 53.71964 53.83066 91.91697
#
# Poissons Ratio (x) = 0.23093 0.02101
# Poissons Ratio (y) = 0.23045 0.51948
# Poissons Ratio (z) = 0.01228 0.30423
#
# Static dielectric constant tensor:
#      x y z
#    x 1.964740 -0.041480 0.058250 
#    y -0.041480 1.966150 0.048080 
#    z 0.058250 0.048080 1.895570 
# 
# From -- ./inp_files/352779.got.cif
#   From: 2010.05.17/outbox.cif.g08.bks.cpg/sg2_177_cif.got.tgz:352779.got - 2010.06.03 11:33:40.
