data_PCOD9105664
_publ_section_title
;
Structure prediction by ZEFSAII (Michael W. Deem and Ramdas Pophale) SiO2 
 PCOD9105664
Probable space group: P -1
;
_chemical_formula_sum "Si O2"
_cell_formula_units_Z 16
_cell_length_a 15.362987
_cell_length_b 7.367816
_cell_length_c 10.006946
_cell_angle_alpha 48.752143
_cell_angle_beta 131.205945
_cell_angle_gamma 129.705116
_cell_volume 597.391187
_symmetry_space_group_name_H-M "P -1"
_symmetry_group_IT_number 2
_symmetry_cell_setting 'triclinic'
loop_
_space_group_symop_operation_xyz
x,y,z
-x,-y,-z
loop_
_atom_site_type_symbol
_atom_site_label
_atom_site_fract_x
_atom_site_fract_y
_atom_site_fract_z
Si Si1 0.002395 0.165770 0.640067
Si Si2 0.392511 0.442504 0.130645
Si Si3 0.265481 0.625886 0.695482
Si Si4 0.359072 0.870141 0.057547
Si Si5 0.116914 0.748300 0.989778
Si Si6 0.196749 0.929146 0.278976
Si Si7 0.751671 0.921882 0.364447
Si Si8 0.577724 0.389150 0.527366
O O1 0.117847 0.440016 0.640814
O O2 0.917535 0.105133 0.718530
O O3 0.899253 0.078994 0.458922
O O4 0.078696 0.979952 0.787320
O O5 0.417960 0.719841 0.091857
O O6 0.503655 0.352559 0.331318
O O7 0.277461 0.228492 0.193131
O O8 0.348495 0.479168 0.918574
O O9 0.274110 0.758510 0.496429
O O10 0.293537 0.883701 0.688384
O O11 0.216177 0.691347 0.026118
O O12 0.414605 0.861081 0.265261
O O13 0.326475 0.097985 0.842382
O O14 0.159196 0.824700 0.145323
O O15 0.000000 0.500000 0.000000
O O16 0.706625 0.633580 0.518553
O O17 0.500000 0.500000 0.500000
#
# Coordination Sequence:
#
# PCOD9105664 Si02
#       8
#     2   2   2   2   2   2   2   2
#     4  11  22  40  62  88 127 161 205 245 296 365
#     4  10  21  40  68  89 116 156 209 254 297 354
#     4  10  21  36  62  91 119 156 206 247 295 355
#     4  10  23  39  58  93 129 152 203 247 311 358
#     4  12  25  37  61  89 127 169 196 245 311 363
#     4  11  22  40  62  89 122 160 206 249 296 359
#     4  10  21  37  63  95 122 157 201 257 300 354
#     4  10  20  39  65  94 120 154 206 260 301 352
#
# _framework density 26.783121000000001
#
# number of rings (size 3 to 8) (size 9 to 14) (size 15 to 20)
#    0.000    1.500    1.250    6.375    5.250    6.000 
#    2.250    0.625    0.000    1.500    0.000    0.000 
#    0.000    0.000    0.000    0.000    0.000    0.000 
#
# Total GULP energy -89274.368619 kJ/mol
# GULP energy per Si atom -5579.648039 kJ/mol
# Density = 2.672216 g / cm^3
# Si number density = 26.783121 Si / 1000 Ang^3
#
#
#
# Elastic Constant Matrix: (Units=GPa)
#
#
# Indices 1 2 3 4 5 6 
#
# 1 66.9671 22.5525 15.6858 6.9271 14.3229 -6.4613
# 2 22.5525 117.6390 31.1390 -0.2024 -11.4792 -4.6726
# 3 15.6858 31.1390 233.4981 25.3253 -20.5459 -0.4213
# 4 6.9271 -0.2024 25.3253 37.0791 6.3240 -2.4015
# 5 14.3229 -11.4792 -20.5459 6.3240 31.0681 3.8430
# 6 -6.4613 -4.6726 -0.4213 -2.4015 3.8430 19.6148
#
#
#
# Elastic Compliance Matrix: (Units=1/GPa)
#
#
# Indices 1 2 3 4 5 6 
#
# 1 0.020549 -0.004395 -0.002009 0.000360 -0.013536 0.008375
# 2 -0.004395 0.010018 -0.000624 0.000405 0.005239 -0.000052
# 3 -0.002009 -0.000624 0.005463 -0.004447 0.005500 -0.002315
# 4 0.000360 0.000405 -0.004447 0.032080 -0.010236 0.006053
# 5 -0.013536 0.005239 0.005500 -0.010236 0.047780 -0.013707
# 6 0.008375 -0.000052 -0.002315 0.006053 -0.013707 0.057105
#
#
# Mechanical properties :
#
#
# Convention : Reuss Voigt Hill
#
# Bulk Modulus (GPa) = 45.50826 61.87321 53.69073
# Shear Modulus (GPa) = 25.72328 40.80085 33.26207
#
# Velocity S-wave (km/s) = 3.10244 3.90728 3.52789
# Velocity P-wave (km/s) = 5.46460 6.59602 6.05679
#
# Compressibility (1/GPa) = 0.02197403
#
# Stress axis : x y z
#
# Youngs Moduli (GPa) = 48.66348 99.81852 183.04894
#
# Poissons Ratio (x) = 0.43872 0.36780
# Poissons Ratio (y) = 0.21388 0.11418
# Poissons Ratio (z) = 0.09778 0.06226
#
# Static dielectric constant tensor:
#      x y z
#    x 2.115960 0.042720 -0.042440 
#    y 0.042720 2.273890 -0.092500 
#    z -0.042440 -0.092500 2.261750 
# 
# From -- ./inp_files/461825.got.cif
#   From: 2010.05.17/outbox.cif.g08.bks.cpg/sg2_231_cif.got.tgz:461825.got - 2010.06.03 11:33:40.
