data_PCOD9105401
_publ_section_title
;
Structure prediction by ZEFSAII (Michael W. Deem and Ramdas Pophale) SiO2 
 PCOD9105401
Probable space group: P -1
;
_chemical_formula_sum "Si O2"
_cell_formula_units_Z 10
_cell_length_a 18.386697
_cell_length_b 5.639715
_cell_length_c 9.205882
_cell_angle_alpha 141.948266
_cell_angle_beta 140.223519
_cell_angle_gamma 46.558444
_cell_volume 368.138762
_symmetry_space_group_name_H-M "P -1"
_symmetry_group_IT_number 2
_symmetry_cell_setting 'triclinic'
loop_
_space_group_symop_operation_xyz
x,y,z
-x,-y,-z
loop_
_atom_site_type_symbol
_atom_site_label
_atom_site_fract_x
_atom_site_fract_y
_atom_site_fract_z
Si Si1 0.561536 0.449346 0.724512
Si Si2 0.349849 0.491917 0.611642
Si Si3 0.015858 0.558059 0.381064
Si Si4 0.124831 0.451138 0.088615
Si Si5 0.746655 0.439968 0.199133
O O1 0.500000 0.500000 0.500000
O O2 0.457678 0.607686 0.752632
O O3 0.612847 0.981121 0.580815
O O4 0.673223 0.614481 0.029759
O O5 0.223491 0.627720 0.406431
O O6 0.338549 0.589194 0.811451
O O7 0.152580 0.370997 0.483960
O O8 0.000000 0.500000 0.500000
O O9 0.000000 0.000000 0.500000
O O10 0.917352 0.399715 0.065176
O O11 0.000000 0.500000 0.000000
O O12 0.183949 0.992270 0.946022
#
# Coordination Sequence:
#
# PCOD9105401 Si02
#       5
#     2   2   2   2   2
#     4  10  23  40  60  91 119 165 216 269 324 381
#     4  10  21  41  62  86 127 162 214 267 323 391
#     4  10  22  41  64  97 134 170 215 269 330 394
#     4  10  20  39  64  93 128 165 215 266 327 393
#     4  10  21  40  62  91 125 167 214 264 328 389
#
# _framework density 27.163671999999998
#
# number of rings (size 3 to 8) (size 9 to 14) (size 15 to 20)
#    0.000    2.000    2.000    0.600    2.800    0.800 
#    7.200    4.000    0.000    0.000    0.000    0.000 
#    0.000    0.000    0.000    0.000    0.000    0.000 
#
# Total GULP energy -55876.059364 kJ/mol
# GULP energy per Si atom -5587.605936 kJ/mol
# Density = 2.710185 g / cm^3
# Si number density = 27.163672 Si / 1000 Ang^3
#
#
#
# Elastic Constant Matrix: (Units=GPa)
#
#
# Indices 1 2 3 4 5 6 
#
# 1 172.6671 27.4566 43.5779 -30.0176 -6.9734 -17.2884
# 2 27.4566 140.3853 56.5717 -19.9179 0.0397 -15.1821
# 3 43.5779 56.5717 244.9030 -75.7625 13.9875 8.7293
# 4 -30.0176 -19.9179 -75.7625 74.6451 -0.7557 -9.0685
# 5 -6.9734 0.0397 13.9875 -0.7557 37.1876 -8.0028
# 6 -17.2884 -15.1821 8.7293 -9.0685 -8.0028 45.8536
#
#
#
# Elastic Compliance Matrix: (Units=1/GPa)
#
#
# Indices 1 2 3 4 5 6 
#
# 1 0.006883 -0.000363 -0.000632 0.002477 0.002331 0.003492
# 2 -0.000363 0.008404 -0.001889 0.000602 0.001369 0.003363
# 3 -0.000632 -0.001889 0.006627 0.005760 -0.002810 -0.001476
# 4 0.002477 0.000602 0.005760 0.020894 -0.000396 0.004100
# 5 0.002331 0.001369 -0.002810 -0.000396 0.029882 0.007004
# 6 0.003492 0.003363 -0.001476 0.004100 0.007004 0.026553
#
#
# Mechanical properties :
#
#
# Convention : Reuss Voigt Hill
#
# Bulk Modulus (GPa) = 61.93074 90.35197 76.14135
# Shear Modulus (GPa) = 45.29234 60.22721 52.75977
#
# Velocity S-wave (km/s) = 4.08779 4.71382 4.41192
# Velocity P-wave (km/s) = 6.71779 7.93480 7.35152
#
# Compressibility (1/GPa) = 0.01614707
#
# Stress axis : x y z
#
# Youngs Moduli (GPa) = 145.28084 118.99019 150.89591
#
# Poissons Ratio (x) = 0.04319 0.09539
# Poissons Ratio (y) = 0.05274 0.28497
# Poissons Ratio (z) = 0.09184 0.22471
#
# Static dielectric constant tensor:
#      x y z
#    x 2.134350 0.044970 -0.021690 
#    y 0.044970 2.176770 0.116130 
#    z -0.021690 0.116130 2.368070 
# 
# From -- ./inp_files/322043.got.cif
#   From: 2010.05.17/outbox.cif.g08.bks.cpg/sg2_162_cif.got.tgz:322043.got - 2010.06.03 11:33:40.
