data_PCOD9105238
_publ_section_title
;
Structure prediction by ZEFSAII (Michael W. Deem and Ramdas Pophale) SiO2 
 PCOD9105238
Probable space group: P -1
;
_chemical_formula_sum "Si O2"
_cell_formula_units_Z 12
_cell_length_a 14.715689
_cell_length_b 11.973244
_cell_length_c 7.720360
_cell_angle_alpha 81.417291
_cell_angle_beta 97.503361
_cell_angle_gamma 26.970023
_cell_volume 493.510249
_symmetry_space_group_name_H-M "P -1"
_symmetry_group_IT_number 2
_symmetry_cell_setting 'triclinic'
loop_
_space_group_symop_operation_xyz
x,y,z
-x,-y,-z
loop_
_atom_site_type_symbol
_atom_site_label
_atom_site_fract_x
_atom_site_fract_y
_atom_site_fract_z
Si Si1 0.850566 0.789069 0.911724
Si Si2 0.523681 0.607444 0.447165
Si Si3 0.465131 0.664775 0.014717
Si Si4 0.889083 0.356447 0.745279
Si Si5 0.221162 0.333815 0.627621
Si Si6 0.415254 0.242870 0.994856
O O1 0.694343 0.045479 0.675780
O O2 0.000000 0.500000 0.000000
O O3 0.055583 0.645105 0.059894
O O4 0.646518 0.994741 0.966232
O O5 0.500000 0.500000 0.500000
O O6 0.742795 0.409007 0.662510
O O7 0.560922 0.563624 0.259417
O O8 0.607366 0.605052 0.974898
O O9 0.500000 0.500000 0.000000
O O10 0.172158 0.016840 0.832823
O O11 0.765086 0.592648 0.538670
O O12 0.000000 0.500000 0.500000
O O13 0.464742 0.979651 0.788753
O O14 0.209027 0.420173 0.782922
#
# Coordination Sequence:
#
# PCOD9105238 Si02
#       6
#     2   2   2   2   2   2
#     4  10  21  38  59  87 117 149 195 244 284 340
#     4  10  22  44  60  83 118 161 197 233 290 352
#     4  10  21  38  59  87 117 149 195 244 284 340
#     4  10  20  39  64  77 118 155 186 241 295 338
#     4  11  16  34  61  82 106 151 181 226 300 337
#     4   9  20  34  54  86 120 141 184 241 285 341
#
# _framework density 24.315605000000001
#
# number of rings (size 3 to 8) (size 9 to 14) (size 15 to 20)
#    0.000    2.333    6.667    0.000    0.000    4.000 
#    6.000    3.333    0.000    0.000    0.000    0.000 
#    0.000    0.000    0.000    0.000    0.000    0.000 
#
# Total GULP energy -66880.086381 kJ/mol
# GULP energy per Si atom -5573.340532 kJ/mol
# Density = 2.426026 g / cm^3
# Si number density = 24.315605 Si / 1000 Ang^3
#
#
#
# Elastic Constant Matrix: (Units=GPa)
#
#
# Indices 1 2 3 4 5 6 
#
# 1 225.9111 41.0915 57.5410 -15.2696 40.4982 46.3914
# 2 41.0915 43.2508 7.0519 -10.5683 4.1610 16.1772
# 3 57.5410 7.0519 115.1773 -3.0948 31.8239 10.0608
# 4 -15.2696 -10.5683 -3.0948 26.3598 12.9090 2.1668
# 5 40.4982 4.1610 31.8239 12.9090 61.4241 -2.0283
# 6 46.3914 16.1772 10.0608 2.1668 -2.0283 39.0104
#
#
#
# Elastic Compliance Matrix: (Units=1/GPa)
#
#
# Indices 1 2 3 4 5 6 
#
# 1 0.009283 -0.001468 -0.001197 0.009341 -0.007729 -0.011042
# 2 -0.001468 0.034562 0.002222 0.017757 -0.006735 -0.014496
# 3 -0.001197 0.002222 0.011288 0.004871 -0.006333 -0.003009
# 4 0.009341 0.017757 0.004871 0.064989 -0.024356 -0.024604
# 5 -0.007729 -0.006735 -0.006333 -0.024356 0.030779 0.016570
# 6 -0.011042 -0.014496 -0.003009 -0.024604 0.016570 0.047781
#
#
# Mechanical properties :
#
#
# Convention : Reuss Voigt Hill
#
# Bulk Modulus (GPa) = 18.43437 66.18979 42.31208
# Shear Modulus (GPa) = 22.97261 43.93585 33.45423
#
# Velocity S-wave (km/s) = 3.07704 4.25538 3.71325
# Velocity P-wave (km/s) = 4.49689 7.17109 5.98525
#
# Compressibility (1/GPa) = 0.05424650
#
# Stress axis : x y z
#
# Youngs Moduli (GPa) = 107.72677 28.93311 88.59284
#
# Poissons Ratio (x) = 0.04248 0.10602
# Poissons Ratio (y) = 0.15815 -0.19682
# Poissons Ratio (z) = 0.12891 -0.06428
#
# Static dielectric constant tensor:
#      x y z
#    x 2.053140 -0.058390 -0.037380 
#    y -0.058390 2.244830 0.030690 
#    z -0.037380 0.030690 1.950460 
# 
# From -- ./inp_files/300788.got.cif
#   From: 2010.05.17/outbox.cif.g08.bks.cpg/sg2_151_cif.got.tgz:300788.got - 2010.06.03 11:33:40.
