data_PCOD9105923
_publ_section_title
;
Structure prediction by ZEFSAII (Michael W. Deem and Ramdas Pophale) SiO2 
 PCOD9105923
Probable space group: P -1
;
_chemical_formula_sum "Si O2"
_cell_formula_units_Z 14
_cell_length_a 12.170872
_cell_length_b 14.497421
_cell_length_c 10.902294
_cell_angle_alpha 45.488400
_cell_angle_beta 141.639258
_cell_angle_gamma 152.924931
_cell_volume 543.361583
_symmetry_space_group_name_H-M "P -1"
_symmetry_group_IT_number 2
_symmetry_cell_setting 'triclinic'
loop_
_space_group_symop_operation_xyz
x,y,z
-x,-y,-z
loop_
_atom_site_type_symbol
_atom_site_label
_atom_site_fract_x
_atom_site_fract_y
_atom_site_fract_z
Si Si1 0.975570 0.124961 0.930926
Si Si2 0.516833 0.377981 0.458773
Si Si3 0.936598 0.045305 0.258785
Si Si4 0.384926 0.603304 0.101342
Si Si5 0.039664 0.682817 0.818695
Si Si6 0.628041 0.173938 0.259511
Si Si7 0.117985 0.433283 0.614319
O O1 0.165470 0.340563 0.833066
O O2 0.667772 0.017499 0.762177
O O3 0.005170 0.118895 0.107436
O O4 0.000000 0.000000 0.000000
O O5 0.437612 0.481689 0.264650
O O6 0.763460 0.523665 0.638420
O O7 0.631413 0.388319 0.422040
O O8 0.230535 0.148493 0.461238
O O9 0.900429 0.148592 0.216738
O O10 0.655857 0.808110 0.218092
O O11 0.089946 0.466506 0.036451
O O12 0.368096 0.666300 0.897791
O O13 0.301699 0.817009 0.830244
O O14 0.873350 0.248965 0.479928
O O15 0.000000 0.500000 0.500000
#
# Coordination Sequence:
#
# PCOD9105923 Si02
#       7
#     2   2   2   2   2   2   2
#     4  11  25  45  69  95 132 180 223 271 326 398
#     4  10  23  42  62  95 133 169 222 276 322 395
#     4  10  22  39  69  95 125 174 223 262 333 396
#     4  10  20  39  66  94 129 172 214 268 335 391
#     4  10  22  41  63  96 135 164 221 278 331 387
#     4  10  23  43  63  94 132 170 215 281 327 387
#     4  11  25  42  64  98 132 175 222 273 334 385
#
# _framework density 25.765529999999998
#
# number of rings (size 3 to 8) (size 9 to 14) (size 15 to 20)
#    0.000    1.714    0.000    4.286    6.000    5.143 
#   10.286    0.000    0.000    0.000    0.000    0.000 
#    0.000    0.000    0.000    0.000    0.000    0.000 
#
# Total GULP energy -78132.507706 kJ/mol
# GULP energy per Si atom -5580.893408 kJ/mol
# Density = 2.570689 g / cm^3
# Si number density = 25.765530 Si / 1000 Ang^3
#
#
#
# Elastic Constant Matrix: (Units=GPa)
#
#
# Indices 1 2 3 4 5 6 
#
# 1 148.7970 44.7994 4.4928 12.1628 4.2465 7.2800
# 2 44.7994 117.9656 1.2498 17.2807 -0.2664 5.8220
# 3 4.4928 1.2498 70.1575 0.2388 -11.8600 2.9582
# 4 12.1628 17.2807 0.2388 28.8136 30.0321 -0.7607
# 5 4.2465 -0.2664 -11.8600 30.0321 27.2552 12.0225
# 6 7.2800 5.8220 2.9582 -0.7607 12.0225 24.8819
#
#
#
# Elastic Compliance Matrix: (Units=1/GPa)
#
#
# Indices 1 2 3 4 5 6 
#
# 1 0.007671 -0.002967 -0.000748 0.000560 -0.001944 -0.000505
# 2 -0.002967 0.008262 -0.001986 0.007593 -0.010706 0.004576
# 3 -0.000748 -0.001986 0.012260 0.012808 -0.010818 0.004844
# 4 0.000560 0.007593 0.012808 -0.040729 0.066740 -0.036956
# 5 -0.001944 -0.010706 -0.010818 0.066740 -0.056150 0.033531
# 6 -0.000505 0.004576 0.004844 -0.036956 0.033531 0.021360
#
#
# Mechanical properties :
#
#
# Convention : Reuss Voigt Hill
#
# Bulk Modulus (GPa) = 59.54659 48.66711 54.10685
# Shear Modulus (GPa) = -164.86710 35.28201 -64.79254
#
# Velocity S-wave (km/s) = -8.00789 3.70449 -5.02012
# Velocity P-wave (km/s) = 7.89561 6.10140 3.54356
#
# Compressibility (1/GPa) = 0.01679357
#
# Stress axis : x y z
#
# Youngs Moduli (GPa) = 130.36556 121.02907 81.56411
#
# Poissons Ratio (x) = 0.35905 0.06097
# Poissons Ratio (y) = 0.38675 0.16197
# Poissons Ratio (z) = 0.09746 0.24034
#
# Static dielectric constant tensor:
#      x y z
#    x 2.142580 -0.001630 0.051640 
#    y -0.001630 2.063960 0.003520 
#    z 0.051640 0.003520 2.162930 
# 
# From -- ./inp_files/432634.got.cif
#   From: 2010.05.17/outbox.cif.g08.bks.cpg/sg2_217_cif.got.tgz:432634.got - 2010.06.03 11:33:40.
