data_PCOD9105820
_publ_section_title
;
Structure prediction by ZEFSAII (Michael W. Deem and Ramdas Pophale) SiO2 
 PCOD9105820
Probable space group: P -1
;
_chemical_formula_sum "Si O2"
_cell_formula_units_Z 16
_cell_length_a 10.015144
_cell_length_b 9.358241
_cell_length_c 11.480299
_cell_angle_alpha 61.975768
_cell_angle_beta 108.360087
_cell_angle_gamma 114.499276
_cell_volume 854.581940
_symmetry_space_group_name_H-M "P -1"
_symmetry_group_IT_number 2
_symmetry_cell_setting 'triclinic'
loop_
_space_group_symop_operation_xyz
x,y,z
-x,-y,-z
loop_
_atom_site_type_symbol
_atom_site_label
_atom_site_fract_x
_atom_site_fract_y
_atom_site_fract_z
Si Si1 0.426174 0.971200 0.616858
Si Si2 0.126780 0.324018 0.632718
Si Si3 0.423282 0.316720 0.605660
Si Si4 0.881814 0.820360 0.066685
Si Si5 0.970259 0.454437 0.874534
Si Si6 0.879556 0.329027 0.384478
Si Si7 0.573636 0.871045 0.917666
Si Si8 0.629026 0.247563 0.885638
O O1 0.419960 0.153853 0.589543
O O2 0.500000 0.000000 0.500000
O O3 0.265190 0.829194 0.620076
O O4 0.522181 0.903895 0.762591
O O5 0.260105 0.312545 0.595475
O O6 0.113341 0.200197 0.785265
O O7 0.159389 0.511550 0.628119
O O8 0.982782 0.284467 0.527491
O O9 0.500000 0.500000 0.500000
O O10 0.512048 0.297052 0.753253
O O11 0.943012 0.678241 0.082203
O O12 0.715300 0.805231 0.987089
O O13 0.000000 0.000000 0.000000
O O14 0.792806 0.368095 0.853373
O O15 0.030152 0.601589 0.736841
O O16 0.000000 0.500000 0.000000
O O17 0.624459 0.055719 0.924904
O O18 0.432143 0.757364 0.997517
#
# Coordination Sequence:
#
# PCOD9105820 Si02
#       8
#     2   2   2   2   2   2   2   2
#     4  11  25  41  63  90 128 165 202 260 317 371
#     4  10  22  41  65  90 122 166 211 259 302 369
#     4  11  22  40  66  93 120 160 210 255 311 375
#     4  11  22  39  65  93 122 163 215 254 304 372
#     4  11  23  40  61  93 130 166 201 256 318 370
#     4  10  23  43  63  89 127 166 208 256 314 370
#     4  10  21  40  65  92 122 163 211 257 306 370
#     4  10  20  39  66  89 123 162 206 258 309 365
#
# _framework density 18.722605000000001
#
# number of rings (size 3 to 8) (size 9 to 14) (size 15 to 20)
#    0.000    1.500    2.500    2.250    1.750    3.500 
#    6.750    1.875    0.000    0.000    0.000    0.000 
#    0.000    0.000    0.000    0.000    0.000    0.000 
#
# Total GULP energy -89340.728850 kJ/mol
# GULP energy per Si atom -5583.795553 kJ/mol
# Density = 1.867999 g / cm^3
# Si number density = 18.722605 Si / 1000 Ang^3
#
#
#
# Elastic Constant Matrix: (Units=GPa)
#
#
# Indices 1 2 3 4 5 6 
#
# 1 124.7304 36.8893 69.6331 -0.0581 -7.9356 18.1747
# 2 36.8893 72.3097 59.8131 2.0758 -8.7228 25.4093
# 3 69.6331 59.8131 137.7445 0.7760 -16.4980 4.7779
# 4 -0.0581 2.0758 0.7760 29.0495 0.9128 -7.8781
# 5 -7.9356 -8.7228 -16.4980 0.9128 41.0711 -1.1595
# 6 18.1747 25.4093 4.7779 -7.8781 -1.1595 22.7042
#
#
#
# Elastic Compliance Matrix: (Units=1/GPa)
#
#
# Indices 1 2 3 4 5 6 
#
# 1 0.014235 0.008948 -0.010300 -0.006132 0.000046 -0.021367
# 2 0.008948 0.060002 -0.027561 -0.024446 0.001774 -0.076906
# 3 -0.010300 -0.027561 0.023320 0.011651 0.002348 0.038345
# 4 -0.006132 -0.024446 0.011651 0.048525 -0.001460 0.046578
# 5 0.000046 0.001774 0.002348 -0.001460 0.025661 -0.001712
# 6 -0.021367 -0.076906 0.038345 0.046578 -0.001712 0.155223
#
#
# Mechanical properties :
#
#
# Convention : Reuss Voigt Hill
#
# Bulk Modulus (GPa) = 25.16909 74.16173 49.66541
# Shear Modulus (GPa) = 12.56169 29.79489 21.17829
#
# Velocity S-wave (km/s) = 2.59306 3.99355 3.36692
# Velocity P-wave (km/s) = 4.73683 7.80777 6.45751
#
# Compressibility (1/GPa) = 0.03973127
#
# Stress axis : x y z
#
# Youngs Moduli (GPa) = 70.25101 16.66603 42.88161
#
# Poissons Ratio (x) = -0.14913 0.44169
# Poissons Ratio (y) = -0.62860 1.18184
# Poissons Ratio (z) = 0.72360 0.45933
#
# Static dielectric constant tensor:
#      x y z
#    x 1.625970 -0.001970 -0.002090 
#    y -0.001970 1.646130 -0.003200 
#    z -0.002090 -0.003200 1.646170 
# 
# From -- ./inp_files/308191.got.cif
#   From: 2010.05.17/outbox.cif.g08.bks.cpg/sg2_155_cif.got.tgz:308191.got - 2010.06.03 11:33:40.
