data_PCOD9105756
_publ_section_title
;
Structure prediction by ZEFSAII (Michael W. Deem and Ramdas Pophale) SiO2 
 PCOD9105756
Probable space group: P -1
;
_chemical_formula_sum "Si O2"
_cell_formula_units_Z 16
_cell_length_a 11.844150
_cell_length_b 11.496364
_cell_length_c 25.967529
_cell_angle_alpha 39.732206
_cell_angle_beta 157.585061
_cell_angle_gamma 142.814263
_cell_volume 806.722208
_symmetry_space_group_name_H-M "P -1"
_symmetry_group_IT_number 2
_symmetry_cell_setting 'triclinic'
loop_
_space_group_symop_operation_xyz
x,y,z
-x,-y,-z
loop_
_atom_site_type_symbol
_atom_site_label
_atom_site_fract_x
_atom_site_fract_y
_atom_site_fract_z
Si Si1 0.152580 0.739538 0.824877
Si Si2 0.858817 0.950290 0.039931
Si Si3 0.784727 0.763823 0.567112
Si Si4 0.930935 0.313555 0.499052
Si Si5 0.668465 0.990446 0.687696
Si Si6 0.136916 0.983276 0.345538
Si Si7 0.668396 0.660869 0.441669
Si Si8 0.915510 0.277753 0.871092
O O1 0.085819 0.798075 0.718620
O O2 0.061165 0.507414 0.866804
O O3 0.929091 0.820182 0.737858
O O4 0.513934 0.855132 0.951761
O O5 0.135522 0.999385 0.181843
O O6 0.888328 0.142957 0.954839
O O7 0.890672 0.791405 0.066706
O O8 0.853457 0.763526 0.535695
O O9 0.549683 0.552132 0.558279
O O10 0.584282 0.901787 0.446872
O O11 0.563466 0.218947 0.359136
O O12 0.027991 0.166469 0.627575
O O13 0.000000 0.500000 0.500000
O O14 0.123888 0.353571 0.513958
O O15 0.913835 0.079335 0.713994
O O16 0.500000 0.000000 0.500000
O O17 0.427216 0.760373 0.285661
#
# Coordination Sequence:
#
# PCOD9105756 Si02
#       8
#     2   2   2   2   2   2   2   2
#     4  11  22  42  68  93 130 179 213 260 331 390
#     4  11  24  44  61  96 137 172 214 262 329 391
#     4  10  20  39  65  98 123 164 211 277 322 378
#     4  11  23  38  63  98 124 167 212 272 329 382
#     4  11  23  42  62  94 131 165 215 274 320 380
#     4  10  21  41  65  91 126 167 215 271 322 377
#     4  10  21  37  66  98 125 160 220 270 325 380
#     4  10  23  40  66  94 135 174 210 267 324 394
#
# _framework density 19.833345000000001
#
# number of rings (size 3 to 8) (size 9 to 14) (size 15 to 20)
#    0.000    1.500    3.750    1.875    5.250    3.000 
#    4.500    0.625    0.000    0.000    0.000    0.000 
#    0.000    0.000    0.000    0.000    0.000    0.000 
#
# Total GULP energy -89281.182735 kJ/mol
# GULP energy per Si atom -5580.073921 kJ/mol
# Density = 1.978820 g / cm^3
# Si number density = 19.833345 Si / 1000 Ang^3
#
#
#
# Elastic Constant Matrix: (Units=GPa)
#
#
# Indices 1 2 3 4 5 6 
#
# 1 123.1803 31.2866 14.8096 -17.0948 0.0822 -5.7769
# 2 31.2866 91.9316 38.6867 -21.6382 -3.0120 -13.8051
# 3 14.8096 38.6867 81.9460 -11.9996 -4.2155 -6.3882
# 4 -17.0948 -21.6382 -11.9996 28.7959 -0.0768 3.2798
# 5 0.0822 -3.0120 -4.2155 -0.0768 32.6063 -2.5315
# 6 -5.7769 -13.8051 -6.3882 3.2798 -2.5315 24.7675
#
#
#
# Elastic Compliance Matrix: (Units=1/GPa)
#
#
# Indices 1 2 3 4 5 6 
#
# 1 0.009219 -0.002166 -0.000070 0.003769 -0.000192 0.000406
# 2 -0.002166 0.017077 -0.005868 0.008361 0.001351 0.006531
# 3 -0.000070 -0.005868 0.015386 0.001899 0.001497 0.000583
# 4 0.003769 0.008361 0.001899 0.044005 0.001137 0.000318
# 5 -0.000192 0.001351 0.001497 0.001137 0.031312 0.004144
# 6 0.000406 0.006531 0.000583 0.000318 0.004144 0.044642
#
#
# Mechanical properties :
#
#
# Convention : Reuss Voigt Hill
#
# Bulk Modulus (GPa) = 39.25371 51.84709 45.55040
# Shear Modulus (GPa) = 26.83249 31.38562 29.10906
#
# Velocity S-wave (km/s) = 3.68217 3.98234 3.83519
# Velocity P-wave (km/s) = 6.15732 6.88066 6.52901
#
# Compressibility (1/GPa) = 0.02547530
#
# Stress axis : x y z
#
# Youngs Moduli (GPa) = 108.47115 58.55840 64.99254
#
# Poissons Ratio (x) = 0.12685 0.00453
# Poissons Ratio (y) = 0.23498 0.38135
# Poissons Ratio (z) = 0.00756 0.34360
#
# Static dielectric constant tensor:
#      x y z
#    x 1.749370 0.015190 0.002370 
#    y 0.015190 1.749900 0.003460 
#    z 0.002370 0.003460 1.687440 
# 
# From -- ./inp_files/462051.got.cif
#   From: 2010.05.17/outbox.cif.g08.bks.cpg/sg2_232_cif.got.tgz:462051.got - 2010.06.03 11:33:40.
