data_PCOD9105308
_publ_section_title
;
Structure prediction by ZEFSAII (Michael W. Deem and Ramdas Pophale) SiO2 
 PCOD9105308
Probable space group: P -1
;
_chemical_formula_sum "Si O2"
_cell_formula_units_Z 12
_cell_length_a 7.692507
_cell_length_b 6.594715
_cell_length_c 11.480694
_cell_angle_alpha 95.869781
_cell_angle_beta 54.364005
_cell_angle_gamma 106.485979
_cell_volume 452.399809
_symmetry_space_group_name_H-M "P -1"
_symmetry_group_IT_number 2
_symmetry_cell_setting 'triclinic'
loop_
_space_group_symop_operation_xyz
x,y,z
-x,-y,-z
loop_
_atom_site_type_symbol
_atom_site_label
_atom_site_fract_x
_atom_site_fract_y
_atom_site_fract_z
Si Si1 0.837911 0.721744 0.305814
Si Si2 0.004989 0.409419 0.122024
Si Si3 0.503631 0.810787 0.271231
Si Si4 0.221706 0.041082 0.038769
Si Si5 0.320804 0.374944 0.188251
Si Si6 0.993607 0.256601 0.504180
O O1 0.805859 0.473095 0.270999
O O2 0.644189 0.806324 0.331832
O O3 0.880206 0.759959 0.427211
O O4 0.063432 0.842337 0.154600
O O5 0.049533 0.179667 0.078447
O O6 0.202167 0.488624 0.145595
O O7 0.000000 0.500000 0.000000
O O8 0.267903 0.851689 0.390921
O O9 0.470421 0.571743 0.214020
O O10 0.635834 0.971045 0.131121
O O11 0.389005 0.198860 0.074075
O O12 0.132390 0.227376 0.336446
O O13 0.000000 0.500000 0.500000
#
# Coordination Sequence:
#
# PCOD9105308 Si02
#       6
#     2   2   2   2   2   2
#     4  12  22  40  65  93 126 166 196 264 311 352
#     4  10  20  39  64  89 127 156 200 259 307 347
#     4  11  21  38  68  92 119 165 215 241 313 373
#     4  10  23  38  65  94 124 159 213 250 306 372
#     4   9  21  42  60  88 130 157 204 260 293 367
#     4  10  21  41  60  90 130 159 206 255 301 369
#
# _framework density 26.525210000000001
#
# number of rings (size 3 to 8) (size 9 to 14) (size 15 to 20)
#    1.000    0.667    5.000    1.000    0.000    4.000 
#    0.000    2.500    0.000    0.000    0.000    0.000 
#    0.000    0.000    0.000    0.000    0.000    0.000 
#
# Total GULP energy -66991.887029 kJ/mol
# GULP energy per Si atom -5582.657252 kJ/mol
# Density = 2.646484 g / cm^3
# Si number density = 26.525210 Si / 1000 Ang^3
#
#
#
# Elastic Constant Matrix: (Units=GPa)
#
#
# Indices 1 2 3 4 5 6 
#
# 1 155.3642 29.6447 66.2409 -3.2140 45.2389 18.6378
# 2 29.6447 49.3211 33.9296 -6.5980 14.0928 -12.7665
# 3 66.2409 33.9296 163.6961 1.6190 7.8096 24.8900
# 4 -3.2140 -6.5980 1.6190 19.3947 -9.0757 5.6394
# 5 45.2389 14.0928 7.8096 -9.0757 37.7499 -1.1924
# 6 18.6378 -12.7665 24.8900 5.6394 -1.1924 39.9241
#
#
#
# Elastic Compliance Matrix: (Units=1/GPa)
#
#
# Indices 1 2 3 4 5 6 
#
# 1 0.013475 -0.003480 -0.003150 -0.004364 -0.015414 -0.005284
# 2 -0.003480 0.034436 -0.008083 0.004358 -0.005432 0.016897
# 3 -0.003150 -0.008083 0.009934 0.000112 0.004537 -0.007188
# 4 -0.004364 0.004358 0.000112 0.062352 0.018416 -0.004896
# 5 -0.015414 -0.005432 0.004537 0.018416 0.050527 0.001538
# 6 -0.005284 0.016897 -0.007188 -0.004896 0.001538 0.038136
#
#
# Mechanical properties :
#
#
# Convention : Reuss Voigt Hill
#
# Bulk Modulus (GPa) = 35.18518 69.77907 52.48213
# Shear Modulus (GPa) = 20.18103 35.31817 27.74960
#
# Velocity S-wave (km/s) = 2.76130 3.65292 3.23795
# Velocity P-wave (km/s) = 4.84355 6.64497 5.81445
#
# Compressibility (1/GPa) = 0.02842106
#
# Stress axis : x y z
#
# Youngs Moduli (GPa) = 74.21115 29.03942 100.66355
#
# Poissons Ratio (x) = 0.10105 0.31706
# Poissons Ratio (y) = 0.25823 0.81363
# Poissons Ratio (z) = 0.23374 0.23472
#
# Static dielectric constant tensor:
#      x y z
#    x 2.055140 0.034260 -0.020670 
#    y 0.034260 2.197860 -0.006680 
#    z -0.020670 -0.006680 2.073930 
# 
# From -- ./inp_files/184769.got.cif
#   From: 2010.05.17/outbox.cif.g08.bks.cpg/sg2_93_cif.got.tgz:184769.got - 2010.06.03 11:33:40.
