data_PCOD9105677
_publ_section_title
;
Structure prediction by ZEFSAII (Michael W. Deem and Ramdas Pophale) SiO2 
 PCOD9105677
Probable space group: P -1
;
_chemical_formula_sum "Si O2"
_cell_formula_units_Z 16
_cell_length_a 18.524357
_cell_length_b 15.642416
_cell_length_c 7.454086
_cell_angle_alpha 29.083066
_cell_angle_beta 40.972441
_cell_angle_gamma 36.650885
_cell_volume 615.817484
_symmetry_space_group_name_H-M "P -1"
_symmetry_group_IT_number 2
_symmetry_cell_setting 'triclinic'
loop_
_space_group_symop_operation_xyz
x,y,z
-x,-y,-z
loop_
_atom_site_type_symbol
_atom_site_label
_atom_site_fract_x
_atom_site_fract_y
_atom_site_fract_z
Si Si1 0.127463 0.301335 0.631863
Si Si2 0.415893 0.811900 0.835960
Si Si3 0.549098 0.763305 0.342073
Si Si4 0.618122 0.740932 0.854232
Si Si5 0.822974 0.233789 0.525088
Si Si6 0.177215 0.493664 0.666128
Si Si7 0.104196 0.996331 0.513788
Si Si8 0.925392 0.794958 0.474058
O O1 0.243847 0.347850 0.321191
O O2 0.128886 0.194651 0.637773
O O3 0.000000 0.500000 0.500000
O O4 0.131043 0.156176 0.052884
O O5 0.449859 0.743804 0.691996
O O6 0.532388 0.700637 0.949495
O O7 0.400255 0.034008 0.492019
O O8 0.296593 0.789501 0.153688
O O9 0.682611 0.637322 0.413747
O O10 0.573814 0.698049 0.209143
O O11 0.500000 0.000000 0.000000
O O12 0.819479 0.415306 0.311748
O O13 0.958027 0.070659 0.632679
O O14 0.830035 0.205049 0.349613
O O15 0.074048 0.671866 0.420307
O O16 0.121474 0.342512 0.079291
O O17 0.124494 0.016053 0.649708
#
# Coordination Sequence:
#
# PCOD9105677 Si02
#       8
#     2   2   2   2   2   2   2   2
#     4  12  22  36  68 101 127 160 216 275 315 365
#     4  10  22  41  63  86 128 171 209 256 319 377
#     4  10  22  39  63  90 123 166 212 269 301 367
#     4  10  22  39  62  97 119 162 223 258 308 380
#     4  10  21  43  63  93 134 172 202 261 329 386
#     4  10  20  39  65  94 130 159 214 261 321 374
#     4  10  23  41  67  93 131 171 209 260 327 380
#     4  10  22  39  66  99 124 166 213 270 311 374
#
# _framework density 25.981724
#
# number of rings (size 3 to 8) (size 9 to 14) (size 15 to 20)
#    0.000    1.750    2.500    2.250    3.500    1.500 
#    0.000    8.750    0.000    0.000    0.000    0.000 
#    0.000    0.000    0.000    0.000    0.000    0.000 
#
# Total GULP energy -89397.176095 kJ/mol
# GULP energy per Si atom -5587.323506 kJ/mol
# Density = 2.592259 g / cm^3
# Si number density = 25.981724 Si / 1000 Ang^3
#
#
#
# Elastic Constant Matrix: (Units=GPa)
#
#
# Indices 1 2 3 4 5 6 
#
# 1 143.8449 43.5441 46.3083 21.1608 -3.1225 24.4585
# 2 43.5441 125.7466 27.9694 23.9032 -12.4798 3.1075
# 3 46.3083 27.9694 88.0490 31.1271 -15.0126 6.9896
# 4 21.1608 23.9032 31.1271 54.9891 2.3008 -7.7107
# 5 -3.1225 -12.4798 -15.0126 2.3008 30.4120 6.2101
# 6 24.4585 3.1075 6.9896 -7.7107 6.2101 40.6735
#
#
#
# Elastic Compliance Matrix: (Units=1/GPa)
#
#
# Indices 1 2 3 4 5 6 
#
# 1 0.009932 -0.002258 -0.003619 -0.001529 -0.000476 -0.005396
# 2 -0.002258 0.009873 0.000230 -0.003854 0.004396 -0.000838
# 3 -0.003619 0.000230 0.019259 -0.010754 0.011039 -0.004875
# 4 -0.001529 -0.003854 -0.010754 0.028435 -0.011276 0.010174
# 5 -0.000476 0.004396 0.011039 -0.011276 0.043117 -0.010668
# 6 -0.005396 -0.000838 -0.004875 0.010174 -0.010668 0.032290
#
#
# Mechanical properties :
#
#
# Convention : Reuss Voigt Hill
#
# Bulk Modulus (GPa) = 36.00999 65.92049 50.96524
# Shear Modulus (GPa) = 30.58918 41.20285 35.89601
#
# Velocity S-wave (km/s) = 3.43495 3.98658 3.72100
# Velocity P-wave (km/s) = 5.44258 6.82769 6.17410
#
# Compressibility (1/GPa) = 0.02777007
#
# Stress axis : x y z
#
# Youngs Moduli (GPa) = 100.67989 101.28803 51.92495
#
# Poissons Ratio (x) = 0.22868 0.18792
# Poissons Ratio (y) = 0.22731 -0.01193
# Poissons Ratio (z) = 0.36436 -0.02328
#
# Static dielectric constant tensor:
#      x y z
#    x 2.058360 -0.064410 0.090210 
#    y -0.064410 2.132610 -0.111420 
#    z 0.090210 -0.111420 2.096260 
# 
# From -- ./inp_files/348764.got.cif
#   From: 2010.05.17/outbox.cif.g08.bks.cpg/sg2_175_cif.got.tgz:348764.got - 2010.06.03 11:33:40.
