data_PCOD9105714
_publ_section_title
;
Structure prediction by ZEFSAII (Michael W. Deem and Ramdas Pophale) SiO2 
 PCOD9105714
Probable space group: P -1
;
_chemical_formula_sum "Si O2"
_cell_formula_units_Z 16
_cell_length_a 15.310630
_cell_length_b 7.969908
_cell_length_c 17.002372
_cell_angle_alpha 55.907698
_cell_angle_beta 25.298024
_cell_angle_gamma 56.759873
_cell_volume 729.169074
_symmetry_space_group_name_H-M "P -1"
_symmetry_group_IT_number 2
_symmetry_cell_setting 'triclinic'
loop_
_space_group_symop_operation_xyz
x,y,z
-x,-y,-z
loop_
_atom_site_type_symbol
_atom_site_label
_atom_site_fract_x
_atom_site_fract_y
_atom_site_fract_z
Si Si1 0.995866 0.937536 0.411124
Si Si2 0.326666 0.971286 0.552013
Si Si3 0.485537 0.653475 0.618192
Si Si4 0.418693 0.166328 0.269061
Si Si5 0.136166 0.979675 0.111808
Si Si6 0.139147 0.536933 0.453129
Si Si7 0.098656 0.584974 0.644467
Si Si8 0.100017 0.457036 0.017214
O O1 0.764857 0.875852 0.630369
O O2 0.147358 0.780567 0.380447
O O3 0.987832 0.179480 0.357849
O O4 0.073546 0.896595 0.269153
O O5 0.425583 0.154360 0.464984
O O6 0.380552 0.000956 0.409992
O O7 0.419099 0.747082 0.562887
O O8 0.082514 0.004991 0.759652
O O9 0.655451 0.460854 0.535986
O O10 0.281883 0.596164 0.838921
O O11 0.346753 0.388682 0.306648
O O12 0.653282 0.141944 0.058008
O O13 0.177566 0.216072 0.020177
O O14 0.054040 0.485440 0.622133
O O15 0.000000 0.500000 0.500000
O O16 0.027398 0.506329 0.807389
O O17 0.000000 0.500000 0.000000
#
# Coordination Sequence:
#
# PCOD9105714 Si02
#       8
#     2   2   2   2   2   2   2   2
#     4   9  21  40  66  95 132 171 225 278 340 391
#     4  10  22  39  60  95 135 176 219 271 326 400
#     4  11  23  40  63  97 136 176 223 266 335 392
#     4  10  20  39  65  95 132 175 222 278 330 401
#     4  10  21  40  64  96 135 172 226 271 327 399
#     4  10  21  43  69  97 131 174 223 281 349 388
#     4  11  23  42  67  99 135 175 220 282 327 405
#     4  11  24  42  64 100 134 181 222 266 328 400
#
# _framework density 21.942785000000001
#
# number of rings (size 3 to 8) (size 9 to 14) (size 15 to 20)
#    0.000    1.750    2.500    1.125    1.750    2.000 
#    0.000    5.000    0.000    9.000    0.000    0.000 
#    0.000    0.000    0.000    0.000    0.000    0.000 
#
# Total GULP energy -89137.152049 kJ/mol
# GULP energy per Si atom -5571.072003 kJ/mol
# Density = 2.189284 g / cm^3
# Si number density = 21.942785 Si / 1000 Ang^3
#
#
#
# Elastic Constant Matrix: (Units=GPa)
#
#
# Indices 1 2 3 4 5 6 
#
# 1 81.5235 29.9018 53.4947 16.0639 21.0747 -6.7374
# 2 29.9018 88.0673 19.2249 1.4350 6.7267 -9.1295
# 3 53.4947 19.2249 120.1356 16.2156 1.3921 12.2818
# 4 16.0639 1.4350 16.2156 32.1091 3.2878 5.1821
# 5 21.0747 6.7267 1.3921 3.2878 31.6225 -9.8197
# 6 -6.7374 -9.1295 12.2818 5.1821 -9.8197 27.5163
#
#
#
# Elastic Compliance Matrix: (Units=1/GPa)
#
#
# Indices 1 2 3 4 5 6 
#
# 1 0.026274 -0.004883 -0.010399 -0.007282 -0.013378 0.006052
# 2 -0.004883 0.013390 -0.000554 0.001369 0.001454 0.003755
# 3 -0.010399 -0.000554 0.013870 -0.001061 0.004318 -0.007180
# 4 -0.007282 0.001369 -0.001061 0.036813 -0.001842 -0.008445
# 5 -0.013378 0.001454 0.004318 -0.001842 0.043717 0.011228
# 6 0.006052 0.003755 -0.007180 -0.008445 0.011228 0.047872
#
#
# Mechanical properties :
#
#
# Convention : Reuss Voigt Hill
#
# Bulk Modulus (GPa) = 45.74076 54.99660 50.36868
# Shear Modulus (GPa) = 22.63510 30.72325 26.67917
#
# Velocity S-wave (km/s) = 3.21526 3.74592 3.49069
# Velocity P-wave (km/s) = 5.88851 6.62022 6.26506
#
# Compressibility (1/GPa) = 0.02186234
#
# Stress axis : x y z
#
# Youngs Moduli (GPa) = 38.05983 74.68391 72.09662
#
# Poissons Ratio (x) = 0.36469 0.74973
# Poissons Ratio (y) = 0.18585 0.03994
# Poissons Ratio (z) = 0.39578 0.04137
#
# Static dielectric constant tensor:
#      x y z
#    x 1.985400 0.019370 -0.011270 
#    y 0.019370 1.860660 -0.005120 
#    z -0.011270 -0.005120 1.759150 
# 
# From -- ./inp_files/469739.got.cif
#   From: 2010.05.17/outbox.cif.g08.bks.cpg/sg2_235_cif.got.tgz:469739.got - 2010.06.03 11:33:40.
