data_PCOD9105945
_publ_section_title
;
Structure prediction by ZEFSAII (Michael W. Deem and Ramdas Pophale) SiO2 
 PCOD9105945
Probable space group: P -1
;
_chemical_formula_sum "Si O2"
_cell_formula_units_Z 16
_cell_length_a 13.220990
_cell_length_b 17.257068
_cell_length_c 6.154764
_cell_angle_alpha 56.832336
_cell_angle_beta 47.042780
_cell_angle_gamma 49.842229
_cell_volume 770.774759
_symmetry_space_group_name_H-M "P -1"
_symmetry_group_IT_number 2
_symmetry_cell_setting 'triclinic'
loop_
_space_group_symop_operation_xyz
x,y,z
-x,-y,-z
loop_
_atom_site_type_symbol
_atom_site_label
_atom_site_fract_x
_atom_site_fract_y
_atom_site_fract_z
Si Si1 0.371137 0.722081 0.942044
Si Si2 0.842855 0.950682 0.745491
Si Si3 0.355032 0.284887 0.198983
Si Si4 0.414874 0.521599 0.340497
Si Si5 0.178200 0.422009 0.885136
Si Si6 0.882392 0.056649 0.894504
Si Si7 0.411492 0.828204 0.354858
Si Si8 0.708232 0.795139 0.195270
O O1 0.546052 0.683075 0.828781
O O2 0.374451 0.738491 0.651934
O O3 0.319226 0.645127 0.256957
O O4 0.263252 0.839321 0.989053
O O5 0.016348 0.914411 0.468305
O O6 0.835691 0.975079 0.973981
O O7 0.734821 0.064051 0.633097
O O8 0.783131 0.867902 0.901834
O O9 0.285972 0.220530 0.531354
O O10 0.221337 0.380279 0.131174
O O11 0.483680 0.217004 0.940475
O O12 0.500000 0.500000 0.500000
O O13 0.299294 0.468777 0.587847
O O14 0.500000 0.500000 0.000000
O O15 0.216285 0.318255 0.849508
O O16 0.000000 0.500000 0.000000
O O17 0.000000 0.000000 0.000000
O O18 0.528244 0.846215 0.317211
#
# Coordination Sequence:
#
# PCOD9105945 Si02
#       8
#     2   2   2   2   2   2   2   2
#     4  11  22  41  69  96 134 181 231 294 350 424
#     4  11  23  41  63  98 132 178 223 281 353 429
#     4  10  20  42  66  91 132 174 222 285 346 425
#     4  12  26  48  79 111 142 197 255 305 370 443
#     4  11  26  47  67 104 142 181 242 310 363 432
#     4  11  24  41  63  95 139 175 227 284 346 424
#     4  10  20  39  66  95 130 168 222 281 340 423
#     4  10  24  41  67  96 130 175 225 280 362 427
#
# _framework density 20.758334999999999
#
# number of rings (size 3 to 8) (size 9 to 14) (size 15 to 20)
#    0.000    1.250    3.750    2.625    1.750    3.000 
#    0.000    0.000    0.000    0.000    0.000    0.000 
#    0.000    0.000    0.000    0.000    0.000    0.000 
#
# Total GULP energy -89083.367806 kJ/mol
# GULP energy per Si atom -5567.710488 kJ/mol
# Density = 2.071109 g / cm^3
# Si number density = 20.758335 Si / 1000 Ang^3
#
#
#
# Elastic Constant Matrix: (Units=GPa)
#
#
# Indices 1 2 3 4 5 6 
#
# 1 99.8561 58.9165 38.8397 -9.2351 0.2978 -13.4569
# 2 58.9165 93.2195 30.2214 -2.5721 -0.2924 -12.8619
# 3 38.8397 30.2214 73.5643 -15.3014 7.0166 -2.3744
# 4 -9.2351 -2.5721 -15.3014 38.9716 1.0293 -6.4804
# 5 0.2978 -0.2924 7.0166 1.0293 31.2193 -2.9025
# 6 -13.4569 -12.8619 -2.3744 -6.4804 -2.9025 35.4166
#
#
#
# Elastic Compliance Matrix: (Units=1/GPa)
#
#
# Indices 1 2 3 4 5 6 
#
# 1 0.018243 -0.009203 -0.005393 0.002186 0.001226 0.003728
# 2 -0.009203 0.017769 -0.002831 -0.001727 0.001184 0.002548
# 3 -0.005393 -0.002831 0.019266 0.006046 -0.004603 -0.001057
# 4 0.002186 -0.001727 0.006046 0.029458 -0.001823 0.005849
# 5 0.001226 0.001184 -0.004603 -0.001823 0.033404 0.002991
# 6 0.003728 0.002548 -0.001057 0.005849 0.002991 0.031822
#
#
# Mechanical properties :
#
#
# Convention : Reuss Voigt Hill
#
# Bulk Modulus (GPa) = 48.96071 58.06611 53.51341
# Shear Modulus (GPa) = 26.09286 30.36565 28.22926
#
# Velocity S-wave (km/s) = 3.54924 3.82883 3.69168
# Velocity P-wave (km/s) = 6.35873 6.89781 6.63374
#
# Compressibility (1/GPa) = 0.02042454
#
# Stress axis : x y z
#
# Youngs Moduli (GPa) = 54.81623 56.27750 51.90419
#
# Poissons Ratio (x) = 0.51791 0.27992
# Poissons Ratio (y) = 0.50446 0.14694
# Poissons Ratio (z) = 0.29562 0.15932
#
# Static dielectric constant tensor:
#      x y z
#    x 1.819250 0.046400 0.096590 
#    y 0.046400 1.761700 -0.010230 
#    z 0.096590 -0.010230 1.857840 
# 
# From -- ./inp_files/81195.got.cif
#   From: 2010.05.17/outbox.cif.g08.bks.cpg/sg2_41_cif.got.tgz:81195.got - 2010.06.03 11:33:40.
