data_PCOD9105190
_publ_section_title
;
Structure prediction by ZEFSAII (Michael W. Deem and Ramdas Pophale) SiO2 
 PCOD9105190
Probable space group: P -1
;
_chemical_formula_sum "Si O2"
_cell_formula_units_Z 16
_cell_length_a 27.407470
_cell_length_b 4.930366
_cell_length_c 5.851826
_cell_angle_alpha 94.633298
_cell_angle_beta 114.808245
_cell_angle_gamma 109.211844
_cell_volume 655.339821
_symmetry_space_group_name_H-M "P -1"
_symmetry_group_IT_number 2
_symmetry_cell_setting 'triclinic'
loop_
_space_group_symop_operation_xyz
x,y,z
-x,-y,-z
loop_
_atom_site_type_symbol
_atom_site_label
_atom_site_fract_x
_atom_site_fract_y
_atom_site_fract_z
Si Si1 0.406326 0.862111 0.234255
Si Si2 0.013211 0.744604 0.739013
Si Si3 0.620656 0.634809 0.237759
Si Si4 0.512119 0.250852 0.231782
Si Si5 0.095777 0.207470 0.595059
Si Si6 0.122280 0.853474 0.251120
Si Si7 0.680525 0.260081 0.566940
Si Si8 0.180659 0.466628 0.148038
O O1 0.448108 0.809224 0.501632
O O2 0.351135 0.866744 0.262708
O O3 0.448801 0.170986 0.216601
O O4 0.388145 0.582126 0.009373
O O5 0.000000 0.500000 0.500000
O O6 0.949363 0.739436 0.665239
O O7 0.053519 0.051871 0.715231
O O8 0.055847 0.712160 0.012297
O O9 0.556540 0.554015 0.223438
O O10 0.659736 0.518966 0.471288
O O11 0.654137 0.987862 0.316895
O O12 0.500000 0.000000 0.000000
O O13 0.118563 0.985252 0.499299
O O14 0.149639 0.462335 0.842200
O O15 0.159433 0.132353 0.179385
O O16 0.154959 0.635502 0.284006
O O17 0.749903 0.381537 0.722283
#
# Coordination Sequence:
#
# PCOD9105190 Si02
#       8
#     2   2   2   2   2   2   2   2
#     4   9  19  38  64  92 124 166 200 251 317 363
#     4  10  20  39  63  95 127 151 199 254 303 378
#     4  10  22  40  62  92 122 159 207 256 307 369
#     4   8  16  36  63  95 128 156 200 253 310 374
#     4  10  23  40  62  92 124 162 198 250 313 365
#     4  11  24  41  65  89 123 164 201 251 314 362
#     4  11  24  41  61  86 123 163 211 260 298 356
#     4  11  25  42  59  89 122 161 215 256 293 363
#
# _framework density 24.414812999999999
#
# number of rings (size 3 to 8) (size 9 to 14) (size 15 to 20)
#    0.000    2.000    1.250    1.125    1.750    5.000 
#    0.000   21.250    0.000    0.000    0.000    0.000 
#    0.000    0.000    0.000    0.000    0.000    0.000 
#
# Total GULP energy -89540.257191 kJ/mol
# GULP energy per Si atom -5596.266074 kJ/mol
# Density = 2.435924 g / cm^3
# Si number density = 24.414813 Si / 1000 Ang^3
#
#
#
# Elastic Constant Matrix: (Units=GPa)
#
#
# Indices 1 2 3 4 5 6 
#
# 1 176.4147 28.6094 63.8697 19.1225 23.9658 15.7944
# 2 28.6094 82.4950 17.6111 8.5232 15.1581 1.1026
# 3 63.8697 17.6111 100.0925 15.2844 9.1379 15.2835
# 4 19.1225 8.5232 15.2844 36.5929 5.4007 -0.5217
# 5 23.9658 15.1581 9.1379 5.4007 45.1047 11.6693
# 6 15.7944 1.1026 15.2835 -0.5217 11.6693 40.9436
#
#
#
# Elastic Compliance Matrix: (Units=1/GPa)
#
#
# Indices 1 2 3 4 5 6 
#
# 1 0.008025 -0.001200 -0.004292 -0.001750 -0.002589 -0.000746
# 2 -0.001200 0.013670 -0.001324 -0.001395 -0.003961 0.001700
# 3 -0.004292 -0.001324 0.013986 -0.003544 0.001340 -0.003956
# 4 -0.001750 -0.001395 -0.003544 0.030435 -0.002326 0.003086
# 5 -0.002589 -0.003961 0.001340 -0.002326 0.026704 -0.007036
# 6 -0.000746 0.001700 -0.003956 0.003086 -0.007036 0.028187
#
#
# Mechanical properties :
#
#
# Convention : Reuss Voigt Hill
#
# Bulk Modulus (GPa) = 45.35763 64.35360 54.85562
# Shear Modulus (GPa) = 35.21363 41.12238 38.16800
#
# Velocity S-wave (km/s) = 3.80189 4.10850 3.95817
# Velocity P-wave (km/s) = 6.15555 6.99443 6.58835
#
# Compressibility (1/GPa) = 0.02204701
#
# Stress axis : x y z
#
# Youngs Moduli (GPa) = 124.60653 73.15219 71.50161
#
# Poissons Ratio (x) = 0.08781 0.30691
# Poissons Ratio (y) = 0.14958 0.09469
# Poissons Ratio (z) = 0.53485 0.09687
#
# Static dielectric constant tensor:
#      x y z
#    x 1.906820 0.012300 -0.000990 
#    y 0.012300 2.021320 -0.079310 
#    z -0.000990 -0.079310 1.964900 
# 
# From -- ./inp_files/13020.got.cif
#   From: 2010.05.17/outbox.cif.g08.bks.cpg/sg2_7_cif.got.tgz:13020.got - 2010.06.03 11:33:40.
