data_PCOD9105528
_publ_section_title
;
Structure prediction by ZEFSAII (Michael W. Deem and Ramdas Pophale) SiO2 
 PCOD9105528
Probable space group: P -1
;
_chemical_formula_sum "Si O2"
_cell_formula_units_Z 14
_cell_length_a 9.870888
_cell_length_b 14.167277
_cell_length_c 9.227089
_cell_angle_alpha 89.644731
_cell_angle_beta 148.562026
_cell_angle_gamma 88.952696
_cell_volume 672.313878
_symmetry_space_group_name_H-M "P -1"
_symmetry_group_IT_number 2
_symmetry_cell_setting 'triclinic'
loop_
_space_group_symop_operation_xyz
x,y,z
-x,-y,-z
loop_
_atom_site_type_symbol
_atom_site_label
_atom_site_fract_x
_atom_site_fract_y
_atom_site_fract_z
Si Si1 0.834547 0.650758 0.232359
Si Si2 0.230399 0.306920 0.491263
Si Si3 0.122104 0.207061 0.971663
Si Si4 0.419720 0.379642 0.270100
Si Si5 0.225996 0.798761 0.070520
Si Si6 0.277769 0.002915 0.175047
Si Si7 0.910279 0.484695 0.736049
O O1 0.795638 0.673565 0.361560
O O2 0.944846 0.738694 0.239634
O O3 0.572081 0.633024 0.898783
O O4 0.010639 0.558511 0.351073
O O5 0.014664 0.235269 0.243528
O O6 0.825176 0.544943 0.937164
O O7 0.169412 0.406828 0.355852
O O8 0.320709 0.278517 0.227342
O O9 0.260157 0.104232 0.079247
O O10 0.674942 0.420020 0.566081
O O11 0.478734 0.731962 0.275518
O O12 0.300001 0.906522 0.105450
O O13 0.118731 0.797298 0.138215
O O14 0.000000 0.000000 0.000000
O O15 0.500000 0.000000 0.500000
#
# Coordination Sequence:
#
# PCOD9105528 Si02
#       7
#     2   2   2   2   2   2   2
#     4   8  22  37  62  82 114 157 204 222 283 345
#     4  12  23  37  57  88 126 147 187 250 287 327
#     4   8  20  43  61  83 112 153 197 240 274 358
#     4   8  19  34  61  82 105 145 216 222 266 331
#     4  11  24  37  58  91 117 147 190 244 300 330
#     4  10  20  39  65  84 109 153 197 229 282 359
#     4   9  19  36  56  84 112 161 196 225 273 353
#
# _framework density 20.823608
#
# number of rings (size 3 to 8) (size 9 to 14) (size 15 to 20)
#    1.714    0.571    0.000    3.000    2.000    7.429 
#    0.000   11.429    0.000    0.000    0.000    0.000 
#    0.000    0.000    0.000    0.000    0.000    0.000 
#
# Total GULP energy -78035.060829 kJ/mol
# GULP energy per Si atom -5573.932916 kJ/mol
# Density = 2.077621 g / cm^3
# Si number density = 20.823608 Si / 1000 Ang^3
#
#
#
# Elastic Constant Matrix: (Units=GPa)
#
#
# Indices 1 2 3 4 5 6 
#
# 1 76.5271 29.3483 41.7194 -1.5977 -1.7213 -10.8092
# 2 29.3483 149.4646 27.4264 0.6949 -1.4405 -2.4119
# 3 41.7194 27.4264 93.8894 9.7024 9.7685 -0.0517
# 4 -1.5977 0.6949 9.7024 28.4415 5.1918 7.5921
# 5 -1.7213 -1.4405 9.7685 5.1918 39.8860 1.4321
# 6 -10.8092 -2.4119 -0.0517 7.5921 1.4321 21.0838
#
#
#
# Elastic Compliance Matrix: (Units=1/GPa)
#
#
# Indices 1 2 3 4 5 6 
#
# 1 0.020009 -0.002177 -0.008621 0.001169 0.002406 0.009403
# 2 -0.002177 0.007344 -0.001240 0.000131 0.000471 -0.000358
# 3 -0.008621 -0.001240 0.015673 -0.004430 -0.003582 -0.002685
# 4 0.001169 0.000131 -0.004430 0.041137 -0.003713 -0.013958
# 5 0.002406 0.000471 -0.003582 -0.003713 0.026524 0.000814
# 6 0.009403 -0.000358 -0.002685 -0.013958 0.000814 0.057174
#
#
# Mechanical properties :
#
#
# Convention : Reuss Voigt Hill
#
# Bulk Modulus (GPa) = 52.77550 57.42992 55.10271
# Shear Modulus (GPa) = 25.22024 32.64138 28.93081
#
# Velocity S-wave (km/s) = 3.48391 3.96348 3.73141
# Velocity P-wave (km/s) = 6.44846 6.97027 6.71444
#
# Compressibility (1/GPa) = 0.01894819
#
# Stress axis : x y z
#
# Youngs Moduli (GPa) = 49.97827 136.16806 63.80492
#
# Poissons Ratio (x) = 0.29650 0.55004
# Poissons Ratio (y) = 0.10882 0.07915
# Poissons Ratio (z) = 0.43085 0.16891
#
# Static dielectric constant tensor:
#      x y z
#    x 1.790720 -0.013980 -0.029350 
#    y -0.013980 1.793500 0.012620 
#    z -0.029350 0.012620 1.776050 
# 
# From -- ./inp_files/253811.got.cif
#   From: 2010.05.17/outbox.cif.g08.bks.cpg/sg2_127_cif.got.tgz:253811.got - 2010.06.03 11:33:40.
