data_PCOD9105721
_publ_section_title
;
Structure prediction by ZEFSAII (Michael W. Deem and Ramdas Pophale) SiO2 
 PCOD9105721
Probable space group: P -1
;
_chemical_formula_sum "Si O2"
_cell_formula_units_Z 16
_cell_length_a 24.467887
_cell_length_b 13.218644
_cell_length_c 10.586434
_cell_angle_alpha 41.486660
_cell_angle_beta 29.623399
_cell_angle_gamma 26.220194
_cell_volume 740.328264
_symmetry_space_group_name_H-M "P -1"
_symmetry_group_IT_number 2
_symmetry_cell_setting 'triclinic'
loop_
_space_group_symop_operation_xyz
x,y,z
-x,-y,-z
loop_
_atom_site_type_symbol
_atom_site_label
_atom_site_fract_x
_atom_site_fract_y
_atom_site_fract_z
Si Si1 0.630134 0.596450 0.471115
Si Si2 0.355123 0.960080 0.873362
Si Si3 0.036174 0.213440 0.741780
Si Si4 0.015949 0.124514 0.446425
Si Si5 0.447308 0.032362 0.876522
Si Si6 0.163601 0.436171 0.729022
Si Si7 0.157247 0.849462 0.665488
Si Si8 0.222669 0.302934 0.321023
O O1 0.501701 0.722506 0.727380
O O2 0.796226 0.505770 0.280872
O O3 0.678259 0.384646 0.514332
O O4 0.560357 0.786020 0.330234
O O5 0.401637 0.970437 0.909703
O O6 0.311564 0.158069 0.693097
O O7 0.189393 0.030899 0.152731
O O8 0.123821 0.254261 0.608694
O O9 0.914498 0.427376 0.688131
O O10 0.171977 0.969321 0.624354
O O11 0.923819 0.212519 0.045964
O O12 0.870724 0.400720 0.459829
O O13 0.032595 0.040792 0.630338
O O14 0.000000 0.000000 0.500000
O O15 0.628262 0.809651 0.779762
O O16 0.311680 0.167176 0.135702
O O17 0.000000 0.500000 0.000000
#
# Coordination Sequence:
#
# PCOD9105721 Si02
#       8
#     2   2   2   2   2   2   2   2
#     4  11  21  40  61  91 133 167 199 256 318 378
#     4  10  23  39  65  93 128 168 206 255 312 376
#     4  10  23  43  67  92 116 167 217 266 312 357
#     4  11  22  40  63  92 128 166 207 252 310 376
#     4  10  20  39  65  96 123 157 205 268 317 359
#     4   9  19  38  61  90 121 160 213 251 292 361
#     4  11  23  41  63  86 134 163 203 260 320 375
#     4  10  21  41  71  93 116 156 224 266 304 365
#
# _framework density 21.612033
#
# number of rings (size 3 to 8) (size 9 to 14) (size 15 to 20)
#    0.000    1.750    2.500    2.250    0.000    3.500 
#    2.250    0.625    8.250    0.000    0.000    0.000 
#    0.000    0.000    0.000    0.000    0.000    0.000 
#
# Total GULP energy -89390.882185 kJ/mol
# GULP energy per Si atom -5586.930137 kJ/mol
# Density = 2.156284 g / cm^3
# Si number density = 21.612033 Si / 1000 Ang^3
#
#
#
# Elastic Constant Matrix: (Units=GPa)
#
#
# Indices 1 2 3 4 5 6 
#
# 1 65.1394 41.9826 39.5130 7.6648 -5.9944 5.8807
# 2 41.9826 117.8007 35.8602 4.4933 -0.5544 17.1367
# 3 39.5130 35.8602 43.8083 -10.3995 -10.1825 7.2763
# 4 7.6648 4.4933 -10.3995 40.2567 0.7533 5.2133
# 5 -5.9944 -0.5544 -10.1825 0.7533 27.4518 3.6392
# 6 5.8807 17.1367 7.2763 5.2133 3.6392 32.7421
#
#
#
# Elastic Compliance Matrix: (Units=1/GPa)
#
#
# Indices 1 2 3 4 5 6 
#
# 1 0.049337 -0.002218 -0.051749 -0.023451 -0.008953 0.008529
# 2 -0.002218 0.012673 -0.009220 -0.002878 -0.003121 -0.003380
# 3 -0.051749 -0.009220 0.093971 0.036684 0.024394 -0.015316
# 4 -0.023451 -0.002878 0.036684 0.040211 0.008623 -0.009795
# 5 -0.008953 -0.003121 0.024394 0.008623 0.044345 -0.008481
# 6 0.008529 -0.003380 -0.015316 -0.009795 -0.008481 0.036685
#
#
# Mechanical properties :
#
#
# Convention : Reuss Voigt Hill
#
# Bulk Modulus (GPa) = 33.77591 51.27334 42.52463
# Shear Modulus (GPa) = 12.09290 27.38298 19.73794
#
# Velocity S-wave (km/s) = 2.36804 3.56339 3.02534
# Velocity P-wave (km/s) = 4.81030 6.38015 5.65001
#
# Compressibility (1/GPa) = 0.02960690
#
# Stress axis : x y z
#
# Youngs Moduli (GPa) = 20.26860 78.90743 10.64158
#
# Poissons Ratio (x) = 0.17506 0.55069
# Poissons Ratio (y) = 0.04497 0.09812
# Poissons Ratio (z) = 1.04888 0.72753
#
# Static dielectric constant tensor:
#      x y z
#    x 1.772790 0.005920 0.025120 
#    y 0.005920 1.801520 0.015910 
#    z 0.025120 0.015910 1.803680 
# 
# From -- ./inp_files/345936.got.cif
#   From: 2010.05.17/outbox.cif.g08.bks.cpg/sg2_173_cif.got.tgz:345936.got - 2010.06.03 11:33:40.
