data_PCOD9105406
_publ_section_title
;
Structure prediction by ZEFSAII (Michael W. Deem and Ramdas Pophale) SiO2 
 PCOD9105406
Probable space group: P -1
;
_chemical_formula_sum "Si O2"
_cell_formula_units_Z 14
_cell_length_a 8.256305
_cell_length_b 11.332125
_cell_length_c 8.624405
_cell_angle_alpha 89.645170
_cell_angle_beta 131.983197
_cell_angle_gamma 106.392466
_cell_volume 556.248830
_symmetry_space_group_name_H-M "P -1"
_symmetry_group_IT_number 2
_symmetry_cell_setting 'triclinic'
loop_
_space_group_symop_operation_xyz
x,y,z
-x,-y,-z
loop_
_atom_site_type_symbol
_atom_site_label
_atom_site_fract_x
_atom_site_fract_y
_atom_site_fract_z
Si Si1 0.502302 0.896614 0.668590
Si Si2 0.905727 0.117042 0.053902
Si Si3 0.272996 0.762283 0.808337
Si Si4 0.150593 0.691291 0.221345
Si Si5 0.788318 0.920214 0.479253
Si Si6 0.444067 0.638429 0.166950
Si Si7 0.881041 0.594043 0.360510
O O1 0.467504 0.813009 0.802457
O O2 0.373643 0.796712 0.451961
O O3 0.765517 0.996232 0.861017
O O4 0.350858 0.986745 0.577756
O O5 0.954910 0.238489 0.972549
O O6 0.726210 0.132346 0.069003
O O7 0.109373 0.112436 0.295658
O O8 0.031802 0.718874 0.558226
O O9 0.300695 0.648220 0.923424
O O10 0.266368 0.606219 0.199438
O O11 0.959030 0.628336 0.232037
O O12 0.617049 0.786393 0.300399
O O13 0.000000 0.000000 0.500000
O O14 0.612866 0.563216 0.238507
O O15 0.000000 0.500000 0.500000
#
# Coordination Sequence:
#
# PCOD9105406 Si02
#       7
#     2   2   2   2   2   2   2
#     4  11  20  36  57  93 137 175 203 251 295 380
#     4  11  20  35  59  91 135 172 209 251 304 373
#     4  10  20  39  64  93 130 168 214 254 315 381
#     4  10  24  43  61  97 133 162 217 263 311 383
#     4  12  20  32  61  93 129 180 211 236 307 368
#     4  11  23  43  65  91 133 168 208 266 321 371
#     4  11  25  48  70  92 120 160 219 279 329 381
#
# _framework density 25.168590999999999
#
# number of rings (size 3 to 8) (size 9 to 14) (size 15 to 20)
#    0.000    1.143    5.714    2.571    0.000    1.714 
#    5.143    2.857    0.000    0.000    0.000    0.000 
#    0.000    0.000    0.000    0.000    0.000    0.000 
#
# Total GULP energy -78294.807084 kJ/mol
# GULP energy per Si atom -5592.486220 kJ/mol
# Density = 2.511131 g / cm^3
# Si number density = 25.168591 Si / 1000 Ang^3
#
#
#
# Elastic Constant Matrix: (Units=GPa)
#
#
# Indices 1 2 3 4 5 6 
#
# 1 132.5154 26.9259 58.5707 -7.9951 -15.3522 -11.5777
# 2 26.9259 50.7381 33.1960 0.0870 -13.0555 1.0670
# 3 58.5707 33.1960 140.4531 -26.4443 -5.5882 -3.3402
# 4 -7.9951 0.0870 -26.4443 27.1543 8.3331 -3.0069
# 5 -15.3522 -13.0555 -5.5882 8.3331 51.3839 -2.9470
# 6 -11.5777 1.0670 -3.3402 -3.0069 -2.9470 29.6052
#
#
#
# Elastic Compliance Matrix: (Units=1/GPa)
#
#
# Indices 1 2 3 4 5 6 
#
# 1 0.010226 -0.002512 -0.003642 -0.000833 0.002376 0.003831
# 2 -0.002512 0.027663 -0.007241 -0.010374 0.006992 -0.003154
# 3 -0.003642 -0.007241 0.012573 0.012399 -0.003504 0.001166
# 4 -0.000833 -0.010374 0.012399 0.052304 -0.009686 0.005795
# 5 0.002376 0.006992 -0.003504 -0.009686 0.023230 0.001610
# 6 0.003831 -0.003154 0.001166 0.005795 0.001610 0.036270
#
#
# Mechanical properties :
#
#
# Convention : Reuss Voigt Hill
#
# Bulk Modulus (GPa) = 42.24309 62.34355 52.29332
# Shear Modulus (GPa) = 25.38784 35.29627 30.34206
#
# Velocity S-wave (km/s) = 3.17947 3.74892 3.47587
# Velocity P-wave (km/s) = 5.50447 6.60025 6.07711
#
# Compressibility (1/GPa) = 0.02367251
#
# Stress axis : x y z
#
# Youngs Moduli (GPa) = 97.78975 36.14987 79.53782
#
# Poissons Ratio (x) = 0.09081 0.28966
# Poissons Ratio (y) = 0.24564 0.57591
# Poissons Ratio (z) = 0.35613 0.26175
#
# Static dielectric constant tensor:
#      x y z
#    x 2.057560 -0.028970 -0.000110 
#    y -0.028970 2.023810 0.027890 
#    z -0.000110 0.027890 1.956800 
# 
# From -- ./inp_files/178365.got.cif
#   From: 2010.05.17/outbox.cif.g08.bks.cpg/sg2_90_cif.got.tgz:178365.got - 2010.06.03 11:33:40.
