data_PCOD9105320
_publ_section_title
;
Structure prediction by ZEFSAII (Michael W. Deem and Ramdas Pophale) SiO2 
 PCOD9105320
Probable space group: P -1
;
_chemical_formula_sum "Si O2"
_cell_formula_units_Z 14
_cell_length_a 12.881944
_cell_length_b 5.320179
_cell_length_c 11.005943
_cell_angle_alpha 51.895365
_cell_angle_beta 97.293772
_cell_angle_gamma 91.805813
_cell_volume 587.671375
_symmetry_space_group_name_H-M "P -1"
_symmetry_group_IT_number 2
_symmetry_cell_setting 'triclinic'
loop_
_space_group_symop_operation_xyz
x,y,z
-x,-y,-z
loop_
_atom_site_type_symbol
_atom_site_label
_atom_site_fract_x
_atom_site_fract_y
_atom_site_fract_z
Si Si1 0.179529 0.449171 0.154217
Si Si2 0.103650 0.340880 0.631954
Si Si3 0.370389 0.147607 0.423803
Si Si4 0.971854 0.238286 0.308702
Si Si5 0.266149 0.121375 0.022863
Si Si6 0.323945 0.457951 0.684872
Si Si7 0.542427 0.185776 0.704211
O O1 0.260397 0.271727 0.313165
O O2 0.068179 0.334420 0.214063
O O3 0.209396 0.323129 0.062375
O O4 0.199190 0.821118 0.065181
O O5 0.218939 0.454198 0.585912
O O6 0.000000 0.500000 0.500000
O O7 0.079573 0.445458 0.733912
O O8 0.103947 0.967564 0.719324
O O9 0.561522 0.979221 0.645868
O O10 0.415968 0.453661 0.404541
O O11 0.351504 0.825371 0.589268
O O12 0.000000 0.000000 0.500000
O O13 0.377866 0.981627 0.136444
O O14 0.294027 0.322187 0.850328
O O15 0.423828 0.240942 0.716676
#
# Coordination Sequence:
#
# PCOD9105320 Si02
#       7
#     2   2   2   2   2   2   2
#     4  10  21  43  65  90 130 167 204 259 315 371
#     4  10  23  38  60  92 120 157 207 256 308 358
#     4  10  22  39  66  96 125 163 212 259 310 370
#     4  10  20  39  64  90 117 160 210 256 305 362
#     4  10  24  41  64  95 129 169 202 249 322 381
#     4  12  24  42  66  95 128 166 212 261 308 374
#     4  10  23  42  63  94 130 166 205 256 315 374
#
# _framework density 23.822838000000001
#
# number of rings (size 3 to 8) (size 9 to 14) (size 15 to 20)
#    0.000    1.714    0.000    3.857    0.000   11.429 
#    0.000    8.571    0.000    0.000    0.000    0.000 
#    0.000    0.000    0.000    0.000    0.000    0.000 
#
# Total GULP energy -78326.241033 kJ/mol
# GULP energy per Si atom -5594.731502 kJ/mol
# Density = 2.376862 g / cm^3
# Si number density = 23.822838 Si / 1000 Ang^3
#
#
#
# Elastic Constant Matrix: (Units=GPa)
#
#
# Indices 1 2 3 4 5 6 
#
# 1 143.2232 47.5903 36.8706 -0.0546 -19.3311 11.8407
# 2 47.5903 199.3405 36.5945 -1.1420 -18.6790 7.2797
# 3 36.8706 36.5945 135.0323 -4.5622 -12.0421 1.2861
# 4 -0.0546 -1.1420 -4.5622 23.0275 -5.1822 -8.5658
# 5 -19.3311 -18.6790 -12.0421 -5.1822 37.3658 -3.4150
# 6 11.8407 7.2797 1.2861 -8.5658 -3.4150 39.1065
#
#
#
# Elastic Compliance Matrix: (Units=1/GPa)
#
#
# Indices 1 2 3 4 5 6 
#
# 1 0.008427 -0.001361 -0.001673 -0.000515 0.002876 -0.002105
# 2 -0.001361 0.005713 -0.000996 0.000357 0.001845 -0.000379
# 3 -0.001673 -0.000996 0.008361 0.002409 0.001765 0.001099
# 4 -0.000515 0.000357 0.002409 0.050270 0.008737 0.011784
# 5 0.002876 0.001845 0.001765 0.008737 0.031262 0.003371
# 6 -0.002105 -0.000379 0.001099 0.011784 0.003371 0.029119
#
#
# Mechanical properties :
#
#
# Convention : Reuss Voigt Hill
#
# Bulk Modulus (GPa) = 69.25210 79.96741 74.60976
# Shear Modulus (GPa) = 34.24041 43.66932 38.95487
#
# Velocity S-wave (km/s) = 3.79528 4.28610 4.04814
# Velocity P-wave (km/s) = 6.95257 7.62461 7.29633
#
# Compressibility (1/GPa) = 0.01444000
#
# Stress axis : x y z
#
# Youngs Moduli (GPa) = 118.66391 175.03082 119.60545
#
# Poissons Ratio (x) = 0.23828 0.20009
# Poissons Ratio (y) = 0.16154 0.11917
# Poissons Ratio (z) = 0.19852 0.17439
#
# Static dielectric constant tensor:
#      x y z
#    x 1.997430 0.064490 0.060790 
#    y 0.064490 1.927480 0.072270 
#    z 0.060790 0.072270 1.788750 
# 
# From -- ./inp_files/409757.got.cif
#   From: 2010.05.17/outbox.cif.g08.bks.cpg/sg2_205_cif.got.tgz:409757.got - 2010.06.03 11:33:40.
