data_PCOD9105209
_publ_section_title
;
Structure prediction by ZEFSAII (Michael W. Deem and Ramdas Pophale) SiO2 
 PCOD9105209
Probable space group: P -1
;
_chemical_formula_sum "Si O2"
_cell_formula_units_Z 16
_cell_length_a 14.655929
_cell_length_b 9.816433
_cell_length_c 14.088056
_cell_angle_alpha 80.149158
_cell_angle_beta 42.129310
_cell_angle_gamma 47.469556
_cell_volume 745.529649
_symmetry_space_group_name_H-M "P -1"
_symmetry_group_IT_number 2
_symmetry_cell_setting 'triclinic'
loop_
_space_group_symop_operation_xyz
x,y,z
-x,-y,-z
loop_
_atom_site_type_symbol
_atom_site_label
_atom_site_fract_x
_atom_site_fract_y
_atom_site_fract_z
Si Si1 0.220519 0.467344 0.762438
Si Si2 0.065449 0.581246 0.188700
Si Si3 0.665898 0.084043 0.345174
Si Si4 0.162901 0.801950 0.677334
Si Si5 0.686912 0.793061 0.103826
Si Si6 0.189179 0.370636 0.453747
Si Si7 0.668833 0.361903 0.977550
Si Si8 0.589748 0.541194 0.655829
O O1 0.400046 0.259270 0.565464
O O2 0.211745 0.638827 0.734201
O O3 0.330702 0.314367 0.792092
O O4 0.942630 0.653367 0.943837
O O5 0.909288 0.631341 0.380050
O O6 0.272290 0.310035 0.017072
O O7 0.193611 0.607971 0.128819
O O8 0.879982 0.792099 0.224104
O O9 0.736087 0.143889 0.359797
O O10 0.624414 0.188801 0.263122
O O11 0.287781 0.649368 0.501035
O O12 0.877640 0.068350 0.847969
O O13 0.454705 0.086814 0.255388
O O14 0.226465 0.499808 0.437162
O O15 0.000000 0.500000 0.500000
O O16 0.517601 0.462753 0.178253
O O17 0.500000 0.500000 0.000000
#
# Coordination Sequence:
#
# PCOD9105209 Si02
#       8
#     2   2   2   2   2   2   2   2
#     4  10  20  39  63  96 134 158 208 272 326 384
#     4  11  25  40  67  98 130 173 215 273 334 383
#     4  10  22  40  68 100 139 158 219 271 339 401
#     4  10  23  41  66  98 133 166 214 274 327 400
#     4  11  25  38  66  96 129 171 212 272 324 386
#     4  12  27  47  65  93 134 180 228 264 315 398
#     4  11  26  43  63  97 133 172 228 267 312 396
#     4  11  24  41  71  91 127 183 209 270 343 371
#
# _framework density 21.461252999999999
#
# number of rings (size 3 to 8) (size 9 to 14) (size 15 to 20)
#    0.000    1.250    1.250    4.500    8.750    4.000 
#    0.000    0.000    0.000    0.000    0.000    0.000 
#    0.000    0.000    0.000    0.000    0.000    0.000 
#
# Total GULP energy -89510.922187 kJ/mol
# GULP energy per Si atom -5594.432637 kJ/mol
# Density = 2.141241 g / cm^3
# Si number density = 21.461253 Si / 1000 Ang^3
#
#
#
# Elastic Constant Matrix: (Units=GPa)
#
#
# Indices 1 2 3 4 5 6 
#
# 1 84.7693 27.8165 17.6119 17.9382 -7.2721 -10.4593
# 2 27.8165 37.8861 30.6731 0.7340 -1.4110 9.8680
# 3 17.6119 30.6731 83.2519 0.6701 1.6618 3.1017
# 4 17.9382 0.7340 0.6701 23.8928 0.5145 2.4144
# 5 -7.2721 -1.4110 1.6618 0.5145 31.3576 3.6654
# 6 -10.4593 9.8680 3.1017 2.4144 3.6654 31.5199
#
#
#
# Elastic Compliance Matrix: (Units=1/GPa)
#
#
# Indices 1 2 3 4 5 6 
#
# 1 0.026953 -0.027013 0.003679 -0.021427 0.003050 0.018325
# 2 -0.027013 0.068977 -0.018759 0.021747 0.001042 -0.030499
# 3 0.003679 -0.018759 0.017988 -0.003238 -0.001563 0.005753
# 4 -0.021427 0.021747 -0.003238 0.059222 -0.002707 -0.017821
# 5 0.003050 0.001042 -0.001563 -0.002707 0.033099 -0.002802
# 6 0.018325 -0.030499 0.005753 -0.017821 -0.002802 0.048480
#
#
# Mechanical properties :
#
#
# Convention : Reuss Voigt Hill
#
# Bulk Modulus (GPa) = 33.63185 39.79002 36.71093
# Shear Modulus (GPa) = 14.33430 26.00777 20.17103
#
# Velocity S-wave (km/s) = 2.58721 3.48494 3.06907
# Velocity P-wave (km/s) = 4.96285 5.89692 5.44993
#
# Compressibility (1/GPa) = 0.02973372
#
# Stress axis : x y z
#
# Youngs Moduli (GPa) = 37.10143 14.49768 55.59374
#
# Poissons Ratio (x) = 0.39162 -0.20455
# Poissons Ratio (y) = 1.00221 1.04286
# Poissons Ratio (z) = -0.13651 0.27196
#
# Static dielectric constant tensor:
#      x y z
#    x 1.802010 0.027740 -0.008660 
#    y 0.027740 1.772830 -0.004880 
#    z -0.008660 -0.004880 1.791330 
# 
# From -- ./inp_files/529637.got.cif
#   From: 2010.05.17/outbox.cif.g08.bks.cpg/sg2_265_cif.got.tgz:529637.got - 2010.06.03 11:33:40.
