data_PCOD9105395
_publ_section_title
;
Structure prediction by ZEFSAII (Michael W. Deem and Ramdas Pophale) SiO2 
 PCOD9105395
Probable space group: P -1
;
_chemical_formula_sum "Si O2"
_cell_formula_units_Z 14
_cell_length_a 4.986151
_cell_length_b 10.061354
_cell_length_c 14.073038
_cell_angle_alpha 76.540375
_cell_angle_beta 117.403151
_cell_angle_gamma 121.930869
_cell_volume 531.892641
_symmetry_space_group_name_H-M "P -1"
_symmetry_group_IT_number 2
_symmetry_cell_setting 'triclinic'
loop_
_space_group_symop_operation_xyz
x,y,z
-x,-y,-z
loop_
_atom_site_type_symbol
_atom_site_label
_atom_site_fract_x
_atom_site_fract_y
_atom_site_fract_z
Si Si1 0.845772 0.051530 0.265780
Si Si2 0.833668 0.167024 0.911999
Si Si3 0.859294 0.620159 0.438647
Si Si4 0.627524 0.064661 0.616116
Si Si5 0.250516 0.477989 0.831366
Si Si6 0.584511 0.307016 0.993088
Si Si7 0.089034 0.372713 0.343309
O O1 0.998597 0.234566 0.277910
O O2 0.526274 0.976777 0.153495
O O3 0.674280 0.970096 0.352805
O O4 0.150987 0.014945 0.295563
O O5 0.916693 0.310718 0.828578
O O6 0.808431 0.835270 0.036097
O O7 0.809994 0.237920 0.997255
O O8 0.460323 0.523095 0.362914
O O9 0.891453 0.689844 0.538685
O O10 0.000000 0.500000 0.500000
O O11 0.099922 0.753564 0.383766
O O12 0.500000 0.000000 0.500000
O O13 0.314797 0.593588 0.911452
O O14 0.189471 0.567231 0.720841
O O15 0.544213 0.425834 0.891845
#
# Coordination Sequence:
#
# PCOD9105395 Si02
#       7
#     2   2   2   2   2   2   2
#     4  12  26  43  65  99 131 180 218 264 332 398
#     4  10  20  39  64  93 126 167 219 261 321 396
#     4  11  26  43  67  94 135 172 226 272 328 379
#     4  12  25  45  68  89 133 180 220 267 325 393
#     4   9  21  38  68  93 130 166 223 265 331 380
#     4   9  20  40  67  95 125 170 218 269 322 396
#     4  11  25  43  62 101 132 174 217 282 321 390
#
# _framework density 26.321103000000001
#
# number of rings (size 3 to 8) (size 9 to 14) (size 15 to 20)
#    0.857    0.571    1.429    3.429    6.000    1.143 
#    0.000    1.429    0.000    0.000    0.000    0.000 
#    0.000    0.000    0.000    0.000    0.000    0.000 
#
# Total GULP energy -78411.452362 kJ/mol
# GULP energy per Si atom -5600.818026 kJ/mol
# Density = 2.626120 g / cm^3
# Si number density = 26.321103 Si / 1000 Ang^3
#
#
#
# Elastic Constant Matrix: (Units=GPa)
#
#
# Indices 1 2 3 4 5 6 
#
# 1 76.1715 -15.2959 0.6572 2.4091 -2.9453 -1.8167
# 2 -15.2959 96.9048 23.3991 13.7488 -4.5654 15.0809
# 3 0.6572 23.3991 81.1965 7.2574 0.7681 8.6185
# 4 2.4091 13.7488 7.2574 50.4499 -2.5339 0.1949
# 5 -2.9453 -4.5654 0.7681 -2.5339 30.0558 1.8717
# 6 -1.8167 15.0809 8.6185 0.1949 1.8717 31.5126
#
#
#
# Elastic Compliance Matrix: (Units=1/GPa)
#
#
# Indices 1 2 3 4 5 6 
#
# 1 0.013763 0.002659 -0.000748 -0.001188 0.001694 -0.000367
# 2 0.002659 0.012810 -0.002898 -0.003062 0.002353 -0.005305
# 3 -0.000748 -0.002898 0.013511 -0.001150 -0.000813 -0.002296
# 4 -0.001188 -0.003062 -0.001150 0.020929 0.001118 0.001516
# 5 0.001694 0.002353 -0.000813 0.001118 0.034087 -0.002837
# 6 -0.000367 -0.005305 -0.002296 0.001516 -0.002837 0.035038
#
#
# Mechanical properties :
#
#
# Convention : Reuss Voigt Hill
#
# Bulk Modulus (GPa) = 26.24154 30.19931 28.22042
# Shear Modulus (GPa) = 34.52646 38.77116 36.64881
#
# Velocity S-wave (km/s) = 3.62573 3.84214 3.73550
# Velocity P-wave (km/s) = 5.24588 5.58400 5.41758
#
# Compressibility (1/GPa) = 0.03810752
#
# Stress axis : x y z
#
# Youngs Moduli (GPa) = 72.65905 78.06473 74.01212
#
# Poissons Ratio (x) = -0.20755 0.05539
# Poissons Ratio (y) = -0.19317 0.21452
# Poissons Ratio (z) = 0.05438 0.22627
#
# Static dielectric constant tensor:
#      x y z
#    x 2.042010 0.028340 -0.056710 
#    y 0.028340 2.046890 -0.008520 
#    z -0.056710 -0.008520 2.090760 
# 
# From -- ./inp_files/548005.got.cif
#   From: 2010.05.17/outbox.cif.g08.bks.cpg/sg2_275_cif.got.tgz:548005.got - 2010.06.03 11:33:40.
