data_PCOD9105388
_publ_section_title
;
Structure prediction by ZEFSAII (Michael W. Deem and Ramdas Pophale) SiO2 
 PCOD9105388
Probable space group: P -1
;
_chemical_formula_sum "Si O2"
_cell_formula_units_Z 16
_cell_length_a 11.119229
_cell_length_b 13.629521
_cell_length_c 8.523600
_cell_angle_alpha 51.566285
_cell_angle_beta 85.010932
_cell_angle_gamma 48.606450
_cell_volume 633.231180
_symmetry_space_group_name_H-M "P -1"
_symmetry_group_IT_number 2
_symmetry_cell_setting 'triclinic'
loop_
_space_group_symop_operation_xyz
x,y,z
-x,-y,-z
loop_
_atom_site_type_symbol
_atom_site_label
_atom_site_fract_x
_atom_site_fract_y
_atom_site_fract_z
Si Si1 0.777588 0.132366 0.359225
Si Si2 0.972273 0.278877 0.922326
Si Si3 0.552085 0.104394 0.562981
Si Si4 0.653367 0.441910 0.287754
Si Si5 0.782818 0.560495 0.950468
Si Si6 0.381885 0.390925 0.580679
Si Si7 0.227268 0.289114 0.908402
Si Si8 0.995771 0.988254 0.196896
O O1 0.707940 0.049208 0.490637
O O2 0.638442 0.336688 0.273229
O O3 0.793235 0.137495 0.163644
O O4 0.000000 0.000000 0.500000
O O5 0.911481 0.376138 0.003019
O O6 0.789497 0.411377 0.699783
O O7 0.070967 0.067074 0.149425
O O8 0.102378 0.286152 0.835922
O O9 0.358868 0.249821 0.337353
O O10 0.515563 0.224029 0.598137
O O11 0.614473 0.921965 0.809551
O O12 0.544149 0.573607 0.328263
O O13 0.657709 0.558499 0.060324
O O14 0.863976 0.236594 0.541911
O O15 0.879463 0.557220 0.085975
O O16 0.303438 0.334015 0.741611
O O17 0.000000 0.000000 0.000000
#
# Coordination Sequence:
#
# PCOD9105388 Si02
#       8
#     2   2   2   2   2   2   2   2
#     4  10  22  41  66  93 127 167 218 264 314 392
#     4  11  21  41  65  98 129 172 216 269 324 374
#     4  11  24  43  65  93 130 181 209 267 330 378
#     4  10  20  39  64  92 133 168 212 260 319 378
#     4  10  23  40  62  95 132 168 219 268 318 385
#     4  10  23  41  63  96 137 167 219 270 320 379
#     4  11  22  41  68  92 130 176 222 266 317 381
#     4  11  21  39  67  96 133 164 211 270 320 391
#
# _framework density 25.267232
#
# number of rings (size 3 to 8) (size 9 to 14) (size 15 to 20)
#    0.000    1.500    2.500    3.000    1.750    1.000 
#    0.000   10.000    0.000    0.000    0.000    0.000 
#    0.000    0.000    0.000    0.000    0.000    0.000 
#
# Total GULP energy -89281.811307 kJ/mol
# GULP energy per Si atom -5580.113207 kJ/mol
# Density = 2.520972 g / cm^3
# Si number density = 25.267232 Si / 1000 Ang^3
#
#
#
# Elastic Constant Matrix: (Units=GPa)
#
#
# Indices 1 2 3 4 5 6 
#
# 1 45.2563 19.7085 2.2308 11.9117 1.5915 -4.6031
# 2 19.7085 110.0181 18.6458 33.1370 -5.0244 20.9068
# 3 2.2308 18.6458 95.7767 16.4603 -2.3082 -4.6010
# 4 11.9117 33.1370 16.4603 44.5176 -7.7703 -8.1059
# 5 1.5915 -5.0244 -2.3082 -7.7703 39.9618 11.7404
# 6 -4.6031 20.9068 -4.6010 -8.1059 11.7404 23.8916
#
#
#
# Elastic Compliance Matrix: (Units=1/GPa)
#
#
# Indices 1 2 3 4 5 6 
#
# 1 0.027814 -0.009057 0.001674 0.000589 -0.007119 0.017305
# 2 -0.009057 0.023737 -0.002581 -0.018833 0.009552 -0.034097
# 3 0.001674 -0.002581 0.011470 -0.002162 -0.001567 0.004827
# 4 0.000589 -0.018833 -0.002162 0.042362 -0.003803 0.032418
# 5 -0.007119 0.009552 -0.001567 -0.003803 0.033899 -0.027980
# 6 0.017305 -0.034097 0.004827 0.032418 -0.027980 0.100705
#
#
# Mechanical properties :
#
#
# Convention : Reuss Voigt Hill
#
# Bulk Modulus (GPa) = 23.20630 36.91347 30.05988
# Shear Modulus (GPa) = 18.22950 35.70526 26.96738
#
# Velocity S-wave (km/s) = 2.68893 3.76321 3.27048
# Velocity P-wave (km/s) = 4.34105 5.78993 5.11703
#
# Compressibility (1/GPa) = 0.04309175
#
# Stress axis : x y z
#
# Youngs Moduli (GPa) = 35.95366 42.12754 87.18224
#
# Poissons Ratio (x) = 0.38156 -0.14594
# Poissons Ratio (y) = 0.32564 0.22506
# Poissons Ratio (z) = -0.06018 0.10875
#
# Static dielectric constant tensor:
#      x y z
#    x 2.157340 0.061860 0.088470 
#    y 0.061860 2.063600 0.051850 
#    z 0.088470 0.051850 2.030000 
# 
# From -- ./inp_files/271499.got.cif
#   From: 2010.05.17/outbox.cif.g08.bks.cpg/sg2_136_cif.got.tgz:271499.got - 2010.06.03 11:33:40.
