data_PCOD9105001
_publ_section_title
;
Structure prediction by ZEFSAII (Michael W. Deem and Ramdas Pophale) SiO2 
 PCOD9105001
Probable space group: P -1
;
_chemical_formula_sum "Si O2"
_cell_formula_units_Z 16
_cell_length_a 19.376797
_cell_length_b 6.505123
_cell_length_c 11.358918
_cell_angle_alpha 124.409965
_cell_angle_beta 43.784392
_cell_angle_gamma 127.428372
_cell_volume 765.661936
_symmetry_space_group_name_H-M "P -1"
_symmetry_group_IT_number 2
_symmetry_cell_setting 'triclinic'
loop_
_space_group_symop_operation_xyz
x,y,z
-x,-y,-z
loop_
_atom_site_type_symbol
_atom_site_label
_atom_site_fract_x
_atom_site_fract_y
_atom_site_fract_z
Si Si1 0.318698 0.752845 0.148144
Si Si2 0.220971 0.442909 0.668205
Si Si3 0.595604 0.704128 0.514659
Si Si4 0.907903 0.271997 0.966763
Si Si5 0.912092 0.345103 0.706132
Si Si6 0.030735 0.914219 0.663724
Si Si7 0.658584 0.300028 0.628249
Si Si8 0.530181 0.655164 0.851629
O O1 0.204941 0.665188 0.196391
O O2 0.294264 0.728940 0.311300
O O3 0.392559 0.048993 0.106488
O O4 0.404722 0.604472 0.988062
O O5 0.301706 0.380336 0.637246
O O6 0.263338 0.524305 0.509943
O O7 0.126339 0.160192 0.678000
O O8 0.192742 0.686759 0.836248
O O9 0.500000 0.500000 0.500000
O O10 0.562893 0.679996 0.683271
O O11 0.614940 0.998273 0.540333
O O12 0.910542 0.321931 0.840428
O O13 0.929452 0.996387 0.850835
O O14 0.000000 0.500000 0.000000
O O15 0.941032 0.126978 0.520522
O O16 0.005212 0.624500 0.654999
O O17 0.566236 0.428607 0.793367
#
# Coordination Sequence:
#
# PCOD9105001 Si02
#       8
#     2   2   2   2   2   2   2   2
#     4  10  21  38  62  94 123 163 205 259 310 361
#     4  10  23  41  64  89 127 169 206 254 315 375
#     4  10  22  38  61  90 125 163 203 255 307 370
#     4  10  24  42  61  89 124 166 208 256 308 370
#     4  11  23  39  66  94 125 160 211 261 314 368
#     4  10  23  43  63  92 123 163 211 262 312 364
#     4  10  20  39  63  87 122 169 204 246 315 370
#     4   9  20  38  60  91 128 163 204 255 307 367
#
# _framework density 20.89695
#
# number of rings (size 3 to 8) (size 9 to 14) (size 15 to 20)
#    0.000    2.000    0.000    3.000    1.750   13.000 
#    2.250    0.000    0.000    0.000    0.000    0.000 
#    0.000    0.000    0.000    0.000    0.000    0.000 
#
# Total GULP energy -89128.309575 kJ/mol
# GULP energy per Si atom -5570.519348 kJ/mol
# Density = 2.084939 g / cm^3
# Si number density = 20.896950 Si / 1000 Ang^3
#
#
#
# Elastic Constant Matrix: (Units=GPa)
#
#
# Indices 1 2 3 4 5 6 
#
# 1 62.9847 30.1424 9.6806 19.2999 -4.1025 5.7843
# 2 30.1424 59.9743 -4.2644 11.5647 -16.9055 4.9435
# 3 9.6806 -4.2644 96.3142 23.7368 -17.3615 3.8193
# 4 19.2999 11.5647 23.7368 22.8074 -5.7293 -2.8303
# 5 -4.1025 -16.9055 -17.3615 -5.7293 26.6713 2.3824
# 6 5.7843 4.9435 3.8193 -2.8303 2.3824 20.6290
#
#
#
# Elastic Compliance Matrix: (Units=1/GPa)
#
#
# Indices 1 2 3 4 5 6 
#
# 1 0.027835 -0.010444 0.001569 -0.022238 -0.005377 -0.008022
# 2 -0.010444 0.033681 0.011263 -0.015222 0.024893 -0.012191
# 3 0.001569 0.011263 0.020517 -0.025834 0.016291 -0.012364
# 4 -0.022238 -0.015222 -0.025834 0.098045 -0.011454 0.029441
# 5 -0.005377 0.024893 0.016291 -0.011454 0.062036 -0.016209
# 6 -0.008022 -0.012191 -0.012364 0.029441 -0.016209 0.061847
#
#
# Mechanical properties :
#
#
# Convention : Reuss Voigt Hill
#
# Bulk Modulus (GPa) = 11.51964 32.26559 21.89261
# Shear Modulus (GPa) = 15.23830 26.26916 20.75373
#
# Velocity S-wave (km/s) = 2.70332 3.54938 3.15484
# Velocity P-wave (km/s) = 3.90749 5.68079 4.87544
#
# Compressibility (1/GPa) = 0.08680828
#
# Stress axis : x y z
#
# Youngs Moduli (GPa) = 35.92657 29.69071 48.73907
#
# Poissons Ratio (x) = 0.31010 -0.07648
# Poissons Ratio (y) = 0.37523 -0.54895
# Poissons Ratio (z) = -0.05638 -0.33441
#
# Static dielectric constant tensor:
#      x y z
#    x 1.764060 -0.024490 -0.039490 
#    y -0.024490 1.684060 0.013830 
#    z -0.039490 0.013830 1.836890 
# 
# From -- ./inp_files/459312.got.cif
#   From: 2010.05.17/outbox.cif.g08.bks.cpg/sg2_230_cif.got.tgz:459312.got - 2010.06.03 11:33:40.
