data_PCOD9105081
_publ_section_title
;
Structure prediction by ZEFSAII (Michael W. Deem and Ramdas Pophale) SiO2 
 PCOD9105081
Probable space group: P -1
;
_chemical_formula_sum "Si O2"
_cell_formula_units_Z 16
_cell_length_a 14.257153
_cell_length_b 7.582683
_cell_length_c 12.844186
_cell_angle_alpha 41.292992
_cell_angle_beta 52.236152
_cell_angle_gamma 74.046455
_cell_volume 677.167719
_symmetry_space_group_name_H-M "P -1"
_symmetry_group_IT_number 2
_symmetry_cell_setting 'triclinic'
loop_
_space_group_symop_operation_xyz
x,y,z
-x,-y,-z
loop_
_atom_site_type_symbol
_atom_site_label
_atom_site_fract_x
_atom_site_fract_y
_atom_site_fract_z
Si Si1 0.918055 0.568605 0.302296
Si Si2 0.513834 0.836378 0.246036
Si Si3 0.888249 0.690224 0.705033
Si Si4 0.221058 0.689146 0.849760
Si Si5 0.754475 0.841712 0.984894
Si Si6 0.292927 0.028022 0.276699
Si Si7 0.451745 0.199860 0.521453
Si Si8 0.980572 0.107937 0.128107
O O1 0.797374 0.287939 0.488903
O O2 0.032492 0.492534 0.313367
O O3 0.893183 0.789153 0.298677
O O4 0.964053 0.727770 0.090524
O O5 0.436676 0.042342 0.179777
O O6 0.461896 0.531520 0.353661
O O7 0.496310 0.794968 0.399580
O O8 0.664643 0.947081 0.072034
O O9 0.763513 0.752557 0.724527
O O10 0.845699 0.527278 0.915735
O O11 0.000000 0.000000 0.500000
O O12 0.114140 0.744927 0.827495
O O13 0.305241 0.984496 0.713490
O O14 0.293642 0.507480 0.822568
O O15 0.900938 0.915069 0.880524
O O16 0.735338 0.939254 0.839679
O O17 0.500000 0.000000 0.500000
#
# Coordination Sequence:
#
# PCOD9105081 Si02
#       8
#     2   2   2   2   2   2   2   2
#     4   9  19  35  61  90 125 163 220 273 320 387
#     4  11  25  41  68  92 129 177 216 267 328 376
#     4   8  17  35  58  86 120 164 205 258 316 378
#     4  10  20  39  63  90 128 165 211 273 322 377
#     4  11  23  39  61  93 132 170 215 266 323 393
#     4  10  21  40  60  89 131 177 214 259 326 392
#     4  11  24  44  67  97 128 165 224 276 320 382
#     4  10  21  34  62  94 122 166 216 270 332 378
#
# _framework density 23.627822999999999
#
# number of rings (size 3 to 8) (size 9 to 14) (size 15 to 20)
#    0.000    2.000    1.250    1.500    8.750    0.500 
#    0.000    6.250    0.000    0.000    0.000    0.000 
#    0.000    0.000    0.000    0.000    0.000    0.000 
#
# Total GULP energy -89108.590822 kJ/mol
# GULP energy per Si atom -5569.286926 kJ/mol
# Density = 2.357405 g / cm^3
# Si number density = 23.627823 Si / 1000 Ang^3
#
#
#
# Elastic Constant Matrix: (Units=GPa)
#
#
# Indices 1 2 3 4 5 6 
#
# 1 109.5333 41.3535 6.2146 -4.4576 -2.1420 -41.6550
# 2 41.3535 105.4353 7.6496 3.2935 -5.7340 -29.3042
# 3 6.2146 7.6496 31.7192 11.7024 -0.2992 -0.9309
# 4 -4.4576 3.2935 11.7024 17.7161 1.3269 -10.2328
# 5 -2.1420 -5.7340 -0.2992 1.3269 18.4490 -1.8337
# 6 -41.6550 -29.3042 -0.9309 -10.2328 -1.8337 50.1462
#
#
#
# Elastic Compliance Matrix: (Units=1/GPa)
#
#
# Indices 1 2 3 4 5 6 
#
# 1 0.018713 -0.001860 -0.011277 0.023404 0.001625 0.019084
# 2 -0.001860 0.012355 -0.003455 0.002883 0.003991 0.006345
# 3 -0.011277 -0.003455 0.051689 -0.048015 -0.000102 -0.020229
# 4 0.023404 0.002883 -0.048015 0.119340 -0.001322 0.044539
# 5 0.001625 0.003991 -0.000102 -0.001322 0.056269 0.005468
# 6 0.019084 0.006345 -0.020229 0.044539 0.005468 0.048415
#
#
# Mechanical properties :
#
#
# Convention : Reuss Voigt Hill
#
# Bulk Modulus (GPa) = 20.17226 39.68036 29.92631
# Shear Modulus (GPa) = 14.02559 30.02695 22.02627
#
# Velocity S-wave (km/s) = 2.43904 3.56874 3.05654
# Velocity P-wave (km/s) = 4.06054 5.81477 5.01495
#
# Compressibility (1/GPa) = 0.04957302
#
# Stress axis : x y z
#
# Youngs Moduli (GPa) = 53.43756 80.93708 19.34637
#
# Poissons Ratio (x) = 0.15056 0.21817
# Poissons Ratio (y) = 0.09941 0.06684
# Poissons Ratio (z) = 0.60262 0.27964
#
# Static dielectric constant tensor:
#      x y z
#    x 1.931930 -0.048600 -0.080230 
#    y -0.048600 1.964110 0.023480 
#    z -0.080230 0.023480 1.970310 
# 
# From -- ./inp_files/527129.got.cif
#   From: 2010.05.17/outbox.cif.g08.bks.cpg/sg2_264_cif.got.tgz:527129.got - 2010.06.03 11:33:40.
