data_PCOD9105854
_publ_section_title
;
Structure prediction by ZEFSAII (Michael W. Deem and Ramdas Pophale) SiO2 
 PCOD9105854
Probable space group: P -1
;
_chemical_formula_sum "Si O2"
_cell_formula_units_Z 16
_cell_length_a 23.148749
_cell_length_b 8.304765
_cell_length_c 19.893975
_cell_angle_alpha 148.778172
_cell_angle_beta 21.232659
_cell_angle_gamma 137.697274
_cell_volume 683.426222
_symmetry_space_group_name_H-M "P -1"
_symmetry_group_IT_number 2
_symmetry_cell_setting 'triclinic'
loop_
_space_group_symop_operation_xyz
x,y,z
-x,-y,-z
loop_
_atom_site_type_symbol
_atom_site_label
_atom_site_fract_x
_atom_site_fract_y
_atom_site_fract_z
Si Si1 0.966915 0.951317 0.822081
Si Si2 0.635249 0.119466 0.161520
Si Si3 0.318130 0.993159 0.178117
Si Si4 0.823300 0.661159 0.684394
Si Si5 0.448245 0.163237 0.517206
Si Si6 0.755069 0.604893 0.010526
Si Si7 0.019485 0.161829 0.665789
Si Si8 0.065762 0.203841 0.943688
O O1 0.112149 0.726165 0.536782
O O2 0.892150 0.691363 0.847416
O O3 0.024574 0.123205 0.883451
O O4 0.803517 0.147173 0.026584
O O5 0.509156 0.103017 0.351467
O O6 0.565282 0.459666 0.319591
O O7 0.692787 0.811579 0.939541
O O8 0.254193 0.190962 0.249877
O O9 0.182752 0.116763 0.427644
O O10 0.326317 0.624013 0.023573
O O11 0.500000 0.000000 0.000000
O O12 0.971900 0.823665 0.597466
O O13 0.266868 0.114241 0.701424
O O14 0.604871 0.927967 0.303645
O O15 0.858798 0.396557 0.883822
O O16 0.024286 0.408164 0.808805
O O17 0.000000 0.000000 0.000000
#
# Coordination Sequence:
#
# PCOD9105854 Si02
#       8
#     2   2   2   2   2   2   2   2
#     4  11  22  41  68  93 133 172 222 272 318 395
#     4  10  23  46  65  91 129 187 225 260 319 391
#     4  11  23  39  66 102 137 161 216 286 333 384
#     4  11  20  44  69  93 128 181 224 260 329 404
#     4  10  24  43  62  94 140 164 226 273 315 384
#     4  10  20  39  66  90 133 176 208 269 339 379
#     4  11  21  43  65  99 134 173 214 269 336 402
#     4  12  24  41  67 103 133 167 217 277 341 381
#
# _framework density 23.411452000000001
#
# number of rings (size 3 to 8) (size 9 to 14) (size 15 to 20)
#    0.000    1.250    5.000    1.125    3.500    1.000 
#    6.750    0.625    0.000    0.000    0.000    0.000 
#    0.000    0.000    0.000    0.000    0.000    0.000 
#
# Total GULP energy -89446.508658 kJ/mol
# GULP energy per Si atom -5590.406791 kJ/mol
# Density = 2.335817 g / cm^3
# Si number density = 23.411452 Si / 1000 Ang^3
#
#
#
# Elastic Constant Matrix: (Units=GPa)
#
#
# Indices 1 2 3 4 5 6 
#
# 1 93.6493 14.5764 46.6693 9.0168 14.7118 32.1219
# 2 14.5764 66.4359 37.1489 -3.3872 10.6566 17.7682
# 3 46.6693 37.1489 157.0578 0.7733 25.4152 9.6451
# 4 9.0168 -3.3872 0.7733 55.0867 -7.5787 4.6029
# 5 14.7118 10.6566 25.4152 -7.5787 44.3149 -0.2784
# 6 32.1219 17.7682 9.6451 4.6029 -0.2784 31.7541
#
#
#
# Elastic Compliance Matrix: (Units=1/GPa)
#
#
# Indices 1 2 3 4 5 6 
#
# 1 0.021352 0.005115 -0.005213 -0.002016 -0.005816 -0.022637
# 2 0.005115 0.021739 -0.005054 0.001375 -0.003893 -0.016036
# 3 -0.005213 -0.005054 0.009163 -0.000354 -0.002336 0.005349
# 4 -0.002016 0.001375 -0.000354 0.019213 0.003819 -0.001374
# 5 -0.005816 -0.003893 -0.002336 0.003819 0.027479 0.008458
# 6 -0.022637 -0.016036 0.005349 -0.001374 0.008458 0.062013
#
#
# Mechanical properties :
#
#
# Convention : Reuss Voigt Hill
#
# Bulk Modulus (GPa) = 23.83839 57.10360 40.47100
# Shear Modulus (GPa) = 26.99105 40.81435 33.90270
#
# Velocity S-wave (km/s) = 3.39912 4.17987 3.80955
# Velocity P-wave (km/s) = 5.06062 6.90937 6.05596
#
# Compressibility (1/GPa) = 0.04194914
#
# Stress axis : x y z
#
# Youngs Moduli (GPa) = 46.83368 45.99954 109.13663
#
# Poissons Ratio (x) = -0.23527 0.56897
# Poissons Ratio (y) = -0.23953 0.55155
# Poissons Ratio (z) = 0.24416 0.23247
#
# Static dielectric constant tensor:
#      x y z
#    x 1.973130 -0.057090 0.057300 
#    y -0.057090 1.923060 0.039540 
#    z 0.057300 0.039540 1.896910 
# 
# From -- ./inp_files/312504.got.cif
#   From: 2010.05.17/outbox.cif.g08.bks.cpg/sg2_157_cif.got.tgz:312504.got - 2010.06.03 11:33:40.
