data_PCOD9105173
_publ_section_title
;
Structure prediction by ZEFSAII (Michael W. Deem and Ramdas Pophale) SiO2 
 PCOD9105173
Probable space group: P -1
;
_chemical_formula_sum "Si O2"
_cell_formula_units_Z 16
_cell_length_a 11.984266
_cell_length_b 7.237077
_cell_length_c 9.864289
_cell_angle_alpha 115.194460
_cell_angle_beta 101.466123
_cell_angle_gamma 68.495471
_cell_volume 719.332586
_symmetry_space_group_name_H-M "P -1"
_symmetry_group_IT_number 2
_symmetry_cell_setting 'triclinic'
loop_
_space_group_symop_operation_xyz
x,y,z
-x,-y,-z
loop_
_atom_site_type_symbol
_atom_site_label
_atom_site_fract_x
_atom_site_fract_y
_atom_site_fract_z
Si Si1 0.357833 0.682114 0.166724
Si Si2 0.857848 0.736659 0.449519
Si Si3 0.598601 0.101685 0.503774
Si Si4 0.141095 0.277766 0.866669
Si Si5 0.322477 0.832108 0.730851
Si Si6 0.116436 0.684646 0.173921
Si Si7 0.879411 0.328509 0.508296
Si Si8 0.484168 0.780275 0.983250
O O1 0.399613 0.708175 0.336368
O O2 0.213714 0.778989 0.160952
O O3 0.399600 0.431526 0.055753
O O4 0.423621 0.803812 0.122628
O O5 0.868635 0.643844 0.268675
O O6 0.862361 0.558504 0.506709
O O7 0.978537 0.803134 0.517623
O O8 0.732092 0.925579 0.486774
O O9 0.583402 0.176669 0.368638
O O10 0.500000 0.000000 0.500000
O O11 0.025248 0.198964 0.838623
O O12 0.260057 0.077304 0.838342
O O13 0.136031 0.458967 0.030904
O O14 0.215973 0.760802 0.617391
O O15 0.391029 0.713651 0.840992
O O16 0.143599 0.652921 0.330689
O O17 0.500000 0.000000 0.000000
#
# Coordination Sequence:
#
# PCOD9105173 Si02
#       8
#     2   2   2   2   2   2   2   2
#     4  11  25  43  68  92 126 175 211 265 328 382
#     4   9  22  39  63  90 131 168 209 263 325 380
#     4  11  24  40  63  95 126 165 217 268 318 378
#     4   9  21  38  66  89 128 166 205 266 321 379
#     4  11  23  40  66  93 122 167 211 262 320 384
#     4  10  20  39  63  94 126 163 212 262 321 381
#     4  10  21  39  64  94 126 167 211 266 324 379
#     4  11  26  46  65  92 131 171 217 265 321 388
#
# _framework density 22.242842
#
# number of rings (size 3 to 8) (size 9 to 14) (size 15 to 20)
#    0.000    1.750    1.250    1.500    5.250    7.000 
#    0.000    0.625    0.000    0.000    0.000    0.000 
#    0.000    0.000    0.000    0.000    0.000    0.000 
#
# Total GULP energy -89389.847377 kJ/mol
# GULP energy per Si atom -5586.865461 kJ/mol
# Density = 2.219222 g / cm^3
# Si number density = 22.242842 Si / 1000 Ang^3
#
#
#
# Elastic Constant Matrix: (Units=GPa)
#
#
# Indices 1 2 3 4 5 6 
#
# 1 107.0050 12.2015 31.0781 1.7538 -9.0314 4.9534
# 2 12.2015 46.4969 10.9657 -5.4244 -13.4360 9.5282
# 3 31.0781 10.9657 90.4077 9.2684 -7.1149 -8.8788
# 4 1.7538 -5.4244 9.2684 22.0976 1.2767 11.1570
# 5 -9.0314 -13.4360 -7.1149 1.2767 42.2403 -3.3060
# 6 4.9534 9.5282 -8.8788 11.1570 -3.3060 26.4485
#
#
#
# Elastic Compliance Matrix: (Units=1/GPa)
#
#
# Indices 1 2 3 4 5 6 
#
# 1 0.010911 -0.000149 -0.004453 0.003298 0.001065 -0.004743
# 2 -0.000149 0.032750 -0.008028 0.022786 0.006524 -0.023262
# 3 -0.004453 -0.008028 0.017119 -0.017446 0.001235 0.016987
# 4 0.003298 0.022786 -0.017446 0.083209 -0.001410 -0.049960
# 5 0.001065 0.006524 0.001235 -0.001410 0.026365 0.001755
# 6 -0.004743 -0.023262 0.016987 -0.049960 0.001755 0.074075
#
#
# Mechanical properties :
#
#
# Convention : Reuss Voigt Hill
#
# Bulk Modulus (GPa) = 28.15299 39.15561 33.65430
# Shear Modulus (GPa) = 17.76020 30.80155 24.28088
#
# Velocity S-wave (km/s) = 2.82878 3.72531 3.30756
# Velocity P-wave (km/s) = 4.83259 6.01214 5.45434
#
# Compressibility (1/GPa) = 0.03552021
#
# Stress axis : x y z
#
# Youngs Moduli (GPa) = 91.65128 30.53475 58.41348
#
# Poissons Ratio (x) = 0.00454 0.26010
# Poissons Ratio (y) = 0.01363 0.46896
# Poissons Ratio (z) = 0.40811 0.24514
#
# Static dielectric constant tensor:
#      x y z
#    x 1.863170 0.006230 0.021810 
#    y 0.006230 1.795750 0.019090 
#    z 0.021810 0.019090 1.801130 
# 
# From -- ./inp_files/245053.got.cif
#   From: 2010.05.17/outbox.cif.g08.bks.cpg/sg2_123_cif.got.tgz:245053.got - 2010.06.03 11:33:40.
