data_PCOD9105598
_publ_section_title
;
Structure prediction by ZEFSAII (Michael W. Deem and Ramdas Pophale) SiO2 
 PCOD9105598
Probable space group: P -1
;
_chemical_formula_sum "Si O2"
_cell_formula_units_Z 16
_cell_length_a 15.451579
_cell_length_b 6.915460
_cell_length_c 10.532277
_cell_angle_alpha 93.289216
_cell_angle_beta 41.290311
_cell_angle_gamma 71.841104
_cell_volume 624.730314
_symmetry_space_group_name_H-M "P -1"
_symmetry_group_IT_number 2
_symmetry_cell_setting 'triclinic'
loop_
_space_group_symop_operation_xyz
x,y,z
-x,-y,-z
loop_
_atom_site_type_symbol
_atom_site_label
_atom_site_fract_x
_atom_site_fract_y
_atom_site_fract_z
Si Si1 0.314612 0.392857 0.992970
Si Si2 0.370460 0.646120 0.754380
Si Si3 0.661110 0.440922 0.560638
Si Si4 0.060592 0.319657 0.307256
Si Si5 0.815524 0.232956 0.640097
Si Si6 0.385799 0.963507 0.212179
Si Si7 0.155052 0.001050 0.818689
Si Si8 0.847866 0.632539 0.327418
O O1 0.238512 0.243460 0.092050
O O2 0.219675 0.623548 0.189085
O O3 0.480532 0.629277 0.746925
O O4 0.488767 0.253293 0.849953
O O5 0.500000 0.500000 0.500000
O O6 0.268727 0.814933 0.580867
O O7 0.247481 0.894590 0.844236
O O8 0.305830 0.491388 0.866922
O O9 0.714531 0.413428 0.645522
O O10 0.760715 0.512671 0.369933
O O11 0.000000 0.500000 0.500000
O O12 0.992037 0.157132 0.402099
O O13 0.984551 0.457716 0.264775
O O14 0.741126 0.078349 0.715585
O O15 0.280906 0.174613 0.428284
O O16 0.500000 0.000000 0.000000
O O17 0.117593 0.242488 0.816150
O O18 0.000000 0.000000 0.000000
#
# Coordination Sequence:
#
# PCOD9105598 Si02
#       8
#     2   2   2   2   2   2   2   2
#     4  11  21  39  66  93 131 170 214 266 322 386
#     4  10  21  39  65  90 127 170 212 266 317 368
#     4  10  21  42  65  91 128 169 205 264 333 371
#     4   9  20  39  61  92 132 172 202 257 335 390
#     4  10  20  39  65  91 130 171 201 260 338 381
#     4  12  22  35  63 100 125 164 222 257 316 398
#     4  11  23  42  66  92 123 169 222 261 312 381
#     4  11  23  41  66  90 132 169 213 266 317 384
#
# _framework density 25.611051
#
# number of rings (size 3 to 8) (size 9 to 14) (size 15 to 20)
#    0.000    1.500    2.500    4.125    1.750    1.000 
#    0.000    9.375    2.750    0.000    0.000    0.000 
#    0.000    0.000    0.000    0.000    0.000    0.000 
#
# Total GULP energy -89452.607990 kJ/mol
# GULP energy per Si atom -5590.787999 kJ/mol
# Density = 2.555276 g / cm^3
# Si number density = 25.611051 Si / 1000 Ang^3
#
#
#
# Elastic Constant Matrix: (Units=GPa)
#
#
# Indices 1 2 3 4 5 6 
#
# 1 87.9128 27.8367 38.5597 -10.4272 -24.5695 -14.6290
# 2 27.8367 109.6389 41.3297 -27.3202 -7.4571 -3.2687
# 3 38.5597 41.3297 138.5171 -36.3143 -19.1356 -1.3897
# 4 -10.4272 -27.3202 -36.3143 56.9770 1.3835 -5.3653
# 5 -24.5695 -7.4571 -19.1356 1.3835 50.0942 -2.8629
# 6 -14.6290 -3.2687 -1.3897 -5.3653 -2.8629 40.4009
#
#
#
# Elastic Compliance Matrix: (Units=1/GPa)
#
#
# Indices 1 2 3 4 5 6 
#
# 1 0.016341 -0.002336 -0.002672 0.000582 0.006985 0.006208
# 2 -0.002336 0.011355 -0.001716 0.003978 -0.000191 0.000528
# 3 -0.002672 -0.001716 0.010107 0.005084 0.002158 0.000069
# 4 0.000582 0.003978 0.005084 0.023119 0.002407 0.003948
# 5 0.006985 -0.000191 0.002158 0.002407 0.024383 0.004635
# 6 0.006208 0.000528 0.000069 0.003948 0.004635 0.027898
#
#
# Mechanical properties :
#
#
# Convention : Reuss Voigt Hill
#
# Bulk Modulus (GPa) = 41.06035 61.28014 51.17025
# Shear Modulus (GPa) = 37.10078 44.71724 40.90901
#
# Velocity S-wave (km/s) = 3.81021 4.18307 4.00098
# Velocity P-wave (km/s) = 5.95181 6.87822 6.43171
#
# Compressibility (1/GPa) = 0.02435439
#
# Stress axis : x y z
#
# Youngs Moduli (GPa) = 61.19610 88.06827 98.94348
#
# Poissons Ratio (x) = 0.20576 0.26437
# Poissons Ratio (y) = 0.14298 0.16976
# Poissons Ratio (z) = 0.16351 0.15110
#
# Static dielectric constant tensor:
#      x y z
#    x 2.089560 -0.006150 -0.015250 
#    y -0.006150 2.059540 -0.092090 
#    z -0.015250 -0.092090 2.047820 
# 
# From -- ./inp_files/462079.got.cif
#   From: 2010.05.17/outbox.cif.g08.bks.cpg/sg2_232_cif.got.tgz:462079.got - 2010.06.03 11:33:40.
