data_PCOD9105187
_publ_section_title
;
Structure prediction by ZEFSAII (Michael W. Deem and Ramdas Pophale) SiO2 
 PCOD9105187
Probable space group: P -1
;
_chemical_formula_sum "Si O2"
_cell_formula_units_Z 13
_cell_length_a 10.546824
_cell_length_b 9.737538
_cell_length_c 16.832658
_cell_angle_alpha 152.991773
_cell_angle_beta 35.887300
_cell_angle_gamma 133.669606
_cell_volume 456.990225
_symmetry_space_group_name_H-M "P -1"
_symmetry_group_IT_number 2
_symmetry_cell_setting 'triclinic'
loop_
_space_group_symop_operation_xyz
x,y,z
-x,-y,-z
loop_
_atom_site_type_symbol
_atom_site_label
_atom_site_fract_x
_atom_site_fract_y
_atom_site_fract_z
Si Si1 0.000000 0.000000 0.500000
Si Si2 0.875952 0.267548 0.251017
Si Si3 0.438562 0.101533 0.414667
Si Si4 0.015704 0.117411 0.847110
Si Si5 0.463351 0.604395 0.782424
Si Si6 0.675259 0.463390 0.016184
Si Si7 0.062475 0.311245 0.451473
O O1 0.798321 0.855503 0.480169
O O2 0.804061 0.213911 0.766223
O O3 0.986392 0.580873 0.376060
O O4 0.624703 0.264026 0.356920
O O5 0.904597 0.132207 0.255615
O O6 0.000000 0.000000 0.000000
O O7 0.539566 0.747419 0.186439
O O8 0.448347 0.268069 0.581472
O O9 0.147504 0.390599 0.943551
O O10 0.041446 0.983977 0.676617
O O11 0.759067 0.204187 0.033229
O O12 0.483638 0.622898 0.876974
O O13 0.676501 0.723029 0.698751
O O14 0.000000 0.500000 0.500000
#
# Coordination Sequence:
#
# PCOD9105187 Si02
#       7
#     1   2   2   2   2   2   2
#     4  12  24  42  60  94 138 166 220 256 324 398
#     4   9  20  41  65  90 135 171 209 267 332 383
#     4  10  23  42  66  94 133 171 216 271 319 386
#     4  10  20  39  63  95 124 163 217 266 312 385
#     4  11  21  42  68  94 128 167 222 268 320 381
#     4  11  24  43  67  96 134 170 212 273 327 382
#     4   9  20  38  62  92 126 166 214 268 315 383
#
# _framework density 28.446999000000002
#
# number of rings (size 3 to 8) (size 9 to 14) (size 15 to 20)
#    0.000    1.846    1.538    2.769    0.000    2.462 
#    5.538    3.077    0.000    0.000    0.000    0.000 
#    0.000    0.000    0.000    0.000    0.000    0.000 
#
# Total GULP energy -72519.031036 kJ/mol
# GULP energy per Si atom -5578.387003 kJ/mol
# Density = 2.838225 g / cm^3
# Si number density = 28.446999 Si / 1000 Ang^3
#
#
#
# Elastic Constant Matrix: (Units=GPa)
#
#
# Indices 1 2 3 4 5 6 
#
# 1 143.6218 35.1176 71.0933 0.3547 -0.6700 10.3208
# 2 35.1176 68.7074 28.6593 -18.1526 22.2349 38.1684
# 3 71.0933 28.6593 191.2650 8.7031 35.5481 11.8049
# 4 0.3547 -18.1526 8.7031 54.8783 9.2414 2.0056
# 5 -0.6700 22.2349 35.5481 9.2414 78.2272 5.7123
# 6 10.3208 38.1684 11.8049 2.0056 5.7123 37.0350
#
#
#
# Elastic Compliance Matrix: (Units=1/GPa)
#
#
# Indices 1 2 3 4 5 6 
#
# 1 0.011495 -0.014673 -0.003642 -0.005766 0.005691 0.012514
# 2 -0.014673 0.080807 0.000661 0.033208 -0.021631 -0.077864
# 3 -0.003642 0.000661 0.007208 -0.000283 -0.003357 -0.001431
# 4 -0.005766 0.033208 -0.000283 0.032298 -0.010794 -0.032611
# 5 0.005691 -0.021631 -0.003357 -0.010794 0.020377 0.019219
# 6 0.012514 -0.077864 -0.001431 -0.032611 0.019219 0.103018
#
#
# Mechanical properties :
#
#
# Convention : Reuss Voigt Hill
#
# Bulk Modulus (GPa) = 15.57588 74.81496 45.19542
# Shear Modulus (GPa) = 16.03014 51.94304 33.98659
#
# Velocity S-wave (km/s) = 2.37641 4.27776 3.46024
# Velocity P-wave (km/s) = 3.60792 7.12431 5.64681
#
# Compressibility (1/GPa) = 0.06420182
#
# Stress axis : x y z
#
# Youngs Moduli (GPa) = 86.99648 12.37514 138.73485
#
# Poissons Ratio (x) = 0.18158 0.50523
# Poissons Ratio (y) = 1.27652 -0.09169
# Poissons Ratio (z) = 0.31682 -0.00818
#
# Static dielectric constant tensor:
#      x y z
#    x 2.010160 0.019380 -0.025760 
#    y 0.019380 2.802400 0.693530 
#    z -0.025760 0.693530 2.806920 
# 
# From -- ./inp_files/266603.got.cif
#   From: 2010.05.17/outbox.cif.g08.bks.cpg/sg2_134_cif.got.tgz:266603.got - 2010.06.03 11:33:40.
