data_PCOD9105192
_publ_section_title
;
Structure prediction by ZEFSAII (Michael W. Deem and Ramdas Pophale) SiO2 
 PCOD9105192
Probable space group: P -1
;
_chemical_formula_sum "Si O2"
_cell_formula_units_Z 14
_cell_length_a 15.997302
_cell_length_b 5.079446
_cell_length_c 11.955926
_cell_angle_alpha 98.139776
_cell_angle_beta 127.248688
_cell_angle_gamma 58.400197
_cell_volume 636.205290
_symmetry_space_group_name_H-M "P -1"
_symmetry_group_IT_number 2
_symmetry_cell_setting 'triclinic'
loop_
_space_group_symop_operation_xyz
x,y,z
-x,-y,-z
loop_
_atom_site_type_symbol
_atom_site_label
_atom_site_fract_x
_atom_site_fract_y
_atom_site_fract_z
Si Si1 0.582919 0.648861 0.995611
Si Si2 0.646965 0.262658 0.255445
Si Si3 0.133372 0.764838 0.819893
Si Si4 0.082026 0.125476 0.024480
Si Si5 0.102075 0.280919 0.660372
Si Si6 0.619429 0.560577 0.475875
Si Si7 0.664659 0.034456 0.658607
O O1 0.490638 0.666822 0.826717
O O2 0.618564 0.422325 0.119422
O O3 0.720208 0.512528 0.053153
O O4 0.500000 0.000000 0.000000
O O5 0.671490 0.431544 0.385652
O O6 0.761212 0.899284 0.302769
O O7 0.079836 0.544950 0.749086
O O8 0.104444 0.982939 0.698521
O O9 0.094522 0.015541 0.900907
O O10 0.219661 0.005081 0.179870
O O11 0.000000 0.500000 0.000000
O O12 0.000000 0.000000 0.000000
O O13 0.000000 0.500000 0.500000
O O14 0.641727 0.269856 0.552093
O O15 0.466827 0.816284 0.369951
O O16 0.685738 0.716636 0.599652
#
# Coordination Sequence:
#
# PCOD9105192 Si02
#       7
#     2   2   2   2   2   2   2
#     4  10  20  39  63  95 128 159 213 265 325 391
#     4  10  22  37  61  97 126 166 209 258 328 398
#     4  11  24  44  66  93 128 169 212 274 319 373
#     4  12  26  45  67  94 129 177 228 267 317 387
#     4  11  24  41  63  95 132 166 208 255 324 395
#     4  10  22  40  67  92 129 166 208 274 331 377
#     4  10  23  43  61  95 126 165 221 270 322 377
#
# _framework density 22.005475000000001
#
# number of rings (size 3 to 8) (size 9 to 14) (size 15 to 20)
#    0.000    1.429    1.429    3.000    2.000    3.429 
#    5.143    0.000    0.000    0.000    0.000    0.000 
#    0.000    0.000    0.000    0.000    0.000    0.000 
#
# Total GULP energy -78059.328152 kJ/mol
# GULP energy per Si atom -5575.666297 kJ/mol
# Density = 2.195539 g / cm^3
# Si number density = 22.005475 Si / 1000 Ang^3
#
#
#
# Elastic Constant Matrix: (Units=GPa)
#
#
# Indices 1 2 3 4 5 6 
#
# 1 36.5468 12.8418 23.2065 1.4549 8.5086 11.7721
# 2 12.8418 132.5791 34.4157 9.9857 -1.0406 3.1718
# 3 23.2065 34.4157 97.1620 -4.2152 11.2001 -10.3510
# 4 1.4549 9.9857 -4.2152 50.1153 -3.4106 -1.0641
# 5 8.5086 -1.0406 11.2001 -3.4106 15.5857 7.8816
# 6 11.7721 3.1718 -10.3510 -1.0641 7.8816 36.2810
#
#
#
# Elastic Compliance Matrix: (Units=1/GPa)
#
#
# Indices 1 2 3 4 5 6 
#
# 1 0.040741 -0.000842 -0.010103 -0.002741 -0.008416 -0.014280
# 2 -0.000842 0.008862 -0.003856 -0.001797 0.004792 -0.002695
# 3 -0.010103 -0.003856 0.016699 0.001890 -0.011901 0.011020
# 4 -0.002741 -0.001797 0.001890 0.020844 0.003896 0.001351
# 5 -0.008416 0.004792 -0.011901 0.003896 0.088717 -0.020242
# 6 -0.014280 -0.002695 0.011020 0.001351 -0.020242 0.040013
#
#
# Mechanical properties :
#
#
# Convention : Reuss Voigt Hill
#
# Bulk Modulus (GPa) = 27.24625 45.24623 36.24624
# Shear Modulus (GPa) = 19.40163 33.45132 26.42648
#
# Velocity S-wave (km/s) = 2.97252 3.90312 3.46917
# Velocity P-wave (km/s) = 4.91829 6.39675 5.70562
#
# Compressibility (1/GPa) = 0.03670230
#
# Stress axis : x y z
#
# Youngs Moduli (GPa) = 24.54516 112.83523 59.88515
#
# Poissons Ratio (x) = 0.09498 0.60500
# Poissons Ratio (y) = 0.02066 0.23089
# Poissons Ratio (z) = 0.24797 0.43505
#
# Static dielectric constant tensor:
#      x y z
#    x 2.000220 -0.024260 0.044110 
#    y -0.024260 1.793200 0.045270 
#    z 0.044110 0.045270 1.811950 
# 
# From -- ./inp_files/454980.got.cif
#   From: 2010.05.17/outbox.cif.g08.bks.cpg/sg2_228_cif.got.tgz:454980.got - 2010.06.03 11:33:40.
