data_PCOD9105837
_publ_section_title
;
Structure prediction by ZEFSAII (Michael W. Deem and Ramdas Pophale) SiO2 
 PCOD9105837
Probable space group: P -1
;
_chemical_formula_sum "Si O2"
_cell_formula_units_Z 16
_cell_length_a 11.781454
_cell_length_b 9.668972
_cell_length_c 17.485399
_cell_angle_alpha 30.646895
_cell_angle_beta 125.780890
_cell_angle_gamma 119.965407
_cell_volume 823.667363
_symmetry_space_group_name_H-M "P -1"
_symmetry_group_IT_number 2
_symmetry_cell_setting 'triclinic'
loop_
_space_group_symop_operation_xyz
x,y,z
-x,-y,-z
loop_
_atom_site_type_symbol
_atom_site_label
_atom_site_fract_x
_atom_site_fract_y
_atom_site_fract_z
Si Si1 0.132415 0.160054 0.693204
Si Si2 0.364674 0.503940 0.541291
Si Si3 0.320938 0.420548 0.387976
Si Si4 0.083095 0.494611 0.655307
Si Si5 0.331363 0.875685 0.572245
Si Si6 0.112265 0.530453 0.961852
Si Si7 0.034842 0.688107 0.144990
Si Si8 0.655351 0.910289 0.697611
O O1 0.268381 0.334293 0.640777
O O2 0.094493 0.224186 0.736190
O O3 0.005758 0.289408 0.532445
O O4 0.151478 0.847271 0.828468
O O5 0.347890 0.395121 0.500986
O O6 0.529368 0.507578 0.624912
O O7 0.317472 0.819358 0.370912
O O8 0.199382 0.635452 0.221795
O O9 0.275013 0.128468 0.478756
O O10 0.236257 0.616542 0.668707
O O11 0.008448 0.459171 0.723361
O O12 0.493189 0.829846 0.679375
O O13 0.325178 0.980606 0.432777
O O14 0.046921 0.434041 0.901560
O O15 0.241882 0.332988 0.126018
O O16 0.000000 0.500000 0.000000
O O17 0.000000 0.000000 0.000000
#
# Coordination Sequence:
#
# PCOD9105837 Si02
#       8
#     2   2   2   2   2   2   2   2
#     4  11  23  40  66  95 127 164 208 257 314 371
#     4  10  20  39  66  90 123 166 205 257 304 370
#     4  10  21  37  63  92 122 159 213 253 303 368
#     4  11  23  40  64  92 126 165 211 256 310 375
#     4  10  21  39  69  91 117 165 211 259 300 376
#     4  12  26  41  63  94 128 167 205 262 318 370
#     4  12  25  41  63  92 130 167 208 260 315 370
#     4  10  21  43  64  89 126 164 211 248 317 372
#
# _framework density 19.425315999999999
#
# number of rings (size 3 to 8) (size 9 to 14) (size 15 to 20)
#    0.000    1.250    2.500    3.750    3.500    1.000 
#    2.250    1.250    0.000    0.000    0.000    0.000 
#    0.000    0.000    0.000    0.000    0.000    0.000 
#
# Total GULP energy -89423.231050 kJ/mol
# GULP energy per Si atom -5588.951941 kJ/mol
# Density = 1.938110 g / cm^3
# Si number density = 19.425316 Si / 1000 Ang^3
#
#
#
# Elastic Constant Matrix: (Units=GPa)
#
#
# Indices 1 2 3 4 5 6 
#
# 1 72.3619 27.2451 32.4815 -6.0257 13.4248 4.4806
# 2 27.2451 81.2566 11.4412 -18.7763 3.8793 -6.8785
# 3 32.4815 11.4412 76.0844 -16.8740 30.7113 13.7516
# 4 -6.0257 -18.7763 -16.8740 29.3764 -4.4605 0.3901
# 5 13.4248 3.8793 30.7113 -4.4605 29.0061 0.0745
# 6 4.4806 -6.8785 13.7516 0.3901 0.0745 35.5191
#
#
#
# Elastic Compliance Matrix: (Units=1/GPa)
#
#
# Indices 1 2 3 4 5 6 
#
# 1 0.019718 -0.006623 -0.008412 -0.005031 -0.000106 -0.000458
# 2 -0.006623 0.016967 0.001834 0.010568 0.000470 0.003294
# 3 -0.008412 0.001834 0.033935 0.014539 -0.030016 -0.011819
# 4 -0.005031 0.010568 0.014539 0.047063 -0.007233 -0.003450
# 5 -0.000106 0.000470 -0.030016 -0.007233 0.065100 0.011668
# 6 -0.000458 0.003294 -0.011819 -0.003450 0.011668 0.033439
#
#
# Mechanical properties :
#
#
# Convention : Reuss Voigt Hill
#
# Bulk Modulus (GPa) = 22.61466 41.33762 31.97614
# Shear Modulus (GPa) = 19.42779 29.34932 24.38855
#
# Velocity S-wave (km/s) = 3.16591 3.89122 3.54715
# Velocity P-wave (km/s) = 5.00311 6.44323 5.76829
#
# Compressibility (1/GPa) = 0.04421910
#
# Stress axis : x y z
#
# Youngs Moduli (GPa) = 50.71444 58.93636 29.46802
#
# Poissons Ratio (x) = 0.39034 0.24789
# Poissons Ratio (y) = 0.33589 -0.05406
# Poissons Ratio (z) = 0.42662 -0.10812
#
# Static dielectric constant tensor:
#      x y z
#    x 1.692430 -0.006470 0.012060 
#    y -0.006470 1.706840 -0.002150 
#    z 0.012060 -0.002150 1.648180 
# 
# From -- ./inp_files/389163.got.cif
#   From: 2010.05.17/outbox.cif.g08.bks.cpg/sg2_195_cif.got.tgz:389163.got - 2010.06.03 11:33:40.
