data_PCOD9105874
_publ_section_title
;
Structure prediction by ZEFSAII (Michael W. Deem and Ramdas Pophale) SiO2 
 PCOD9105874
Probable space group: P -1
;
_chemical_formula_sum "Si O2"
_cell_formula_units_Z 14
_cell_length_a 8.328014
_cell_length_b 7.688450
_cell_length_c 17.976049
_cell_angle_alpha 51.531416
_cell_angle_beta 40.244197
_cell_angle_gamma 74.565092
_cell_volume 530.337687
_symmetry_space_group_name_H-M "P -1"
_symmetry_group_IT_number 2
_symmetry_cell_setting 'triclinic'
loop_
_space_group_symop_operation_xyz
x,y,z
-x,-y,-z
loop_
_atom_site_type_symbol
_atom_site_label
_atom_site_fract_x
_atom_site_fract_y
_atom_site_fract_z
Si Si1 0.815859 0.245813 0.458436
Si Si2 0.327253 0.178985 0.278935
Si Si3 0.767424 0.429270 0.165789
Si Si4 0.098558 0.672799 0.350129
Si Si5 0.066580 0.992473 0.761969
Si Si6 0.869990 0.631589 0.234089
Si Si7 0.503510 0.823268 0.941646
O O1 0.011613 0.123256 0.392728
O O2 0.026573 0.491158 0.356330
O O3 0.700865 0.367770 0.403894
O O4 0.657734 0.068148 0.629097
O O5 0.487959 0.363568 0.238154
O O6 0.460714 0.268037 0.128359
O O7 0.805965 0.605267 0.175585
O O8 0.780284 0.180580 0.258229
O O9 0.000000 0.500000 0.000000
O O10 0.912308 0.822133 0.361480
O O11 0.000000 0.500000 0.500000
O O12 0.399666 0.885547 0.184043
O O13 0.147534 0.152041 0.766892
O O14 0.735743 0.830085 0.916045
O O15 0.191899 0.690181 0.107568
#
# Coordination Sequence:
#
# PCOD9105874 Si02
#       7
#     2   2   2   2   2   2   2
#     4  10  22  40  66  89 122 161 225 260 308 364
#     4  11  23  40  62  96 123 169 210 261 310 389
#     4  12  26  42  61  92 141 168 201 258 332 376
#     4   9  18  37  65  92 119 157 208 268 312 354
#     4   9  23  40  63  96 125 161 216 260 306 384
#     4  11  23  42  64  95 123 171 210 265 315 368
#     4  10  20  39  66  92 123 157 220 262 298 377
#
# _framework density 26.398275000000002
#
# number of rings (size 3 to 8) (size 9 to 14) (size 15 to 20)
#    0.857    0.857    2.857    1.286    2.000    2.286 
#    2.571    2.857    0.000    0.000    0.000    0.000 
#    0.000    0.000    0.000    0.000    0.000    0.000 
#
# Total GULP energy -78143.963660 kJ/mol
# GULP energy per Si atom -5581.711690 kJ/mol
# Density = 2.633819 g / cm^3
# Si number density = 26.398275 Si / 1000 Ang^3
#
#
#
# Elastic Constant Matrix: (Units=GPa)
#
#
# Indices 1 2 3 4 5 6 
#
# 1 110.0451 53.7021 30.7970 2.6717 -3.1342 15.5557
# 2 53.7021 104.6756 8.4270 -1.4210 10.1386 35.2802
# 3 30.7970 8.4270 82.9617 -6.2793 31.3247 -0.3678
# 4 2.6717 -1.4210 -6.2793 36.5794 3.9655 2.2090
# 5 -3.1342 10.1386 31.3247 3.9655 36.7305 8.8260
# 6 15.5557 35.2802 -0.3678 2.2090 8.8260 60.0051
#
#
#
# Elastic Compliance Matrix: (Units=1/GPa)
#
#
# Indices 1 2 3 4 5 6 
#
# 1 0.017454 -0.009112 -0.011468 -0.005110 0.014625 -0.001200
# 2 -0.009112 0.016845 0.005204 0.003543 -0.008720 -0.006358
# 3 -0.011468 0.005204 0.026569 0.008288 -0.026863 0.003722
# 4 -0.005110 0.003543 0.008288 0.030552 -0.011756 -0.000103
# 5 0.014625 -0.008720 -0.026863 -0.011756 0.056676 -0.006732
# 6 -0.001200 -0.006358 0.003722 -0.000103 -0.006732 0.021731
#
#
# Mechanical properties :
#
#
# Convention : Reuss Voigt Hill
#
# Bulk Modulus (GPa) = 33.20535 53.72608 43.46572
# Shear Modulus (GPa) = 23.73981 40.31341 32.02661
#
# Velocity S-wave (km/s) = 3.00208 3.91208 3.48689
# Velocity P-wave (km/s) = 4.96211 6.38766 5.71947
#
# Compressibility (1/GPa) = 0.03011563
#
# Stress axis : x y z
#
# Youngs Moduli (GPa) = 57.29480 59.36548 37.63825
#
# Poissons Ratio (x) = 0.54096 0.43162
# Poissons Ratio (y) = 0.52209 -0.19588
# Poissons Ratio (z) = 0.65703 -0.30895
#
# Static dielectric constant tensor:
#      x y z
#    x 2.206210 0.011380 0.036780 
#    y 0.011380 2.091260 -0.011620 
#    z 0.036780 -0.011620 2.141310 
# 
# From -- ./inp_files/556050.got.cif
#   From: 2010.05.17/outbox.cif.g08.bks.cpg/sg2_279_cif.got.tgz:556050.got - 2010.06.03 11:33:40.
