data_PCOD9105214
_publ_section_title
;
Structure prediction by ZEFSAII (Michael W. Deem and Ramdas Pophale) SiO2 
 PCOD9105214
Probable space group: P -1
;
_chemical_formula_sum "Si O2"
_cell_formula_units_Z 16
_cell_length_a 8.035531
_cell_length_b 11.621780
_cell_length_c 8.534678
_cell_angle_alpha 66.655705
_cell_angle_beta 86.597103
_cell_angle_gamma 69.438488
_cell_volume 682.207567
_symmetry_space_group_name_H-M "P -1"
_symmetry_group_IT_number 2
_symmetry_cell_setting 'triclinic'
loop_
_space_group_symop_operation_xyz
x,y,z
-x,-y,-z
loop_
_atom_site_type_symbol
_atom_site_label
_atom_site_fract_x
_atom_site_fract_y
_atom_site_fract_z
Si Si1 0.834900 0.086847 0.851443
Si Si2 0.657707 0.345540 0.889038
Si Si3 0.422481 0.909338 0.655657
Si Si4 0.952861 0.644257 0.118647
Si Si5 0.901045 0.644350 0.749611
Si Si6 0.049746 0.102381 0.555290
Si Si7 0.647022 0.891856 0.948795
Si Si8 0.497177 0.365911 0.237891
O O1 0.676071 0.204937 0.884364
O O2 0.907141 0.153106 0.672512
O O3 0.770175 0.973842 0.841614
O O4 0.000000 0.000000 0.000000
O O5 0.524020 0.491876 0.758625
O O6 0.862331 0.336832 0.863704
O O7 0.598068 0.354741 0.070260
O O8 0.555576 0.855835 0.822550
O O9 0.406530 0.785209 0.624017
O O10 0.500000 0.000000 0.500000
O O11 0.233188 0.005548 0.675755
O O12 0.964262 0.496979 0.249038
O O13 0.945506 0.648525 0.927336
O O14 0.773191 0.764829 0.108186
O O15 0.915316 0.774707 0.597035
O O16 0.708318 0.627593 0.761722
O O17 0.000000 0.000000 0.500000
O O18 0.500000 0.000000 0.000000
#
# Coordination Sequence:
#
# PCOD9105214 Si02
#       8
#     2   2   2   2   2   2   2   2
#     4  12  24  42  65  97 137 175 221 273 333 392
#     4  10  22  38  65  96 129 173 219 273 319 388
#     4  12  23  41  65  93 129 170 218 273 331 390
#     4  10  20  39  65  96 126 170 225 268 325 391
#     4  10  21  40  65  95 129 171 223 275 323 394
#     4  12  26  44  67 100 134 175 225 277 336 398
#     4  12  24  41  64  95 131 171 219 270 329 395
#     4  10  20  39  63  97 126 170 220 271 323 389
#
# _framework density 23.453271999999998
#
# number of rings (size 3 to 8) (size 9 to 14) (size 15 to 20)
#    0.000    1.000    3.750    3.750    1.750    0.000 
#    0.000    3.750    0.000    2.250    0.000    0.000 
#    0.000    0.000    0.000    0.000    0.000    0.000 
#
# Total GULP energy -89329.727534 kJ/mol
# GULP energy per Si atom -5583.107971 kJ/mol
# Density = 2.339989 g / cm^3
# Si number density = 23.453272 Si / 1000 Ang^3
#
#
#
# Elastic Constant Matrix: (Units=GPa)
#
#
# Indices 1 2 3 4 5 6 
#
# 1 66.1273 29.4781 16.5586 -4.6452 -0.4861 -3.2433
# 2 29.4781 184.3182 34.5631 -37.8025 -5.2511 -20.0060
# 3 16.5586 34.5631 45.3607 -15.6541 -8.1669 -4.1767
# 4 -4.6452 -37.8025 -15.6541 41.7202 -3.2957 -4.0718
# 5 -0.4861 -5.2511 -8.1669 -3.2957 20.8948 -0.4247
# 6 -3.2433 -20.0060 -4.1767 -4.0718 -0.4247 37.2304
#
#
#
# Elastic Compliance Matrix: (Units=1/GPa)
#
#
# Indices 1 2 3 4 5 6 
#
# 1 0.017473 -0.002401 -0.006166 -0.002866 -0.003075 -0.000808
# 2 -0.002401 0.008239 -0.002085 0.007073 0.002413 0.004785
# 3 -0.006166 -0.002085 0.032495 0.011038 0.013843 0.003353
# 4 -0.002866 0.007073 0.011038 0.036005 0.011884 0.008863
# 5 -0.003075 0.002413 0.013843 0.011884 0.055771 0.004517
# 6 -0.000808 0.004785 0.003353 0.008863 0.004517 0.030758
#
#
# Mechanical properties :
#
#
# Convention : Reuss Voigt Hill
#
# Bulk Modulus (GPa) = 27.09826 50.77841 38.93833
# Shear Modulus (GPa) = 23.32663 34.31616 28.82140
#
# Velocity S-wave (km/s) = 3.15715 3.82929 3.50935
# Velocity P-wave (km/s) = 4.98692 6.42255 5.74972
#
# Compressibility (1/GPa) = 0.03690274
#
# Stress axis : x y z
#
# Youngs Moduli (GPa) = 57.23034 121.36836 30.77356
#
# Poissons Ratio (x) = 0.29146 0.18975
# Poissons Ratio (y) = 0.13743 0.06417
# Poissons Ratio (z) = 0.35288 0.25310
#
# Static dielectric constant tensor:
#      x y z
#    x 1.935830 -0.014780 0.003230 
#    y -0.014780 1.985980 -0.035510 
#    z 0.003230 -0.035510 1.885530 
# 
# From -- ./inp_files/185058.got.cif
#   From: 2010.05.17/outbox.cif.g08.bks.cpg/sg2_93_cif.got.tgz:185058.got - 2010.06.03 11:33:40.
