data_PCOD9105136
_publ_section_title
;
Structure prediction by ZEFSAII (Michael W. Deem and Ramdas Pophale) SiO2 
 PCOD9105136
Probable space group: P -1
;
_chemical_formula_sum "Si O2"
_cell_formula_units_Z 16
_cell_length_a 8.866815
_cell_length_b 13.589980
_cell_length_c 11.213253
_cell_angle_alpha 56.243554
_cell_angle_beta 111.888547
_cell_angle_gamma 67.666727
_cell_volume 676.175513
_symmetry_space_group_name_H-M "P -1"
_symmetry_group_IT_number 2
_symmetry_cell_setting 'triclinic'
loop_
_space_group_symop_operation_xyz
x,y,z
-x,-y,-z
loop_
_atom_site_type_symbol
_atom_site_label
_atom_site_fract_x
_atom_site_fract_y
_atom_site_fract_z
Si Si1 0.357405 0.979546 0.642857
Si Si2 0.199318 0.993051 0.091452
Si Si3 0.860770 0.604578 0.011527
Si Si4 0.244755 0.954865 0.874536
Si Si5 0.847831 0.353955 0.183666
Si Si6 0.262180 0.805981 0.581621
Si Si7 0.618925 0.620925 0.597421
Si Si8 0.778409 0.298780 0.930543
O O1 0.379944 0.947175 0.812734
O O2 0.232314 0.932181 0.577392
O O3 0.148107 0.192526 0.409416
O O4 0.640570 0.822139 0.786836
O O5 0.453556 0.791940 0.346987
O O6 0.048482 0.143930 0.048465
O O7 0.240381 0.025171 0.951360
O O8 0.000000 0.000000 0.000000
O O9 0.744376 0.541727 0.054487
O O10 0.087130 0.513406 0.226568
O O11 0.000000 0.500000 0.000000
O O12 0.335797 0.769394 0.047983
O O13 0.967339 0.085108 0.650828
O O14 0.729079 0.320682 0.256906
O O15 0.815956 0.330364 0.053328
O O16 0.493927 0.710695 0.629972
O O17 0.608582 0.483733 0.680513
#
# Coordination Sequence:
#
# PCOD9105136 Si02
#       8
#     2   2   2   2   2   2   2   2
#     4  11  21  39  62  90 127 160 198 248 309 368
#     4  10  22  41  60  90 122 156 209 261 293 345
#     4  12  26  38  57  96 132 160 196 242 308 379
#     4  10  20  39  63  93 118 156 208 260 299 344
#     4  11  22  38  63  94 123 165 195 246 315 356
#     4  11  19  38  65  93 124 151 204 261 297 360
#     4  12  24  40  60  95 127 156 205 251 299 370
#     4  11  20  34  63  89 120 161 193 252 313 338
#
# _framework density 23.662493999999999
#
# number of rings (size 3 to 8) (size 9 to 14) (size 15 to 20)
#    0.000    1.000    7.500    0.750    1.750    4.500 
#    0.000    0.625    0.000    3.750    0.000    0.000 
#    0.000    0.000    0.000    0.000    0.000    0.000 
#
# Total GULP energy -89412.691515 kJ/mol
# GULP energy per Si atom -5588.293220 kJ/mol
# Density = 2.360864 g / cm^3
# Si number density = 23.662494 Si / 1000 Ang^3
#
#
#
# Elastic Constant Matrix: (Units=GPa)
#
#
# Indices 1 2 3 4 5 6 
#
# 1 42.7530 14.1975 -3.2177 13.0999 5.6806 -8.4636
# 2 14.1975 62.2567 35.3410 11.3555 -10.6807 -16.2790
# 3 -3.2177 35.3410 98.3207 3.6641 10.5106 -21.0588
# 4 13.0999 11.3555 3.6641 35.9660 -8.1171 -5.4583
# 5 5.6806 -10.6807 10.5106 -8.1171 44.5599 -0.5185
# 6 -8.4636 -16.2790 -21.0588 -5.4583 -0.5185 35.7233
#
#
#
# Elastic Compliance Matrix: (Units=1/GPa)
#
#
# Indices 1 2 3 4 5 6 
#
# 1 0.033239 -0.010037 0.007473 -0.011151 -0.010369 0.005852
# 2 -0.010037 0.027117 -0.010276 -0.000992 0.010068 0.003916
# 3 0.007473 -0.010276 0.016339 -0.001884 -0.007540 0.006322
# 4 -0.011151 -0.000992 -0.001884 0.034328 0.007895 0.001155
# 5 -0.010369 0.010068 -0.007540 0.007895 0.029385 -0.000680
# 6 0.005852 0.003916 0.006322 0.001155 -0.000680 0.035058
#
#
# Mechanical properties :
#
#
# Convention : Reuss Voigt Hill
#
# Bulk Modulus (GPa) = 19.60207 32.88579 26.24393
# Shear Modulus (GPa) = 22.91985 33.71715 28.31850
#
# Velocity S-wave (km/s) = 3.11563 3.77891 3.46319
# Velocity P-wave (km/s) = 4.60922 5.74179 5.20640
#
# Compressibility (1/GPa) = 0.05101501
#
# Stress axis : x y z
#
# Youngs Moduli (GPa) = 30.08536 36.87703 61.20141
#
# Poissons Ratio (x) = 0.37014 -0.45736
# Poissons Ratio (y) = 0.30197 0.62892
# Poissons Ratio (z) = -0.22483 0.37896
#
# Static dielectric constant tensor:
#      x y z
#    x 1.980100 -0.008080 0.013390 
#    y -0.008080 1.952560 -0.023880 
#    z 0.013390 -0.023880 1.959740 
# 
# From -- ./inp_files/398618.got.cif
#   From: 2010.05.17/outbox.cif.g08.bks.cpg/sg2_200_cif.got.tgz:398618.got - 2010.06.03 11:33:40.
