data_PCOD9105373
_publ_section_title
;
Structure prediction by ZEFSAII (Michael W. Deem and Ramdas Pophale) SiO2 
 PCOD9105373
Probable space group: P -1
;
_chemical_formula_sum "Si O2"
_cell_formula_units_Z 16
_cell_length_a 16.721698
_cell_length_b 8.206525
_cell_length_c 19.993285
_cell_angle_alpha 45.119551
_cell_angle_beta 20.696228
_cell_angle_gamma 48.391410
_cell_volume 686.976808
_symmetry_space_group_name_H-M "P -1"
_symmetry_group_IT_number 2
_symmetry_cell_setting 'triclinic'
loop_
_space_group_symop_operation_xyz
x,y,z
-x,-y,-z
loop_
_atom_site_type_symbol
_atom_site_label
_atom_site_fract_x
_atom_site_fract_y
_atom_site_fract_z
Si Si1 0.139527 0.408423 0.479294
Si Si2 0.569779 0.483644 0.244292
Si Si3 0.939125 0.617632 0.083635
Si Si4 0.440235 0.252306 0.949620
Si Si5 0.716730 0.469060 0.889792
Si Si6 0.066016 0.906437 0.096219
Si Si7 0.669820 0.639205 0.404944
Si Si8 0.315466 0.033932 0.521312
O O1 0.349789 0.577040 0.261359
O O2 0.217640 0.137760 0.497733
O O3 0.000000 0.500000 0.500000
O O4 0.957249 0.457450 0.666960
O O5 0.610700 0.707749 0.101005
O O6 0.468898 0.514808 0.388784
O O7 0.409605 0.282163 0.400708
O O8 0.812560 0.361576 0.086688
O O9 0.772153 0.502475 0.300766
O O10 0.000000 0.500000 0.000000
O O11 0.844816 0.875582 0.075571
O O12 0.276350 0.346342 0.109062
O O13 0.500000 0.000000 0.000000
O O14 0.727637 0.232497 0.991859
O O15 0.500000 0.500000 0.000000
O O16 0.891053 0.752156 0.234832
O O17 0.906427 0.014394 0.247557
O O18 0.499393 0.844049 0.454968
#
# Coordination Sequence:
#
# PCOD9105373 Si02
#       8
#     2   2   2   2   2   2   2   2
#     4  10  21  40  65  99 133 166 226 278 318 395
#     4  10  21  42  61  91 128 162 219 263 314 395
#     4  12  25  36  58  98 136 165 203 263 330 389
#     4  11  25  43  68  96 132 175 222 277 333 392
#     4  11  23  40  68  97 128 175 223 274 334 388
#     4  10  20  39  64  92 124 163 223 261 309 396
#     4  11  20  39  69  89 120 173 216 261 322 384
#     4   9  18  36  68  93 117 163 221 266 305 377
#
# _framework density 23.290452999999999
#
# number of rings (size 3 to 8) (size 9 to 14) (size 15 to 20)
#    0.000    1.500    3.750    2.625    3.500    2.000 
#    0.000    0.000    0.000    0.000    0.000    0.000 
#    0.000    0.000    0.000    0.000    0.000    0.000 
#
# Total GULP energy -89108.581272 kJ/mol
# GULP energy per Si atom -5569.286330 kJ/mol
# Density = 2.323744 g / cm^3
# Si number density = 23.290453 Si / 1000 Ang^3
#
#
#
# Elastic Constant Matrix: (Units=GPa)
#
#
# Indices 1 2 3 4 5 6 
#
# 1 78.4429 50.3112 28.8477 5.3113 27.6311 -29.7163
# 2 50.3112 87.8463 24.8191 1.1477 21.7256 -31.2402
# 3 28.8477 24.8191 84.2575 11.4638 31.9466 -2.0235
# 4 5.3113 1.1477 11.4638 38.4456 -1.0156 6.1506
# 5 27.6311 21.7256 31.9466 -1.0156 49.7005 5.3230
# 6 -29.7163 -31.2402 -2.0235 6.1506 5.3230 38.3412
#
#
#
# Elastic Compliance Matrix: (Units=1/GPa)
#
#
# Indices 1 2 3 4 5 6 
#
# 1 0.033013 -0.004843 -0.001090 -0.008663 -0.018448 0.025534
# 2 -0.004843 0.022016 -0.001126 -0.002358 -0.007927 0.015604
# 3 -0.001090 -0.001126 0.017236 -0.005457 -0.010247 0.001446
# 4 -0.008663 -0.002358 -0.005457 0.031715 0.011678 -0.015633
# 5 -0.018448 -0.007927 -0.010247 0.011678 0.043800 -0.029252
# 6 0.025534 0.015604 0.001446 -0.015633 -0.029252 0.065231
#
#
# Mechanical properties :
#
#
# Convention : Reuss Voigt Hill
#
# Bulk Modulus (GPa) = 17.19784 50.94474 34.07129
# Shear Modulus (GPa) = 20.28327 35.06871 27.67599
#
# Velocity S-wave (km/s) = 2.95428 3.88456 3.45091
# Velocity P-wave (km/s) = 4.36315 6.48389 5.52621
#
# Compressibility (1/GPa) = 0.05814683
#
# Stress axis : x y z
#
# Youngs Moduli (GPa) = 30.29142 45.42201 58.01973
#
# Poissons Ratio (x) = 0.21999 0.06322
# Poissons Ratio (y) = 0.14671 0.06531
# Poissons Ratio (z) = 0.03301 0.05113
#
# Static dielectric constant tensor:
#      x y z
#    x 2.165820 -0.068130 0.005370 
#    y -0.068130 1.922740 0.008450 
#    z 0.005370 0.008450 1.873070 
# 
# From -- ./inp_files/285777.got.cif
#   From: 2010.05.17/outbox.cif.g08.bks.cpg/sg2_143_cif.got.tgz:285777.got - 2010.06.03 11:33:40.
