data_PCOD9105521
_publ_section_title
;
Structure prediction by ZEFSAII (Michael W. Deem and Ramdas Pophale) SiO2 
 PCOD9105521
Probable space group: P -1
;
_chemical_formula_sum "Si O2"
_cell_formula_units_Z 14
_cell_length_a 9.681492
_cell_length_b 15.124175
_cell_length_c 12.317538
_cell_angle_alpha 150.118605
_cell_angle_beta 131.542291
_cell_angle_gamma 48.271847
_cell_volume 652.394566
_symmetry_space_group_name_H-M "P -1"
_symmetry_group_IT_number 2
_symmetry_cell_setting 'triclinic'
loop_
_space_group_symop_operation_xyz
x,y,z
-x,-y,-z
loop_
_atom_site_type_symbol
_atom_site_label
_atom_site_fract_x
_atom_site_fract_y
_atom_site_fract_z
Si Si1 0.744441 0.439042 0.779750
Si Si2 0.472020 0.686587 0.750326
Si Si3 0.030418 0.170206 0.945938
Si Si4 0.618796 0.089053 0.267524
Si Si5 0.278207 0.039064 0.390024
Si Si6 0.912732 0.559421 0.199057
Si Si7 0.737765 0.012722 0.928589
O O1 0.617783 0.622199 0.854575
O O2 0.662529 0.262051 0.536098
O O3 0.931939 0.398819 0.759528
O O4 0.774327 0.483840 0.966554
O O5 0.500000 0.500000 0.500000
O O6 0.485720 0.822455 0.803679
O O7 0.274687 0.785085 0.811523
O O8 0.841643 0.092027 0.754900
O O9 0.999862 0.385149 0.134672
O O10 0.186762 0.053284 0.818771
O O11 0.116501 0.123475 0.062310
O O12 0.472952 0.012428 0.181345
O O13 0.184693 0.251689 0.593661
O O14 0.244692 0.007827 0.211549
O O15 0.500000 0.000000 0.500000
#
# Coordination Sequence:
#
# PCOD9105521 Si02
#       7
#     2   2   2   2   2   2   2
#     4  10  20  39  65 104 129 170 222 276 322 389
#     4   9  18  36  64  95 129 164 214 270 319 380
#     4  11  24  46  70  96 133 175 223 274 326 395
#     4  10  20  39  71  99 130 169 222 275 328 385
#     4  12  28  47  65  95 139 178 221 272 334 396
#     4  11  24  42  67  95 134 175 224 269 331 391
#     4  11  23  43  67 102 134 172 217 273 335 391
#
# _framework density 21.459406000000001
#
# number of rings (size 3 to 8) (size 9 to 14) (size 15 to 20)
#    0.000    1.429    1.429    4.714    2.000    2.857 
#    5.143    0.000    0.000    0.000    0.000    0.000 
#    0.000    0.000    0.000    0.000    0.000    0.000 
#
# Total GULP energy -78108.915612 kJ/mol
# GULP energy per Si atom -5579.208258 kJ/mol
# Density = 2.141056 g / cm^3
# Si number density = 21.459406 Si / 1000 Ang^3
#
#
#
# Elastic Constant Matrix: (Units=GPa)
#
#
# Indices 1 2 3 4 5 6 
#
# 1 90.4886 7.8752 36.7873 6.7291 4.2527 -6.2174
# 2 7.8752 80.1249 38.3065 9.9260 -16.8376 1.6441
# 3 36.7873 38.3065 123.2878 20.9991 -8.0012 8.2967
# 4 6.7291 9.9260 20.9991 42.1982 -0.0223 0.8840
# 5 4.2527 -16.8376 -8.0012 -0.0223 37.2377 -9.4416
# 6 -6.2174 1.6441 8.2967 0.8840 -9.4416 21.0309
#
#
#
# Elastic Compliance Matrix: (Units=1/GPa)
#
#
# Indices 1 2 3 4 5 6 
#
# 1 0.013253 0.000581 -0.004529 -0.000107 -0.000889 0.005265
# 2 0.000581 0.016376 -0.004782 -0.001648 0.007363 0.004153
# 3 -0.004529 -0.004782 0.011982 -0.003995 -0.000535 -0.005764
# 4 -0.000107 -0.001648 -0.003995 0.026093 -0.001613 -0.000148
# 5 -0.000889 0.007363 -0.000535 -0.001613 0.033884 0.014652
# 6 0.005265 0.004153 -0.005764 -0.000148 0.014652 0.057639
#
#
# Mechanical properties :
#
#
# Convention : Reuss Voigt Hill
#
# Bulk Modulus (GPa) = 41.40693 51.09323 46.25008
# Shear Modulus (GPa) = 27.06535 34.15550 30.61043
#
# Velocity S-wave (km/s) = 3.55524 3.99386 3.78091
# Velocity P-wave (km/s) = 6.01584 6.71780 6.37648
#
# Compressibility (1/GPa) = 0.02415055
#
# Stress axis : x y z
#
# Youngs Moduli (GPa) = 75.45360 61.06509 83.45835
#
# Poissons Ratio (x) = -0.03547 0.37797
# Poissons Ratio (y) = -0.04383 0.39914
# Poissons Ratio (z) = 0.34171 0.29204
#
# Static dielectric constant tensor:
#      x y z
#    x 1.834350 0.013570 0.062680 
#    y 0.013570 1.922480 0.060730 
#    z 0.062680 0.060730 1.951260 
# 
# From -- ./inp_files/400164.got.cif
#   From: 2010.05.17/outbox.cif.g08.bks.cpg/sg2_201_cif.got.tgz:400164.got - 2010.06.03 11:33:40.
