data_PCOD9105015
_publ_section_title
;
Structure prediction by ZEFSAII (Michael W. Deem and Ramdas Pophale) SiO2 
 PCOD9105015
Probable space group: P -1
;
_chemical_formula_sum "Si O2"
_cell_formula_units_Z 14
_cell_length_a 9.762871
_cell_length_b 11.526164
_cell_length_c 7.811987
_cell_angle_alpha 96.101473
_cell_angle_beta 88.256178
_cell_angle_gamma 42.522821
_cell_volume 582.995456
_symmetry_space_group_name_H-M "P -1"
_symmetry_group_IT_number 2
_symmetry_cell_setting 'triclinic'
loop_
_space_group_symop_operation_xyz
x,y,z
-x,-y,-z
loop_
_atom_site_type_symbol
_atom_site_label
_atom_site_fract_x
_atom_site_fract_y
_atom_site_fract_z
Si Si1 0.894819 0.218224 0.472918
Si Si2 0.960080 0.888740 0.945706
Si Si3 0.130083 0.535976 0.964628
Si Si4 0.484847 0.833827 0.115265
Si Si5 0.668482 0.144493 0.499467
Si Si6 0.532245 0.930726 0.679678
Si Si7 0.986630 0.387014 0.394886
O O1 0.695847 0.265740 0.508128
O O2 0.957494 0.175921 0.262911
O O3 0.886245 0.360544 0.526419
O O4 0.091991 0.049142 0.546477
O O5 0.052266 0.719391 0.023377
O O6 0.715699 0.030376 0.970617
O O7 0.000000 0.000000 0.000000
O O8 0.352514 0.359340 0.998019
O O9 0.145275 0.522343 0.755729
O O10 0.000000 0.500000 0.000000
O O11 0.411460 0.835892 0.305441
O O12 0.572259 0.908333 0.165207
O O13 0.546003 0.151254 0.360333
O O14 0.774498 0.789731 0.687692
O O15 0.500000 0.000000 0.500000
O O16 0.000000 0.500000 0.500000
#
# Coordination Sequence:
#
# PCOD9105015 Si02
#       7
#     2   2   2   2   2   2   2
#     4   9  18  35  57  90 128 153 205 258 308 380
#     4  10  22  44  63  87 128 173 210 261 323 376
#     4  11  25  43  63  93 127 166 222 268 312 385
#     4  10  20  40  64  86 131 165 206 268 318 374
#     4   9  17  32  60  94 118 159 201 250 320 379
#     4  10  16  33  59  92 122 163 203 249 323 371
#     4  11  20  38  61  91 130 164 203 266 317 374
#
# _framework density 24.013911
#
# number of rings (size 3 to 8) (size 9 to 14) (size 15 to 20)
#    0.000    2.000    5.714    1.714    0.000    2.286 
#    7.714    6.429    0.000    0.000    0.000    0.000 
#    0.000    0.000    0.000    0.000    0.000    0.000 
#
# Total GULP energy -78076.786786 kJ/mol
# GULP energy per Si atom -5576.913342 kJ/mol
# Density = 2.395925 g / cm^3
# Si number density = 24.013911 Si / 1000 Ang^3
#
#
#
# Elastic Constant Matrix: (Units=GPa)
#
#
# Indices 1 2 3 4 5 6 
#
# 1 167.4888 67.4770 10.0016 7.2875 13.1687 44.2292
# 2 67.4770 145.8761 20.6789 21.6121 5.6448 19.9435
# 3 10.0016 20.6789 30.0980 -0.2584 0.4750 6.8854
# 4 7.2875 21.6121 -0.2584 25.0089 10.9611 5.8823
# 5 13.1687 5.6448 0.4750 10.9611 28.8646 4.6363
# 6 44.2292 19.9435 6.8854 5.8823 4.6363 52.3892
#
#
#
# Elastic Compliance Matrix: (Units=1/GPa)
#
#
# Indices 1 2 3 4 5 6 
#
# 1 0.009449 -0.004098 0.001307 0.004142 -0.004028 -0.006697
# 2 -0.004098 0.010889 -0.006487 -0.010051 0.003505 0.000985
# 3 0.001307 -0.006487 0.038337 0.007578 -0.002140 -0.004334
# 4 0.004142 -0.010051 0.007578 0.058111 -0.021263 -0.005310
# 5 -0.004028 0.003505 -0.002140 -0.021263 0.043768 0.000862
# 6 -0.006697 0.000985 -0.004334 -0.005310 0.000862 0.025456
#
#
# Mechanical properties :
#
#
# Convention : Reuss Voigt Hill
#
# Bulk Modulus (GPa) = 24.92533 59.97532 42.45033
# Shear Modulus (GPa) = 22.94216 37.60623 30.27419
#
# Velocity S-wave (km/s) = 3.09426 3.96159 3.55448
# Velocity P-wave (km/s) = 4.81331 6.77901 5.87890
#
# Compressibility (1/GPa) = 0.04011982
#
# Stress axis : x y z
#
# Youngs Moduli (GPa) = 105.83674 91.83582 26.08418
#
# Poissons Ratio (x) = 0.37635 -0.03409
# Poissons Ratio (y) = 0.43372 0.16920
# Poissons Ratio (z) = -0.13833 0.59570
#
# Static dielectric constant tensor:
#      x y z
#    x 2.094170 0.042790 -0.029440 
#    y 0.042790 2.111570 0.052850 
#    z -0.029440 0.052850 2.080000 
# 
# From -- ./inp_files/341016.got.cif
#   From: 2010.05.17/outbox.cif.g08.bks.cpg/sg2_171_cif.got.tgz:341016.got - 2010.06.03 11:33:40.
