data_PCOD9105455
_publ_section_title
;
Structure prediction by ZEFSAII (Michael W. Deem and Ramdas Pophale) SiO2 
 PCOD9105455
Probable space group: P -1
;
_chemical_formula_sum "Si O2"
_cell_formula_units_Z 16
_cell_length_a 24.436339
_cell_length_b 7.403437
_cell_length_c 6.117592
_cell_angle_alpha 63.986804
_cell_angle_beta 89.379725
_cell_angle_gamma 47.524035
_cell_volume 662.148199
_symmetry_space_group_name_H-M "P -1"
_symmetry_group_IT_number 2
_symmetry_cell_setting 'triclinic'
loop_
_space_group_symop_operation_xyz
x,y,z
-x,-y,-z
loop_
_atom_site_type_symbol
_atom_site_label
_atom_site_fract_x
_atom_site_fract_y
_atom_site_fract_z
Si Si1 0.404371 0.186308 0.896817
Si Si2 0.461949 0.594481 0.198606
Si Si3 0.881242 0.712469 0.562338
Si Si4 0.003559 0.164016 0.094731
Si Si5 0.750091 0.340139 0.033760
Si Si6 0.240316 0.236143 0.181251
Si Si7 0.881044 0.383686 0.371771
Si Si8 0.339080 0.639103 0.307913
O O1 0.335266 0.440285 0.942157
O O2 0.369278 0.365038 0.579272
O O3 0.500000 0.000000 0.000000
O O4 0.405923 0.944182 0.023988
O O5 0.500000 0.500000 0.500000
O O6 0.413319 0.520376 0.228716
O O7 0.500000 0.500000 0.000000
O O8 0.821210 0.738593 0.697626
O O9 0.892898 0.545711 0.435749
O O10 0.831207 0.049164 0.319297
O O11 0.968038 0.463144 0.822874
O O12 0.941521 0.256592 0.233785
O O13 0.092214 0.888406 0.349608
O O14 0.000000 0.000000 0.000000
O O15 0.754030 0.557241 0.830647
O O16 0.738951 0.210980 0.908822
O O17 0.318599 0.878493 0.345442
O O18 0.207576 0.375242 0.864131
#
# Coordination Sequence:
#
# PCOD9105455 Si02
#       8
#     2   2   2   2   2   2   2   2
#     4  12  26  46  72  99 136 180 239 288 362 427
#     4  12  28  49  76 105 142 184 238 304 367 436
#     4  10  20  39  64  95 137 174 225 287 336 414
#     4   8  16  32  65  97 128 178 220 272 340 398
#     4  12  26  41  67 101 135 181 234 284 355 424
#     4  11  23  41  63  97 136 177 229 276 349 414
#     4   9  17  36  63  94 133 179 219 273 344 400
#     4  12  26  44  70  98 138 181 227 299 352 426
#
# _framework density 24.163775000000001
#
# number of rings (size 3 to 8) (size 9 to 14) (size 15 to 20)
#    0.000    1.250    5.000    0.750    1.750    3.000 
#    0.000    0.625    0.000   25.500    0.000    0.000 
#    0.000    0.000    0.000    0.000    0.000    0.000 
#
# Total GULP energy -89199.943098 kJ/mol
# GULP energy per Si atom -5574.996444 kJ/mol
# Density = 2.410878 g / cm^3
# Si number density = 24.163775 Si / 1000 Ang^3
#
#
#
# Elastic Constant Matrix: (Units=GPa)
#
#
# Indices 1 2 3 4 5 6 
#
# 1 37.4280 -7.5908 20.0489 -1.4958 2.2249 18.3627
# 2 -7.5908 102.1799 42.2345 -4.9365 0.6680 8.6804
# 3 20.0489 42.2345 137.9036 -23.7090 -3.4174 11.6450
# 4 -1.4958 -4.9365 -23.7090 44.3007 4.8577 -5.8355
# 5 2.2249 0.6680 -3.4174 4.8577 37.7416 -1.8944
# 6 18.3627 8.6804 11.6450 -5.8355 -1.8944 27.4797
#
#
#
# Elastic Compliance Matrix: (Units=1/GPa)
#
#
# Indices 1 2 3 4 5 6 
#
# 1 0.050511 0.010015 -0.008592 -0.005827 -0.004932 -0.034853
# 2 0.010015 0.013357 -0.005143 -0.001980 -0.001502 -0.009256
# 3 -0.008592 -0.005143 0.010665 0.005257 0.001089 0.004037
# 4 -0.005827 -0.001980 0.005257 0.026219 -0.002133 0.007712
# 5 -0.004932 -0.001502 0.001089 -0.002133 0.027425 0.004747
# 6 -0.034853 -0.009256 0.004037 0.007712 0.004747 0.062858
#
#
# Mechanical properties :
#
#
# Convention : Reuss Voigt Hill
#
# Bulk Modulus (GPa) = 14.90428 42.98851 28.94640
# Shear Modulus (GPa) = 22.64099 36.75901 29.70000
#
# Velocity S-wave (km/s) = 3.06433 3.90454 3.50967
# Velocity P-wave (km/s) = 4.32454 6.17709 5.33189
#
# Compressibility (1/GPa) = 0.06709481
#
# Stress axis : x y z
#
# Youngs Moduli (GPa) = 19.79768 74.86787 93.76058
#
# Poissons Ratio (x) = -0.74981 0.80556
# Poissons Ratio (y) = -0.19828 0.48219
# Poissons Ratio (z) = 0.17009 0.38503
#
# Static dielectric constant tensor:
#      x y z
#    x 2.023750 -0.067150 0.018430 
#    y -0.067150 2.321220 -0.146510 
#    z 0.018430 -0.146510 2.051790 
# 
# From -- ./inp_files/128209.got.cif
#   From: 2010.05.17/outbox.cif.g08.bks.cpg/sg2_65_cif.got.tgz:128209.got - 2010.06.03 11:33:40.
