data_PCOD9105602
_publ_section_title
;
Structure prediction by ZEFSAII (Michael W. Deem and Ramdas Pophale) SiO2 
 PCOD9105602
Probable space group: P -1
;
_chemical_formula_sum "Si O2"
_cell_formula_units_Z 14
_cell_length_a 6.900602
_cell_length_b 10.951644
_cell_length_c 17.935495
_cell_angle_alpha 49.788155
_cell_angle_beta 140.965000
_cell_angle_gamma 109.246153
_cell_volume 608.857569
_symmetry_space_group_name_H-M "P -1"
_symmetry_group_IT_number 2
_symmetry_cell_setting 'triclinic'
loop_
_space_group_symop_operation_xyz
x,y,z
-x,-y,-z
loop_
_atom_site_type_symbol
_atom_site_label
_atom_site_fract_x
_atom_site_fract_y
_atom_site_fract_z
Si Si1 0.859777 0.597871 0.802460
Si Si2 0.787516 0.951985 0.361040
Si Si3 0.831461 0.766279 0.885372
Si Si4 0.893996 0.394630 0.654508
Si Si5 0.875934 0.072088 0.853720
Si Si6 0.064903 0.297575 0.373102
Si Si7 0.744504 0.241264 0.534676
O O1 0.845829 0.714982 0.823771
O O2 0.036973 0.647702 0.764305
O O3 0.494775 0.631316 0.647324
O O4 0.013934 0.404566 0.952835
O O5 0.522888 0.865546 0.290265
O O6 0.983645 0.842630 0.532355
O O7 0.036084 0.926253 0.377561
O O8 0.542020 0.138891 0.234938
O O9 0.987479 0.910251 0.894152
O O10 0.500000 0.500000 0.500000
O O11 0.980679 0.227146 0.797930
O O12 0.042721 0.527378 0.680745
O O13 0.946854 0.326375 0.612636
O O14 0.000000 0.000000 0.000000
O O15 0.467312 0.212896 0.515498
#
# Coordination Sequence:
#
# PCOD9105602 Si02
#       7
#     2   2   2   2   2   2   2
#     4   9  18  35  58  74 109 148 172 217 271 317
#     4  10  20  34  55  84 106 137 183 222 258 320
#     4   9  19  33  56  81 104 146 180 208 276 323
#     4  10  16  34  53  74 109 140 173 219 259 313
#     4  10  19  32  54  76 109 139 171 221 268 307
#     4   9  19  35  56  78 111 141 177 220 264 312
#     4   9  19  33  57  80 107 140 179 219 266 307
#
# _framework density 22.993883
#
# number of rings (size 3 to 8) (size 9 to 14) (size 15 to 20)
#    1.714    0.857    2.857    0.857    0.000    1.714 
#    0.000    0.714    6.286    1.714    0.000    0.000 
#    0.000    0.000    0.000    0.000    0.000    0.000 
#
# Total GULP energy -77993.089858 kJ/mol
# GULP energy per Si atom -5570.934990 kJ/mol
# Density = 2.294155 g / cm^3
# Si number density = 22.993883 Si / 1000 Ang^3
#
#
#
# Elastic Constant Matrix: (Units=GPa)
#
#
# Indices 1 2 3 4 5 6 
#
# 1 59.4790 37.0860 29.8169 -5.6956 -16.7287 -20.7810
# 2 37.0860 113.2655 60.1647 -19.0988 -26.9347 -22.2172
# 3 29.8169 60.1647 112.0787 -7.5636 -34.8380 -22.5191
# 4 -5.6956 -19.0988 -7.5636 39.6576 -5.8757 -3.0347
# 5 -16.7287 -26.9347 -34.8380 -5.8757 30.7862 3.2355
# 6 -20.7810 -22.2172 -22.5191 -3.0347 3.2355 33.1211
#
#
#
# Elastic Compliance Matrix: (Units=1/GPa)
#
#
# Indices 1 2 3 4 5 6 
#
# 1 0.027888 -0.002297 0.002469 0.006949 0.015502 0.016757
# 2 -0.002297 0.016890 -0.002640 0.009612 0.011551 0.007846
# 3 0.002469 -0.002640 0.018605 0.006464 0.020157 0.011051
# 4 0.006949 0.009612 0.006464 0.036996 0.024862 0.016164
# 5 0.015502 0.011551 0.020157 0.024862 0.075830 0.026051
# 6 0.016757 0.007846 0.011051 0.016164 0.026051 0.052418
#
#
# Mechanical properties :
#
#
# Convention : Reuss Voigt Hill
#
# Bulk Modulus (GPa) = 17.10996 59.88426 38.49711
# Shear Modulus (GPa) = 19.75926 31.23004 25.49465
#
# Velocity S-wave (km/s) = 2.93461 3.68936 3.33341
# Velocity P-wave (km/s) = 4.35199 6.65196 5.62087
#
# Compressibility (1/GPa) = 0.05844548
#
# Stress axis : x y z
#
# Youngs Moduli (GPa) = 35.85800 59.20671 53.74949
#
# Poissons Ratio (x) = 0.13602 -0.13269
# Poissons Ratio (y) = 0.08238 0.14189
# Poissons Ratio (z) = -0.08852 0.15630
#
# Static dielectric constant tensor:
#      x y z
#    x 1.919460 0.065300 0.044910 
#    y 0.065300 1.977350 0.048060 
#    z 0.044910 0.048060 1.860980 
# 
# From -- ./inp_files/589025.got.cif
#   From: 2010.05.17/outbox.cif.g08.bks.cpg/sg2_295_cif.got.tgz:589025.got - 2010.06.03 11:33:40.
