data_PCOD9105552
_publ_section_title
;
Structure prediction by ZEFSAII (Michael W. Deem and Ramdas Pophale) SiO2 
 PCOD9105552
Probable space group: P -1
;
_chemical_formula_sum "Si O2"
_cell_formula_units_Z 13
_cell_length_a 20.879843
_cell_length_b 14.897270
_cell_length_c 12.585920
_cell_angle_alpha 27.839392
_cell_angle_beta 26.981714
_cell_angle_gamma 19.701750
_cell_volume 571.966238
_symmetry_space_group_name_H-M "P -1"
_symmetry_group_IT_number 2
_symmetry_cell_setting 'triclinic'
loop_
_space_group_symop_operation_xyz
x,y,z
-x,-y,-z
loop_
_atom_site_type_symbol
_atom_site_label
_atom_site_fract_x
_atom_site_fract_y
_atom_site_fract_z
Si Si1 0.198880 0.965459 0.493012
Si Si2 0.162452 0.248100 0.442672
Si Si3 0.965578 0.306152 0.268522
Si Si4 0.435732 0.233639 0.527185
Si Si5 0.394434 0.373384 0.866695
Si Si6 0.500000 0.500000 0.000000
Si Si7 0.349467 0.866676 0.046668
O O1 0.246169 0.693565 0.719120
O O2 0.426244 0.828387 0.274681
O O3 0.098169 0.151362 0.553534
O O4 0.057979 0.156915 0.401801
O O5 0.000000 0.500000 0.500000
O O6 0.338263 0.981263 0.534049
O O7 0.262984 0.317911 0.149966
O O8 0.723310 0.523907 0.404840
O O9 0.000000 0.500000 0.000000
O O10 0.109694 0.068787 0.215715
O O11 0.431113 0.353802 0.299924
O O12 0.379912 0.064228 0.772793
O O13 0.520036 0.301506 0.863511
O O14 0.572245 0.335692 0.952792
#
# Coordination Sequence:
#
# PCOD9105552 Si02
#       7
#     2   2   2   2   2   1   2
#     4  10  20  39  65  88 111 154 200 237 288 344
#     4  11  24  39  60  88 119 155 194 239 294 352
#     4   9  20  40  63  85 118 155 194 244 290 339
#     4  10  23  41  58  84 122 155 191 244 291 343
#     4   9  20  39  62  85 117 151 196 247 282 338
#     4  12  22  34  60  88 122 158 188 232 296 356
#     4   9  20  39  59  87 119 154 195 242 292 340
#
# _framework density 22.728615000000001
#
# number of rings (size 3 to 8) (size 9 to 14) (size 15 to 20)
#    0.000    2.154    0.000    2.769    0.000    7.385 
#    0.000    0.000    0.000    0.000    0.000    0.000 
#    0.000    0.000    0.000    0.000    0.000    0.000 
#
# Total GULP energy -72443.995581 kJ/mol
# GULP energy per Si atom -5572.615045 kJ/mol
# Density = 2.267688 g / cm^3
# Si number density = 22.728615 Si / 1000 Ang^3
#
#
#
# Elastic Constant Matrix: (Units=GPa)
#
#
# Indices 1 2 3 4 5 6 
#
# 1 76.5203 65.5223 9.9195 6.2628 7.0626 37.6491
# 2 65.5223 123.0384 9.7097 -13.6883 20.9791 7.4341
# 3 9.9195 9.7097 71.5507 -7.4200 14.0396 -5.9364
# 4 6.2628 -13.6883 -7.4200 17.9126 11.7857 -2.9314
# 5 7.0626 20.9791 14.0396 11.7857 19.0527 9.7519
# 6 37.6491 7.4341 -5.9364 -2.9314 9.7519 32.4877
#
#
#
# Elastic Compliance Matrix: (Units=1/GPa)
#
#
# Indices 1 2 3 4 5 6 
#
# 1 0.006237 0.004376 0.008367 0.027395 -0.033175 0.005729
# 2 0.004376 0.002919 -0.006510 -0.014098 0.015217 -0.012769
# 3 0.008367 -0.006510 0.011288 -0.007690 0.004733 -0.008259
# 4 0.027395 -0.014098 -0.007690 0.012506 0.021314 -0.035196
# 5 -0.033175 0.015217 0.004733 0.021314 0.014217 0.033484
# 6 0.005729 -0.012769 -0.008259 -0.035196 0.033484 0.012327
#
#
# Mechanical properties :
#
#
# Convention : Reuss Voigt Hill
#
# Bulk Modulus (GPa) = 30.38469 49.04582 39.71525
# Shear Modulus (GPa) = 86.20820 26.28778 56.24799
#
# Velocity S-wave (km/s) = 6.16536 3.40456 4.98010
# Velocity P-wave (km/s) = 8.00498 6.08937 7.11197
#
# Compressibility (1/GPa) = 0.03291131
#
# Stress axis : x y z
#
# Youngs Moduli (GPa) = 160.32124 342.56339 88.58849
#
# Poissons Ratio (x) = -1.49914 -0.74124
# Poissons Ratio (y) = -0.70160 0.57673
# Poissons Ratio (z) = -1.34145 2.23017
#
# Static dielectric constant tensor:
#      x y z
#    x 1.821110 -0.010890 -0.037350 
#    y -0.010890 1.862570 -0.003110 
#    z -0.037350 -0.003110 1.863770 
# 
# From -- ./inp_files/304329.got.cif
#   From: 2010.05.17/outbox.cif.g08.bks.cpg/sg2_153_cif.got.tgz:304329.got - 2010.06.03 11:33:40.
