data_PCOD9105674
_publ_section_title
;
Structure prediction by ZEFSAII (Michael W. Deem and Ramdas Pophale) SiO2 
 PCOD9105674
Probable space group: P -1
;
_chemical_formula_sum "Si O2"
_cell_formula_units_Z 14
_cell_length_a 7.615873
_cell_length_b 13.003968
_cell_length_c 7.885058
_cell_angle_alpha 71.480168
_cell_angle_beta 76.496879
_cell_angle_gamma 122.824540
_cell_volume 535.559673
_symmetry_space_group_name_H-M "P -1"
_symmetry_group_IT_number 2
_symmetry_cell_setting 'triclinic'
loop_
_space_group_symop_operation_xyz
x,y,z
-x,-y,-z
loop_
_atom_site_type_symbol
_atom_site_label
_atom_site_fract_x
_atom_site_fract_y
_atom_site_fract_z
Si Si1 0.795717 0.166153 0.508398
Si Si2 0.419309 0.596885 0.661785
Si Si3 0.908835 0.848220 0.791121
Si Si4 0.208952 0.434383 0.439524
Si Si5 0.361291 0.107428 0.724813
Si Si6 0.583957 0.271007 0.940262
Si Si7 0.014272 0.657526 0.954887
O O1 0.925755 0.110944 0.434749
O O2 0.510326 0.058838 0.659994
O O3 0.863179 0.279722 0.287506
O O4 0.940135 0.276775 0.574258
O O5 0.285012 0.489692 0.584537
O O6 0.626553 0.594276 0.663849
O O7 0.537503 0.752430 0.482330
O O8 0.205326 0.515612 0.889610
O O9 0.883344 0.722795 0.960393
O O10 0.081897 0.985245 0.804333
O O11 0.640036 0.784188 0.858396
O O12 0.266782 0.566865 0.254553
O O13 0.439996 0.161108 0.871258
O O14 0.777288 0.275895 0.990512
#
# Coordination Sequence:
#
# PCOD9105674 Si02
#       7
#     2   2   2   2   2   2   2
#     4  10  23  41  64  91 132 165 202 266 312 372
#     4  10  21  39  64  98 121 166 210 265 302 377
#     4  10  24  44  62  93 133 164 206 260 311 380
#     4  10  20  39  65  94 129 159 214 259 317 358
#     4  11  23  42  65  92 130 165 212 254 317 370
#     4  11  22  42  69  92 123 171 210 261 305 376
#     4  10  23  40  66  93 125 162 215 252 318 362
#
# _framework density 26.140878000000001
#
# number of rings (size 3 to 8) (size 9 to 14) (size 15 to 20)
#    0.857    0.857    1.429    2.571    0.000    8.571 
#    2.571    1.429    0.000    0.000    0.000    0.000 
#    0.000    0.000    0.000    0.000    0.000    0.000 
#
# Total GULP energy -78377.876675 kJ/mol
# GULP energy per Si atom -5598.419763 kJ/mol
# Density = 2.608138 g / cm^3
# Si number density = 26.140878 Si / 1000 Ang^3
#
#
#
# Elastic Constant Matrix: (Units=GPa)
#
#
# Indices 1 2 3 4 5 6 
#
# 1 88.8529 7.0403 26.2412 -8.8732 -18.7094 18.5622
# 2 7.0403 93.7176 4.1394 -4.8242 -0.6479 17.9354
# 3 26.2412 4.1394 51.9272 -3.5979 -15.0312 -1.1432
# 4 -8.8732 -4.8242 -3.5979 34.8139 6.6350 -8.8378
# 5 -18.7094 -0.6479 -15.0312 6.6350 41.2970 -2.7248
# 6 18.5622 17.9354 -1.1432 -8.8378 -2.7248 39.1442
#
#
#
# Elastic Compliance Matrix: (Units=1/GPa)
#
#
# Indices 1 2 3 4 5 6 
#
# 1 0.015746 0.000628 -0.006966 0.000710 0.003998 -0.007519
# 2 0.000628 0.011795 -0.001509 0.000283 -0.000502 -0.005717
# 3 -0.006966 -0.001509 0.024830 0.000772 0.006085 0.005318
# 4 0.000710 0.000283 0.000772 0.031406 -0.004019 0.006367
# 5 0.003998 -0.000502 0.006085 -0.004019 0.028853 -0.000387
# 6 -0.007519 -0.005717 0.005318 0.006367 -0.000387 0.033298
#
#
# Mechanical properties :
#
#
# Convention : Reuss Voigt Hill
#
# Bulk Modulus (GPa) = 27.26585 34.37105 30.81845
# Shear Modulus (GPa) = 28.76063 36.18948 32.47505
#
# Velocity S-wave (km/s) = 3.32055 3.72479 3.52846
# Velocity P-wave (km/s) = 5.01542 5.62812 5.33058
#
# Compressibility (1/GPa) = 0.03667592
#
# Stress axis : x y z
#
# Youngs Moduli (GPa) = 63.50966 84.78089 40.27330
#
# Poissons Ratio (x) = -0.05325 0.28055
# Poissons Ratio (y) = -0.03989 0.06079
# Poissons Ratio (z) = 0.44242 0.12797
#
# Static dielectric constant tensor:
#      x y z
#    x 2.068240 -0.049080 -0.056530 
#    y -0.049080 2.046280 0.068780 
#    z -0.056530 0.068780 2.037560 
# 
# From -- ./inp_files/206846.got.cif
#   From: 2010.05.17/outbox.cif.g08.bks.cpg/sg2_104_cif.got.tgz:206846.got - 2010.06.03 11:33:40.
