data_PCOD9105464
_publ_section_title
;
Structure prediction by ZEFSAII (Michael W. Deem and Ramdas Pophale) SiO2 
 PCOD9105464
Probable space group: P -1
;
_chemical_formula_sum "Si O2"
_cell_formula_units_Z 15
_cell_length_a 16.237949
_cell_length_b 20.216099
_cell_length_c 7.916527
_cell_angle_alpha 45.139840
_cell_angle_beta 133.820357
_cell_angle_gamma 161.117984
_cell_volume 592.585876
_symmetry_space_group_name_H-M "P -1"
_symmetry_group_IT_number 2
_symmetry_cell_setting 'triclinic'
loop_
_space_group_symop_operation_xyz
x,y,z
-x,-y,-z
loop_
_atom_site_type_symbol
_atom_site_label
_atom_site_fract_x
_atom_site_fract_y
_atom_site_fract_z
Si Si1 0.935703 0.377936 0.487351
Si Si2 0.503267 0.165893 0.620565
Si Si3 0.500000 0.500000 0.000000
Si Si4 0.271265 0.462714 0.452119
Si Si5 0.743320 0.068109 0.622160
Si Si6 0.982624 0.864635 0.547298
Si Si7 0.292518 0.693392 0.012881
Si Si8 0.931320 0.037376 0.114450
O O1 0.231878 0.583028 0.472915
O O2 0.000000 0.500000 0.500000
O O3 0.811290 0.184845 0.666571
O O4 0.725116 0.272231 0.255373
O O5 0.537811 0.139760 0.896413
O O6 0.465934 0.075959 0.563586
O O7 0.252018 0.044994 0.507719
O O8 0.541441 0.455300 0.303401
O O9 0.198607 0.252812 0.012064
O O10 0.349319 0.624462 0.217117
O O11 0.998513 0.271657 0.504097
O O12 0.209029 0.355250 0.392304
O O13 0.732663 0.955823 0.879320
O O14 0.035501 0.903887 0.751354
O O15 0.874484 0.886784 0.306830
O O16 0.000000 0.500000 0.000000
#
# Coordination Sequence:
#
# PCOD9105464 Si02
#       8
#     2   2   1   2   2   2   2   2
#     4  11  25  43  64 100 134 170 227 282 328 402
#     4  10  22  42  69  89 130 177 215 275 333 387
#     4  10  22  38  68  90 130 170 216 270 342 380
#     4  10  20  39  64  96 127 174 221 273 327 402
#     4  10  22  41  65  98 130 172 225 271 335 395
#     4  10  23  41  63  95 133 173 224 272 335 398
#     4  10  20  40  64  93 131 172 224 269 333 397
#     4  10  23  41  62  97 135 171 220 279 325 408
#
# _framework density 25.312787
#
# number of rings (size 3 to 8) (size 9 to 14) (size 15 to 20)
#    0.000    1.867    2.667    0.800    3.733    8.533 
#    2.400    0.000    0.000    0.000    0.000    0.000 
#    0.000    0.000    0.000    0.000    0.000    0.000 
#
# Total GULP energy -83524.886528 kJ/mol
# GULP energy per Si atom -5568.325769 kJ/mol
# Density = 2.525517 g / cm^3
# Si number density = 25.312787 Si / 1000 Ang^3
#
#
#
# Elastic Constant Matrix: (Units=GPa)
#
#
# Indices 1 2 3 4 5 6 
#
# 1 82.2379 23.8129 15.2776 2.6913 -1.2711 -35.3261
# 2 23.8129 113.2508 20.1325 20.0992 5.1491 -18.4080
# 3 15.2776 20.1325 118.1913 8.4123 8.7450 -16.7923
# 4 2.6913 20.0992 8.4123 33.7564 6.0354 -1.4934
# 5 -1.2711 5.1491 8.7450 6.0354 26.3611 4.2923
# 6 -35.3261 -18.4080 -16.7923 -1.4934 4.2923 45.8232
#
#
#
# Elastic Compliance Matrix: (Units=1/GPa)
#
#
# Indices 1 2 3 4 5 6 
#
# 1 0.018505 -0.001661 -0.000114 0.000334 -0.001047 0.013666
# 2 -0.001661 0.010834 -0.000754 -0.005822 -0.001053 0.002704
# 3 -0.000114 -0.000754 0.009399 -0.001156 -0.003252 0.003321
# 4 0.000334 -0.005822 -0.001156 0.034428 -0.006215 -0.000801
# 5 -0.001047 -0.001053 -0.003252 -0.006215 0.041654 -0.006527
# 6 0.013666 0.002704 0.003321 -0.000801 -0.006527 0.035247
#
#
# Mechanical properties :
#
#
# Convention : Reuss Voigt Hill
#
# Bulk Modulus (GPa) = 29.69125 48.01400 38.85262
# Shear Modulus (GPa) = 30.05672 38.15194 34.10433
#
# Velocity S-wave (km/s) = 3.44962 3.88650 3.67456
# Velocity P-wave (km/s) = 5.25564 6.25694 5.77802
#
# Compressibility (1/GPa) = 0.03367995
#
# Stress axis : x y z
#
# Youngs Moduli (GPa) = 54.03860 92.30112 106.39790
#
# Poissons Ratio (x) = 0.15333 0.01210
# Poissons Ratio (y) = 0.08977 0.08024
# Poissons Ratio (z) = 0.00614 0.06961
#
# Static dielectric constant tensor:
#      x y z
#    x 2.210550 0.095720 -0.082460 
#    y 0.095720 1.962450 -0.019200 
#    z -0.082460 -0.019200 2.029360 
# 
# From -- ./inp_files/338101.got.cif
#   From: 2010.05.17/outbox.cif.g08.bks.cpg/sg2_170_cif.got.tgz:338101.got - 2010.06.03 11:33:40.
