data_PCOD9105955
_publ_section_title
;
Structure prediction by ZEFSAII (Michael W. Deem and Ramdas Pophale) SiO2 
 PCOD9105955
Probable space group: P -1
;
_chemical_formula_sum "Si O2"
_cell_formula_units_Z 14
_cell_length_a 14.377880
_cell_length_b 9.020342
_cell_length_c 10.079714
_cell_angle_alpha 63.609118
_cell_angle_beta 115.208995
_cell_angle_gamma 155.145949
_cell_volume 491.307018
_symmetry_space_group_name_H-M "P -1"
_symmetry_group_IT_number 2
_symmetry_cell_setting 'triclinic'
loop_
_space_group_symop_operation_xyz
x,y,z
-x,-y,-z
loop_
_atom_site_type_symbol
_atom_site_label
_atom_site_fract_x
_atom_site_fract_y
_atom_site_fract_z
Si Si1 0.444780 0.149829 0.451000
Si Si2 0.188566 0.058563 0.448255
Si Si3 0.864108 0.065274 0.980865
Si Si4 0.722320 0.400132 0.299045
Si Si5 0.944902 0.501519 0.731049
Si Si6 0.455861 0.647005 0.039266
Si Si7 0.766699 0.532927 0.785467
O O1 0.410484 0.962262 0.618380
O O2 0.240490 0.810818 0.364752
O O3 0.396230 0.261551 0.429346
O O4 0.651593 0.412025 0.378041
O O5 0.979981 0.734876 0.349362
O O6 0.121159 0.866633 0.617357
O O7 0.218700 0.297784 0.378349
O O8 0.695548 0.916422 0.039128
O O9 0.011335 0.420812 0.865511
O O10 0.705446 0.743427 0.910311
O O11 0.018961 0.153822 0.110753
O O12 0.639477 0.372585 0.128355
O O13 0.818968 0.433031 0.790166
O O14 0.431220 0.707590 0.138112
#
# Coordination Sequence:
#
# PCOD9105955 Si02
#       7
#     2   2   2   2   2   2   2
#     4  10  22  40  68  93 122 162 219 256 305 364
#     4  11  24  42  68  92 122 168 215 254 306 369
#     4  11  24  44  63  94 125 165 213 255 301 377
#     4  10  20  39  66  96 119 160 213 269 296 358
#     4  11  23  43  63  92 132 162 208 257 310 376
#     4  11  24  40  70  91 126 161 215 258 308 367
#     4  12  26  40  64  95 131 168 197 258 324 366
#
# _framework density 28.495418999999998
#
# number of rings (size 3 to 8) (size 9 to 14) (size 15 to 20)
#    0.000    1.143    2.857    3.857    6.000    0.571 
#    0.000    2.857    0.000   10.286    0.000    0.000 
#    0.000    0.000    0.000    0.000    0.000    0.000 
#
# Total GULP energy -78641.120917 kJ/mol
# GULP energy per Si atom -5617.222923 kJ/mol
# Density = 2.843056 g / cm^3
# Si number density = 28.495419 Si / 1000 Ang^3
#
#
#
# Elastic Constant Matrix: (Units=GPa)
#
#
# Indices 1 2 3 4 5 6 
#
# 1 191.3597 25.3570 57.2036 -12.4632 -11.0139 2.8281
# 2 25.3570 74.4061 20.7156 -13.8692 5.0871 5.9515
# 3 57.2036 20.7156 178.7592 -22.4833 8.5447 3.8491
# 4 -12.4632 -13.8692 -22.4833 38.8778 -4.9981 12.2385
# 5 -11.0139 5.0871 8.5447 -4.9981 53.6534 5.8006
# 6 2.8281 5.9515 3.8491 12.2385 5.8006 58.4557
#
#
#
# Elastic Compliance Matrix: (Units=1/GPa)
#
#
# Indices 1 2 3 4 5 6 
#
# 1 0.006114 -0.001551 -0.001763 0.000728 0.001789 -0.000352
# 2 -0.001551 0.015371 -0.000514 0.005352 -0.000927 -0.002485
# 3 -0.001763 -0.000514 0.006696 0.003279 -0.000978 -0.000893
# 4 0.000728 0.005352 0.003279 0.032645 0.003018 -0.007930
# 5 0.001789 -0.000927 -0.000978 0.003018 0.019803 -0.002525
# 6 -0.000352 -0.002485 -0.000893 -0.007930 -0.002525 0.019347
#
#
# Mechanical properties :
#
#
# Convention : Reuss Voigt Hill
#
# Bulk Modulus (GPa) = 48.72167 72.34193 60.53180
# Shear Modulus (GPa) = 43.67801 52.94732 48.31267
#
# Velocity S-wave (km/s) = 3.91936 4.31524 4.12206
# Velocity P-wave (km/s) = 6.13327 7.09019 6.62902
#
# Compressibility (1/GPa) = 0.02052475
#
# Stress axis : x y z
#
# Youngs Moduli (GPa) = 163.56158 65.05675 149.33624
#
# Poissons Ratio (x) = 0.10092 0.26330
# Poissons Ratio (y) = 0.25372 0.07675
# Poissons Ratio (z) = 0.28838 0.03344
#
# Static dielectric constant tensor:
#      x y z
#    x 2.095600 -0.036420 -0.042010 
#    y -0.036420 2.245970 0.039020 
#    z -0.042010 0.039020 2.226040 
# 
# From -- ./inp_files/416629.got.cif
#   From: 2010.05.17/outbox.cif.g08.bks.cpg/sg2_209_cif.got.tgz:416629.got - 2010.06.03 11:33:40.
