data_PCOD9105471
_publ_section_title
;
Structure prediction by ZEFSAII (Michael W. Deem and Ramdas Pophale) SiO2 
 PCOD9105471
Probable space group: P -1
;
_chemical_formula_sum "Si O2"
_cell_formula_units_Z 16
_cell_length_a 11.217027
_cell_length_b 8.847611
_cell_length_c 11.841306
_cell_angle_alpha 110.857352
_cell_angle_beta 132.393877
_cell_angle_gamma 55.915444
_cell_volume 718.348403
_symmetry_space_group_name_H-M "P -1"
_symmetry_group_IT_number 2
_symmetry_cell_setting 'triclinic'
loop_
_space_group_symop_operation_xyz
x,y,z
-x,-y,-z
loop_
_atom_site_type_symbol
_atom_site_label
_atom_site_fract_x
_atom_site_fract_y
_atom_site_fract_z
Si Si1 0.555121 0.681653 0.750154
Si Si2 0.832089 0.595542 0.103763
Si Si3 0.450346 0.414183 0.702723
Si Si4 0.190231 0.243701 0.471191
Si Si5 0.215802 0.644049 0.807563
Si Si6 0.699816 0.089541 0.934445
Si Si7 0.787636 0.759994 0.761091
Si Si8 0.660649 0.925066 0.235399
O O1 0.512657 0.512470 0.675397
O O2 0.612677 0.741898 0.687108
O O3 0.391125 0.863329 0.747300
O O4 0.728364 0.628128 0.928609
O O5 0.745888 0.503555 0.109195
O O6 0.792278 0.785545 0.189069
O O7 0.040725 0.440910 0.186915
O O8 0.282845 0.376489 0.553792
O O9 0.374057 0.557112 0.795162
O O10 0.607441 0.230381 0.808712
O O11 0.240351 0.147557 0.355251
O O12 0.262964 0.141455 0.607806
O O13 0.973109 0.330209 0.359150
O O14 0.201350 0.826609 0.902026
O O15 0.531754 0.083036 0.891849
O O16 0.818247 0.890783 0.904177
#
# Coordination Sequence:
#
# PCOD9105471 Si02
#       8
#     2   2   2   2   2   2   2   2
#     4  11  23  40  61  94 131 168 206 255 315 378
#     4  11  20  38  67  94 126 161 212 263 313 362
#     4  11  21  38  68  93 127 161 215 261 308 369
#     4  10  23  41  67  91 128 167 210 257 315 373
#     4  11  20  37  69  98 121 158 218 267 312 352
#     4  10  20  39  64  97 121 161 213 261 303 367
#     4  10  25  40  65  93 133 166 205 253 324 377
#     4  10  22  40  69  93 123 166 215 260 309 365
#
# _framework density 22.273313999999999
#
# number of rings (size 3 to 8) (size 9 to 14) (size 15 to 20)
#    0.000    1.500    3.750    2.250    1.750    8.000 
#    0.000    0.625   11.000    0.000    0.000    0.000 
#    0.000    0.000    0.000    0.000    0.000    0.000 
#
# Total GULP energy -89389.051330 kJ/mol
# GULP energy per Si atom -5586.815708 kJ/mol
# Density = 2.222262 g / cm^3
# Si number density = 22.273314 Si / 1000 Ang^3
#
#
#
# Elastic Constant Matrix: (Units=GPa)
#
#
# Indices 1 2 3 4 5 6 
#
# 1 34.3939 19.7261 4.0142 -6.4951 -2.6079 -8.7458
# 2 19.7261 103.5005 19.5309 11.3772 11.0606 -12.2223
# 3 4.0142 19.5309 83.5264 -5.1413 15.3282 -11.0920
# 4 -6.4951 11.3772 -5.1413 23.8245 -2.9066 -7.0976
# 5 -2.6079 11.0606 15.3282 -2.9066 26.2399 6.0134
# 6 -8.7458 -12.2223 -11.0920 -7.0976 6.0134 36.8911
#
#
#
# Elastic Compliance Matrix: (Units=1/GPa)
#
#
# Indices 1 2 3 4 5 6 
#
# 1 0.041534 -0.010096 0.001505 0.020256 0.007543 0.009621
# 2 -0.010096 0.013964 -0.002036 -0.010496 -0.007034 0.000748
# 3 0.001505 -0.002036 0.015243 0.005616 -0.008829 0.006785
# 4 0.020256 -0.010496 0.005616 0.058453 0.006611 0.013182
# 5 0.007543 -0.007034 -0.008829 0.006611 0.050025 -0.010079
# 6 0.009621 0.000748 0.006785 0.013182 -0.010079 0.035855
#
#
# Mechanical properties :
#
#
# Convention : Reuss Voigt Hill
#
# Bulk Modulus (GPa) = 20.20768 34.21812 27.21290
# Shear Modulus (GPa) = 19.77669 29.26776 24.52222
#
# Velocity S-wave (km/s) = 2.98301 3.62888 3.32168
# Velocity P-wave (km/s) = 4.57786 5.74061 5.19189
#
# Compressibility (1/GPa) = 0.04948615
#
# Stress axis : x y z
#
# Youngs Moduli (GPa) = 24.07690 71.61272 65.60397
#
# Poissons Ratio (x) = 0.72303 -0.09873
# Poissons Ratio (y) = 0.24309 0.13355
# Poissons Ratio (z) = -0.03623 0.14578
#
# Static dielectric constant tensor:
#      x y z
#    x 1.833470 -0.011830 -0.039620 
#    y -0.011830 1.829300 0.005350 
#    z -0.039620 0.005350 1.847360 
# 
# From -- ./inp_files/298418.got.cif
#   From: 2010.05.17/outbox.cif.g08.bks.cpg/sg2_150_cif.got.tgz:298418.got - 2010.06.03 11:33:40.
