data_PCOD9105650
_publ_section_title
;
Structure prediction by ZEFSAII (Michael W. Deem and Ramdas Pophale) SiO2 
 PCOD9105650
Probable space group: P -1
;
_chemical_formula_sum "Si O2"
_cell_formula_units_Z 16
_cell_length_a 16.083984
_cell_length_b 18.634158
_cell_length_c 9.400718
_cell_angle_alpha 35.767880
_cell_angle_beta 141.884316
_cell_angle_gamma 151.448169
_cell_volume 758.956492
_symmetry_space_group_name_H-M "P -1"
_symmetry_group_IT_number 2
_symmetry_cell_setting 'triclinic'
loop_
_space_group_symop_operation_xyz
x,y,z
-x,-y,-z
loop_
_atom_site_type_symbol
_atom_site_label
_atom_site_fract_x
_atom_site_fract_y
_atom_site_fract_z
Si Si1 0.483547 0.122735 0.356819
Si Si2 0.214499 0.316955 0.140897
Si Si3 0.910012 0.727360 0.664016
Si Si4 0.413248 0.349230 0.825447
Si Si5 0.137045 0.181711 0.962623
Si Si6 0.148888 0.839964 0.528888
Si Si7 0.172506 0.558132 0.554550
Si Si8 0.062023 0.531813 0.872369
O O1 0.660966 0.259446 0.465624
O O2 0.500000 0.000000 0.500000
O O3 0.316945 0.017745 0.412415
O O4 0.456170 0.230194 0.051518
O O5 0.075047 0.214403 0.248403
O O6 0.414366 0.455487 0.255122
O O7 0.173798 0.194180 0.159496
O O8 0.201881 0.437832 0.842346
O O9 0.747671 0.699816 0.412119
O O10 0.076140 0.819915 0.624562
O O11 0.858978 0.554211 0.906680
O O12 0.325195 0.300760 0.942331
O O13 0.022529 0.232436 0.684460
O O14 0.000000 0.000000 0.000000
O O15 0.194663 0.727372 0.730036
O O16 0.000000 0.500000 0.500000
O O17 0.113053 0.548749 0.329534
O O18 0.000000 0.500000 0.000000
#
# Coordination Sequence:
#
# PCOD9105650 Si02
#       8
#     2   2   2   2   2   2   2   2
#     4  11  24  39  70  98 130 167 221 273 321 385
#     4  11  22  38  67  97 125 169 226 266 310 394
#     4  10  22  39  68  95 135 171 211 269 327 390
#     4  10  23  42  64  98 130 167 218 267 327 381
#     4  11  21  39  67  90 130 166 209 274 323 379
#     4  10  21  41  64  95 131 171 210 266 333 378
#     4  11  21  38  67  95 122 166 225 267 305 384
#     4  10  20  39  65  93 127 169 214 259 324 379
#
# _framework density 21.081579000000001
#
# number of rings (size 3 to 8) (size 9 to 14) (size 15 to 20)
#    0.000    1.500    3.750    1.500    1.750    0.000 
#    0.000    5.000    2.750    0.000    0.000    0.000 
#    0.000    0.000    0.000    0.000    0.000    0.000 
#
# Total GULP energy -89131.546457 kJ/mol
# GULP energy per Si atom -5570.721654 kJ/mol
# Density = 2.103360 g / cm^3
# Si number density = 21.081579 Si / 1000 Ang^3
#
#
#
# Elastic Constant Matrix: (Units=GPa)
#
#
# Indices 1 2 3 4 5 6 
#
# 1 111.2161 42.3872 26.4132 10.0984 -20.3754 -5.0660
# 2 42.3872 93.5611 21.6295 -3.8734 -2.6638 2.1659
# 3 26.4132 21.6295 92.2693 5.5577 1.0480 -15.0480
# 4 10.0984 -3.8734 5.5577 23.8153 -5.1479 -2.3886
# 5 -20.3754 -2.6638 1.0480 -5.1479 38.7149 4.0634
# 6 -5.0660 2.1659 -15.0480 -2.3886 4.0634 36.6541
#
#
#
# Elastic Compliance Matrix: (Units=1/GPa)
#
#
# Indices 1 2 3 4 5 6 
#
# 1 0.013121 -0.005459 -0.002223 -0.004621 0.005948 0.000263
# 2 -0.005459 0.013910 -0.002313 0.004687 -0.001009 -0.002109
# 3 -0.002223 -0.002313 0.013063 -0.002505 -0.002574 0.005314
# 4 -0.004621 0.004687 -0.002505 0.046232 0.004041 0.000621
# 5 0.005948 -0.001009 -0.002574 0.004041 0.029836 -0.003219
# 6 0.000263 -0.002109 0.005314 0.000621 -0.003219 0.030022
#
#
# Mechanical properties :
#
#
# Convention : Reuss Voigt Hill
#
# Bulk Modulus (GPa) = 49.73734 53.10069 51.41902
# Shear Modulus (GPa) = 28.92269 33.61131 31.26700
#
# Velocity S-wave (km/s) = 3.70799 3.99726 3.85534
# Velocity P-wave (km/s) = 6.47891 6.82253 6.65294
#
# Compressibility (1/GPa) = 0.02010562
#
# Stress axis : x y z
#
# Youngs Moduli (GPa) = 76.21320 71.89052 76.55080
#
# Poissons Ratio (x) = 0.39242 0.17016
# Poissons Ratio (y) = 0.41602 0.17706
# Poissons Ratio (z) = 0.16941 0.16628
#
# Static dielectric constant tensor:
#      x y z
#    x 1.836520 -0.067930 0.031310 
#    y -0.067930 1.805660 -0.085060 
#    z 0.031310 -0.085060 1.859650 
# 
# From -- ./inp_files/317985.got.cif
#   From: 2010.05.17/outbox.cif.g08.bks.cpg/sg2_159_cif.got.tgz:317985.got - 2010.06.03 11:33:40.
