data_PCOD9105253
_publ_section_title
;
Structure prediction by ZEFSAII (Michael W. Deem and Ramdas Pophale) SiO2 
 PCOD9105253
Probable space group: P -1
;
_chemical_formula_sum "Si O2"
_cell_formula_units_Z 14
_cell_length_a 11.064030
_cell_length_b 9.007420
_cell_length_c 10.321504
_cell_angle_alpha 102.478594
_cell_angle_beta 89.569661
_cell_angle_gamma 36.172441
_cell_volume 562.453150
_symmetry_space_group_name_H-M "P -1"
_symmetry_group_IT_number 2
_symmetry_cell_setting 'triclinic'
loop_
_space_group_symop_operation_xyz
x,y,z
-x,-y,-z
loop_
_atom_site_type_symbol
_atom_site_label
_atom_site_fract_x
_atom_site_fract_y
_atom_site_fract_z
Si Si1 0.899149 0.564467 0.703755
Si Si2 0.963243 0.307499 0.408663
Si Si3 0.464564 0.122017 0.888634
Si Si4 0.559038 0.599148 0.582835
Si Si5 0.831063 0.824519 0.163708
Si Si6 0.302904 0.826338 0.995558
Si Si7 0.714988 0.288409 0.767637
O O1 0.999125 0.368809 0.548236
O O2 0.948474 0.422613 0.807156
O O3 0.003099 0.623226 0.703806
O O4 0.648166 0.862118 0.743869
O O5 0.717377 0.510661 0.461131
O O6 0.144752 0.989805 0.349954
O O7 0.245380 0.270256 0.874334
O O8 0.537489 0.217926 0.939057
O O9 0.500000 0.000000 0.000000
O O10 0.500000 0.500000 0.500000
O O11 0.707839 0.421428 0.678116
O O12 0.346782 0.909221 0.690971
O O13 0.832702 0.925345 0.053475
O O14 0.197961 0.826713 0.105519
O O15 0.459137 0.561860 0.854132
#
# Coordination Sequence:
#
# PCOD9105253 Si02
#       7
#     2   2   2   2   2   2   2
#     4  11  23  41  68  96 130 161 211 268 314 381
#     4  11  23  41  63  96 128 167 209 262 324 368
#     4  10  20  40  64  94 127 166 208 260 322 365
#     4  11  23  40  63  94 127 170 213 257 317 379
#     4  10  22  40  66  96 123 163 218 260 317 376
#     4   9  20  38  64  89 125 168 208 258 316 371
#     4  10  20  39  64  86 127 169 206 258 312 372
#
# _framework density 24.890964
#
# number of rings (size 3 to 8) (size 9 to 14) (size 15 to 20)
#    0.000    1.714    2.857    1.286    0.000    4.000 
#    0.000    0.000    0.000    4.286    0.000    0.000 
#    0.000    0.000    0.000    0.000    0.000    0.000 
#
# Total GULP energy -77972.290740 kJ/mol
# GULP energy per Si atom -5569.449339 kJ/mol
# Density = 2.483431 g / cm^3
# Si number density = 24.890964 Si / 1000 Ang^3
#
#
#
# Elastic Constant Matrix: (Units=GPa)
#
#
# Indices 1 2 3 4 5 6 
#
# 1 68.6358 7.2279 0.2535 -5.8735 7.0712 -6.8759
# 2 7.2279 93.8763 12.3101 -7.2064 -2.3298 7.0778
# 3 0.2535 12.3101 92.3885 20.0530 -7.3834 2.4481
# 4 -5.8735 -7.2064 20.0530 53.5989 10.1847 5.5683
# 5 7.0712 -2.3298 -7.3834 10.1847 26.1240 -5.6293
# 6 -6.8759 7.0778 2.4481 5.5683 -5.6293 13.7530
#
#
#
# Elastic Compliance Matrix: (Units=1/GPa)
#
#
# Indices 1 2 3 4 5 6 
#
# 1 0.015967 -0.001578 -0.000739 0.001898 -0.004007 0.006517
# 2 -0.001578 0.012001 -0.002382 0.003779 -0.002620 -0.009143
# 3 -0.000739 -0.002382 0.013194 -0.007232 0.007508 0.004509
# 4 0.001898 0.003779 -0.007232 0.027024 -0.016507 -0.017407
# 5 -0.004007 -0.002620 0.007508 -0.016507 0.053409 0.026553
# 6 0.006517 -0.009143 0.004509 -0.017407 0.026553 0.097788
#
#
# Mechanical properties :
#
#
# Convention : Reuss Voigt Hill
#
# Bulk Modulus (GPa) = 31.48174 32.72042 32.10108
# Shear Modulus (GPa) = 20.88841 34.36913 27.62877
#
# Velocity S-wave (km/s) = 2.90003 3.71993 3.33527
# Velocity P-wave (km/s) = 4.88763 5.62357 5.26846
#
# Compressibility (1/GPa) = 0.03176444
#
# Stress axis : x y z
#
# Youngs Moduli (GPa) = 62.63045 83.32912 75.79449
#
# Poissons Ratio (x) = 0.13146 0.05598
# Poissons Ratio (y) = 0.09881 0.18055
# Poissons Ratio (z) = 0.04625 0.19850
#
# Static dielectric constant tensor:
#      x y z
#    x 2.093750 -0.001060 0.032180 
#    y -0.001060 1.959510 -0.021640 
#    z 0.032180 -0.021640 1.984160 
# 
# From -- ./inp_files/417563.got.cif
#   From: 2010.05.17/outbox.cif.g08.bks.cpg/sg2_209_cif.got.tgz:417563.got - 2010.06.03 11:33:40.
