data_PCOD9105313
_publ_section_title
;
Structure prediction by ZEFSAII (Michael W. Deem and Ramdas Pophale) SiO2 
 PCOD9105313
Probable space group: P -1
;
_chemical_formula_sum "Si O2"
_cell_formula_units_Z 12
_cell_length_a 9.074564
_cell_length_b 11.796624
_cell_length_c 8.380921
_cell_angle_alpha 37.270928
_cell_angle_beta 112.445075
_cell_angle_gamma 101.815645
_cell_volume 494.227048
_symmetry_space_group_name_H-M "P -1"
_symmetry_group_IT_number 2
_symmetry_cell_setting 'triclinic'
loop_
_space_group_symop_operation_xyz
x,y,z
-x,-y,-z
loop_
_atom_site_type_symbol
_atom_site_label
_atom_site_fract_x
_atom_site_fract_y
_atom_site_fract_z
Si Si1 0.508304 0.548653 0.764210
Si Si2 0.605789 0.899714 0.506512
Si Si3 0.788379 0.613348 0.153055
Si Si4 0.128461 0.936977 0.764318
Si Si5 0.149294 0.530110 0.142077
Si Si6 0.068391 0.249047 0.643247
O O1 0.497333 0.776106 0.497383
O O2 0.363897 0.453010 0.745872
O O3 0.686034 0.451321 0.896942
O O4 0.500000 0.500000 0.000000
O O5 0.703823 0.018925 0.296388
O O6 0.500000 0.000000 0.500000
O O7 0.735068 0.739284 0.833043
O O8 0.865525 0.744432 0.160090
O O9 0.906255 0.412645 0.388508
O O10 0.070887 0.053610 0.770632
O O11 0.000000 0.000000 0.500000
O O12 0.119467 0.716614 0.029201
O O13 0.186532 0.344190 0.472041
O O14 0.000000 0.500000 0.000000
#
# Coordination Sequence:
#
# PCOD9105313 Si02
#       6
#     2   2   2   2   2   2
#     4  10  20  39  64  89 130 173 215 270 324 384
#     4  11  23  41  65 101 127 172 228 271 325 401
#     4  10  24  45  66  94 143 174 216 279 338 386
#     4  12  23  38  70  97 127 174 225 272 324 399
#     4  12  22  42  67  96 130 173 227 271 325 393
#     4  11  24  45  66 100 135 175 222 274 334 395
#
# _framework density 24.280339000000001
#
# number of rings (size 3 to 8) (size 9 to 14) (size 15 to 20)
#    0.000    1.000    3.333    5.000    2.333    0.667 
#    3.000    4.167    0.000    0.000    0.000    0.000 
#    0.000    0.000    0.000    0.000    0.000    0.000 
#
# Total GULP energy -66998.195433 kJ/mol
# GULP energy per Si atom -5583.182953 kJ/mol
# Density = 2.422508 g / cm^3
# Si number density = 24.280339 Si / 1000 Ang^3
#
#
#
# Elastic Constant Matrix: (Units=GPa)
#
#
# Indices 1 2 3 4 5 6 
#
# 1 147.7779 54.5359 -1.1718 -9.8257 -6.1320 -4.0838
# 2 54.5359 190.0893 28.6424 -38.8095 11.0102 -9.3845
# 3 -1.1718 28.6424 22.6564 -16.0390 -4.7063 10.6111
# 4 -9.8257 -38.8095 -16.0390 45.1043 -0.0913 -2.2052
# 5 -6.1320 11.0102 -4.7063 -0.0913 31.6022 -14.9767
# 6 -4.0838 -9.3845 10.6111 -2.2052 -14.9767 35.6974
#
#
#
# Elastic Compliance Matrix: (Units=1/GPa)
#
#
# Indices 1 2 3 4 5 6 
#
# 1 0.008252 -0.003285 0.006268 0.001197 0.003586 -0.000205
# 2 -0.003285 0.009086 -0.012394 0.002902 -0.003564 0.004381
# 3 0.006268 -0.012394 0.087657 0.020696 0.007117 -0.024333
# 4 0.001197 0.002902 0.020696 0.032152 0.001059 -0.002822
# 5 0.003586 -0.003564 0.007117 0.001059 0.041717 0.014925
# 6 -0.000205 0.004381 -0.024333 -0.002822 0.014925 0.042462
#
#
# Mechanical properties :
#
#
# Convention : Reuss Voigt Hill
#
# Bulk Modulus (GPa) = 11.60479 58.28187 34.94333
# Shear Modulus (GPa) = 18.59613 41.04858 29.82236
#
# Velocity S-wave (km/s) = 2.77048 4.11616 3.50844
# Velocity P-wave (km/s) = 3.87607 6.82981 5.55294
#
# Compressibility (1/GPa) = 0.08617134
#
# Stress axis : x y z
#
# Youngs Moduli (GPa) = 121.18676 110.05991 11.40811
#
# Poissons Ratio (x) = 0.36158 -0.07151
# Poissons Ratio (y) = 0.39813 0.14140
# Poissons Ratio (z) = -0.75960 1.36413
#
# Static dielectric constant tensor:
#      x y z
#    x 2.067840 0.020610 0.048150 
#    y 0.020610 2.040470 -0.036730 
#    z 0.048150 -0.036730 1.963460 
# 
# From -- ./inp_files/173842.got.cif
#   From: 2010.05.17/outbox.cif.g08.bks.cpg/sg2_87_cif.got.tgz:173842.got - 2010.06.03 11:33:40.
