data_PCOD9105761
_publ_section_title
;
Structure prediction by ZEFSAII (Michael W. Deem and Ramdas Pophale) SiO2 
 PCOD9105761
Probable space group: P -1
;
_chemical_formula_sum "Si O2"
_cell_formula_units_Z 16
_cell_length_a 13.866836
_cell_length_b 6.312949
_cell_length_c 14.636903
_cell_angle_alpha 56.933252
_cell_angle_beta 37.156425
_cell_angle_gamma 62.134862
_cell_volume 647.222927
_symmetry_space_group_name_H-M "P -1"
_symmetry_group_IT_number 2
_symmetry_cell_setting 'triclinic'
loop_
_space_group_symop_operation_xyz
x,y,z
-x,-y,-z
loop_
_atom_site_type_symbol
_atom_site_label
_atom_site_fract_x
_atom_site_fract_y
_atom_site_fract_z
Si Si1 0.186042 0.939976 0.634932
Si Si2 0.488182 0.647666 0.840757
Si Si3 0.462698 0.033998 0.625183
Si Si4 0.733878 0.961172 0.998290
Si Si5 0.214397 0.265775 0.171381
Si Si6 0.821274 0.618587 0.164322
Si Si7 0.145843 0.291474 0.424379
Si Si8 0.996668 0.262938 0.837516
O O1 0.369230 0.894898 0.477961
O O2 0.144983 0.676550 0.772275
O O3 0.109348 0.062441 0.573255
O O4 0.149861 0.154116 0.689354
O O5 0.679912 0.600891 0.707268
O O6 0.431486 0.764179 0.757976
O O7 0.377221 0.423366 0.006212
O O8 0.434704 0.889649 0.888583
O O9 0.331072 0.250902 0.698682
O O10 0.500000 0.000000 0.500000
O O11 0.760060 0.946786 0.874861
O O12 0.858907 0.110553 0.929128
O O13 0.771580 0.688240 0.081735
O O14 0.172737 0.202008 0.321133
O O15 0.065657 0.453102 0.206512
O O16 0.964870 0.742819 0.082385
O O17 0.000000 0.500000 0.500000
#
# Coordination Sequence:
#
# PCOD9105761 Si02
#       8
#     2   2   2   2   2   2   2   2
#     4  11  23  40  65 100 136 175 232 275 350 413
#     4   9  23  43  70 101 135 179 231 282 341 412
#     4  10  20  39  65  98 141 180 219 281 348 411
#     4  10  24  42  68 103 136 178 231 276 346 418
#     4  11  23  44  73  97 137 185 236 280 340 409
#     4  11  23  40  67 100 140 180 223 286 345 417
#     4  11  23  47  74 101 140 182 230 296 344 396
#     4  11  22  41  64  97 139 176 223 282 344 409
#
# _framework density 24.721001000000001
#
# number of rings (size 3 to 8) (size 9 to 14) (size 15 to 20)
#    0.000    1.500    2.500    1.875    1.750    3.500 
#    0.000    5.000    0.000    0.000    0.000    0.000 
#    0.000    0.000    0.000    0.000    0.000    0.000 
#
# Total GULP energy -89353.477508 kJ/mol
# GULP energy per Si atom -5584.592344 kJ/mol
# Density = 2.466473 g / cm^3
# Si number density = 24.721001 Si / 1000 Ang^3
#
#
#
# Elastic Constant Matrix: (Units=GPa)
#
#
# Indices 1 2 3 4 5 6 
#
# 1 89.0457 45.5876 41.4536 15.4094 15.7841 -9.6221
# 2 45.5876 85.4444 41.5393 17.0682 -10.3055 -22.3720
# 3 41.4536 41.5393 108.8725 26.3058 10.5115 -1.0080
# 4 15.4094 17.0682 26.3058 48.3849 -5.5227 -4.1077
# 5 15.7841 -10.3055 10.5115 -5.5227 60.5546 10.2321
# 6 -9.6221 -22.3720 -1.0080 -4.1077 10.2321 31.7120
#
#
#
# Elastic Compliance Matrix: (Units=1/GPa)
#
#
# Indices 1 2 3 4 5 6 
#
# 1 0.018428 -0.008576 -0.002651 -0.002007 -0.006187 0.001193
# 2 -0.008576 0.022810 -0.005658 -0.000676 0.005081 0.011583
# 3 -0.002651 -0.005658 0.013835 -0.005322 -0.002439 -0.004258
# 4 -0.002007 -0.000676 -0.005322 0.024906 0.003459 0.000855
# 5 -0.006187 0.005081 -0.002439 0.003459 0.020497 -0.004536
# 6 0.001193 0.011583 -0.004258 0.000855 -0.004536 0.041507
#
#
# Mechanical properties :
#
#
# Convention : Reuss Voigt Hill
#
# Bulk Modulus (GPa) = 46.93971 60.05816 53.49894
# Shear Modulus (GPa) = 27.34437 38.44912 32.89674
#
# Velocity S-wave (km/s) = 3.32944 3.94804 3.65186
# Velocity P-wave (km/s) = 5.81457 6.71787 6.28248
#
# Compressibility (1/GPa) = 0.02130392
#
# Stress axis : x y z
#
# Youngs Moduli (GPa) = 54.26537 43.83999 72.28093
#
# Poissons Ratio (x) = 0.37597 0.19162
# Poissons Ratio (y) = 0.46538 0.40894
# Poissons Ratio (z) = 0.14386 0.24803
#
# Static dielectric constant tensor:
#      x y z
#    x 2.074580 -0.009850 -0.066520 
#    y -0.009850 1.978620 -0.071710 
#    z -0.066520 -0.071710 2.042160 
# 
# From -- ./inp_files/525534.got.cif
#   From: 2010.05.17/outbox.cif.g08.bks.cpg/sg2_263_cif.got.tgz:525534.got - 2010.06.03 11:33:40.
