data_PCOD9105964
_publ_section_title
;
Structure prediction by ZEFSAII (Michael W. Deem and Ramdas Pophale) SiO2 
 PCOD9105964
Probable space group: P -1
;
_chemical_formula_sum "Si O2"
_cell_formula_units_Z 14
_cell_length_a 5.719279
_cell_length_b 8.800296
_cell_length_c 13.659399
_cell_angle_alpha 84.312466
_cell_angle_beta 65.492825
_cell_angle_gamma 110.426817
_cell_volume 561.735234
_symmetry_space_group_name_H-M "P -1"
_symmetry_group_IT_number 2
_symmetry_cell_setting 'triclinic'
loop_
_space_group_symop_operation_xyz
x,y,z
-x,-y,-z
loop_
_atom_site_type_symbol
_atom_site_label
_atom_site_fract_x
_atom_site_fract_y
_atom_site_fract_z
Si Si1 0.323875 0.796000 0.058870
Si Si2 0.425973 0.521852 0.669277
Si Si3 0.428598 0.294507 0.156937
Si Si4 0.467349 0.007685 0.279459
Si Si5 0.028597 0.189460 0.500747
Si Si6 0.896826 0.298874 0.308139
Si Si7 0.692820 0.781294 0.180587
O O1 0.478723 0.749380 0.127207
O O2 0.996908 0.774139 0.115296
O O3 0.368006 0.686774 0.969588
O O4 0.500000 0.000000 0.000000
O O5 0.452725 0.592216 0.773455
O O6 0.136984 0.529220 0.687428
O O7 0.436046 0.346732 0.697305
O O8 0.662909 0.655978 0.548458
O O9 0.141612 0.315121 0.188320
O O10 0.352995 0.103502 0.217757
O O11 0.201079 0.842828 0.373583
O O12 0.712727 0.961877 0.198725
O O13 0.611281 0.143196 0.331119
O O14 0.952921 0.245305 0.407266
O O15 0.000000 0.000000 0.500000
#
# Coordination Sequence:
#
# PCOD9105964 Si02
#       7
#     2   2   2   2   2   2   2
#     4  12  26  47  72  99 133 180 231 276 332 403
#     4  10  25  42  63 100 139 171 218 281 338 401
#     4  10  22  40  70  95 130 170 233 274 329 397
#     4  11  22  39  67  98 128 178 221 278 331 397
#     4  11  20  39  68 100 128 172 229 273 329 399
#     4  10  20  39  66  96 131 168 227 274 329 397
#     4  12  29  45  68 101 142 175 221 282 342 391
#
# _framework density 24.922774
#
# number of rings (size 3 to 8) (size 9 to 14) (size 15 to 20)
#    0.000    1.143    5.714    1.714    8.000    1.714 
#    0.000    0.714    0.000    0.000    0.000    0.000 
#    0.000    0.000    0.000    0.000    0.000    0.000 
#
# Total GULP energy -78099.116120 kJ/mol
# GULP energy per Si atom -5578.508294 kJ/mol
# Density = 2.486605 g / cm^3
# Si number density = 24.922774 Si / 1000 Ang^3
#
#
#
# Elastic Constant Matrix: (Units=GPa)
#
#
# Indices 1 2 3 4 5 6 
#
# 1 116.3096 26.0613 35.7204 -13.2629 -18.5712 -35.6873
# 2 26.0613 60.1405 6.1379 -16.9535 -5.1052 -25.3568
# 3 35.7204 6.1379 51.9889 -10.9533 -13.0663 -11.7824
# 4 -13.2629 -16.9535 -10.9533 31.0598 -3.2814 3.3231
# 5 -18.5712 -5.1052 -13.0663 -3.2814 40.6511 -0.3065
# 6 -35.6873 -25.3568 -11.7824 3.3231 -0.3065 47.3521
#
#
#
# Elastic Compliance Matrix: (Units=1/GPa)
#
#
# Indices 1 2 3 4 5 6 
#
# 1 0.014442 -0.000508 -0.005867 0.003390 0.004989 0.008947
# 2 -0.000508 0.027408 0.005305 0.015722 0.006294 0.014552
# 3 -0.005867 0.005305 0.027892 0.010555 0.007838 0.004670
# 4 0.003390 0.015722 0.010555 0.045961 0.010705 0.010445
# 5 0.004989 0.006294 0.007838 0.010705 0.031117 0.008531
# 6 0.008947 0.014552 0.004670 0.010445 0.008531 0.036138
#
#
# Mechanical properties :
#
#
# Convention : Reuss Voigt Hill
#
# Bulk Modulus (GPa) = 14.79228 40.47535 27.63381
# Shear Modulus (GPa) = 24.08128 34.51390 29.29759
#
# Velocity S-wave (km/s) = 3.11181 3.72537 3.43233
# Velocity P-wave (km/s) = 4.34272 5.89747 5.17877
#
# Compressibility (1/GPa) = 0.06760283
#
# Stress axis : x y z
#
# Youngs Moduli (GPa) = 69.24408 36.48555 35.85321
#
# Poissons Ratio (x) = 0.01853 0.21034
# Poissons Ratio (y) = 0.03517 -0.19022
# Poissons Ratio (z) = 0.40623 -0.19357
#
# Static dielectric constant tensor:
#      x y z
#    x 2.098350 0.019960 -0.073400 
#    y 0.019960 1.999160 0.004520 
#    z -0.073400 0.004520 2.043160 
# 
# From -- ./inp_files/26748.got.cif
#   From: 2010.05.17/outbox.cif.g08.bks.cpg/sg2_14_cif.got.tgz:26748.got - 2010.06.03 11:33:40.
