data_PCOD9105944
_publ_section_title
;
Structure prediction by ZEFSAII (Michael W. Deem and Ramdas Pophale) SiO2 
 PCOD9105944
Probable space group: P -1
;
_chemical_formula_sum "Si O2"
_cell_formula_units_Z 14
_cell_length_a 15.167628
_cell_length_b 9.542966
_cell_length_c 14.941688
_cell_angle_alpha 150.500576
_cell_angle_beta 43.019850
_cell_angle_gamma 137.781644
_cell_volume 690.698263
_symmetry_space_group_name_H-M "P -1"
_symmetry_group_IT_number 2
_symmetry_cell_setting 'triclinic'
loop_
_space_group_symop_operation_xyz
x,y,z
-x,-y,-z
loop_
_atom_site_type_symbol
_atom_site_label
_atom_site_fract_x
_atom_site_fract_y
_atom_site_fract_z
Si Si1 0.860432 0.657913 0.573402
Si Si2 0.088240 0.965036 0.830977
Si Si3 0.355887 0.617089 0.760148
Si Si4 0.061253 0.229261 0.811715
Si Si5 0.386874 0.549594 0.487003
Si Si6 0.650280 0.728812 0.904919
Si Si7 0.619351 0.802447 0.180208
O O1 0.916219 0.377536 0.368611
O O2 0.751262 0.633396 0.561743
O O3 0.770996 0.635995 0.717821
O O4 0.982092 0.966116 0.657237
O O5 0.037963 0.089435 0.849679
O O6 0.245896 0.146353 0.833531
O O7 0.000000 0.000000 0.000000
O O8 0.221109 0.368026 0.754372
O O9 0.365493 0.563111 0.616705
O O10 0.488822 0.581652 0.689520
O O11 0.345470 0.950800 0.960857
O O12 0.000000 0.500000 0.000000
O O13 0.420675 0.891208 0.617374
O O14 0.506942 0.476932 0.853219
O O15 0.658116 0.759591 0.023981
#
# Coordination Sequence:
#
# PCOD9105944 Si02
#       7
#     2   2   2   2   2   2   2
#     4  11  24  42  68  93 128 173 221 271 320 387
#     4  11  26  46  66  93 133 174 222 267 326 390
#     4  10  22  43  63  93 137 164 215 263 332 375
#     4  12  26  43  66  97 131 175 213 273 328 387
#     4   9  22  41  65  93 126 173 211 276 308 389
#     4  10  20  39  66  95 130 164 218 266 323 378
#     4   9  21  40  67  91 126 173 217 267 319 380
#
# _framework density 20.269344
#
# number of rings (size 3 to 8) (size 9 to 14) (size 15 to 20)
#    0.000    1.714    1.429    1.286    8.000    3.429 
#    7.714    0.000    0.000    0.000    0.000    0.000 
#    0.000    0.000    0.000    0.000    0.000    0.000 
#
# Total GULP energy -78282.288272 kJ/mol
# GULP energy per Si atom -5591.592019 kJ/mol
# Density = 2.022321 g / cm^3
# Si number density = 20.269344 Si / 1000 Ang^3
#
#
#
# Elastic Constant Matrix: (Units=GPa)
#
#
# Indices 1 2 3 4 5 6 
#
# 1 123.2073 39.9884 46.2626 28.0349 -10.9848 -0.3409
# 2 39.9884 97.9533 51.3877 15.5322 -1.4694 16.7545
# 3 46.2626 51.3877 137.2358 9.3600 -11.3489 5.7695
# 4 28.0349 15.5322 9.3600 25.3419 11.3652 8.3595
# 5 -10.9848 -1.4694 -11.3489 11.3652 22.9217 1.6423
# 6 -0.3409 16.7545 5.7695 8.3595 1.6423 10.6358
#
#
#
# Elastic Compliance Matrix: (Units=1/GPa)
#
#
# Indices 1 2 3 4 5 6 
#
# 1 0.034513 -0.014086 -0.000454 -0.075636 0.047493 0.075657
# 2 -0.014086 0.022946 -0.005128 0.029674 -0.018644 -0.054260
# 3 -0.000454 -0.005128 0.009972 -0.004613 0.006298 0.005307
# 4 -0.075636 0.029674 -0.004613 0.240092 -0.140361 -0.213700
# 5 0.047493 -0.018644 0.006298 -0.140361 0.129465 0.117806
# 6 0.075657 -0.054260 0.005307 -0.213700 0.117806 0.328817
#
#
# Mechanical properties :
#
#
# Convention : Reuss Voigt Hill
#
# Bulk Modulus (GPa) = 35.59498 70.40821 53.00160
# Shear Modulus (GPa) = 6.13869 26.49703 16.31786
#
# Velocity S-wave (km/s) = 1.74216 3.61951 2.84042
# Velocity P-wave (km/s) = 4.65252 7.23046 6.07970
#
# Compressibility (1/GPa) = 0.02809385
#
# Stress axis : x y z
#
# Youngs Moduli (GPa) = 28.97469 43.58121 100.27699
#
# Poissons Ratio (x) = 0.61389 0.04557
# Poissons Ratio (y) = 0.40814 0.51422
# Poissons Ratio (z) = 0.01317 0.22348
#
# Static dielectric constant tensor:
#      x y z
#    x 1.723930 0.005320 0.021400 
#    y 0.005320 1.694650 -0.011800 
#    z 0.021400 -0.011800 1.706320 
# 
# From -- ./inp_files/175918.got.cif
#   From: 2010.05.17/outbox.cif.g08.bks.cpg/sg2_88_cif.got.tgz:175918.got - 2010.06.03 11:33:40.
