data_PCOD9105482
_publ_section_title
;
Structure prediction by ZEFSAII (Michael W. Deem and Ramdas Pophale) SiO2 
 PCOD9105482
Probable space group: P -1
;
_chemical_formula_sum "Si O2"
_cell_formula_units_Z 16
_cell_length_a 10.573926
_cell_length_b 14.026577
_cell_length_c 5.227040
_cell_angle_alpha 124.046060
_cell_angle_beta 89.826996
_cell_angle_gamma 103.531051
_cell_volume 616.605245
_symmetry_space_group_name_H-M "P -1"
_symmetry_group_IT_number 2
_symmetry_cell_setting 'triclinic'
loop_
_space_group_symop_operation_xyz
x,y,z
-x,-y,-z
loop_
_atom_site_type_symbol
_atom_site_label
_atom_site_fract_x
_atom_site_fract_y
_atom_site_fract_z
Si Si1 0.125350 0.790487 0.810858
Si Si2 0.779164 0.662430 0.971182
Si Si3 0.602406 0.343182 0.826343
Si Si4 0.605206 0.084331 0.319034
Si Si5 0.609762 0.591927 0.387358
Si Si6 0.051959 0.118718 0.418788
Si Si7 0.878646 0.449898 0.742096
Si Si8 0.797285 0.016594 0.532318
O O1 0.259384 0.852974 0.743775
O O2 0.101625 0.650456 0.595648
O O3 0.999125 0.819589 0.725162
O O4 0.161520 0.846689 0.170397
O O5 0.685811 0.664101 0.735758
O O6 0.840181 0.554689 0.754098
O O7 0.697828 0.632117 0.191437
O O8 0.893234 0.779574 0.216793
O O9 0.566203 0.197603 0.621333
O O10 0.521667 0.372377 0.627905
O O11 0.755700 0.386435 0.827417
O O12 0.583182 0.446226 0.181300
O O13 0.654920 0.998360 0.388185
O O14 0.500000 0.000000 0.000000
O O15 0.916453 0.017026 0.338954
O O16 0.172776 0.058194 0.337991
O O17 0.000000 0.500000 0.000000
#
# Coordination Sequence:
#
# PCOD9105482 Si02
#       8
#     2   2   2   2   2   2   2   2
#     4  10  21  41  63  90 128 168 214 274 332 395
#     4  11  24  41  70 100 132 175 220 271 330 398
#     4   9  22  42  63  93 131 173 216 278 322 395
#     4  10  23  41  61  91 129 167 222 269 328 393
#     4  10  24  44  67  98 131 175 220 272 329 391
#     4  10  22  40  61  93 129 164 225 270 328 392
#     4  10  20  39  64  97 132 168 214 267 338 397
#     4  10  23  39  62  90 124 177 211 278 330 387
#
# _framework density 25.948533000000001
#
# number of rings (size 3 to 8) (size 9 to 14) (size 15 to 20)
#    0.000    2.000    1.250    0.375    5.250    6.000 
#    2.250    3.125    0.000    0.000    0.000    0.000 
#    0.000    0.000    0.000    0.000    0.000    0.000 
#
# Total GULP energy -89415.616254 kJ/mol
# GULP energy per Si atom -5588.476016 kJ/mol
# Density = 2.588947 g / cm^3
# Si number density = 25.948533 Si / 1000 Ang^3
#
#
#
# Elastic Constant Matrix: (Units=GPa)
#
#
# Indices 1 2 3 4 5 6 
#
# 1 113.5655 58.3634 46.9866 -0.8431 35.2586 -20.4581
# 2 58.3634 79.4490 47.4978 11.9435 9.4560 -16.1186
# 3 46.9866 47.4978 144.5315 3.6906 42.5278 -23.0378
# 4 -0.8431 11.9435 3.6906 47.8088 -10.9301 -2.5277
# 5 35.2586 9.4560 42.5278 -10.9301 47.3377 -6.8911
# 6 -20.4581 -16.1186 -23.0378 -2.5277 -6.8911 52.7576
#
#
#
# Elastic Compliance Matrix: (Units=1/GPa)
#
#
# Indices 1 2 3 4 5 6 
#
# 1 0.019573 -0.013863 0.002622 0.000638 -0.013617 0.002751
# 2 -0.013863 0.026494 -0.007104 -0.003836 0.010650 0.000824
# 3 0.002622 -0.007104 0.012254 -0.001624 -0.011537 0.002612
# 4 0.000638 -0.003836 -0.001624 0.023702 0.007289 0.000454
# 5 -0.013617 0.010650 -0.011537 0.007289 0.040990 -0.001361
# 6 0.002751 0.000824 0.002612 0.000454 -0.001361 0.021258
#
#
# Mechanical properties :
#
#
# Convention : Reuss Voigt Hill
#
# Bulk Modulus (GPa) = 46.23271 71.47129 58.85200
# Shear Modulus (GPa) = 26.57135 41.89402 34.23269
#
# Velocity S-wave (km/s) = 3.20348 4.02245 3.63609
# Velocity P-wave (km/s) = 5.61594 7.01261 6.35277
#
# Compressibility (1/GPa) = 0.02162971
#
# Stress axis : x y z
#
# Youngs Moduli (GPa) = 51.09006 37.74419 81.60571
#
# Poissons Ratio (x) = 0.52325 -0.21394
# Poissons Ratio (y) = 0.70826 0.57977
# Poissons Ratio (z) = -0.13394 0.26815
#
# Static dielectric constant tensor:
#      x y z
#    x 2.141400 0.055550 -0.097030 
#    y 0.055550 2.106730 0.026600 
#    z -0.097030 0.026600 2.042030 
# 
# From -- ./inp_files/78821.got.cif
#   From: 2010.05.17/outbox.cif.g08.bks.cpg/sg2_40_cif.got.tgz:78821.got - 2010.06.03 11:33:40.
