data_PCOD9105341
_publ_section_title
;
Structure prediction by ZEFSAII (Michael W. Deem and Ramdas Pophale) SiO2 
 PCOD9105341
Probable space group: P -1
;
_chemical_formula_sum "Si O2"
_cell_formula_units_Z 16
_cell_length_a 7.249840
_cell_length_b 18.814288
_cell_length_c 8.591549
_cell_angle_alpha 35.566585
_cell_angle_beta 91.277027
_cell_angle_gamma 95.652966
_cell_volume 674.919526
_symmetry_space_group_name_H-M "P -1"
_symmetry_group_IT_number 2
_symmetry_cell_setting 'triclinic'
loop_
_space_group_symop_operation_xyz
x,y,z
-x,-y,-z
loop_
_atom_site_type_symbol
_atom_site_label
_atom_site_fract_x
_atom_site_fract_y
_atom_site_fract_z
Si Si1 0.585409 0.906720 0.284808
Si Si2 0.013284 0.669717 0.390813
Si Si3 0.379482 0.658959 0.283193
Si Si4 0.154931 0.618655 0.807654
Si Si5 0.782357 0.148207 0.439966
Si Si6 0.352419 0.921514 0.751238
Si Si7 0.868171 0.910987 0.041276
Si Si8 0.626422 0.493651 0.745788
O O1 0.415446 0.834991 0.507995
O O2 0.715072 0.844018 0.281242
O O3 0.700672 0.989841 0.272357
O O4 0.500000 0.000000 0.000000
O O5 0.156045 0.633991 0.330832
O O6 0.147687 0.676022 0.534656
O O7 0.954337 0.805341 0.140803
O O8 0.826560 0.573674 0.567935
O O9 0.475791 0.585118 0.548044
O O10 0.429234 0.611747 0.197848
O O11 0.434348 0.806077 0.034789
O O12 0.094662 0.726945 0.723299
O O13 0.332594 0.567739 0.979596
O O14 0.000000 0.500000 0.000000
O O15 0.791799 0.139350 0.270870
O O16 0.807726 0.013102 0.742520
O O17 0.500000 0.000000 0.500000
O O18 0.000000 0.000000 0.000000
#
# Coordination Sequence:
#
# PCOD9105341 Si02
#       8
#     2   2   2   2   2   2   2   2
#     4   9  21  36  62  94 123 164 211 261 327 390
#     4  11  24  40  69  95 132 167 222 269 325 394
#     4  11  23  43  69  94 128 173 217 270 331 389
#     4  10  21  42  64  93 129 173 215 278 316 377
#     4  10  20  39  64  90 135 165 216 275 325 389
#     4  10  21  38  65  95 131 166 210 274 327 386
#     4  11  21  38  61  95 127 167 209 263 333 392
#     4  10  24  43  68  91 128 173 223 267 328 385
#
# _framework density 23.706530999999998
#
# number of rings (size 3 to 8) (size 9 to 14) (size 15 to 20)
#    0.000    1.750    2.500    1.125    7.000    0.500 
#    0.000    6.250    0.000    0.000    0.000    0.000 
#    0.000    0.000    0.000    0.000    0.000    0.000 
#
# Total GULP energy -89228.628957 kJ/mol
# GULP energy per Si atom -5576.789310 kJ/mol
# Density = 2.365257 g / cm^3
# Si number density = 23.706531 Si / 1000 Ang^3
#
#
#
# Elastic Constant Matrix: (Units=GPa)
#
#
# Indices 1 2 3 4 5 6 
#
# 1 68.8124 14.2835 29.5177 -4.7942 10.1956 -11.5156
# 2 14.2835 105.1141 31.4800 0.8669 10.7802 6.9024
# 3 29.5177 31.4800 115.0767 -14.4226 21.8786 -5.2754
# 4 -4.7942 0.8669 -14.4226 38.2953 5.1010 2.1241
# 5 10.1956 10.7802 21.8786 5.1010 30.9991 -4.4682
# 6 -11.5156 6.9024 -5.2754 2.1241 -4.4682 32.8552
#
#
#
# Elastic Compliance Matrix: (Units=1/GPa)
#
#
# Indices 1 2 3 4 5 6 
#
# 1 0.017605 -0.001552 -0.003272 0.001003 -0.002300 0.005593
# 2 -0.001552 0.010898 -0.002508 -0.000950 -0.001847 -0.003426
# 3 -0.003272 -0.002508 0.012330 0.005309 -0.007631 -0.000021
# 4 0.001003 -0.000950 0.005309 0.029533 -0.008853 -0.001710
# 5 -0.002300 -0.001847 -0.007631 -0.008853 0.041152 0.004525
# 6 0.005593 -0.003426 -0.000021 -0.001710 0.004525 0.033839
#
#
# Mechanical properties :
#
#
# Convention : Reuss Voigt Hill
#
# Bulk Modulus (GPa) = 38.21292 48.84062 43.52677
# Shear Modulus (GPa) = 29.63068 34.67805 32.15437
#
# Velocity S-wave (km/s) = 3.53922 3.82881 3.68686
# Velocity P-wave (km/s) = 5.73198 6.33982 6.04355
#
# Compressibility (1/GPa) = 0.02616916
#
# Stress axis : x y z
#
# Youngs Moduli (GPa) = 56.80345 91.76279 81.10129
#
# Poissons Ratio (x) = 0.14242 0.26533
# Poissons Ratio (y) = 0.08816 0.20340
# Poissons Ratio (z) = 0.18584 0.23014
#
# Static dielectric constant tensor:
#      x y z
#    x 2.026910 0.051800 0.014090 
#    y 0.051800 1.941360 0.046010 
#    z 0.014090 0.046010 2.037560 
# 
# From -- ./inp_files/221555.got.cif
#   From: 2010.05.17/outbox.cif.g08.bks.cpg/sg2_111_cif.got.tgz:221555.got - 2010.06.03 11:33:40.
