data_PCOD9105050
_publ_section_title
;
Structure prediction by ZEFSAII (Michael W. Deem and Ramdas Pophale) SiO2 
 PCOD9105050
Probable space group: P -1
;
_chemical_formula_sum "Si O2"
_cell_formula_units_Z 15
_cell_length_a 13.601044
_cell_length_b 9.251618
_cell_length_c 11.750552
_cell_angle_alpha 75.129928
_cell_angle_beta 148.939331
_cell_angle_gamma 122.894814
_cell_volume 561.412817
_symmetry_space_group_name_H-M "P -1"
_symmetry_group_IT_number 2
_symmetry_cell_setting 'triclinic'
loop_
_space_group_symop_operation_xyz
x,y,z
-x,-y,-z
loop_
_atom_site_type_symbol
_atom_site_label
_atom_site_fract_x
_atom_site_fract_y
_atom_site_fract_z
Si Si1 0.657300 0.895316 0.140279
Si Si2 0.185809 0.695493 0.836373
Si Si3 0.000000 0.500000 0.500000
Si Si4 0.191391 0.173719 0.064225
Si Si5 0.402043 0.980809 0.281847
Si Si6 0.812395 0.645221 0.762729
Si Si7 0.459866 0.707141 0.311429
Si Si8 0.997145 0.153000 0.631520
O O1 0.774208 0.813491 0.213940
O O2 0.742858 0.093209 0.123201
O O3 0.355896 0.732479 0.884958
O O4 0.765965 0.969400 0.361736
O O5 0.925326 0.533595 0.552884
O O6 0.271268 0.632113 0.033931
O O7 0.000202 0.670256 0.415421
O O8 0.052780 0.148933 0.818578
O O9 0.265867 0.345188 0.187265
O O10 0.395816 0.156491 0.230736
O O11 0.000000 0.000000 0.000000
O O12 0.540943 0.923264 0.360569
O O13 0.500000 0.000000 0.500000
O O14 0.106860 0.792058 0.010285
O O15 0.693774 0.710082 0.548437
O O16 0.691828 0.419646 0.698028
#
# Coordination Sequence:
#
# PCOD9105050 Si02
#       8
#     2   2   1   2   2   2   2   2
#     4   9  21  38  63  91 116 160 217 257 316 373
#     4  10  21  39  62  90 117 164 208 267 319 371
#     4  10  22  40  60  88 124 158 210 258 316 374
#     4  10  21  37  62  91 126 165 208 266 316 375
#     4  11  22  38  62  92 128 169 218 257 311 385
#     4  10  23  39  59  93 129 175 207 255 325 387
#     4  11  22  40  63  87 134 169 211 262 319 393
#     4  10  20  39  63  89 125 161 207 265 314 378
#
# _framework density 26.718308
#
# number of rings (size 3 to 8) (size 9 to 14) (size 15 to 20)
#    0.000    1.867    1.333    2.000    3.733    0.533 
#    0.000    4.000    5.867    0.000    0.000    0.000 
#    0.000    0.000    0.000    0.000    0.000    0.000 
#
# Total GULP energy -83518.800576 kJ/mol
# GULP energy per Si atom -5567.920038 kJ/mol
# Density = 2.665750 g / cm^3
# Si number density = 26.718308 Si / 1000 Ang^3
#
#
#
# Elastic Constant Matrix: (Units=GPa)
#
#
# Indices 1 2 3 4 5 6 
#
# 1 73.8082 22.1184 41.6410 -15.4858 -14.2902 -4.3360
# 2 22.1184 101.5397 30.1521 -29.3781 -20.6473 -3.7905
# 3 41.6410 30.1521 169.4018 -53.2652 -37.7606 16.4801
# 4 -15.4858 -29.3781 -53.2652 53.6828 14.0709 -3.1766
# 5 -14.2902 -20.6473 -37.7606 14.0709 63.0403 -6.1436
# 6 -4.3360 -3.7905 16.4801 -3.1766 -6.1436 24.7640
#
#
#
# Elastic Compliance Matrix: (Units=1/GPa)
#
#
# Indices 1 2 3 4 5 6 
#
# 1 0.017062 -0.002105 -0.004219 -0.000418 0.001304 0.005743
# 2 -0.002105 0.012640 0.000652 0.006356 0.002894 0.002666
# 3 -0.004219 0.000652 0.010867 0.008721 0.003240 -0.005948
# 4 -0.000418 0.006356 0.008721 0.030503 0.000314 -0.000914
# 5 0.001304 0.002894 0.003240 0.000314 0.019303 0.003344
# 6 0.005743 0.002666 -0.005948 -0.000914 0.003344 0.046466
#
#
# Mechanical properties :
#
#
# Convention : Reuss Voigt Hill
#
# Bulk Modulus (GPa) = 34.21657 59.17475 46.69566
# Shear Modulus (GPa) = 31.66015 45.01996 38.34005
#
# Velocity S-wave (km/s) = 3.44606 4.10931 3.79221
# Velocity P-wave (km/s) = 5.35425 6.68663 6.05718
#
# Compressibility (1/GPa) = 0.02922561
#
# Stress axis : x y z
#
# Youngs Moduli (GPa) = 58.61064 79.11117 92.01926
#
# Poissons Ratio (x) = 0.16655 0.38821
# Poissons Ratio (y) = 0.12339 -0.06001
# Poissons Ratio (z) = 0.24726 -0.05159
#
# Static dielectric constant tensor:
#      x y z
#    x 2.164240 0.021440 0.078020 
#    y 0.021440 1.996160 -0.346390 
#    z 0.078020 -0.346390 1.240940 
# 
# From -- ./inp_files/447428.got.cif
#   From: 2010.05.17/outbox.cif.g08.bks.cpg/sg2_224_cif.got.tgz:447428.got - 2010.06.03 11:33:40.
