data_PCOD9105793
_publ_section_title
;
Structure prediction by ZEFSAII (Michael W. Deem and Ramdas Pophale) SiO2 
 PCOD9105793
Probable space group: P -1
;
_chemical_formula_sum "Si O2"
_cell_formula_units_Z 14
_cell_length_a 9.700506
_cell_length_b 12.218260
_cell_length_c 8.791352
_cell_angle_alpha 91.632542
_cell_angle_beta 100.507078
_cell_angle_gamma 145.424128
_cell_volume 550.804451
_symmetry_space_group_name_H-M "P -1"
_symmetry_group_IT_number 2
_symmetry_cell_setting 'triclinic'
loop_
_space_group_symop_operation_xyz
x,y,z
-x,-y,-z
loop_
_atom_site_type_symbol
_atom_site_label
_atom_site_fract_x
_atom_site_fract_y
_atom_site_fract_z
Si Si1 0.286426 0.778873 0.142744
Si Si2 0.299677 0.126002 0.160499
Si Si3 0.043623 0.919547 0.799369
Si Si4 0.841790 0.255103 0.218762
Si Si5 0.264908 0.530349 0.547453
Si Si6 0.073450 0.811554 0.320632
Si Si7 0.614221 0.833242 0.386293
O O1 0.120932 0.729424 0.238762
O O2 0.396346 0.737844 0.226557
O O3 0.541814 0.026923 0.187564
O O4 0.163795 0.693102 0.946458
O O5 0.583976 0.294334 0.292716
O O6 0.207951 0.187091 0.188965
O O7 0.086017 0.908662 0.192535
O O8 0.269233 0.088331 0.976147
O O9 0.026049 0.778539 0.775922
O O10 0.142038 0.035303 0.665203
O O11 0.015539 0.411744 0.400374
O O12 0.486091 0.662579 0.467070
O O13 0.167925 0.365138 0.622616
O O14 0.297992 0.005292 0.485574
#
# Coordination Sequence:
#
# PCOD9105793 Si02
#       7
#     2   2   2   2   2   2   2
#     4  10  20  39  66  86 128 167 201 249 312 360
#     4  10  24  42  67  91 122 164 203 263 304 364
#     4  10  20  47  65  87 127 162 206 253 315 361
#     4  10  21  40  66  91 121 168 204 252 307 366
#     4  11  24  40  60 101 122 160 212 247 310 363
#     4  11  21  41  61  95 128 162 199 258 309 365
#     4  10  23  40  63  93 125 164 205 253 306 367
#
# _framework density 25.417370999999999
#
# number of rings (size 3 to 8) (size 9 to 14) (size 15 to 20)
#    0.000    1.714    4.286    0.429    0.000    5.143 
#    5.143    1.429    0.000    0.000    0.000    0.000 
#    0.000    0.000    0.000    0.000    0.000    0.000 
#
# Total GULP energy -78234.608338 kJ/mol
# GULP energy per Si atom -5588.186310 kJ/mol
# Density = 2.535952 g / cm^3
# Si number density = 25.417371 Si / 1000 Ang^3
#
#
#
# Elastic Constant Matrix: (Units=GPa)
#
#
# Indices 1 2 3 4 5 6 
#
# 1 64.8216 -0.5215 19.3018 2.8177 -14.1159 -2.0582
# 2 -0.5215 111.7672 44.7866 -14.9230 5.3488 -3.8874
# 3 19.3018 44.7866 188.4520 3.8671 8.1288 8.1827
# 4 2.8177 -14.9230 3.8671 55.7640 1.5046 9.4329
# 5 -14.1159 5.3488 8.1288 1.5046 29.1745 -2.7706
# 6 -2.0582 -3.8874 8.1827 9.4329 -2.7706 16.6406
#
#
#
# Elastic Compliance Matrix: (Units=1/GPa)
#
#
# Indices 1 2 3 4 5 6 
#
# 1 0.018859 0.000672 -0.002798 -0.002006 0.010526 0.006755
# 2 0.000672 0.010486 -0.002679 0.002598 -0.000771 0.002249
# 3 -0.002798 -0.002679 0.006569 -0.000164 -0.003124 -0.004629
# 4 -0.002006 0.002598 -0.000164 0.020867 -0.003616 -0.011991
# 5 0.010526 -0.000771 -0.003124 -0.003616 0.041674 0.011646
# 6 0.006755 0.002249 -0.004629 -0.011991 0.011646 0.072467
#
#
# Mechanical properties :
#
#
# Convention : Reuss Voigt Hill
#
# Bulk Modulus (GPa) = 38.01392 54.68607 46.35000
# Shear Modulus (GPa) = 26.41344 40.41407 33.41375
#
# Velocity S-wave (km/s) = 3.22714 3.99183 3.62968
# Velocity P-wave (km/s) = 5.37348 6.54280 5.98676
#
# Compressibility (1/GPa) = 0.02630615
#
# Stress axis : x y z
#
# Youngs Moduli (GPa) = 53.02428 95.36826 152.23935
#
# Poissons Ratio (x) = -0.06413 0.42591
# Poissons Ratio (y) = -0.03566 0.40778
# Poissons Ratio (z) = 0.14834 0.25545
#
# Static dielectric constant tensor:
#      x y z
#    x 1.990060 0.002960 0.012620 
#    y 0.002960 2.039110 0.019050 
#    z 0.012620 0.019050 1.999900 
# 
# From -- ./inp_files/273403.got.cif
#   From: 2010.05.17/outbox.cif.g08.bks.cpg/sg2_137_cif.got.tgz:273403.got - 2010.06.03 11:33:40.
