data_PCOD9105472
_publ_section_title
;
Structure prediction by ZEFSAII (Michael W. Deem and Ramdas Pophale) SiO2 
 PCOD9105472
Probable space group: P -1
;
_chemical_formula_sum "Si O2"
_cell_formula_units_Z 14
_cell_length_a 8.033566
_cell_length_b 11.855323
_cell_length_c 9.870337
_cell_angle_alpha 114.815338
_cell_angle_beta 75.138636
_cell_angle_gamma 127.130302
_cell_volume 680.264648
_symmetry_space_group_name_H-M "P -1"
_symmetry_group_IT_number 2
_symmetry_cell_setting 'triclinic'
loop_
_space_group_symop_operation_xyz
x,y,z
-x,-y,-z
loop_
_atom_site_type_symbol
_atom_site_label
_atom_site_fract_x
_atom_site_fract_y
_atom_site_fract_z
Si Si1 0.142605 0.718903 0.189767
Si Si2 0.520804 0.222905 0.649103
Si Si3 0.074424 0.616195 0.864928
Si Si4 0.391656 0.481332 0.155010
Si Si5 0.099555 0.922570 0.512720
Si Si6 0.740253 0.682887 0.635424
Si Si7 0.337444 0.634973 0.573956
O O1 0.358490 0.757431 0.228400
O O2 0.095044 0.815755 0.343645
O O3 0.963892 0.541810 0.159187
O O4 0.155069 0.732074 0.031604
O O5 0.469580 0.349064 0.728601
O O6 0.675441 0.288219 0.520623
O O7 0.331266 0.055188 0.575924
O O8 0.225475 0.663913 0.730526
O O9 0.845515 0.570030 0.846775
O O10 0.358099 0.362592 0.215814
O O11 0.500000 0.500000 0.000000
O O12 0.964273 0.828747 0.624575
O O13 0.000000 0.000000 0.500000
O O14 0.576463 0.699176 0.593237
O O15 0.750953 0.540872 0.519271
#
# Coordination Sequence:
#
# PCOD9105472 Si02
#       7
#     2   2   2   2   2   2   2
#     4  10  23  39  64  94 123 170 206 265 315 371
#     4  10  23  40  65  92 126 169 208 262 307 387
#     4  10  22  39  68  94 124 160 215 270 313 366
#     4  10  24  40  67  96 124 161 216 267 317 370
#     4  12  23  41  63  92 132 172 209 250 320 381
#     4  10  22  37  65  94 126 167 209 268 302 378
#     4  10  20  39  64  97 122 160 222 256 313 368
#
# _framework density 20.580226
#
# number of rings (size 3 to 8) (size 9 to 14) (size 15 to 20)
#    0.000    1.714    2.857    0.429   10.000    1.714 
#    0.000    1.429    0.000    0.000    0.000    0.000 
#    0.000    0.000    0.000    0.000    0.000    0.000 
#
# Total GULP energy -78094.171779 kJ/mol
# GULP energy per Si atom -5578.155127 kJ/mol
# Density = 2.053338 g / cm^3
# Si number density = 20.580226 Si / 1000 Ang^3
#
#
#
# Elastic Constant Matrix: (Units=GPa)
#
#
# Indices 1 2 3 4 5 6 
#
# 1 50.8651 10.4391 15.7555 2.7430 5.6711 8.2562
# 2 10.4391 77.0856 39.1818 -1.6814 -5.2431 16.4603
# 3 15.7555 39.1818 138.2115 -15.1190 2.5130 18.2705
# 4 2.7430 -1.6814 -15.1190 30.8021 4.8572 -1.3248
# 5 5.6711 -5.2431 2.5130 4.8572 26.8827 -2.0988
# 6 8.2562 16.4603 18.2705 -1.3248 -2.0988 19.8598
#
#
#
# Elastic Compliance Matrix: (Units=1/GPa)
#
#
# Indices 1 2 3 4 5 6 
#
# 1 0.022238 -0.001038 -0.001366 -0.002260 -0.004967 -0.007803
# 2 -0.001038 0.017400 -0.003705 -0.001768 0.003472 -0.010333
# 3 -0.001366 -0.003705 0.009718 0.004879 -0.002634 -0.005254
# 4 -0.002260 -0.001768 0.004879 0.036030 -0.006866 -0.000405
# 5 -0.004967 0.003472 -0.002634 -0.006866 0.040837 0.005469
# 6 -0.007803 -0.010333 -0.005254 -0.000405 0.005469 0.067545
#
#
# Mechanical properties :
#
#
# Convention : Reuss Voigt Hill
#
# Bulk Modulus (GPa) = 26.92691 44.10167 35.51429
# Shear Modulus (GPa) = 22.89725 28.89464 25.89595
#
# Velocity S-wave (km/s) = 3.33916 3.75106 3.55109
# Velocity P-wave (km/s) = 5.28951 6.34321 5.84017
#
# Compressibility (1/GPa) = 0.03713756
#
# Stress axis : x y z
#
# Youngs Moduli (GPa) = 44.96741 57.46991 102.90695
#
# Poissons Ratio (x) = 0.05965 0.14059
# Poissons Ratio (y) = 0.04668 0.38129
# Poissons Ratio (z) = 0.06143 0.21294
#
# Static dielectric constant tensor:
#      x y z
#    x 1.767820 -0.030540 -0.002670 
#    y -0.030540 1.742100 -0.012000 
#    z -0.002670 -0.012000 1.782190 
# 
# From -- ./inp_files/159766.got.cif
#   From: 2010.05.17/outbox.cif.g08.bks.cpg/sg2_80_cif.got.tgz:159766.got - 2010.06.03 11:33:40.
