data_PCOD9105023
_publ_section_title
;
Structure prediction by ZEFSAII (Michael W. Deem and Ramdas Pophale) SiO2 
 PCOD9105023
Probable space group: P -1
;
_chemical_formula_sum "Si O2"
_cell_formula_units_Z 14
_cell_length_a 12.419887
_cell_length_b 12.710255
_cell_length_c 9.245584
_cell_angle_alpha 47.005409
_cell_angle_beta 59.883601
_cell_angle_gamma 43.778412
_cell_volume 738.452208
_symmetry_space_group_name_H-M "P -1"
_symmetry_group_IT_number 2
_symmetry_cell_setting 'triclinic'
loop_
_space_group_symop_operation_xyz
x,y,z
-x,-y,-z
loop_
_atom_site_type_symbol
_atom_site_label
_atom_site_fract_x
_atom_site_fract_y
_atom_site_fract_z
Si Si1 0.719418 0.903392 0.057661
Si Si2 0.339749 0.045938 0.486381
Si Si3 0.591684 0.429117 0.855683
Si Si4 0.847690 0.007050 0.100932
Si Si5 0.573611 0.715302 0.450990
Si Si6 0.450386 0.328628 0.816030
Si Si7 0.823996 0.671630 0.922697
O O1 0.673423 0.787635 0.278065
O O2 0.846941 0.904048 0.058413
O O3 0.772427 0.824543 0.935500
O O4 0.567700 0.111911 0.968026
O O5 0.237347 0.226193 0.287177
O O6 0.500000 0.000000 0.500000
O O7 0.219743 0.050308 0.672424
O O8 0.417374 0.876562 0.484142
O O9 0.652157 0.544184 0.662633
O O10 0.489728 0.436844 0.785689
O O11 0.500000 0.500000 0.000000
O O12 0.718790 0.219449 0.980658
O O13 0.000000 0.000000 0.000000
O O14 0.542417 0.661189 0.369833
O O15 0.280989 0.393581 0.913063
O O16 0.000000 0.500000 0.000000
#
# Coordination Sequence:
#
# PCOD9105023 Si02
#       7
#     2   2   2   2   2   2   2
#     4  10  20  42  66  88 123 178 216 256 320 404
#     4  12  21  42  71  97 122 178 226 259 317 403
#     4  11  23  36  61  94 125 168 225 266 306 386
#     4  11  25  42  60  93 138 169 206 273 341 376
#     4  11  19  37  66  92 115 163 230 262 301 377
#     4  10  20  39  63  88 126 169 218 263 319 388
#     4  11  23  39  66 100 128 161 219 278 323 377
#
# _framework density 18.958573000000001
#
# number of rings (size 3 to 8) (size 9 to 14) (size 15 to 20)
#    0.000    1.143    5.714    2.143    0.000    3.429 
#    0.000    2.143    0.000    0.000    0.000    0.000 
#    0.000    0.000    0.000    0.000    0.000    0.000 
#
# Total GULP energy -77964.373352 kJ/mol
# GULP energy per Si atom -5568.883811 kJ/mol
# Density = 1.891542 g / cm^3
# Si number density = 18.958573 Si / 1000 Ang^3
#
#
#
# Elastic Constant Matrix: (Units=GPa)
#
#
# Indices 1 2 3 4 5 6 
#
# 1 126.2914 43.0668 58.8686 17.2192 -7.9498 -6.4152
# 2 43.0668 45.8618 38.6293 -1.1089 -5.9134 -4.4091
# 3 58.8686 38.6293 144.4060 3.0127 -0.4676 0.8366
# 4 17.2192 -1.1089 3.0127 27.2257 -2.2213 -1.8378
# 5 -7.9498 -5.9134 -0.4676 -2.2213 20.1085 -0.6849
# 6 -6.4152 -4.4091 0.8366 -1.8378 -0.6849 28.2047
#
#
#
# Elastic Compliance Matrix: (Units=1/GPa)
#
#
# Indices 1 2 3 4 5 6 
#
# 1 0.014342 -0.011158 -0.002675 -0.009048 0.001363 0.001041
# 2 -0.011158 0.039240 -0.006164 0.010328 0.008284 0.004653
# 3 -0.002675 -0.006164 0.009666 0.000020 -0.002708 -0.001923
# 4 -0.009048 0.010328 0.000020 0.043393 0.004339 0.002489
# 5 0.001363 0.008284 -0.002708 0.004339 0.053232 0.003261
# 6 0.001041 0.004653 -0.001923 0.002489 0.003261 0.036718
#
#
# Mechanical properties :
#
#
# Convention : Reuss Voigt Hill
#
# Bulk Modulus (GPa) = 43.00200 66.40986 54.70593
# Shear Modulus (GPa) = 20.46361 26.84075 23.65218
#
# Velocity S-wave (km/s) = 3.28896 3.76674 3.53593
# Velocity P-wave (km/s) = 6.09544 7.35002 6.75193
#
# Compressibility (1/GPa) = 0.02325473
#
# Stress axis : x y z
#
# Youngs Moduli (GPa) = 69.72307 25.48433 103.45497
#
# Poissons Ratio (x) = 0.28437 0.27672
# Poissons Ratio (y) = 0.77800 0.63765
# Poissons Ratio (z) = 0.18649 0.15707
#
# Static dielectric constant tensor:
#      x y z
#    x 4.723200 -1.178630 -1.415320 
#    y -1.178630 2.089750 0.572220 
#    z -1.415320 0.572220 2.394010 
# 
# From -- ./inp_files/154232.got.cif
#   From: 2010.05.17/outbox.cif.g08.bks.cpg/sg2_78_cif.got.tgz:154232.got - 2010.06.03 11:33:40.
