data_PCOD9105474
_publ_section_title
;
Structure prediction by ZEFSAII (Michael W. Deem and Ramdas Pophale) SiO2 
 PCOD9105474
Probable space group: P -1
;
_chemical_formula_sum "Si O2"
_cell_formula_units_Z 15
_cell_length_a 13.442042
_cell_length_b 12.033978
_cell_length_c 10.629084
_cell_angle_alpha 139.790309
_cell_angle_beta 114.701115
_cell_angle_gamma 36.324668
_cell_volume 563.155323
_symmetry_space_group_name_H-M "P -1"
_symmetry_group_IT_number 2
_symmetry_cell_setting 'triclinic'
loop_
_space_group_symop_operation_xyz
x,y,z
-x,-y,-z
loop_
_atom_site_type_symbol
_atom_site_label
_atom_site_fract_x
_atom_site_fract_y
_atom_site_fract_z
Si Si1 0.122789 0.593523 0.791812
Si Si2 0.808409 0.098684 0.248071
Si Si3 0.500000 0.000000 0.000000
Si Si4 0.719465 0.967544 0.544532
Si Si5 0.390745 0.453654 0.963950
Si Si6 0.439227 0.022976 0.753305
Si Si7 0.889099 0.385552 0.487374
Si Si8 0.389995 0.544428 0.316052
O O1 0.261730 0.247991 0.571664
O O2 0.241159 0.611551 0.907464
O O3 0.055766 0.678328 0.686235
O O4 0.959153 0.787433 0.980355
O O5 0.881710 0.197112 0.353040
O O6 0.599895 0.353256 0.290901
O O7 0.769624 0.147365 0.418078
O O8 0.422464 0.304081 0.172277
O O9 0.660766 0.874504 0.076964
O O10 0.599666 0.079962 0.451852
O O11 0.942127 0.739670 0.456197
O O12 0.598201 0.223747 0.810311
O O13 0.398228 0.251544 0.856504
O O14 0.342068 0.621052 0.209058
O O15 0.662390 0.750847 0.698965
#
# Coordination Sequence:
#
# PCOD9105474 Si02
#       8
#     2   2   1   2   2   2   2   2
#     4  11  22  39  64  93 131 164 208 268 312 373
#     4  11  25  41  57  94 130 171 207 248 329 384
#     4  10  20  40  74  86 118 174 210 262 312 362
#     4  11  22  39  68  99 122 163 218 266 308 361
#     4  10  20  40  65  95 123 161 220 267 306 361
#     4  10  20  39  64  97 124 156 215 267 309 359
#     4  12  22  40  64  93 130 166 208 261 313 378
#     4  10  23  42  65  89 124 172 210 259 314 375
#
# _framework density 26.635636000000002
#
# number of rings (size 3 to 8) (size 9 to 14) (size 15 to 20)
#    0.000    1.333    4.000    2.400    3.733    0.533 
#    2.400    3.333    0.000    0.000    0.000    0.000 
#    0.000    0.000    0.000    0.000    0.000    0.000 
#
# Total GULP energy -83660.246067 kJ/mol
# GULP energy per Si atom -5577.349738 kJ/mol
# Density = 2.657501 g / cm^3
# Si number density = 26.635636 Si / 1000 Ang^3
#
#
#
# Elastic Constant Matrix: (Units=GPa)
#
#
# Indices 1 2 3 4 5 6 
#
# 1 51.6220 19.4746 11.5229 -13.4295 -8.1253 2.0322
# 2 19.4746 99.2015 10.1040 -24.6601 -7.2774 -8.0730
# 3 11.5229 10.1040 85.5212 -18.6017 -21.9029 -5.1431
# 4 -13.4295 -24.6601 -18.6017 42.5830 -0.3611 -4.6510
# 5 -8.1253 -7.2774 -21.9029 -0.3611 34.6102 -9.6712
# 6 2.0322 -8.0730 -5.1431 -4.6510 -9.6712 41.6918
#
#
#
# Elastic Compliance Matrix: (Units=1/GPa)
#
#
# Indices 1 2 3 4 5 6 
#
# 1 0.022610 -0.002719 -0.000381 0.005427 0.004548 -0.000015
# 2 -0.002719 0.013260 0.002230 0.008394 0.005071 0.005088
# 3 -0.000381 0.002230 0.017415 0.009633 0.013395 0.006781
# 4 0.005427 0.008394 0.009633 0.035383 0.012104 0.009304
# 5 0.004548 0.005071 0.013395 0.012104 0.043502 0.013854
# 6 -0.000015 0.005088 0.006781 0.009304 0.013854 0.030060
#
#
# Mechanical properties :
#
#
# Convention : Reuss Voigt Hill
#
# Bulk Modulus (GPa) = 19.40022 35.39419 27.39720
# Shear Modulus (GPa) = 27.60145 36.79321 32.19733
#
# Velocity S-wave (km/s) = 3.22259 3.72069 3.48056
# Velocity P-wave (km/s) = 4.59850 5.63695 5.14399
#
# Compressibility (1/GPa) = 0.05154580
#
# Stress axis : x y z
#
# Youngs Moduli (GPa) = 44.22744 75.41608 57.42317
#
# Poissons Ratio (x) = 0.20502 0.02188
# Poissons Ratio (y) = 0.12023 -0.12806
# Poissons Ratio (z) = 0.01685 -0.16819
#
# Static dielectric constant tensor:
#      x y z
#    x 1.964760 -0.066110 0.295260 
#    y -0.066110 2.024980 0.090900 
#    z 0.295260 0.090900 1.855470 
# 
# From -- ./inp_files/177866.got.cif
#   From: 2010.05.17/outbox.cif.g08.bks.cpg/sg2_89_cif.got.tgz:177866.got - 2010.06.03 11:33:40.
