data_PCOD9105429
_publ_section_title
;
Structure prediction by ZEFSAII (Michael W. Deem and Ramdas Pophale) SiO2 
 PCOD9105429
Probable space group: P -1
;
_chemical_formula_sum "Si O2"
_cell_formula_units_Z 16
_cell_length_a 12.570782
_cell_length_b 5.574431
_cell_length_c 11.677824
_cell_angle_alpha 80.029150
_cell_angle_beta 118.598172
_cell_angle_gamma 101.364280
_cell_volume 701.439779
_symmetry_space_group_name_H-M "P -1"
_symmetry_group_IT_number 2
_symmetry_cell_setting 'triclinic'
loop_
_space_group_symop_operation_xyz
x,y,z
-x,-y,-z
loop_
_atom_site_type_symbol
_atom_site_label
_atom_site_fract_x
_atom_site_fract_y
_atom_site_fract_z
Si Si1 0.131531 0.323994 0.974624
Si Si2 0.803379 0.452871 0.343446
Si Si3 0.043285 0.238939 0.425585
Si Si4 0.425541 0.230810 0.472686
Si Si5 0.399839 0.004590 0.712296
Si Si6 0.988607 0.181359 0.148734
Si Si7 0.391376 0.299552 0.202109
Si Si8 0.423386 0.360604 0.870007
O O1 0.095716 0.595516 0.907411
O O2 0.079445 0.094792 0.885410
O O3 0.275713 0.325444 0.063501
O O4 0.072252 0.250213 0.075090
O O5 0.929345 0.395635 0.360114
O O6 0.715514 0.583843 0.205670
O O7 0.843403 0.609046 0.464028
O O8 0.712236 0.209686 0.343155
O O9 0.059085 0.180412 0.305859
O O10 0.000000 0.000000 0.500000
O O11 0.500000 0.500000 0.500000
O O12 0.374736 0.171562 0.577372
O O13 0.350194 0.263408 0.315421
O O14 0.500000 0.000000 0.500000
O O15 0.403593 0.080591 0.841903
O O16 0.533778 0.924003 0.770219
O O17 0.496988 0.525126 0.209117
O O18 0.500000 0.500000 0.000000
#
# Coordination Sequence:
#
# PCOD9105429 Si02
#       8
#     2   2   2   2   2   2   2   2
#     4  10  24  45  69 104 135 186 230 289 354 430
#     4  10  25  43  65 105 131 182 235 283 359 410
#     4  11  25  45  74 100 134 184 239 303 354 416
#     4  10  20  39  64  94 134 176 221 280 333 405
#     4  10  22  43  63 100 142 177 228 288 346 425
#     4  10  25  47  70  98 142 175 237 295 355 414
#     4  10  23  38  66  99 133 181 227 274 351 417
#     4  11  24  40  65  97 142 180 226 278 341 421
#
# _framework density 22.810226
#
# number of rings (size 3 to 8) (size 9 to 14) (size 15 to 20)
#    0.000    1.750    1.250    0.750    7.000    5.000 
#    4.500    0.000    0.000    0.000    0.000    0.000 
#    0.000    0.000    0.000    0.000    0.000    0.000 
#
# Total GULP energy -89183.711060 kJ/mol
# GULP energy per Si atom -5573.981941 kJ/mol
# Density = 2.275831 g / cm^3
# Si number density = 22.810226 Si / 1000 Ang^3
#
#
#
# Elastic Constant Matrix: (Units=GPa)
#
#
# Indices 1 2 3 4 5 6 
#
# 1 73.8813 27.5637 46.2572 10.6207 13.6939 -11.0888
# 2 27.5637 108.9535 53.7291 26.6687 -5.3393 -9.0981
# 3 46.2572 53.7291 191.0600 39.4643 -8.4019 -4.8671
# 4 10.6207 26.6687 39.4643 37.1563 0.0116 -5.0288
# 5 13.6939 -5.3393 -8.4019 0.0116 40.3601 -6.4662
# 6 -11.0888 -9.0981 -4.8671 -5.0288 -6.4662 20.4796
#
#
#
# Elastic Compliance Matrix: (Units=1/GPa)
#
#
# Indices 1 2 3 4 5 6 
#
# 1 0.019370 -0.003062 -0.004429 0.002241 -0.006865 0.006458
# 2 -0.003062 0.012525 -0.001261 -0.006376 0.002909 0.002960
# 3 -0.004429 -0.001261 0.008118 -0.006698 0.002738 -0.001809
# 4 0.002241 -0.006376 -0.006698 0.038726 -0.002107 0.005633
# 5 -0.006865 0.002909 0.002738 -0.002107 0.029170 0.006919
# 6 0.006458 0.002960 -0.001809 0.005633 0.006919 0.056778
#
#
# Mechanical properties :
#
#
# Convention : Reuss Voigt Hill
#
# Bulk Modulus (GPa) = 44.42369 69.88831 57.15600
# Shear Modulus (GPa) = 26.35818 36.02219 31.19018
#
# Velocity S-wave (km/s) = 3.40301 3.97824 3.70182
# Velocity P-wave (km/s) = 5.91255 7.19774 6.58657
#
# Compressibility (1/GPa) = 0.02251051
#
# Stress axis : x y z
#
# Youngs Moduli (GPa) = 51.62596 79.84119 123.17546
#
# Poissons Ratio (x) = 0.24448 0.54553
# Poissons Ratio (y) = 0.15808 0.15527
# Poissons Ratio (z) = 0.22865 0.10064
#
# Static dielectric constant tensor:
#      x y z
#    x 1.809600 0.020400 -0.079770 
#    y 0.020400 1.840110 0.025570 
#    z -0.079770 0.025570 1.889150 
# 
# From -- ./inp_files/410634.got.cif
#   From: 2010.05.17/outbox.cif.g08.bks.cpg/sg2_206_cif.got.tgz:410634.got - 2010.06.03 11:33:40.
