data_PCOD9105222
_publ_section_title
;
Structure prediction by ZEFSAII (Michael W. Deem and Ramdas Pophale) SiO2 
 PCOD9105222
Probable space group: P -1
;
_chemical_formula_sum "Si O2"
_cell_formula_units_Z 16
_cell_length_a 18.150056
_cell_length_b 20.362903
_cell_length_c 8.194830
_cell_angle_alpha 32.416743
_cell_angle_beta 43.087055
_cell_angle_gamma 25.982492
_cell_volume 706.029229
_symmetry_space_group_name_H-M "P -1"
_symmetry_group_IT_number 2
_symmetry_cell_setting 'triclinic'
loop_
_space_group_symop_operation_xyz
x,y,z
-x,-y,-z
loop_
_atom_site_type_symbol
_atom_site_label
_atom_site_fract_x
_atom_site_fract_y
_atom_site_fract_z
Si Si1 0.989072 0.151681 0.755621
Si Si2 0.137194 0.699551 0.850659
Si Si3 0.829705 0.075486 0.773508
Si Si4 0.659842 0.858259 0.158873
Si Si5 0.357188 0.225970 0.298081
Si Si6 0.359548 0.516524 0.176728
Si Si7 0.454675 0.798773 0.212698
Si Si8 0.016119 0.612318 0.977563
O O1 0.811331 0.308353 0.812007
O O2 0.992647 0.268538 0.389045
O O3 0.152009 0.016428 0.897477
O O4 0.000000 0.000000 0.000000
O O5 0.165786 0.783326 0.498327
O O6 0.070827 0.637291 0.000914
O O7 0.298039 0.547276 0.027996
O O8 0.988657 0.886490 0.809753
O O9 0.672498 0.190961 0.668467
O O10 0.648655 0.767615 0.510212
O O11 0.835833 0.705576 0.097084
O O12 0.500000 0.000000 0.000000
O O13 0.653160 0.989639 0.000290
O O14 0.500000 0.000000 0.500000
O O15 0.425059 0.281062 0.968862
O O16 0.167592 0.379737 0.207398
O O17 0.442145 0.329501 0.526464
O O18 0.500000 0.500000 0.000000
#
# Coordination Sequence:
#
# PCOD9105222 Si02
#       8
#     2   2   2   2   2   2   2   2
#     4  11  24  40  64 104 143 175 224 260 331 426
#     4  10  21  37  65  99 136 180 219 254 336 418
#     4  10  20  39  63  97 140 183 206 261 334 414
#     4  11  27  46  70  98 125 173 242 297 341 395
#     4  10  25  49  67  91 131 177 236 291 339 395
#     4  11  23  40  64 100 143 179 219 261 328 419
#     4  11  22  45  66  94 137 179 218 278 346 397
#     4  12  23  46  70  99 137 180 222 293 346 394
#
# _framework density 22.661953
#
# number of rings (size 3 to 8) (size 9 to 14) (size 15 to 20)
#    0.000    1.250    5.000    0.375    5.250    0.000 
#    2.250    4.375    0.000    0.000    0.000    0.000 
#    0.000    0.000    0.000    0.000    0.000    0.000 
#
# Total GULP energy -89224.051086 kJ/mol
# GULP energy per Si atom -5576.503193 kJ/mol
# Density = 2.261037 g / cm^3
# Si number density = 22.661953 Si / 1000 Ang^3
#
#
#
# Elastic Constant Matrix: (Units=GPa)
#
#
# Indices 1 2 3 4 5 6 
#
# 1 55.2659 14.8566 28.1579 -4.4669 17.5369 -19.4832
# 2 14.8566 103.7732 50.3200 -6.7670 11.3494 -23.5237
# 3 28.1579 50.3200 142.7212 -4.6018 45.4574 -2.9380
# 4 -4.4669 -6.7670 -4.6018 34.9821 2.3295 2.0975
# 5 17.5369 11.3494 45.4574 2.3295 44.2542 -11.8025
# 6 -19.4832 -23.5237 -2.9380 2.0975 -11.8025 29.7487
#
#
#
# Elastic Compliance Matrix: (Units=1/GPa)
#
#
# Indices 1 2 3 4 5 6 
#
# 1 0.027647 0.003835 -0.006239 0.002252 -0.000244 0.020268
# 2 0.003835 0.016536 -0.008694 0.000955 0.007862 0.017781
# 3 -0.006239 -0.008694 0.016222 0.001697 -0.016303 -0.015947
# 4 0.002252 0.000955 0.001697 0.029705 -0.004880 -0.001632
# 5 -0.000244 0.007862 -0.016303 -0.004880 0.043568 0.022076
# 6 0.020268 0.017781 -0.015947 -0.001632 0.022076 0.068248
#
#
# Mechanical properties :
#
#
# Convention : Reuss Voigt Hill
#
# Bulk Modulus (GPa) = 26.17191 54.26991 40.22091
# Shear Modulus (GPa) = 21.10965 35.69203 28.40084
#
# Velocity S-wave (km/s) = 3.05536 3.97290 3.54395
# Velocity P-wave (km/s) = 4.90111 6.71155 5.87647
#
# Compressibility (1/GPa) = 0.03820891
#
# Stress axis : x y z
#
# Youngs Moduli (GPa) = 36.17065 60.47319 61.64419
#
# Poissons Ratio (x) = -0.23194 0.38462
# Poissons Ratio (y) = -0.13873 0.53594
# Poissons Ratio (z) = 0.22568 0.52576
#
# Static dielectric constant tensor:
#      x y z
#    x 1.836790 0.030680 -0.010160 
#    y 0.030680 1.882710 -0.018480 
#    z -0.010160 -0.018480 1.934500 
# 
# From -- ./inp_files/226556.got.cif
#   From: 2010.05.17/outbox.cif.g08.bks.cpg/sg2_114_cif.got.tgz:226556.got - 2010.06.03 11:33:40.
