data_PCOD9105087
_publ_section_title
;
Structure prediction by ZEFSAII (Michael W. Deem and Ramdas Pophale) SiO2 
 PCOD9105087
Probable space group: P -1
;
_chemical_formula_sum "Si O2"
_cell_formula_units_Z 16
_cell_length_a 20.697096
_cell_length_b 17.389007
_cell_length_c 8.976355
_cell_angle_alpha 32.380071
_cell_angle_beta 38.273174
_cell_angle_gamma 27.566474
_cell_volume 791.954596
_symmetry_space_group_name_H-M "P -1"
_symmetry_group_IT_number 2
_symmetry_cell_setting 'triclinic'
loop_
_space_group_symop_operation_xyz
x,y,z
-x,-y,-z
loop_
_atom_site_type_symbol
_atom_site_label
_atom_site_fract_x
_atom_site_fract_y
_atom_site_fract_z
Si Si1 0.641638 0.863127 0.567479
Si Si2 0.163765 0.238526 0.164025
Si Si3 0.877326 0.782607 0.068816
Si Si4 0.727008 0.535098 0.389472
Si Si5 0.434968 0.924413 0.327422
Si Si6 0.876488 0.072663 0.491148
Si Si7 0.202293 0.557867 0.916650
Si Si8 0.022272 0.831203 0.322574
O O1 0.776109 0.792461 0.346069
O O2 0.689190 0.660239 0.863326
O O3 0.500000 0.000000 0.500000
O O4 0.615198 0.980062 0.574510
O O5 0.049731 0.257180 0.439504
O O6 0.301552 0.014373 0.318309
O O7 0.122822 0.280367 0.995641
O O8 0.205781 0.365031 0.914418
O O9 0.039335 0.650379 0.048968
O O10 0.804002 0.007218 0.812026
O O11 0.565103 0.695751 0.467614
O O12 0.816392 0.359998 0.630197
O O13 0.749352 0.449175 0.326700
O O14 0.500000 0.000000 0.000000
O O15 0.798297 0.292340 0.237787
O O16 0.000000 0.000000 0.500000
O O17 0.950364 0.935357 0.439809
O O18 0.000000 0.000000 0.000000
#
# Coordination Sequence:
#
# PCOD9105087 Si02
#       8
#     2   2   2   2   2   2   2   2
#     4  12  24  39  60  94 123 155 205 254 293 351
#     4  10  20  39  63  91 120 157 200 247 305 357
#     4  10  22  38  63  92 122 152 204 251 300 352
#     4  11  20  39  64  89 118 161 200 239 307 357
#     4  10  21  38  61  86 124 160 194 244 305 355
#     4   9  19  40  59  85 121 161 192 241 305 355
#     4  11  21  40  66  89 119 162 201 245 303 357
#     4  11  23  37  63  92 122 153 203 256 293 349
#
# _framework density 20.203177
#
# number of rings (size 3 to 8) (size 9 to 14) (size 15 to 20)
#    0.000    1.500    6.250    2.250    0.000    4.000 
#    0.000    1.250    0.000    0.000    0.000    0.000 
#    0.000    0.000    0.000    0.000    0.000    0.000 
#
# Total GULP energy -89110.135192 kJ/mol
# GULP energy per Si atom -5569.383450 kJ/mol
# Density = 2.015719 g / cm^3
# Si number density = 20.203177 Si / 1000 Ang^3
#
#
#
# Elastic Constant Matrix: (Units=GPa)
#
#
# Indices 1 2 3 4 5 6 
#
# 1 36.6045 6.1777 -0.4796 -10.6928 5.0348 -9.3125
# 2 6.1777 107.1667 21.1451 -30.9795 12.5886 -21.5308
# 3 -0.4796 21.1451 67.1177 -16.8668 18.2757 -13.1321
# 4 -10.6928 -30.9795 -16.8668 36.8616 1.6961 11.7178
# 5 5.0348 12.5886 18.2757 1.6961 21.7176 -11.9044
# 6 -9.3125 -21.5308 -13.1321 11.7178 -11.9044 31.5341
#
#
#
# Elastic Compliance Matrix: (Units=1/GPa)
#
#
# Indices 1 2 3 4 5 6 
#
# 1 0.035037 0.003949 0.008613 0.016923 -0.016786 0.004005
# 2 0.003949 0.014556 0.002582 0.014222 -0.011167 0.002679
# 3 0.008613 0.002582 0.026034 0.018647 -0.028185 -0.002421
# 4 0.016923 0.014222 0.018647 0.059099 -0.040593 -0.014811
# 5 -0.016786 -0.011167 -0.028185 -0.040593 0.098650 0.028006
# 6 0.004005 0.002679 -0.002421 -0.014811 0.028006 0.049791
#
#
# Mechanical properties :
#
#
# Convention : Reuss Voigt Hill
#
# Bulk Modulus (GPa) = 9.44152 29.39726 19.41939
# Shear Modulus (GPa) = 17.35011 30.29237 23.82124
#
# Velocity S-wave (km/s) = 2.93368 3.87639 3.43750
# Velocity P-wave (km/s) = 4.01979 5.88367 5.03867
#
# Compressibility (1/GPa) = 0.10591510
#
# Stress axis : x y z
#
# Youngs Moduli (GPa) = 28.54154 68.70241 38.41075
#
# Poissons Ratio (x) = -0.27133 -0.33085
# Poissons Ratio (y) = -0.11272 -0.09916
# Poissons Ratio (z) = -0.24584 -0.17736
#
# Static dielectric constant tensor:
#      x y z
#    x 1.723940 -0.026430 -0.086490 
#    y -0.026430 1.749320 -0.043540 
#    z -0.086490 -0.043540 1.739480 
# 
# From -- ./inp_files/348774.got.cif
#   From: 2010.05.17/outbox.cif.g08.bks.cpg/sg2_175_cif.got.tgz:348774.got - 2010.06.03 11:33:40.
