data_PCOD9105445
_publ_section_title
;
Structure prediction by ZEFSAII (Michael W. Deem and Ramdas Pophale) SiO2 
 PCOD9105445
Probable space group: P -1
;
_chemical_formula_sum "Si O2"
_cell_formula_units_Z 16
_cell_length_a 8.866485
_cell_length_b 18.188899
_cell_length_c 6.149426
_cell_angle_alpha 68.574125
_cell_angle_beta 129.722875
_cell_angle_gamma 99.395129
_cell_volume 706.644599
_symmetry_space_group_name_H-M "P -1"
_symmetry_group_IT_number 2
_symmetry_cell_setting 'triclinic'
loop_
_space_group_symop_operation_xyz
x,y,z
-x,-y,-z
loop_
_atom_site_type_symbol
_atom_site_label
_atom_site_fract_x
_atom_site_fract_y
_atom_site_fract_z
Si Si1 0.566847 0.405501 0.835859
Si Si2 0.950463 0.379539 0.452164
Si Si3 0.792660 0.485825 0.575388
Si Si4 0.107099 0.916403 0.103006
Si Si5 0.486492 0.136957 0.274084
Si Si6 0.712695 0.722227 0.342410
Si Si7 0.811544 0.832290 0.669074
Si Si8 0.698221 0.972154 0.094417
O O1 0.692025 0.452738 0.730719
O O2 0.403235 0.462406 0.757194
O O3 0.429148 0.345559 0.660492
O O4 0.739348 0.361163 0.186412
O O5 0.043886 0.451507 0.329865
O O6 0.121993 0.309614 0.647055
O O7 0.896979 0.415423 0.601054
O O8 0.282101 0.885653 0.459157
O O9 0.972031 0.848949 0.980108
O O10 0.198854 0.949156 0.933901
O O11 0.000000 0.000000 0.000000
O O12 0.394145 0.160561 0.397682
O O13 0.425579 0.206350 0.971649
O O14 0.371819 0.064577 0.156704
O O15 0.821717 0.753241 0.620049
O O16 0.811390 0.903693 0.416568
O O17 0.500000 0.000000 0.000000
#
# Coordination Sequence:
#
# PCOD9105445 Si02
#       8
#     2   2   2   2   2   2   2   2
#     4  10  20  39  64  95 128 169 212 254 320 364
#     4  10  20  39  64  96 128 165 215 258 313 365
#     4   9  20  37  67 100 122 158 215 275 298 360
#     4  12  23  41  73  96 116 164 219 272 328 370
#     4  11  24  43  61  91 132 163 211 264 320 385
#     4  10  26  42  60  88 137 179 207 255 314 391
#     4  11  24  42  62  92 128 166 214 259 319 390
#     4  11  21  42  68  94 121 154 207 276 324 371
#
# _framework density 22.642215
#
# number of rings (size 3 to 8) (size 9 to 14) (size 15 to 20)
#    0.000    1.500    2.500    2.250    0.000    4.000 
#    0.000    2.500    0.000    0.000    0.000    0.000 
#    0.000    0.000    0.000    0.000    0.000    0.000 
#
# Total GULP energy -89258.557188 kJ/mol
# GULP energy per Si atom -5578.659824 kJ/mol
# Density = 2.259068 g / cm^3
# Si number density = 22.642215 Si / 1000 Ang^3
#
#
#
# Elastic Constant Matrix: (Units=GPa)
#
#
# Indices 1 2 3 4 5 6 
#
# 1 93.8727 26.8174 13.3540 8.6586 21.7762 -13.5560
# 2 26.8174 87.3619 32.5490 23.1267 15.9601 -9.8299
# 3 13.3540 32.5490 92.4332 12.7686 34.2034 -1.7543
# 4 8.6586 23.1267 12.7686 27.4746 5.2573 4.1500
# 5 21.7762 15.9601 34.2034 5.2573 34.4654 -3.2424
# 6 -13.5560 -9.8299 -1.7543 4.1500 -3.2424 28.5521
#
#
#
# Elastic Compliance Matrix: (Units=1/GPa)
#
#
# Indices 1 2 3 4 5 6 
#
# 1 0.014227 -0.002278 0.002890 -0.002846 -0.009857 0.005442
# 2 -0.002278 0.018028 -0.003885 -0.013619 -0.000334 0.006828
# 3 0.002890 -0.003885 0.018996 -0.002859 -0.018488 -0.000482
# 4 -0.002846 -0.013619 -0.002859 0.051794 0.001767 -0.013543
# 5 -0.009857 -0.000334 -0.018488 0.001767 0.053464 -0.000116
# 6 0.005442 0.006828 -0.000482 -0.013543 -0.000116 0.041884
#
#
# Mechanical properties :
#
#
# Convention : Reuss Voigt Hill
#
# Bulk Modulus (GPa) = 22.36797 46.56765 34.46781
# Shear Modulus (GPa) = 22.74386 31.49490 27.11938
#
# Velocity S-wave (km/s) = 3.17281 3.73363 3.46459
# Velocity P-wave (km/s) = 4.82935 6.26084 5.59109
#
# Compressibility (1/GPa) = 0.04470678
#
# Stress axis : x y z
#
# Youngs Moduli (GPa) = 70.28795 55.46994 52.64284
#
# Poissons Ratio (x) = 0.12635 -0.15216
# Poissons Ratio (y) = 0.16010 0.20450
# Poissons Ratio (z) = -0.20316 0.21548
#
# Static dielectric constant tensor:
#      x y z
#    x 1.832730 -0.123190 -0.102380 
#    y -0.123190 1.834400 -0.034280 
#    z -0.102380 -0.034280 1.877270 
# 
# From -- ./inp_files/47642.got.cif
#   From: 2010.05.17/outbox.cif.g08.bks.cpg/sg2_24_cif.got.tgz:47642.got - 2010.06.03 11:33:40.
