data_PCOD9105518
_publ_section_title
;
Structure prediction by ZEFSAII (Michael W. Deem and Ramdas Pophale) SiO2 
 PCOD9105518
Probable space group: P -1
;
_chemical_formula_sum "Si O2"
_cell_formula_units_Z 16
_cell_length_a 14.652300
_cell_length_b 8.012791
_cell_length_c 26.759818
_cell_angle_alpha 54.448073
_cell_angle_beta 22.420427
_cell_angle_gamma 42.409901
_cell_volume 743.126336
_symmetry_space_group_name_H-M "P -1"
_symmetry_group_IT_number 2
_symmetry_cell_setting 'triclinic'
loop_
_space_group_symop_operation_xyz
x,y,z
-x,-y,-z
loop_
_atom_site_type_symbol
_atom_site_label
_atom_site_fract_x
_atom_site_fract_y
_atom_site_fract_z
Si Si1 0.158076 0.628859 0.913935
Si Si2 0.724155 0.205843 0.564607
Si Si3 0.581391 0.848690 0.035806
Si Si4 0.577424 0.004434 0.203146
Si Si5 0.661053 0.411555 0.767441
Si Si6 0.873864 0.810238 0.342880
Si Si7 0.838413 0.213251 0.219526
Si Si8 0.160987 0.204967 0.280258
O O1 0.522286 0.406040 0.785314
O O2 0.139508 0.804660 0.848457
O O3 0.000000 0.500000 0.000000
O O4 0.940152 0.816142 0.037663
O O5 0.508536 0.513794 0.638854
O O6 0.883881 0.196598 0.434583
O O7 0.511752 0.119867 0.689950
O O8 0.000000 0.000000 0.500000
O O9 0.540871 0.628629 0.088460
O O10 0.335180 0.062595 0.165250
O O11 0.923372 0.735243 0.897030
O O12 0.500000 0.000000 0.000000
O O13 0.433877 0.300776 0.238639
O O14 0.406129 0.049999 0.228996
O O15 0.990068 0.223275 0.663906
O O16 0.026682 0.511610 0.298759
O O17 0.500000 0.000000 0.500000
O O18 0.936028 0.962148 0.246102
#
# Coordination Sequence:
#
# PCOD9105518 Si02
#       8
#     2   2   2   2   2   2   2   2
#     4  12  21  38  68 103 136 178 230 282 356 405
#     4  10  21  39  67  97 131 185 229 270 346 420
#     4  12  24  43  68 105 136 178 236 291 344 414
#     4  10  20  39  65 101 139 178 225 290 343 417
#     4  11  24  40  68 102 141 174 232 290 338 411
#     4  11  24  46  69 100 139 189 233 287 344 416
#     4  12  23  41  72  96 138 183 227 282 352 409
#     4  10  22  42  71  96 138 185 233 283 352 411
#
# _framework density 21.530657999999999
#
# number of rings (size 3 to 8) (size 9 to 14) (size 15 to 20)
#    0.000    1.000    6.250    0.375    1.750    1.500 
#    0.000    5.000    0.000    0.000    0.000    0.000 
#    0.000    0.000    0.000    0.000    0.000    0.000 
#
# Total GULP energy -89187.864762 kJ/mol
# GULP energy per Si atom -5574.241548 kJ/mol
# Density = 2.148165 g / cm^3
# Si number density = 21.530658 Si / 1000 Ang^3
#
#
#
# Elastic Constant Matrix: (Units=GPa)
#
#
# Indices 1 2 3 4 5 6 
#
# 1 86.0494 27.7097 33.3062 -0.2075 -13.7162 -13.9640
# 2 27.7097 133.8591 35.7099 -10.9029 -0.0083 -10.0178
# 3 33.3062 35.7099 108.2026 2.5760 -0.5261 -3.8816
# 4 -0.2075 -10.9029 2.5760 41.6302 -8.1422 -2.5506
# 5 -13.7162 -0.0083 -0.5261 -8.1422 30.4911 3.6196
# 6 -13.9640 -10.0178 -3.8816 -2.5506 3.6196 33.9276
#
#
#
# Elastic Compliance Matrix: (Units=1/GPa)
#
#
# Indices 1 2 3 4 5 6 
#
# 1 0.015609 -0.001652 -0.004088 0.001522 0.006780 0.004860
# 2 -0.001652 0.008792 -0.002387 0.002490 -0.000339 0.001866
# 3 -0.004088 -0.002387 0.011285 -0.001798 -0.002004 -0.001018
# 4 0.001522 0.002490 -0.001798 0.026387 0.007422 0.002348
# 5 0.006780 -0.000339 -0.002004 0.007422 0.037915 -0.001026
# 6 0.004860 0.001866 -0.001018 0.002348 -0.001026 0.032195
#
#
# Mechanical properties :
#
#
# Convention : Reuss Voigt Hill
#
# Bulk Modulus (GPa) = 51.46631 57.95140 54.70886
# Shear Modulus (GPa) = 32.27578 36.63546 34.45562
#
# Velocity S-wave (km/s) = 3.87597 4.12946 4.00472
# Velocity P-wave (km/s) = 6.63223 7.05059 6.84461
#
# Compressibility (1/GPa) = 0.01943019
#
# Stress axis : x y z
#
# Youngs Moduli (GPa) = 64.06673 113.74210 88.61632
#
# Poissons Ratio (x) = 0.18795 0.36228
# Poissons Ratio (y) = 0.10587 0.21152
# Poissons Ratio (z) = 0.26191 0.27149
#
# Static dielectric constant tensor:
#      x y z
#    x 1.839020 0.004760 -0.034030 
#    y 0.004760 1.821150 0.008900 
#    z -0.034030 0.008900 1.833340 
# 
# From -- ./inp_files/619252.got.cif
#   From: 2010.05.17/outbox.cif.g08.bks.cpg/sg2_310_cif.got.tgz:619252.got - 2010.06.03 11:33:40.
