data_PCOD9105876
_publ_section_title
;
Structure prediction by ZEFSAII (Michael W. Deem and Ramdas Pophale) SiO2 
 PCOD9105876
Probable space group: P -1
;
_chemical_formula_sum "Si O2"
_cell_formula_units_Z 12
_cell_length_a 9.048890
_cell_length_b 21.270393
_cell_length_c 11.047401
_cell_angle_alpha 31.447463
_cell_angle_beta 41.286235
_cell_angle_gamma 23.772851
_cell_volume 442.824775
_symmetry_space_group_name_H-M "P -1"
_symmetry_group_IT_number 2
_symmetry_cell_setting 'triclinic'
loop_
_space_group_symop_operation_xyz
x,y,z
-x,-y,-z
loop_
_atom_site_type_symbol
_atom_site_label
_atom_site_fract_x
_atom_site_fract_y
_atom_site_fract_z
Si Si1 0.534310 0.044858 0.185965
Si Si2 0.786869 0.772426 0.161841
Si Si3 0.418332 0.471557 0.864684
Si Si4 0.696924 0.227448 0.577959
Si Si5 0.301504 0.877364 0.624849
Si Si6 0.612583 0.258179 0.866792
O O1 0.520843 0.908169 0.435724
O O2 0.229652 0.207841 0.004816
O O3 0.500095 0.166201 0.105592
O O4 0.955004 0.893705 0.131287
O O5 0.625428 0.709965 0.393600
O O6 0.178345 0.637084 0.196576
O O7 0.500000 0.000000 0.000000
O O8 0.181534 0.692035 0.673340
O O9 0.375967 0.437955 0.810648
O O10 0.446048 0.348705 0.142420
O O11 0.586701 0.287907 0.687619
O O12 0.045074 0.996124 0.706629
O O13 0.000000 0.000000 0.500000
#
# Coordination Sequence:
#
# PCOD9105876 Si02
#       6
#     2   2   2   2   2   2
#     4  10  20  39  66  92 125 173 208 257 317 373
#     4  11  18  40  65  93 123 167 219 259 307 365
#     4  12  23  41  67  95 128 167 212 264 314 373
#     4  11  25  41  64  97 128 168 213 258 317 376
#     4  12  24  42  65  94 134 166 208 261 320 377
#     4  10  22  41  67  94 126 165 218 259 310 377
#
# _framework density 27.098752999999999
#
# number of rings (size 3 to 8) (size 9 to 14) (size 15 to 20)
#    0.000    1.000    5.000    3.000    0.000    3.333 
#    0.000    5.000    0.000    0.000    0.000    0.000 
#    0.000    0.000    0.000    0.000    0.000    0.000 
#
# Total GULP energy -67087.365809 kJ/mol
# GULP energy per Si atom -5590.613817 kJ/mol
# Density = 2.703708 g / cm^3
# Si number density = 27.098753 Si / 1000 Ang^3
#
#
#
# Elastic Constant Matrix: (Units=GPa)
#
#
# Indices 1 2 3 4 5 6 
#
# 1 159.7186 16.9930 54.5651 13.9460 -21.8788 8.6419
# 2 16.9930 25.7609 11.8890 -0.0931 -7.9753 2.1551
# 3 54.5651 11.8890 202.6082 11.1927 -57.6819 2.2281
# 4 13.9460 -0.0931 11.1927 41.8904 -3.4793 -11.7888
# 5 -21.8788 -7.9753 -57.6819 -3.4793 62.8863 4.5245
# 6 8.6419 2.1551 2.2281 -11.7888 4.5245 34.7385
#
#
#
# Elastic Compliance Matrix: (Units=1/GPa)
#
#
# Indices 1 2 3 4 5 6 
#
# 1 0.007674 -0.003920 -0.001381 -0.002869 0.000939 -0.002673
# 2 -0.003920 0.042951 -0.000408 0.001352 0.003907 -0.001713
# 3 -0.001381 -0.000408 0.007138 -0.001319 0.006037 -0.001323
# 4 -0.002869 0.001352 -0.001319 0.028000 -0.001234 0.010377
# 5 0.000939 0.003907 0.006037 -0.001234 0.022496 -0.004212
# 6 -0.002673 -0.001713 -0.001323 0.010377 -0.004212 0.033713
#
#
# Mechanical properties :
#
#
# Convention : Reuss Voigt Hill
#
# Bulk Modulus (GPa) = 21.57855 61.66466 41.62160
# Shear Modulus (GPa) = 29.61417 48.21241 38.91329
#
# Velocity S-wave (km/s) = 3.30938 4.22256 3.79354
# Velocity P-wave (km/s) = 4.75214 6.82483 5.88052
#
# Compressibility (1/GPa) = 0.04634232
#
# Stress axis : x y z
#
# Youngs Moduli (GPa) = 130.31380 23.28253 140.10159
#
# Poissons Ratio (x) = 0.09128 0.19353
# Poissons Ratio (y) = 0.51089 0.05718
# Poissons Ratio (z) = 0.18001 0.00950
#
# Static dielectric constant tensor:
#      x y z
#    x 2.138840 0.003660 0.079580 
#    y 0.003660 2.201410 -0.070730 
#    z 0.079580 -0.070730 2.288150 
# 
# From -- ./inp_files/155453.got.cif
#   From: 2010.05.17/outbox.cif.g08.bks.cpg/sg2_78_cif.got.tgz:155453.got - 2010.06.03 11:33:40.
