data_PCOD9105153
_publ_section_title
;
Structure prediction by ZEFSAII (Michael W. Deem and Ramdas Pophale) SiO2 
 PCOD9105153
Probable space group: P -1
;
_chemical_formula_sum "Si O2"
_cell_formula_units_Z 14
_cell_length_a 9.315932
_cell_length_b 11.722915
_cell_length_c 7.835468
_cell_angle_alpha 46.852154
_cell_angle_beta 106.179278
_cell_angle_gamma 108.255937
_cell_volume 590.327687
_symmetry_space_group_name_H-M "P -1"
_symmetry_group_IT_number 2
_symmetry_cell_setting 'triclinic'
loop_
_space_group_symop_operation_xyz
x,y,z
-x,-y,-z
loop_
_atom_site_type_symbol
_atom_site_label
_atom_site_fract_x
_atom_site_fract_y
_atom_site_fract_z
Si Si1 0.508386 0.693026 0.330117
Si Si2 0.029450 0.552253 0.650190
Si Si3 0.242260 0.367592 0.069954
Si Si4 0.537754 0.345908 0.007707
Si Si5 0.142331 0.066645 0.191610
Si Si6 0.663804 0.195555 0.521179
Si Si7 0.145033 0.190406 0.686913
O O1 0.500000 0.500000 0.500000
O O2 0.412502 0.749299 0.392187
O O3 0.677896 0.790278 0.308253
O O4 0.447483 0.735922 0.082360
O O5 0.896348 0.643906 0.562333
O O6 0.000000 0.500000 0.500000
O O7 0.178623 0.684636 0.567492
O O8 0.082441 0.420324 0.919892
O O9 0.368347 0.385681 0.937550
O O10 0.195557 0.178748 0.255989
O O11 0.341443 0.489653 0.106214
O O12 0.566666 0.233353 0.288149
O O13 0.278306 0.971229 0.290505
O O14 0.122009 0.167202 0.909277
O O15 0.981348 0.951164 0.283042
#
# Coordination Sequence:
#
# PCOD9105153 Si02
#       7
#     2   2   2   2   2   2   2
#     4  12  22  41  68  98 128 164 219 274 313 374
#     4  10  16  33  60  92 117 165 217 254 304 378
#     4  10  18  34  63  89 124 166 212 260 311 374
#     4  10  21  40  62  97 132 164 214 267 315 379
#     4  10  20  39  63  95 128 175 211 254 328 394
#     4  10  24  37  66  95 127 172 208 262 328 375
#     4  10  21  36  61  97 129 165 219 261 317 388
#
# _framework density 23.715641999999999
#
# number of rings (size 3 to 8) (size 9 to 14) (size 15 to 20)
#    0.000    1.714    2.857    3.429    0.000    1.143 
#    0.000    0.000    0.000   46.286    0.000    0.000 
#    0.000    0.000    0.000    0.000    0.000    0.000 
#
# Total GULP energy -78175.192150 kJ/mol
# GULP energy per Si atom -5583.942296 kJ/mol
# Density = 2.366166 g / cm^3
# Si number density = 23.715642 Si / 1000 Ang^3
#
#
#
# Elastic Constant Matrix: (Units=GPa)
#
#
# Indices 1 2 3 4 5 6 
#
# 1 70.8397 45.2967 27.8463 -1.2581 -0.0156 -8.2461
# 2 45.2967 126.7307 39.6178 4.5629 12.5423 13.2383
# 3 27.8463 39.6178 79.8876 7.6463 12.4478 -19.4390
# 4 -1.2581 4.5629 7.6463 37.6069 -3.0572 -1.7132
# 5 -0.0156 12.5423 12.4478 -3.0572 33.2114 -2.5818
# 6 -8.2461 13.2383 -19.4390 -1.7132 -2.5818 32.2007
#
#
#
# Elastic Compliance Matrix: (Units=1/GPa)
#
#
# Indices 1 2 3 4 5 6 
#
# 1 0.021369 -0.008301 -0.002454 0.002987 0.004958 0.007960
# 2 -0.008301 0.014742 -0.006685 -0.001624 -0.004198 -0.012645
# 3 -0.002454 -0.006685 0.021225 -0.003307 -0.004618 0.014387
# 4 0.002987 -0.001624 -0.003307 0.027987 0.004531 0.001289
# 5 0.004958 -0.004198 -0.004618 0.004531 0.034093 0.003183
# 6 0.007960 -0.012645 0.014387 0.001289 0.003183 0.047301
#
#
# Mechanical properties :
#
#
# Convention : Reuss Voigt Hill
#
# Bulk Modulus (GPa) = 44.52791 55.88661 50.20726
# Shear Modulus (GPa) = 23.91404 31.58361 27.74882
#
# Velocity S-wave (km/s) = 3.17892 3.65329 3.42433
# Velocity P-wave (km/s) = 5.68248 6.43520 6.07052
#
# Compressibility (1/GPa) = 0.02245783
#
# Stress axis : x y z
#
# Youngs Moduli (GPa) = 46.79638 67.83226 47.11464
#
# Poissons Ratio (x) = 0.56304 0.11561
# Poissons Ratio (y) = 0.38843 0.31496
# Poissons Ratio (z) = 0.11483 0.45345
#
# Static dielectric constant tensor:
#      x y z
#    x 1.810910 0.061870 0.032410 
#    y 0.061870 1.886200 0.017610 
#    z 0.032410 0.017610 2.067580 
# 
# From -- ./inp_files/174582.got.cif
#   From: 2010.05.17/outbox.cif.g08.bks.cpg/sg2_88_cif.got.tgz:174582.got - 2010.06.03 11:33:40.
