data_PCOD9105729
_publ_section_title
;
Structure prediction by ZEFSAII (Michael W. Deem and Ramdas Pophale) SiO2 
 PCOD9105729
Probable space group: P -1
;
_chemical_formula_sum "Si O2"
_cell_formula_units_Z 13
_cell_length_a 11.140720
_cell_length_b 7.275203
_cell_length_c 9.421572
_cell_angle_alpha 83.676800
_cell_angle_beta 143.480257
_cell_angle_gamma 99.444438
_cell_volume 447.967573
_symmetry_space_group_name_H-M "P -1"
_symmetry_group_IT_number 2
_symmetry_cell_setting 'triclinic'
loop_
_space_group_symop_operation_xyz
x,y,z
-x,-y,-z
loop_
_atom_site_type_symbol
_atom_site_label
_atom_site_fract_x
_atom_site_fract_y
_atom_site_fract_z
Si Si1 0.052949 0.846020 0.220925
Si Si2 0.026704 0.288885 0.540413
Si Si3 0.584326 0.207972 0.876935
Si Si4 0.366806 0.228277 0.065214
Si Si5 0.286912 0.588467 0.291367
Si Si6 0.500000 0.500000 0.000000
Si Si7 0.129420 0.236944 0.335023
O O1 0.235065 0.762546 0.324308
O O2 0.080204 0.824488 0.421277
O O3 0.813174 0.757635 0.993420
O O4 0.057420 0.063585 0.182641
O O5 0.268108 0.306347 0.817232
O O6 0.007287 0.218108 0.369084
O O7 0.000000 0.500000 0.500000
O O8 0.723598 0.322855 0.881664
O O9 0.356426 0.209429 0.601228
O O10 0.609796 0.323895 0.036380
O O11 0.608709 0.985999 0.918089
O O12 0.541413 0.400598 0.211228
O O13 0.500000 0.500000 0.500000
O O14 0.137455 0.424492 0.237607
#
# Coordination Sequence:
#
# PCOD9105729 Si02
#       7
#     2   2   2   2   2   1   2
#     4  10  23  42  66  98 134 169 222 277 332 382
#     4  10  20  39  65  96 130 165 215 273 321 383
#     4  11  25  43  65  97 135 174 226 267 332 400
#     4  10  25  42  65 100 130 174 220 273 331 392
#     4  10  24  43  64  99 132 176 223 270 332 398
#     4  12  24  44  68  96 138 176 212 276 334 392
#     4  11  21  42  69  99 129 173 222 274 328 394
#
# _framework density 29.019956000000001
#
# number of rings (size 3 to 8) (size 9 to 14) (size 15 to 20)
#    0.923    0.615    3.077    0.923    0.000   10.462 
#    0.000    1.538    0.000    0.000    0.000    0.000 
#    0.000    0.000    0.000    0.000    0.000    0.000 
#
# Total GULP energy -72627.326982 kJ/mol
# GULP energy per Si atom -5586.717460 kJ/mol
# Density = 2.895391 g / cm^3
# Si number density = 29.019956 Si / 1000 Ang^3
#
#
#
# Elastic Constant Matrix: (Units=GPa)
#
#
# Indices 1 2 3 4 5 6 
#
# 1 182.1081 38.0783 13.7903 1.5037 5.4473 -32.6369
# 2 38.0783 197.4935 26.6192 -33.0824 -3.2647 -16.4052
# 3 13.7903 26.6192 83.2644 -15.1250 -3.5759 -12.1394
# 4 1.5037 -33.0824 -15.1250 59.3844 -2.3667 0.6741
# 5 5.4473 -3.2647 -3.5759 -2.3667 50.7081 2.9598
# 6 -32.6369 -16.4052 -12.1394 0.6741 2.9598 64.0591
#
#
#
# Elastic Compliance Matrix: (Units=1/GPa)
#
#
# Indices 1 2 3 4 5 6 
#
# 1 0.006314 -0.001088 -0.000493 -0.000964 -0.000997 0.002901
# 2 -0.001088 0.006006 -0.001044 0.003120 0.000533 0.000729
# 3 -0.000493 -0.001044 0.013259 0.002824 0.000940 0.001921
# 4 -0.000964 0.003120 0.002824 0.019370 0.001374 0.000576
# 5 -0.000997 0.000533 0.000940 0.001374 0.020059 -0.001135
# 6 0.002901 0.000729 0.001921 0.000576 -0.001135 0.017686
#
#
# Mechanical properties :
#
#
# Convention : Reuss Voigt Hill
#
# Bulk Modulus (GPa) = 49.19135 68.87129 59.03132
# Shear Modulus (GPa) = 52.78819 60.45555 56.62187
#
# Velocity S-wave (km/s) = 4.26964 4.56920 4.42196
# Velocity P-wave (km/s) = 6.42605 7.18476 6.81597
#
# Compressibility (1/GPa) = 0.02032878
#
# Stress axis : x y z
#
# Youngs Moduli (GPa) = 158.38460 166.50100 75.42244
#
# Poissons Ratio (x) = 0.18114 0.03718
# Poissons Ratio (y) = 0.17231 0.07874
# Poissons Ratio (z) = 0.07807 0.17382
#
# Static dielectric constant tensor:
#      x y z
#    x 2.462800 0.145150 0.243170 
#    y 0.145150 2.274790 0.161700 
#    z 0.243170 0.161700 2.584360 
# 
# From -- ./inp_files/407871.got.cif
#   From: 2010.05.17/outbox.cif.g08.bks.cpg/sg2_204_cif.got.tgz:407871.got - 2010.06.03 11:33:40.
