data_PCOD9105230
_publ_section_title
;
Structure prediction by ZEFSAII (Michael W. Deem and Ramdas Pophale) SiO2 
 PCOD9105230
Probable space group: P -1
;
_chemical_formula_sum "Si O2"
_cell_formula_units_Z 16
_cell_length_a 11.385310
_cell_length_b 7.167253
_cell_length_c 17.654968
_cell_angle_alpha 86.865203
_cell_angle_beta 142.093780
_cell_angle_gamma 117.519543
_cell_volume 645.643037
_symmetry_space_group_name_H-M "P -1"
_symmetry_group_IT_number 2
_symmetry_cell_setting 'triclinic'
loop_
_space_group_symop_operation_xyz
x,y,z
-x,-y,-z
loop_
_atom_site_type_symbol
_atom_site_label
_atom_site_fract_x
_atom_site_fract_y
_atom_site_fract_z
Si Si1 0.530299 0.416570 0.196766
Si Si2 0.053567 0.685261 0.376248
Si Si3 0.953811 0.011443 0.132596
Si Si4 0.178366 0.158680 0.465833
Si Si5 0.846085 0.283624 0.987901
Si Si6 0.477883 0.270844 0.346318
Si Si7 0.803970 0.252040 0.134773
Si Si8 0.681797 0.928540 0.300505
O O1 0.455519 0.295822 0.244872
O O2 0.551334 0.653035 0.209347
O O3 0.820636 0.537238 0.322682
O O4 0.333511 0.250550 0.030329
O O5 0.314108 0.753346 0.533262
O O6 0.930753 0.478698 0.251844
O O7 0.112842 0.943044 0.381685
O O8 0.988483 0.183396 0.076684
O O9 0.942442 0.140995 0.196624
O O10 0.198085 0.041028 0.246332
O O11 0.409438 0.460892 0.564510
O O12 0.241817 0.077294 0.575703
O O13 0.933107 0.121314 0.370749
O O14 0.839283 0.362328 0.066883
O O15 0.540153 0.063792 0.816156
O O16 0.000000 0.500000 0.000000
O O17 0.500000 0.000000 0.000000
#
# Coordination Sequence:
#
# PCOD9105230 Si02
#       8
#     2   2   2   2   2   2   2   2
#     4  10  20  39  64 101 129 167 235 275 322 408
#     4  11  22  41  67  91 133 184 218 273 342 398
#     4  10  23  40  66  95 136 168 227 278 328 402
#     4   9  21  37  60  98 134 164 229 269 323 412
#     4  10  21  38  68  90 127 172 213 274 340 374
#     4  11  23  38  64  98 135 175 221 280 340 385
#     4  10  23  43  67  96 133 175 229 273 326 418
#     4   9  19  37  62  95 130 170 215 285 324 383
#
# _framework density 24.781493999999999
#
# number of rings (size 3 to 8) (size 9 to 14) (size 15 to 20)
#    0.750    1.250    1.250    3.000    5.250    0.500 
#    2.250    4.375    0.000    0.000    0.000    0.000 
#    0.000    0.000    0.000    0.000    0.000    0.000 
#
# Total GULP energy -89413.026201 kJ/mol
# GULP energy per Si atom -5588.314138 kJ/mol
# Density = 2.472509 g / cm^3
# Si number density = 24.781494 Si / 1000 Ang^3
#
#
#
# Elastic Constant Matrix: (Units=GPa)
#
#
# Indices 1 2 3 4 5 6 
#
# 1 111.5796 30.5909 52.4635 -7.0514 11.7612 -17.9331
# 2 30.5909 61.0353 14.6832 0.8896 -4.8168 -15.4094
# 3 52.4635 14.6832 95.2879 -1.2894 25.4057 -27.6843
# 4 -7.0514 0.8896 -1.2894 30.0031 -19.5802 -8.0942
# 5 11.7612 -4.8168 25.4057 -19.5802 50.6160 1.3257
# 6 -17.9331 -15.4094 -27.6843 -8.0942 1.3257 37.2600
#
#
#
# Elastic Compliance Matrix: (Units=1/GPa)
#
#
# Indices 1 2 3 4 5 6 
#
# 1 0.013847 -0.005152 -0.007145 0.004060 0.001447 0.000056
# 2 -0.005152 0.020818 0.000786 0.002436 0.003540 0.007117
# 3 -0.007145 0.000786 0.020379 -0.004671 -0.010599 0.011390
# 4 0.004060 0.002436 -0.004671 0.050185 0.020794 0.009653
# 5 0.001447 0.003540 -0.010599 0.020794 0.033183 -0.002378
# 6 0.000056 0.007117 0.011390 0.009653 -0.002378 0.040453
#
#
# Mechanical properties :
#
#
# Convention : Reuss Voigt Hill
#
# Bulk Modulus (GPa) = 31.22909 51.48644 41.35777
# Shear Modulus (GPa) = 23.52245 34.92016 29.22131
#
# Velocity S-wave (km/s) = 3.08424 3.75790 3.43761
# Velocity P-wave (km/s) = 5.03116 6.29685 5.69925
#
# Compressibility (1/GPa) = 0.03202142
#
# Stress axis : x y z
#
# Youngs Moduli (GPa) = 72.21723 48.03573 49.06933
#
# Poissons Ratio (x) = 0.24749 0.35059
# Poissons Ratio (y) = 0.37208 -0.03855
# Poissons Ratio (z) = 0.51598 -0.03774
#
# Static dielectric constant tensor:
#      x y z
#    x 1.948480 -0.014480 -0.059050 
#    y -0.014480 1.979340 -0.009170 
#    z -0.059050 -0.009170 2.006170 
# 
# From -- ./inp_files/593637.got.cif
#   From: 2010.05.17/outbox.cif.g08.bks.cpg/sg2_297_cif.got.tgz:593637.got - 2010.06.03 11:33:40.
