data_PCOD9105262
_publ_section_title
;
Structure prediction by ZEFSAII (Michael W. Deem and Ramdas Pophale) SiO2 
 PCOD9105262
Probable space group: P -1
;
_chemical_formula_sum "Si O2"
_cell_formula_units_Z 16
_cell_length_a 18.882181
_cell_length_b 13.777124
_cell_length_c 9.561690
_cell_angle_alpha 127.817484
_cell_angle_beta 50.989618
_cell_angle_gamma 158.722246
_cell_volume 698.261612
_symmetry_space_group_name_H-M "P -1"
_symmetry_group_IT_number 2
_symmetry_cell_setting 'triclinic'
loop_
_space_group_symop_operation_xyz
x,y,z
-x,-y,-z
loop_
_atom_site_type_symbol
_atom_site_label
_atom_site_fract_x
_atom_site_fract_y
_atom_site_fract_z
Si Si1 0.081818 0.477022 0.296966
Si Si2 0.977560 0.344574 0.813270
Si Si3 0.691748 0.315898 0.533773
Si Si4 0.744425 0.924616 0.318102
Si Si5 0.347104 0.975010 0.257418
Si Si6 0.957450 0.952460 0.174784
Si Si7 0.326663 0.436996 0.339053
Si Si8 0.216366 0.435391 0.753090
O O1 0.216506 0.569873 0.325383
O O2 0.218621 0.698371 0.202293
O O3 0.000000 0.500000 0.500000
O O4 0.897214 0.163971 0.225218
O O5 0.136754 0.526187 0.646904
O O6 0.037800 0.306189 0.806220
O O7 0.755331 0.079689 0.793642
O O8 0.000000 0.500000 0.000000
O O9 0.631127 0.376808 0.610766
O O10 0.500000 0.000000 0.500000
O O11 0.849725 0.955514 0.319690
O O12 0.539454 0.625039 0.247369
O O13 0.685787 0.971537 0.525388
O O14 0.583194 0.243552 0.199195
O O15 0.819683 0.678596 0.159548
O O16 0.153095 0.178835 0.228051
O O17 0.000000 0.000000 0.000000
O O18 0.249194 0.371120 0.534567
#
# Coordination Sequence:
#
# PCOD9105262 Si02
#       8
#     2   2   2   2   2   2   2   2
#     4  10  16  33  62  95 126 154 207 272 306 378
#     4  11  23  40  61  96 137 173 210 264 338 393
#     4  11  19  37  64  98 131 165 221 265 315 387
#     4  10  20  39  65  94 119 170 218 262 322 383
#     4  10  21  40  67  95 127 170 216 267 323 386
#     4  12  26  45  62  93 133 170 214 278 328 380
#     4  10  22  41  69  94 121 169 225 265 317 385
#     4  10  24  45  65  92 127 171 226 265 316 396
#
# _framework density 22.914048000000001
#
# number of rings (size 3 to 8) (size 9 to 14) (size 15 to 20)
#    0.000    1.500    3.750    4.125    0.000    5.000 
#    2.250    0.000    0.000    0.000    0.000    0.000 
#    0.000    0.000    0.000    0.000    0.000    0.000 
#
# Total GULP energy -89429.826230 kJ/mol
# GULP energy per Si atom -5589.364139 kJ/mol
# Density = 2.286189 g / cm^3
# Si number density = 22.914048 Si / 1000 Ang^3
#
#
#
# Elastic Constant Matrix: (Units=GPa)
#
#
# Indices 1 2 3 4 5 6 
#
# 1 107.3192 39.9087 11.6976 -12.3664 22.6481 4.6361
# 2 39.9087 70.3111 13.3048 3.6016 15.2780 13.5618
# 3 11.6976 13.3048 58.4168 -6.9889 9.9565 3.4087
# 4 -12.3664 3.6016 -6.9889 15.5106 -1.5232 17.8035
# 5 22.6481 15.2780 9.9565 -1.5232 24.8178 5.3823
# 6 4.6361 13.5618 3.4087 17.8035 5.3823 46.7426
#
#
#
# Elastic Compliance Matrix: (Units=1/GPa)
#
#
# Indices 1 2 3 4 5 6 
#
# 1 0.017205 -0.008264 0.003534 0.026221 -0.008563 -0.008568
# 2 -0.008264 0.021365 -0.004302 -0.015757 -0.005185 0.001533
# 3 0.003534 -0.004302 0.021681 0.023097 -0.005949 -0.008796
# 4 0.026221 -0.015757 0.023097 0.176910 0.001963 -0.067322
# 5 -0.008563 -0.005185 -0.005949 0.001963 0.054732 -0.004263
# 6 -0.008568 0.001533 -0.008796 -0.067322 -0.004263 0.048573
#
#
# Mechanical properties :
#
#
# Convention : Reuss Voigt Hill
#
# Bulk Modulus (GPa) = 23.70459 40.65215 32.17837
# Shear Modulus (GPa) = 13.41947 28.82327 21.12137
#
# Velocity S-wave (km/s) = 2.42263 3.55052 3.03935
# Velocity P-wave (km/s) = 4.26532 5.88115 5.13716
#
# Compressibility (1/GPa) = 0.04218593
#
# Stress axis : x y z
#
# Youngs Moduli (GPa) = 58.12363 46.80507 46.12305
#
# Poissons Ratio (x) = 0.38679 -0.16298
# Poissons Ratio (y) = 0.48033 0.19843
# Poissons Ratio (z) = -0.20538 0.20137
#
# Static dielectric constant tensor:
#      x y z
#    x 1.871810 0.022630 -0.025330 
#    y 0.022630 1.912490 -0.008910 
#    z -0.025330 -0.008910 1.921480 
# 
# From -- ./inp_files/347320.got.cif
#   From: 2010.05.17/outbox.cif.g08.bks.cpg/sg2_174_cif.got.tgz:347320.got - 2010.06.03 11:33:40.
