data_PCOD9105570
_publ_section_title
;
Structure prediction by ZEFSAII (Michael W. Deem and Ramdas Pophale) SiO2 
 PCOD9105570
Probable space group: P -1
;
_chemical_formula_sum "Si O2"
_cell_formula_units_Z 16
_cell_length_a 12.600028
_cell_length_b 8.694373
_cell_length_c 9.591518
_cell_angle_alpha 110.307664
_cell_angle_beta 68.669225
_cell_angle_gamma 70.400456
_cell_volume 779.263604
_symmetry_space_group_name_H-M "P -1"
_symmetry_group_IT_number 2
_symmetry_cell_setting 'triclinic'
loop_
_space_group_symop_operation_xyz
x,y,z
-x,-y,-z
loop_
_atom_site_type_symbol
_atom_site_label
_atom_site_fract_x
_atom_site_fract_y
_atom_site_fract_z
Si Si1 0.528381 0.703046 0.906093
Si Si2 0.091753 0.803558 0.312780
Si Si3 0.108114 0.827975 0.988896
Si Si4 0.703617 0.020697 0.081303
Si Si5 0.355350 0.020589 0.584261
Si Si6 0.802523 0.608182 0.857352
Si Si7 0.376885 0.718184 0.257529
Si Si8 0.150648 0.440288 0.866955
O O1 0.433082 0.880850 0.909324
O O2 0.675030 0.666553 0.842033
O O3 0.546455 0.499435 0.787185
O O4 0.463463 0.736856 0.100886
O O5 0.085955 0.614798 0.299503
O O6 0.243488 0.747123 0.256400
O O7 0.060816 0.841001 0.175171
O O8 0.000000 0.000000 0.500000
O O9 0.235418 0.848594 0.935106
O O10 0.140843 0.621782 0.854553
O O11 0.000000 0.000000 0.000000
O O12 0.671894 0.018720 0.257631
O O13 0.811079 0.798778 0.913639
O O14 0.235691 0.241136 0.682228
O O15 0.500000 0.000000 0.500000
O O16 0.347831 0.874029 0.437379
O O17 0.774237 0.591522 0.029857
O O18 0.000000 0.500000 0.000000
#
# Coordination Sequence:
#
# PCOD9105570 Si02
#       8
#     2   2   2   2   2   2   2   2
#     4  10  20  39  65  89 125 165 204 259 325 389
#     4  10  22  39  62  88 122 167 210 261 317 378
#     4  11  23  41  64  92 124 167 220 262 320 383
#     4  11  22  39  65  93 125 165 212 268 316 383
#     4  11  25  41  64  96 130 166 219 268 321 379
#     4   9  20  37  62  88 120 165 210 246 320 387
#     4  10  21  38  63  91 122 162 210 257 320 383
#     4  10  22  42  66  89 127 176 211 253 327 397
#
# _framework density 20.532205000000001
#
# number of rings (size 3 to 8) (size 9 to 14) (size 15 to 20)
#    0.000    1.750    1.250    3.375    8.750    0.500 
#    0.000    1.875    0.000    0.000    0.000    0.000 
#    0.000    0.000    0.000    0.000    0.000    0.000 
#
# Total GULP energy -89303.977574 kJ/mol
# GULP energy per Si atom -5581.498598 kJ/mol
# Density = 2.048547 g / cm^3
# Si number density = 20.532205 Si / 1000 Ang^3
#
#
#
# Elastic Constant Matrix: (Units=GPa)
#
#
# Indices 1 2 3 4 5 6 
#
# 1 63.4323 29.2893 14.9692 8.8448 8.0488 -3.4299
# 2 29.2893 147.4017 49.0660 33.1063 15.2724 1.2725
# 3 14.9692 49.0660 89.2239 39.3461 14.8345 10.9563
# 4 8.8448 33.1063 39.3461 31.5184 4.4427 2.5849
# 5 8.0488 15.2724 14.8345 4.4427 31.8442 1.2022
# 6 -3.4299 1.2725 10.9563 2.5849 1.2022 38.4771
#
#
#
# Elastic Compliance Matrix: (Units=1/GPa)
#
#
# Indices 1 2 3 4 5 6 
#
# 1 0.017838 -0.002820 -0.000982 -0.000610 -0.002693 0.002088
# 2 -0.002820 0.009682 -0.001111 -0.007687 -0.002353 0.000335
# 3 -0.000982 -0.001111 0.028099 -0.032097 -0.007617 -0.005658
# 4 -0.000610 -0.007687 -0.032097 0.078646 0.007677 0.003816
# 5 -0.002693 -0.002353 -0.007617 0.007677 0.035675 0.000376
# 6 0.002088 0.000335 -0.005658 0.003816 0.000376 0.027507
#
#
# Mechanical properties :
#
#
# Convention : Reuss Voigt Hill
#
# Bulk Modulus (GPa) = 21.83720 54.07854 37.95787
# Shear Modulus (GPa) = 22.46812 34.15014 28.30913
#
# Velocity S-wave (km/s) = 3.31159 4.08272 3.71720
# Velocity P-wave (km/s) = 5.02801 6.97283 6.07870
#
# Compressibility (1/GPa) = 0.04579341
#
# Stress axis : x y z
#
# Youngs Moduli (GPa) = 56.05961 103.28720 35.58855
#
# Poissons Ratio (x) = 0.29124 0.03494
# Poissons Ratio (y) = 0.15807 0.03955
# Poissons Ratio (z) = 0.05503 0.11478
#
# Static dielectric constant tensor:
#      x y z
#    x 1.818690 -0.008230 -0.005590 
#    y -0.008230 1.764020 0.049560 
#    z -0.005590 0.049560 1.718430 
# 
# From -- ./inp_files/244978.got.cif
#   From: 2010.05.17/outbox.cif.g08.bks.cpg/sg2_123_cif.got.tgz:244978.got - 2010.06.03 11:33:40.
