data_PCOD9105370
_publ_section_title
;
Structure prediction by ZEFSAII (Michael W. Deem and Ramdas Pophale) SiO2 
 PCOD9105370
Probable space group: P -1
;
_chemical_formula_sum "Si O2"
_cell_formula_units_Z 14
_cell_length_a 5.945333
_cell_length_b 23.935247
_cell_length_c 17.097150
_cell_angle_alpha 16.943850
_cell_angle_beta 112.778505
_cell_angle_gamma 118.763798
_cell_volume 595.545325
_symmetry_space_group_name_H-M "P -1"
_symmetry_group_IT_number 2
_symmetry_cell_setting 'triclinic'
loop_
_space_group_symop_operation_xyz
x,y,z
-x,-y,-z
loop_
_atom_site_type_symbol
_atom_site_label
_atom_site_fract_x
_atom_site_fract_y
_atom_site_fract_z
Si Si1 0.103682 0.004670 0.816195
Si Si2 0.596051 0.962967 0.963047
Si Si3 0.107169 0.463493 0.979584
Si Si4 0.749495 0.080157 0.362560
Si Si5 0.617075 0.835297 0.523592
Si Si6 0.470957 0.328211 0.793526
Si Si7 0.870561 0.696099 0.446675
O O1 0.309198 0.942429 0.978657
O O2 0.215448 0.084228 0.639470
O O3 0.113082 0.208056 0.592726
O O4 0.831741 0.794898 0.051658
O O5 0.517771 0.863892 0.997650
O O6 0.729758 0.824322 0.207229
O O7 0.817093 0.202469 0.671751
O O8 0.259541 0.315057 0.218369
O O9 0.885644 0.325407 0.073195
O O10 0.310448 0.678288 0.681794
O O11 0.000000 0.500000 0.000000
O O12 0.500000 0.000000 0.500000
O O13 0.628390 0.008076 0.357279
O O14 0.000000 0.000000 0.500000
O O15 0.500000 0.500000 0.500000
O O16 0.691298 0.458623 0.713050
#
# Coordination Sequence:
#
# PCOD9105370 Si02
#       7
#     2   2   2   2   2   2   2
#     4  11  22  36  58  88 121 152 203 259 301 351
#     4   9  19  36  57  81 114 159 199 244 300 362
#     4  10  20  39  65  82 114 162 202 243 317 381
#     4  10  20  39  64  92 122 163 207 253 316 387
#     4  10  23  38  57  91 121 151 208 260 308 375
#     4   9  20  37  56  82 115 155 201 247 300 362
#     4   9  19  36  56  81 116 155 201 243 300 361
#
# _framework density 23.507867000000001
#
# number of rings (size 3 to 8) (size 9 to 14) (size 15 to 20)
#    0.000    2.286    1.429    1.286    0.000    6.857 
#    0.000    1.429    0.000    0.000    0.000    0.000 
#    0.000    0.000    0.000    0.000    0.000    0.000 
#
# Total GULP energy -77976.463156 kJ/mol
# GULP energy per Si atom -5569.747368 kJ/mol
# Density = 2.345436 g / cm^3
# Si number density = 23.507867 Si / 1000 Ang^3
#
#
#
# Elastic Constant Matrix: (Units=GPa)
#
#
# Indices 1 2 3 4 5 6 
#
# 1 88.7514 46.8086 52.9285 -20.4894 -22.8041 -12.7643
# 2 46.8086 151.3166 88.0052 -41.3314 -22.9376 -23.9857
# 3 52.9285 88.0052 149.0464 -52.6651 -42.4410 -4.7509
# 4 -20.4894 -41.3314 -52.6651 63.2291 7.9443 2.3110
# 5 -22.8041 -22.9376 -42.4410 7.9443 44.0549 12.0824
# 6 -12.7643 -23.9857 -4.7509 2.3110 12.0824 45.8724
#
#
#
# Elastic Compliance Matrix: (Units=1/GPa)
#
#
# Indices 1 2 3 4 5 6 
#
# 1 0.015444 -0.001989 -0.003063 0.000660 0.003332 0.002029
# 2 -0.001989 0.011849 -0.006119 0.002136 -0.002678 0.005606
# 3 -0.003063 -0.006119 0.017740 0.008439 0.012417 -0.005911
# 4 0.000660 0.002136 0.008439 0.023790 0.005417 -0.000451
# 5 0.003332 -0.002678 0.012417 0.005417 0.036504 -0.009075
# 6 0.002029 0.005606 -0.005911 -0.000451 -0.009075 0.027096
#
#
# Mechanical properties :
#
#
# Convention : Reuss Voigt Hill
#
# Bulk Modulus (GPa) = 44.07300 84.95545 64.51422
# Shear Modulus (GPa) = 30.80190 44.05608 37.42899
#
# Velocity S-wave (km/s) = 3.62371 4.33378 3.99455
# Velocity P-wave (km/s) = 6.02472 7.82687 6.98416
#
# Compressibility (1/GPa) = 0.02268963
#
# Stress axis : x y z
#
# Youngs Moduli (GPa) = 64.75214 84.39694 56.37123
#
# Poissons Ratio (x) = 0.16784 0.17268
# Poissons Ratio (y) = 0.12877 0.34495
# Poissons Ratio (z) = 0.19835 0.51644
#
# Static dielectric constant tensor:
#      x y z
#    x 2.112500 0.059760 -0.013330 
#    y 0.059760 1.987570 0.024670 
#    z -0.013330 0.024670 1.844760 
# 
# From -- ./inp_files/137452.got.cif
#   From: 2010.05.17/outbox.cif.g08.bks.cpg/sg2_69_cif.got.tgz:137452.got - 2010.06.03 11:33:40.
