data_PCOD9105004
_publ_section_title
;
Structure prediction by ZEFSAII (Michael W. Deem and Ramdas Pophale) SiO2 
 PCOD9105004
Probable space group: P -1
;
_chemical_formula_sum "Si O2"
_cell_formula_units_Z 16
_cell_length_a 15.915296
_cell_length_b 8.541884
_cell_length_c 16.353392
_cell_angle_alpha 67.815132
_cell_angle_beta 154.914073
_cell_angle_gamma 96.290132
_cell_volume 703.420374
_symmetry_space_group_name_H-M "P -1"
_symmetry_group_IT_number 2
_symmetry_cell_setting 'triclinic'
loop_
_space_group_symop_operation_xyz
x,y,z
-x,-y,-z
loop_
_atom_site_type_symbol
_atom_site_label
_atom_site_fract_x
_atom_site_fract_y
_atom_site_fract_z
Si Si1 0.555655 0.285024 0.197101
Si Si2 0.289637 0.512043 0.264143
Si Si3 0.402626 0.281817 0.237762
Si Si4 0.882369 0.585242 0.712424
Si Si5 0.078178 0.105564 0.234859
Si Si6 0.048365 0.524104 0.631065
Si Si7 0.049115 0.143545 0.721785
Si Si8 0.600056 0.870928 0.266960
O O1 0.474470 0.352787 0.206657
O O2 0.829264 0.223957 0.446962
O O3 0.584894 0.069306 0.249077
O O4 0.320867 0.458034 0.902260
O O5 0.500000 0.500000 0.500000
O O6 0.383466 0.386781 0.286515
O O7 0.199089 0.419476 0.267195
O O8 0.076942 0.752040 0.006188
O O9 0.629990 0.040081 0.493841
O O10 0.129301 0.352555 0.962840
O O11 0.973906 0.733445 0.770468
O O12 0.671702 0.702448 0.435943
O O13 0.000384 0.962151 0.227439
O O14 0.036884 0.344261 0.698674
O O15 0.000000 0.500000 0.500000
O O16 0.824185 0.744190 0.426197
O O17 0.328927 0.970676 0.973085
#
# Coordination Sequence:
#
# PCOD9105004 Si02
#       8
#     2   2   2   2   2   2   2   2
#     4  10  22  44  68  99 131 176 221 266 333 394
#     4  11  25  38  55  98 135 167 225 277 320 376
#     4  10  20  39  63  87 126 176 221 261 327 383
#     4  11  21  37  64  91 123 175 220 269 321 376
#     4  10  21  41  61  90 127 171 221 262 322 380
#     4  11  26  45  69 102 134 169 215 274 337 401
#     4  10  23  40  69  99 128 174 220 261 333 397
#     4  11  22  43  69  95 134 173 221 274 326 396
#
# _framework density 22.745999000000001
#
# number of rings (size 3 to 8) (size 9 to 14) (size 15 to 20)
#    0.000    1.500    3.750    2.250    0.000   12.000 
#    0.000    1.250    0.000    0.000    0.000    0.000 
#    0.000    0.000    0.000    0.000    0.000    0.000 
#
# Total GULP energy -89262.567424 kJ/mol
# GULP energy per Si atom -5578.910464 kJ/mol
# Density = 2.269423 g / cm^3
# Si number density = 22.745999 Si / 1000 Ang^3
#
#
#
# Elastic Constant Matrix: (Units=GPa)
#
#
# Indices 1 2 3 4 5 6 
#
# 1 72.2232 29.6704 47.2930 -2.8908 -5.0732 -22.6555
# 2 29.6704 46.2715 31.7182 0.5252 12.3440 0.6536
# 3 47.2930 31.7182 225.1326 14.0441 20.9953 -22.0940
# 4 -2.8908 0.5252 14.0441 38.8030 -7.7623 3.3537
# 5 -5.0732 12.3440 20.9953 -7.7623 35.6115 3.1624
# 6 -22.6555 0.6536 -22.0940 3.3537 3.1624 33.0452
#
#
#
# Elastic Compliance Matrix: (Units=1/GPa)
#
#
# Indices 1 2 3 4 5 6 
#
# 1 0.032187 -0.022295 -0.003424 0.005114 0.013815 0.018378
# 2 -0.022295 0.041086 -0.000746 -0.003996 -0.016552 -0.014607
# 3 -0.003424 -0.000746 0.006222 -0.003718 -0.004946 0.002678
# 4 0.005114 -0.003996 -0.003718 0.030037 0.011120 -0.003013
# 5 0.013815 -0.016552 -0.004946 0.011120 0.040998 0.001440
# 6 0.018378 -0.014607 0.002678 -0.003013 0.001440 0.045109
#
#
# Mechanical properties :
#
#
# Convention : Reuss Voigt Hill
#
# Bulk Modulus (GPa) = 37.64269 62.33228 49.98748
# Shear Modulus (GPa) = 19.42311 37.15499 28.28905
#
# Velocity S-wave (km/s) = 2.92535 4.04601 3.53043
# Velocity P-wave (km/s) = 5.29106 7.02069 6.21632
#
# Compressibility (1/GPa) = 0.02656559
#
# Stress axis : x y z
#
# Youngs Moduli (GPa) = 31.06800 24.33901 160.71546
#
# Poissons Ratio (x) = 0.54264 0.55034
# Poissons Ratio (y) = 0.69267 0.11983
# Poissons Ratio (z) = 0.10639 0.01815
#
# Static dielectric constant tensor:
#      x y z
#    x 1.911210 0.066510 0.010510 
#    y 0.066510 1.875890 0.008950 
#    z 0.010510 0.008950 1.909740 
# 
# From -- ./inp_files/529579.got.cif
#   From: 2010.05.17/outbox.cif.g08.bks.cpg/sg2_265_cif.got.tgz:529579.got - 2010.06.03 11:33:40.
