data_PCOD9105918
_publ_section_title
;
Structure prediction by ZEFSAII (Michael W. Deem and Ramdas Pophale) SiO2 
 PCOD9105918
Probable space group: P -1
;
_chemical_formula_sum "Si O2"
_cell_formula_units_Z 14
_cell_length_a 8.816918
_cell_length_b 13.024316
_cell_length_c 19.584662
_cell_angle_alpha 148.030754
_cell_angle_beta 38.641983
_cell_angle_gamma 147.552723
_cell_volume 621.832129
_symmetry_space_group_name_H-M "P -1"
_symmetry_group_IT_number 2
_symmetry_cell_setting 'triclinic'
loop_
_space_group_symop_operation_xyz
x,y,z
-x,-y,-z
loop_
_atom_site_type_symbol
_atom_site_label
_atom_site_fract_x
_atom_site_fract_y
_atom_site_fract_z
Si Si1 0.798427 0.925262 0.314519
Si Si2 0.770311 0.575107 0.735857
Si Si3 0.368477 0.769940 0.186673
Si Si4 0.690260 0.228109 0.425927
Si Si5 0.219403 0.004737 0.088989
Si Si6 0.808867 0.687065 0.931361
Si Si7 0.882852 0.846861 0.386400
O O1 0.510012 0.669690 0.282070
O O2 0.932815 0.989820 0.379826
O O3 0.015005 0.924861 0.182810
O O4 0.721018 0.098246 0.406628
O O5 0.925998 0.704889 0.825019
O O6 0.010351 0.580223 0.606593
O O7 0.690958 0.738315 0.817409
O O8 0.320463 0.574997 0.146911
O O9 0.060734 0.725687 0.247655
O O10 0.542612 0.016877 0.302816
O O11 0.561096 0.745233 0.048438
O O12 0.463495 0.299685 0.561860
O O13 0.031727 0.844072 0.000599
O O14 0.500000 0.000000 0.000000
O O15 0.000000 0.000000 0.500000
#
# Coordination Sequence:
#
# PCOD9105918 Si02
#       7
#     2   2   2   2   2   2   2
#     4  11  22  43  66  94 129 169 211 270 324 369
#     4  11  23  39  70  94 129 173 210 258 329 380
#     4  10  20  39  66  94 126 172 217 254 322 377
#     4  10  21  44  63  97 125 168 222 258 318 382
#     4  11  26  39  62 102 131 165 215 263 316 392
#     4  11  20  41  65  93 135 169 207 260 320 387
#     4  10  24  40  69  92 127 173 217 267 319 376
#
# _framework density 22.514115
#
# number of rings (size 3 to 8) (size 9 to 14) (size 15 to 20)
#    0.000    1.429    4.286    1.714    4.000    2.286 
#    0.000    0.714    0.000    0.000    0.000    0.000 
#    0.000    0.000    0.000    0.000    0.000    0.000 
#
# Total GULP energy -78272.276917 kJ/mol
# GULP energy per Si atom -5590.876923 kJ/mol
# Density = 2.246287 g / cm^3
# Si number density = 22.514115 Si / 1000 Ang^3
#
#
#
# Elastic Constant Matrix: (Units=GPa)
#
#
# Indices 1 2 3 4 5 6 
#
# 1 118.7742 46.4298 76.9165 -35.3826 -3.2143 4.5031
# 2 46.4298 158.3548 59.9535 -15.1398 -4.5673 2.8776
# 3 76.9165 59.9535 136.4020 -30.9790 -4.9189 2.9403
# 4 -35.3826 -15.1398 -30.9790 38.1406 1.2909 8.3368
# 5 -3.2143 -4.5673 -4.9189 1.2909 53.3617 -15.8092
# 6 4.5031 2.8776 2.9403 8.3368 -15.8092 25.3496
#
#
#
# Elastic Compliance Matrix: (Units=1/GPa)
#
#
# Indices 1 2 3 4 5 6 
#
# 1 0.016489 -0.001396 -0.005991 0.011511 -0.002077 -0.007157
# 2 -0.001396 0.007710 -0.002691 -0.000443 0.000354 0.000051
# 3 -0.005991 -0.002691 0.012865 0.004136 0.000068 -0.001441
# 4 0.011511 -0.000443 0.004136 0.044929 -0.006331 -0.021199
# 5 -0.002077 0.000354 0.000068 -0.006331 0.023940 0.017333
# 6 -0.007157 0.000051 -0.001441 -0.021199 0.017333 0.058662
#
#
# Mechanical properties :
#
#
# Convention : Reuss Voigt Hill
#
# Bulk Modulus (GPa) = 59.13882 86.68119 72.91000
# Shear Modulus (GPa) = 26.26248 38.71911 32.49079
#
# Velocity S-wave (km/s) = 3.41910 4.15151 3.80298
# Velocity P-wave (km/s) = 6.47390 7.84630 7.19291
#
# Compressibility (1/GPa) = 0.01690937
#
# Stress axis : x y z
#
# Youngs Moduli (GPa) = 60.64733 129.70577 77.73049
#
# Poissons Ratio (x) = 0.18103 0.46566
# Poissons Ratio (y) = 0.08465 0.20914
# Poissons Ratio (z) = 0.36332 0.34899
#
# Static dielectric constant tensor:
#      x y z
#    x 1.865310 0.064160 0.042060 
#    y 0.064160 1.838660 0.005960 
#    z 0.042060 0.005960 1.867880 
# 
# From -- ./inp_files/404445.got.cif
#   From: 2010.05.17/outbox.cif.g08.bks.cpg/sg2_203_cif.got.tgz:404445.got - 2010.06.03 11:33:40.
