data_PCOD9105056
_publ_section_title
;
Structure prediction by ZEFSAII (Michael W. Deem and Ramdas Pophale) SiO2 
 PCOD9105056
Probable space group: P -1
;
_chemical_formula_sum "Si O2"
_cell_formula_units_Z 16
_cell_length_a 10.420218
_cell_length_b 11.497524
_cell_length_c 9.505102
_cell_angle_alpha 40.920684
_cell_angle_beta 100.546717
_cell_angle_gamma 100.255810
_cell_volume 731.914117
_symmetry_space_group_name_H-M "P -1"
_symmetry_group_IT_number 2
_symmetry_cell_setting 'triclinic'
loop_
_space_group_symop_operation_xyz
x,y,z
-x,-y,-z
loop_
_atom_site_type_symbol
_atom_site_label
_atom_site_fract_x
_atom_site_fract_y
_atom_site_fract_z
Si Si1 0.702673 0.115788 0.953042
Si Si2 0.957869 0.195617 0.775509
Si Si3 0.590939 0.377361 0.488013
Si Si4 0.765747 0.714125 0.320967
Si Si5 0.410737 0.151919 0.281429
Si Si6 0.695119 0.632422 0.680313
Si Si7 0.677483 0.255318 0.122943
Si Si8 0.762428 0.158807 0.526899
O O1 0.838502 0.223556 0.832551
O O2 0.596856 0.220695 0.749093
O O3 0.679759 0.131992 0.099093
O O4 0.715899 0.910533 0.103834
O O5 0.894087 0.190834 0.611749
O O6 0.093336 0.311740 0.697730
O O7 0.000000 0.000000 0.000000
O O8 0.666276 0.557047 0.390951
O O9 0.445212 0.405487 0.388063
O O10 0.665989 0.300211 0.440559
O O11 0.782328 0.706054 0.501349
O O12 0.335820 0.244534 0.306504
O O13 0.523832 0.273183 0.116672
O O14 0.500000 0.000000 0.500000
O O15 0.302990 0.038503 0.272818
O O16 0.738911 0.447185 0.916578
O O17 0.756901 0.181990 0.337318
#
# Coordination Sequence:
#
# PCOD9105056 Si02
#       8
#     2   2   2   2   2   2   2   2
#     4  10  23  42  66  93 128 165 217 262 317 368
#     4   9  22  46  66  93 121 165 222 264 309 375
#     4  11  23  41  62 100 129 162 214 262 314 384
#     4  11  23  42  67  91 129 170 208 268 317 367
#     4  10  20  39  63  89 130 167 205 254 322 372
#     4  12  23  40  60 101 132 165 214 255 317 388
#     4  11  22  40  62  96 136 165 206 263 316 385
#     4  10  22  42  66  92 125 168 213 259 320 375
#
# _framework density 21.860488
#
# number of rings (size 3 to 8) (size 9 to 14) (size 15 to 20)
#    0.000    1.500    3.750    2.250    0.000    5.500 
#    0.000    6.250    0.000    0.000    0.000    0.000 
#    0.000    0.000    0.000    0.000    0.000    0.000 
#
# Total GULP energy -89372.963718 kJ/mol
# GULP energy per Si atom -5585.810232 kJ/mol
# Density = 2.181073 g / cm^3
# Si number density = 21.860488 Si / 1000 Ang^3
#
#
#
# Elastic Constant Matrix: (Units=GPa)
#
#
# Indices 1 2 3 4 5 6 
#
# 1 57.2261 11.0938 4.6047 6.3398 -4.5421 2.2717
# 2 11.0938 110.4612 17.7558 6.4385 -8.8315 -6.7700
# 3 4.6047 17.7558 103.4746 15.7267 -1.5715 1.1207
# 4 6.3398 6.4385 15.7267 36.7882 3.2421 -5.4068
# 5 -4.5421 -8.8315 -1.5715 3.2421 24.3924 8.4770
# 6 2.2717 -6.7700 1.1207 -5.4068 8.4770 25.6670
#
#
#
# Elastic Compliance Matrix: (Units=1/GPa)
#
#
# Indices 1 2 3 4 5 6 
#
# 1 0.018816 -0.001552 0.000194 -0.004191 0.005131 -0.004661
# 2 -0.001552 0.009812 -0.001471 -0.000801 0.002671 0.001739
# 3 0.000194 -0.001471 0.010699 -0.004860 0.001692 -0.002455
# 4 -0.004191 -0.000801 -0.004860 0.032448 -0.009264 0.010267
# 5 0.005131 0.002671 0.001692 -0.009264 0.050695 -0.018518
# 6 -0.004661 0.001739 -0.002455 0.010267 -0.018518 0.048218
#
#
# Mechanical properties :
#
#
# Convention : Reuss Voigt Hill
#
# Bulk Modulus (GPa) = 29.70034 37.56337 33.63185
# Shear Modulus (GPa) = 26.65688 33.21668 29.93678
#
# Velocity S-wave (km/s) = 3.49579 3.90229 3.70462
# Velocity P-wave (km/s) = 5.46899 6.12571 5.80664
#
# Compressibility (1/GPa) = 0.03366965
#
# Stress axis : x y z
#
# Youngs Moduli (GPa) = 53.14500 101.91495 93.46761
#
# Poissons Ratio (x) = 0.15818 -0.01817
# Poissons Ratio (y) = 0.08249 0.13751
# Poissons Ratio (z) = -0.01033 0.14994
#
# Static dielectric constant tensor:
#      x y z
#    x 1.839790 -0.002700 -0.062280 
#    y -0.002700 1.799780 0.005540 
#    z -0.062280 0.005540 1.848120 
# 
# From -- ./inp_files/256034.got.cif
#   From: 2010.05.17/outbox.cif.g08.bks.cpg/sg2_129_cif.got.tgz:256034.got - 2010.06.03 11:33:40.
