data_PCOD9105463
_publ_section_title
;
Structure prediction by ZEFSAII (Michael W. Deem and Ramdas Pophale) SiO2 
 PCOD9105463
Probable space group: P -1
;
_chemical_formula_sum "Si O2"
_cell_formula_units_Z 14
_cell_length_a 7.892367
_cell_length_b 13.879312
_cell_length_c 14.335438
_cell_angle_alpha 134.457188
_cell_angle_beta 31.524477
_cell_angle_gamma 131.803526
_cell_volume 575.778660
_symmetry_space_group_name_H-M "P -1"
_symmetry_group_IT_number 2
_symmetry_cell_setting 'triclinic'
loop_
_space_group_symop_operation_xyz
x,y,z
-x,-y,-z
loop_
_atom_site_type_symbol
_atom_site_label
_atom_site_fract_x
_atom_site_fract_y
_atom_site_fract_z
Si Si1 0.602774 0.858808 0.947217
Si Si2 0.620123 0.342300 0.407601
Si Si3 0.445541 0.655662 0.247120
Si Si4 0.702740 0.633743 0.617512
Si Si5 0.375057 0.362737 0.055905
Si Si6 0.735524 0.943021 0.279752
Si Si7 0.385645 0.024622 0.319918
O O1 0.514465 0.739404 0.830259
O O2 0.662626 0.761662 0.939523
O O3 0.914389 0.960534 0.827186
O O4 0.420949 0.966141 0.159609
O O5 0.606028 0.469520 0.570056
O O6 0.373933 0.351736 0.445196
O O7 0.534910 0.185601 0.374178
O O8 0.996725 0.369956 0.212586
O O9 0.517344 0.506898 0.137154
O O10 0.727545 0.788997 0.215680
O O11 0.101088 0.673942 0.468374
O O12 0.415849 0.647248 0.141753
O O13 0.500000 0.000000 0.500000
O O14 0.570390 0.947968 0.258541
O O15 0.000000 0.000000 0.500000
#
# Coordination Sequence:
#
# PCOD9105463 Si02
#       7
#     2   2   2   2   2   2   2
#     4  12  24  43  68  98 131 169 222 271 318 383
#     4  10  22  43  66  91 132 175 211 260 332 379
#     4  10  20  39  64  96 127 166 212 260 320 383
#     4  10  23  42  67  94 131 170 217 267 319 385
#     4  10  21  39  69  92 124 172 215 262 317 389
#     4  12  23  41  67 100 128 167 214 269 323 385
#     4  12  26  44  66  93 134 175 214 269 330 386
#
# _framework density 24.314897999999999
#
# number of rings (size 3 to 8) (size 9 to 14) (size 15 to 20)
#    0.000    1.143    4.286    2.143    0.000    4.000 
#    2.571    0.714    0.000    0.000    0.000    0.000 
#    0.000    0.000    0.000    0.000    0.000    0.000 
#
# Total GULP energy -78180.323605 kJ/mol
# GULP energy per Si atom -5584.308829 kJ/mol
# Density = 2.425956 g / cm^3
# Si number density = 24.314898 Si / 1000 Ang^3
#
#
#
# Elastic Constant Matrix: (Units=GPa)
#
#
# Indices 1 2 3 4 5 6 
#
# 1 35.5898 6.0550 6.2211 0.9894 9.9762 0.6200
# 2 6.0550 209.9188 66.3007 25.3886 0.8196 2.2064
# 3 6.2211 66.3007 132.9569 7.9591 28.8591 18.4568
# 4 0.9894 25.3886 7.9591 34.4004 3.6274 5.6487
# 5 9.9762 0.8196 28.8591 3.6274 29.0566 9.3470
# 6 0.6200 2.2064 18.4568 5.6487 9.3470 22.4173
#
#
#
# Elastic Compliance Matrix: (Units=1/GPa)
#
#
# Indices 1 2 3 4 5 6 
#
# 1 0.031850 -0.001545 0.001767 0.000715 -0.013830 0.003403
# 2 -0.001545 0.006682 -0.004249 -0.004738 0.004437 0.002227
# 3 0.001767 -0.004249 0.012740 0.002321 -0.011533 -0.005896
# 4 0.000715 -0.004738 0.002321 0.033794 -0.003957 -0.008330
# 5 -0.013830 0.004437 -0.011533 -0.003957 0.055008 -0.012497
# 6 0.003403 0.002227 -0.005896 -0.008330 -0.012497 0.056460
#
#
# Mechanical properties :
#
#
# Convention : Reuss Voigt Hill
#
# Bulk Modulus (GPa) = 23.13802 59.51325 41.32563
# Shear Modulus (GPa) = 22.83180 37.16742 29.99961
#
# Velocity S-wave (km/s) = 3.06764 3.91396 3.51635
# Velocity P-wave (km/s) = 4.69935 6.70482 5.78958
#
# Compressibility (1/GPa) = 0.04321891
#
# Stress axis : x y z
#
# Youngs Moduli (GPa) = 31.39762 149.64502 78.49257
#
# Poissons Ratio (x) = 0.23120 -0.13869
# Poissons Ratio (y) = 0.04851 0.33348
# Poissons Ratio (z) = -0.05548 0.63577
#
# Static dielectric constant tensor:
#      x y z
#    x 1.875360 -0.013040 0.010060 
#    y -0.013040 1.990530 0.087870 
#    z 0.010060 0.087870 1.934540 
# 
# From -- ./inp_files/175491.got.cif
#   From: 2010.05.17/outbox.cif.g08.bks.cpg/sg2_88_cif.got.tgz:175491.got - 2010.06.03 11:33:40.
