data_PCOD9105034
_publ_section_title
;
Structure prediction by ZEFSAII (Michael W. Deem and Ramdas Pophale) SiO2 
 PCOD9105034
Probable space group: P -1
;
_chemical_formula_sum "Si O2"
_cell_formula_units_Z 16
_cell_length_a 21.123148
_cell_length_b 7.626323
_cell_length_c 7.482463
_cell_angle_alpha 59.199639
_cell_angle_beta 46.442718
_cell_angle_gamma 75.175423
_cell_volume 741.145448
_symmetry_space_group_name_H-M "P -1"
_symmetry_group_IT_number 2
_symmetry_cell_setting 'triclinic'
loop_
_space_group_symop_operation_xyz
x,y,z
-x,-y,-z
loop_
_atom_site_type_symbol
_atom_site_label
_atom_site_fract_x
_atom_site_fract_y
_atom_site_fract_z
Si Si1 0.727775 0.319459 0.657915
Si Si2 0.038801 0.272930 0.354346
Si Si3 0.092651 0.756045 0.044241
Si Si4 0.280172 0.687236 0.741783
Si Si5 0.660772 0.574220 0.941848
Si Si6 0.538779 0.211053 0.218576
Si Si7 0.580031 0.925434 0.778996
Si Si8 0.894119 0.089326 0.454596
O O1 0.726709 0.364306 0.427088
O O2 0.723881 0.518180 0.686966
O O3 0.810717 0.204974 0.595301
O O4 0.632730 0.185626 0.959221
O O5 0.069901 0.515924 0.155048
O O6 0.974555 0.219964 0.678911
O O7 0.981712 0.202643 0.326551
O O8 0.115458 0.138487 0.320876
O O9 0.191149 0.774021 0.920867
O O10 0.092686 0.895352 0.793992
O O11 0.360251 0.872939 0.520380
O O12 0.296276 0.493513 0.927418
O O13 0.640350 0.802991 0.847229
O O14 0.568873 0.413224 0.174800
O O15 0.465181 0.231802 0.202300
O O16 0.500000 0.000000 0.500000
O O17 0.500000 0.000000 0.000000
#
# Coordination Sequence:
#
# PCOD9105034 Si02
#       8
#     2   2   2   2   2   2   2   2
#     4   9  21  40  59  87 124 152 202 254 288 359
#     4  10  21  38  64  88 121 159 196 244 304 362
#     4  10  22  39  59  91 125 154 199 246 300 355
#     4  11  22  40  62  90 119 161 203 246 298 358
#     4  10  23  40  60  85 121 160 197 252 303 348
#     4  10  20  40  62  84 122 159 198 248 304 348
#     4  12  22  41  60  88 121 158 205 248 296 358
#     4  10  20  39  63  89 119 157 200 245 298 358
#
# _framework density 21.588204000000001
#
# number of rings (size 3 to 8) (size 9 to 14) (size 15 to 20)
#    0.750    1.000    2.500    1.875    0.000    2.500 
#    2.250   10.000    0.000    0.000    0.000    0.000 
#    0.000    0.000    0.000    0.000    0.000    0.000 
#
# Total GULP energy -89301.422602 kJ/mol
# GULP energy per Si atom -5581.338913 kJ/mol
# Density = 2.153907 g / cm^3
# Si number density = 21.588204 Si / 1000 Ang^3
#
#
#
# Elastic Constant Matrix: (Units=GPa)
#
#
# Indices 1 2 3 4 5 6 
#
# 1 97.4866 21.3925 10.8814 0.1854 13.8997 -27.8479
# 2 21.3925 67.7313 2.7690 8.7413 12.5676 -23.0699
# 3 10.8814 2.7690 44.8085 10.4066 -2.4575 -7.0888
# 4 0.1854 8.7413 10.4066 19.8882 -6.8371 -0.2681
# 5 13.8997 12.5676 -2.4575 -6.8371 28.4139 -6.0952
# 6 -27.8479 -23.0699 -7.0888 -0.2681 -6.0952 34.0170
#
#
#
# Elastic Compliance Matrix: (Units=1/GPa)
#
#
# Indices 1 2 3 4 5 6 
#
# 1 0.014123 0.000226 -0.001878 -0.000880 -0.005153 0.010394
# 2 0.000226 0.023755 0.003994 -0.016082 -0.010914 0.015045
# 3 -0.001878 0.003994 0.027287 -0.016270 -0.000998 0.006551
# 4 -0.000880 -0.016082 -0.016270 0.073104 0.021454 -0.010597
# 5 -0.005153 -0.010914 -0.000998 0.021454 0.046921 -0.003252
# 6 0.010394 0.015045 0.006551 -0.010597 -0.003252 0.048808
#
#
# Mechanical properties :
#
#
# Convention : Reuss Voigt Hill
#
# Bulk Modulus (GPa) = 14.31665 31.12359 22.72012
# Shear Modulus (GPa) = 19.79446 28.12938 23.96192
#
# Velocity S-wave (km/s) = 3.03134 3.61362 3.33521
# Velocity P-wave (km/s) = 4.34720 5.64440 5.03773
#
# Compressibility (1/GPa) = 0.06984872
#
# Stress axis : x y z
#
# Youngs Moduli (GPa) = 70.80504 42.09692 36.64782
#
# Poissons Ratio (x) = -0.00951 0.06881
# Poissons Ratio (y) = -0.01600 -0.14636
# Poissons Ratio (z) = 0.13295 -0.16812
#
# Static dielectric constant tensor:
#      x y z
#    x 1.799710 0.087850 -0.023570 
#    y 0.087850 1.606850 0.073170 
#    z -0.023570 0.073170 1.750170 
# 
# From -- ./inp_files/343295.got.cif
#   From: 2010.05.17/outbox.cif.g08.bks.cpg/sg2_172_cif.got.tgz:343295.got - 2010.06.03 11:33:40.
