data_PCOD9105576
_publ_section_title
;
Structure prediction by ZEFSAII (Michael W. Deem and Ramdas Pophale) SiO2 
 PCOD9105576
Probable space group: P -1
;
_chemical_formula_sum "Si O2"
_cell_formula_units_Z 16
_cell_length_a 11.512125
_cell_length_b 7.958710
_cell_length_c 13.880266
_cell_angle_alpha 33.655459
_cell_angle_beta 69.036541
_cell_angle_gamma 81.128010
_cell_volume 632.304446
_symmetry_space_group_name_H-M "P -1"
_symmetry_group_IT_number 2
_symmetry_cell_setting 'triclinic'
loop_
_space_group_symop_operation_xyz
x,y,z
-x,-y,-z
loop_
_atom_site_type_symbol
_atom_site_label
_atom_site_fract_x
_atom_site_fract_y
_atom_site_fract_z
Si Si1 0.597335 0.290149 0.230138
Si Si2 0.935380 0.823032 0.492878
Si Si3 0.909501 0.122570 0.892460
Si Si4 0.226218 0.488958 0.472696
Si Si5 0.690752 0.056843 0.497756
Si Si6 0.692460 0.725028 0.258638
Si Si7 0.825414 0.852203 0.831332
Si Si8 0.516827 0.304832 0.788895
O O1 0.655294 0.070551 0.387351
O O2 0.564436 0.516201 0.212120
O O3 0.448471 0.114028 0.326604
O O4 0.709559 0.524377 0.021384
O O5 0.957774 0.501228 0.683564
O O6 0.900335 0.706181 0.449306
O O7 0.816490 0.925513 0.527910
O O8 0.058762 0.121507 0.292164
O O9 0.876568 0.934355 0.888706
O O10 0.772038 0.028594 0.032222
O O11 0.000000 0.000000 0.000000
O O12 0.264255 0.282988 0.642093
O O13 0.333130 0.546710 0.331166
O O14 0.223501 0.843151 0.329878
O O15 0.725596 0.414131 0.355515
O O16 0.543933 0.716474 0.289028
O O17 0.500000 0.000000 0.000000
#
# Coordination Sequence:
#
# PCOD9105576 Si02
#       8
#     2   2   2   2   2   2   2   2
#     4  10  20  39  65  89 127 167 208 258 320 376
#     4  11  23  39  70  97 122 172 218 260 315 390
#     4  11  21  40  63  91 129 171 209 264 318 382
#     4  11  21  38  64  97 129 159 217 267 314 381
#     4  10  22  41  65  93 126 172 215 256 321 382
#     4  11  23  39  63  96 132 166 207 274 321 369
#     4  11  21  39  65  94 124 169 212 266 316 380
#     4  11  18  36  65  92 119 167 219 255 315 375
#
# _framework density 25.304266999999999
#
# number of rings (size 3 to 8) (size 9 to 14) (size 15 to 20)
#    0.000    1.250    5.000    4.125    0.000    0.500 
#    0.000    3.125    2.750    0.000    0.000    0.000 
#    0.000    0.000    0.000    0.000    0.000    0.000 
#
# Total GULP energy -89286.211159 kJ/mol
# GULP energy per Si atom -5580.388197 kJ/mol
# Density = 2.524667 g / cm^3
# Si number density = 25.304267 Si / 1000 Ang^3
#
#
#
# Elastic Constant Matrix: (Units=GPa)
#
#
# Indices 1 2 3 4 5 6 
#
# 1 85.7009 21.5762 43.8162 10.8283 -10.4349 -14.5931
# 2 21.5762 56.8723 21.5308 -0.5785 1.6011 -3.7302
# 3 43.8162 21.5308 155.8347 12.7571 -31.5035 -8.1154
# 4 10.8283 -0.5785 12.7571 20.0183 -2.1935 10.4950
# 5 -10.4349 1.6011 -31.5035 -2.1935 63.7176 6.3423
# 6 -14.5931 -3.7302 -8.1154 10.4950 6.3423 27.7922
#
#
#
# Elastic Compliance Matrix: (Units=1/GPa)
#
#
# Indices 1 2 3 4 5 6 
#
# 1 0.018878 -0.005441 -0.002439 -0.016531 -0.000011 0.014715
# 2 -0.005441 0.020494 -0.002374 0.006217 -0.002100 -0.002668
# 3 -0.002439 -0.002374 0.008658 -0.004905 0.003576 0.001965
# 4 -0.016531 0.006217 -0.004905 0.084115 0.001732 -0.041437
# 5 -0.000011 -0.002100 0.003576 0.001732 0.017971 -0.003999
# 6 0.014715 -0.002668 0.001965 -0.041437 -0.003999 0.060484
#
#
# Mechanical properties :
#
#
# Convention : Reuss Voigt Hill
#
# Bulk Modulus (GPa) = 36.33600 52.47268 44.40434
# Shear Modulus (GPa) = 20.80891 36.40460 28.60676
#
# Velocity S-wave (km/s) = 2.87077 3.79710 3.36596
# Velocity P-wave (km/s) = 5.03778 6.32500 5.71773
#
# Compressibility (1/GPa) = 0.02752092
#
# Stress axis : x y z
#
# Youngs Moduli (GPa) = 52.97084 48.79543 115.50455
#
# Poissons Ratio (x) = 0.26552 0.28171
# Poissons Ratio (y) = 0.28824 0.27421
# Poissons Ratio (z) = 0.12919 0.11584
#
# Static dielectric constant tensor:
#      x y z
#    x 1.111410 0.000460 -0.755230 
#    y 0.000460 2.031690 -0.054230 
#    z -0.755230 -0.054230 1.451450 
# 
# From -- ./inp_files/514812.got.cif
#   From: 2010.05.17/outbox.cif.g08.bks.cpg/sg2_258_cif.got.tgz:514812.got - 2010.06.03 11:33:40.
