data_PCOD9105936
_publ_section_title
;
Structure prediction by ZEFSAII (Michael W. Deem and Ramdas Pophale) SiO2 
 PCOD9105936
Probable space group: P -1
;
_chemical_formula_sum "Si O2"
_cell_formula_units_Z 16
_cell_length_a 9.563157
_cell_length_b 9.097474
_cell_length_c 15.039226
_cell_angle_alpha 140.251842
_cell_angle_beta 59.683485
_cell_angle_gamma 118.106087
_cell_volume 714.003047
_symmetry_space_group_name_H-M "P -1"
_symmetry_group_IT_number 2
_symmetry_cell_setting 'triclinic'
loop_
_space_group_symop_operation_xyz
x,y,z
-x,-y,-z
loop_
_atom_site_type_symbol
_atom_site_label
_atom_site_fract_x
_atom_site_fract_y
_atom_site_fract_z
Si Si1 0.720128 0.485487 0.846569
Si Si2 0.810889 0.727934 0.282918
Si Si3 0.372444 0.571611 0.950728
Si Si4 0.124036 0.925172 0.354162
Si Si5 0.315455 0.099366 0.214552
Si Si6 0.525756 0.549880 0.411091
Si Si7 0.921238 0.682221 0.725993
Si Si8 0.776339 0.226712 0.446751
O O1 0.559371 0.525289 0.862529
O O2 0.746493 0.216994 0.709335
O O3 0.877197 0.636263 0.821221
O O4 0.688914 0.531031 0.981010
O O5 0.740363 0.551902 0.147228
O O6 0.707124 0.652613 0.369783
O O7 0.003694 0.746609 0.247398
O O8 0.780122 0.982631 0.379558
O O9 0.368253 0.846923 0.079223
O O10 0.213248 0.115362 0.346751
O O11 0.000000 0.000000 0.500000
O O12 0.465746 0.306637 0.266468
O O13 0.190754 0.139192 0.195332
O O14 0.500000 0.500000 0.500000
O O15 0.402317 0.723677 0.499808
O O16 0.855875 0.436630 0.583287
O O17 0.106333 0.757285 0.670197
#
# Coordination Sequence:
#
# PCOD9105936 Si02
#       8
#     2   2   2   2   2   2   2   2
#     4  10  23  40  67  92 128 180 223 266 317 394
#     4  12  24  42  67  98 133 177 215 277 327 394
#     4  10  24  45  66  93 135 181 229 257 320 409
#     4  11  23  40  69  98 130 170 219 273 339 392
#     4  10  22  43  66  92 129 181 213 262 330 402
#     4  11  25  39  65 101 134 164 217 284 332 385
#     4  10  20  39  66  95 120 169 219 272 324 388
#     4  10  22  39  63  93 133 163 215 266 339 395
#
# _framework density 22.408867000000001
#
# number of rings (size 3 to 8) (size 9 to 14) (size 15 to 20)
#    0.000    1.500    1.250    3.375    5.250    9.000 
#    0.000    0.625    0.000    0.000    0.000    0.000 
#    0.000    0.000    0.000    0.000    0.000    0.000 
#
# Total GULP energy -89529.996432 kJ/mol
# GULP energy per Si atom -5595.624777 kJ/mol
# Density = 2.235786 g / cm^3
# Si number density = 22.408867 Si / 1000 Ang^3
#
#
#
# Elastic Constant Matrix: (Units=GPa)
#
#
# Indices 1 2 3 4 5 6 
#
# 1 49.3817 2.0307 21.6598 14.9070 -5.1057 7.0949
# 2 2.0307 122.3458 13.3749 -11.3713 -8.7140 5.4673
# 3 21.6598 13.3749 56.2254 1.4565 -5.3211 -5.8629
# 4 14.9070 -11.3713 1.4565 35.5048 -4.9115 -5.8355
# 5 -5.1057 -8.7140 -5.3211 -4.9115 24.9306 1.1591
# 6 7.0949 5.4673 -5.8629 -5.8355 1.1591 39.0823
#
#
#
# Elastic Compliance Matrix: (Units=1/GPa)
#
#
# Indices 1 2 3 4 5 6 
#
# 1 0.031675 0.000096 -0.012745 -0.014159 0.001468 -0.009833
# 2 0.000096 0.008991 -0.002062 0.003197 0.003408 -0.001208
# 3 -0.012745 -0.002062 0.024007 0.005185 0.002494 0.006904
# 4 -0.014159 0.003197 0.005185 0.037145 0.006258 0.008262
# 5 0.001468 0.003408 0.002494 0.006258 0.043402 -0.000722
# 6 -0.009833 -0.001208 0.006904 0.008262 -0.000722 0.029832
#
#
# Mechanical properties :
#
#
# Convention : Reuss Voigt Hill
#
# Bulk Modulus (GPa) = 28.36743 33.56486 30.96614
# Shear Modulus (GPa) = 23.12406 32.62937 27.87671
#
# Velocity S-wave (km/s) = 3.21583 3.82002 3.53087
# Velocity P-wave (km/s) = 5.14541 5.87091 5.52009
#
# Compressibility (1/GPa) = 0.03525170
#
# Stress axis : x y z
#
# Youngs Moduli (GPa) = 31.57033 111.21908 41.65409
#
# Poissons Ratio (x) = -0.01062 0.53087
# Poissons Ratio (y) = -0.00302 0.08589
# Poissons Ratio (z) = 0.40235 0.22932
#
# Static dielectric constant tensor:
#      x y z
#    x 1.795380 -0.008390 0.006960 
#    y -0.008390 1.818740 -0.041980 
#    z 0.006960 -0.041980 1.855770 
# 
# From -- ./inp_files/495809.got.cif
#   From: 2010.05.17/outbox.cif.g08.bks.cpg/sg2_248_cif.got.tgz:495809.got - 2010.06.03 11:33:40.
