data_PCOD9105118
_publ_section_title
;
Structure prediction by ZEFSAII (Michael W. Deem and Ramdas Pophale) SiO2 
 PCOD9105118
Probable space group: P -1
;
_chemical_formula_sum "Si O2"
_cell_formula_units_Z 16
_cell_length_a 8.312093
_cell_length_b 9.165456
_cell_length_c 17.233966
_cell_angle_alpha 141.563671
_cell_angle_beta 110.495753
_cell_angle_gamma 82.385630
_cell_volume 741.523229
_symmetry_space_group_name_H-M "P -1"
_symmetry_group_IT_number 2
_symmetry_cell_setting 'triclinic'
loop_
_space_group_symop_operation_xyz
x,y,z
-x,-y,-z
loop_
_atom_site_type_symbol
_atom_site_label
_atom_site_fract_x
_atom_site_fract_y
_atom_site_fract_z
Si Si1 0.977959 0.408141 0.658107
Si Si2 0.399894 0.259615 0.162049
Si Si3 0.673617 0.297537 0.083431
Si Si4 0.612980 0.438026 0.563458
Si Si5 0.810368 0.546984 0.904295
Si Si6 0.074747 0.019299 0.405449
Si Si7 0.174018 0.366922 0.883617
Si Si8 0.580729 0.028589 0.611464
O O1 0.825692 0.509904 0.634421
O O2 0.130962 0.610622 0.807896
O O3 0.902130 0.199040 0.623432
O O4 0.061161 0.253119 0.546981
O O5 0.542039 0.318968 0.140687
O O6 0.442200 0.443693 0.317578
O O7 0.218935 0.286833 0.102125
O O8 0.375910 0.982033 0.066411
O O9 0.683385 0.469260 0.081410
O O10 0.500000 0.500000 0.500000
O O11 0.565068 0.145841 0.434928
O O12 0.002017 0.486138 0.907237
O O13 0.657889 0.300227 0.764250
O O14 0.779624 0.649894 0.025957
O O15 0.899930 0.894271 0.276377
O O16 0.245063 0.076316 0.403684
O O17 0.500000 0.000000 0.500000
#
# Coordination Sequence:
#
# PCOD9105118 Si02
#       8
#     2   2   2   2   2   2   2   2
#     4  10  20  39  63  92 116 162 203 256 309 363
#     4  11  23  43  60  88 125 167 204 251 309 372
#     4  10  23  40  64  88 124 163 205 248 315 371
#     4  12  26  41  60  92 125 163 210 256 308 370
#     4  10  21  37  65  90 125 156 207 254 301 368
#     4   9  18  36  65  90 121 151 207 254 302 367
#     4   9  20  39  60  98 118 157 206 254 304 360
#     4  11  19  37  62  88 118 161 200 252 310 364
#
# _framework density 21.577207000000001
#
# number of rings (size 3 to 8) (size 9 to 14) (size 15 to 20)
#    0.000    1.750    2.500    2.250    1.750    3.500 
#    9.000    1.250    0.000    0.000    0.000    0.000 
#    0.000    0.000    0.000    0.000    0.000    0.000 
#
# Total GULP energy -89303.082443 kJ/mol
# GULP energy per Si atom -5581.442653 kJ/mol
# Density = 2.152810 g / cm^3
# Si number density = 21.577207 Si / 1000 Ang^3
#
#
#
# Elastic Constant Matrix: (Units=GPa)
#
#
# Indices 1 2 3 4 5 6 
#
# 1 43.8742 -2.2853 11.8591 4.9887 3.8554 0.2884
# 2 -2.2853 53.4180 19.6391 -24.1451 -0.2406 -2.7364
# 3 11.8591 19.6391 80.5005 -7.5737 -8.8112 7.8929
# 4 4.9887 -24.1451 -7.5737 33.2419 4.5597 2.7074
# 5 3.8554 -0.2406 -8.8112 4.5597 25.7084 -2.3976
# 6 0.2884 -2.7364 7.8929 2.7074 -2.3976 21.8467
#
#
#
# Elastic Compliance Matrix: (Units=1/GPa)
#
#
# Indices 1 2 3 4 5 6 
#
# 1 0.025009 0.001487 -0.005028 -0.003297 -0.004729 0.001562
# 2 0.001487 0.031011 -0.006702 0.021315 -0.005729 0.003016
# 3 -0.005028 -0.006702 0.015920 -0.000803 0.005750 -0.005794
# 4 -0.003297 0.021315 -0.000803 0.047326 -0.008327 -0.003775
# 5 -0.004729 -0.005729 0.005750 -0.008327 0.043285 0.003050
# 6 0.001562 0.003016 -0.005794 -0.003775 0.003050 0.049027
#
#
# Mechanical properties :
#
#
# Convention : Reuss Voigt Hill
#
# Bulk Modulus (GPa) = 19.43499 26.24651 22.84075
# Shear Modulus (GPa) = 20.06295 26.06473 23.06384
#
# Velocity S-wave (km/s) = 3.05261 3.47936 3.27295
# Velocity P-wave (km/s) = 4.63155 5.32275 4.98914
#
# Compressibility (1/GPa) = 0.05145359
#
# Stress axis : x y z
#
# Youngs Moduli (GPa) = 39.98530 32.24675 62.81435
#
# Poissons Ratio (x) = -0.04794 0.31583
# Poissons Ratio (y) = -0.05945 0.42098
# Poissons Ratio (z) = 0.20105 0.21612
#
# Static dielectric constant tensor:
#      x y z
#    x 1.854770 -0.019060 0.013390 
#    y -0.019060 1.816100 -0.015280 
#    z 0.013390 -0.015280 1.760540 
# 
# From -- ./inp_files/256295.got.cif
#   From: 2010.05.17/outbox.cif.g08.bks.cpg/sg2_129_cif.got.tgz:256295.got - 2010.06.03 11:33:40.
