data_PCOD9105640
_publ_section_title
;
Structure prediction by ZEFSAII (Michael W. Deem and Ramdas Pophale) SiO2 
 PCOD9105640
Probable space group: P -1
;
_chemical_formula_sum "Si O2"
_cell_formula_units_Z 16
_cell_length_a 11.374869
_cell_length_b 9.503802
_cell_length_c 8.771204
_cell_angle_alpha 98.705739
_cell_angle_beta 94.475873
_cell_angle_gamma 61.201730
_cell_volume 821.345825
_symmetry_space_group_name_H-M "P -1"
_symmetry_group_IT_number 2
_symmetry_cell_setting 'triclinic'
loop_
_space_group_symop_operation_xyz
x,y,z
-x,-y,-z
loop_
_atom_site_type_symbol
_atom_site_label
_atom_site_fract_x
_atom_site_fract_y
_atom_site_fract_z
Si Si1 0.262117 0.900755 0.270023
Si Si2 0.194190 0.419870 0.945046
Si Si3 0.151639 0.128889 0.029278
Si Si4 0.352855 0.052085 0.558338
Si Si5 0.919835 0.622218 0.373990
Si Si6 0.578994 0.074310 0.117647
Si Si7 0.917412 0.269257 0.806406
Si Si8 0.486007 0.341019 0.950666
O O1 0.177701 0.805330 0.258993
O O2 0.399171 0.785079 0.171573
O O3 0.173343 0.069983 0.195810
O O4 0.299343 0.948110 0.441772
O O5 0.099130 0.466245 0.793766
O O6 0.341171 0.370410 0.888106
O O7 0.179297 0.277338 0.007833
O O8 0.160318 0.559376 0.087214
O O9 0.018912 0.160967 0.932635
O O10 0.274629 0.977056 0.939792
O O11 0.230006 0.236896 0.572164
O O12 0.500000 0.000000 0.500000
O O13 0.390314 0.996770 0.725461
O O14 0.000000 0.500000 0.500000
O O15 0.001160 0.709763 0.323954
O O16 0.497997 0.263161 0.107229
O O17 0.500000 0.000000 0.000000
O O18 0.500000 0.500000 0.000000
#
# Coordination Sequence:
#
# PCOD9105640 Si02
#       8
#     2   2   2   2   2   2   2   2
#     4  11  25  39  66 100 132 167 212 276 337 384
#     4  11  21  41  71  91 125 170 226 270 316 393
#     4  10  20  39  65  93 122 168 225 260 310 391
#     4  12  25  43  68 100 135 172 224 276 328 397
#     4  11  25  44  65  98 135 177 220 271 333 392
#     4  11  20  41  68  90 121 170 218 268 313 387
#     4  11  23  42  63  95 132 168 221 262 330 393
#     4  11  22  42  65  97 128 166 221 271 326 388
#
# _framework density 19.480222999999999
#
# number of rings (size 3 to 8) (size 9 to 14) (size 15 to 20)
#    0.000    1.000    5.000    4.125    3.500    0.500 
#    2.250    0.625    0.000    0.000    0.000    0.000 
#    0.000    0.000    0.000    0.000    0.000    0.000 
#
# Total GULP energy -89192.597486 kJ/mol
# GULP energy per Si atom -5574.537343 kJ/mol
# Density = 1.943588 g / cm^3
# Si number density = 19.480223 Si / 1000 Ang^3
#
#
#
# Elastic Constant Matrix: (Units=GPa)
#
#
# Indices 1 2 3 4 5 6 
#
# 1 132.1863 37.5429 39.3618 -2.7171 15.0571 0.4227
# 2 37.5429 90.3311 52.0894 -12.4342 13.8596 1.8938
# 3 39.3618 52.0894 104.7621 -18.2072 22.7705 1.8630
# 4 -2.7171 -12.4342 -18.2072 36.3438 -1.5359 3.0044
# 5 15.0571 13.8596 22.7705 -1.5359 32.0579 7.6713
# 6 0.4227 1.8938 1.8630 3.0044 7.6713 32.2101
#
#
#
# Elastic Compliance Matrix: (Units=1/GPa)
#
#
# Indices 1 2 3 4 5 6 
#
# 1 0.009065 -0.002529 -0.001951 -0.001312 -0.002020 0.000746
# 2 -0.002529 0.016383 -0.006608 0.002107 -0.000978 -0.000511
# 3 -0.001951 -0.006608 0.016124 0.005283 -0.007619 0.000803
# 4 -0.001312 0.002107 0.005283 0.030940 -0.001882 -0.002850
# 5 -0.002020 -0.000978 -0.007619 -0.001882 0.039999 -0.008826
# 6 0.000746 -0.000511 0.000803 -0.002850 -0.008826 0.033388
#
#
# Mechanical properties :
#
#
# Convention : Reuss Voigt Hill
#
# Bulk Modulus (GPa) = 51.55566 65.02974 58.29270
# Shear Modulus (GPa) = 28.64712 33.34137 30.99424
#
# Velocity S-wave (km/s) = 3.83897 4.14158 3.99314
# Velocity P-wave (km/s) = 6.79510 7.50501 7.15886
#
# Compressibility (1/GPa) = 0.01939651
#
# Stress axis : x y z
#
# Youngs Moduli (GPa) = 110.31484 61.04071 62.02107
#
# Poissons Ratio (x) = 0.15437 0.12098
# Poissons Ratio (y) = 0.27898 0.40981
# Poissons Ratio (z) = 0.21519 0.40334
#
# Static dielectric constant tensor:
#      x y z
#    x 1.734990 -0.042470 -0.054020 
#    y -0.042470 1.762830 -0.060090 
#    z -0.054020 -0.060090 1.831450 
# 
# From -- ./inp_files/202599.got.cif
#   From: 2010.05.17/outbox.cif.g08.bks.cpg/sg2_102_cif.got.tgz:202599.got - 2010.06.03 11:33:40.
