data_PCOD9105018
_publ_section_title
;
Structure prediction by ZEFSAII (Michael W. Deem and Ramdas Pophale) SiO2 
 PCOD9105018
Probable space group: P -1
;
_chemical_formula_sum "Si O2"
_cell_formula_units_Z 16
_cell_length_a 15.513078
_cell_length_b 15.770039
_cell_length_c 14.523627
_cell_angle_alpha 151.654196
_cell_angle_beta 151.769649
_cell_angle_gamma 36.337397
_cell_volume 790.756631
_symmetry_space_group_name_H-M "P -1"
_symmetry_group_IT_number 2
_symmetry_cell_setting 'triclinic'
loop_
_space_group_symop_operation_xyz
x,y,z
-x,-y,-z
loop_
_atom_site_type_symbol
_atom_site_label
_atom_site_fract_x
_atom_site_fract_y
_atom_site_fract_z
Si Si1 0.990540 0.743162 0.677525
Si Si2 0.720706 0.571932 0.862520
Si Si3 0.248705 0.785657 0.331224
Si Si4 0.994892 0.123738 0.970678
Si Si5 0.708994 0.408297 0.495133
Si Si6 0.321398 0.449047 0.733183
Si Si7 0.039715 0.115933 0.559319
Si Si8 0.656548 0.721760 0.603436
O O1 0.180942 0.615241 0.719455
O O2 0.998774 0.803271 0.849707
O O3 0.811067 0.642052 0.408620
O O4 0.971558 0.915900 0.760580
O O5 0.777660 0.389273 0.800368
O O6 0.749102 0.516127 0.729159
O O7 0.502672 0.626037 0.727007
O O8 0.167840 0.267616 0.851071
O O9 0.464722 0.799234 0.543094
O O10 0.139499 0.968098 0.442770
O O11 0.168847 0.767386 0.136808
O O12 0.184380 0.152456 0.127156
O O13 0.851027 0.227347 0.451800
O O14 0.724748 0.539109 0.548868
O O15 0.377919 0.322730 0.578209
O O16 0.500000 0.500000 0.000000
O O17 0.000000 0.000000 0.500000
#
# Coordination Sequence:
#
# PCOD9105018 Si02
#       8
#     2   2   2   2   2   2   2   2
#     4   9  21  39  61  91 118 163 204 244 313 370
#     4  10  23  45  62  88 131 162 208 258 310 374
#     4  11  24  42  61  97 126 165 208 260 311 366
#     4  10  21  40  63  87 127 156 202 263 302 367
#     4  10  22  43  64  88 126 169 200 261 313 361
#     4  10  20  39  63  88 123 162 202 248 307 374
#     4  12  25  39  66  95 120 169 216 251 315 370
#     4  10  23  40  64  90 123 164 204 252 319 360
#
# _framework density 20.233785999999998
#
# number of rings (size 3 to 8) (size 9 to 14) (size 15 to 20)
#    0.000    1.750    1.250    1.875    3.500    2.500 
#    9.000    3.750    0.000    0.000    0.000    0.000 
#    0.000    0.000    0.000    0.000    0.000    0.000 
#
# Total GULP energy -89410.096121 kJ/mol
# GULP energy per Si atom -5588.131008 kJ/mol
# Density = 2.018773 g / cm^3
# Si number density = 20.233786 Si / 1000 Ang^3
#
#
#
# Elastic Constant Matrix: (Units=GPa)
#
#
# Indices 1 2 3 4 5 6 
#
# 1 64.0960 47.1848 20.1118 1.6191 12.4628 2.3563
# 2 47.1848 123.7471 62.1518 -5.2249 12.7090 -10.9021
# 3 20.1118 62.1518 99.0288 -2.5067 15.9802 3.3034
# 4 1.6191 -5.2249 -2.5067 23.3268 -0.9410 -4.9279
# 5 12.4628 12.7090 15.9802 -0.9410 16.6722 2.6585
# 6 2.3563 -10.9021 3.3034 -4.9279 2.6585 32.9915
#
#
#
# Elastic Compliance Matrix: (Units=1/GPa)
#
#
# Indices 1 2 3 4 5 6 
#
# 1 0.025539 -0.011071 0.004061 -0.005561 -0.013966 -0.005594
# 2 -0.011071 0.017721 -0.009466 0.005567 0.002847 0.008197
# 3 0.004061 -0.009466 0.017203 -0.001975 -0.011704 -0.004492
# 4 -0.005561 0.005567 -0.001975 0.046336 0.002968 0.009117
# 5 -0.013966 0.002847 -0.011704 0.002968 0.080098 -0.002901
# 6 -0.005594 0.008197 -0.004492 0.009117 -0.002901 0.035464
#
#
# Mechanical properties :
#
#
# Convention : Reuss Voigt Hill
#
# Bulk Modulus (GPa) = 36.34797 60.64096 48.49446
# Shear Modulus (GPa) = 18.90483 25.09299 21.99891
#
# Velocity S-wave (km/s) = 3.05998 3.52540 3.30090
# Velocity P-wave (km/s) = 5.52156 6.82689 6.20863
#
# Compressibility (1/GPa) = 0.02751185
#
# Stress axis : x y z
#
# Youngs Moduli (GPa) = 39.15560 56.42936 58.13091
#
# Poissons Ratio (x) = 0.62474 -0.23608
# Poissons Ratio (y) = 0.43350 0.55024
# Poissons Ratio (z) = -0.15902 0.53414
#
# Static dielectric constant tensor:
#      x y z
#    x 1.737330 -0.010550 -0.016430 
#    y -0.010550 1.698140 -0.005310 
#    z -0.016430 -0.005310 1.711340 
# 
# From -- ./inp_files/533949.got.cif
#   From: 2010.05.17/outbox.cif.g08.bks.cpg/sg2_267_cif.got.tgz:533949.got - 2010.06.03 11:33:40.
