data_PCOD9105248
_publ_section_title
;
Structure prediction by ZEFSAII (Michael W. Deem and Ramdas Pophale) SiO2 
 PCOD9105248
Probable space group: P -1
;
_chemical_formula_sum "Si O2"
_cell_formula_units_Z 16
_cell_length_a 14.536282
_cell_length_b 14.669329
_cell_length_c 7.492406
_cell_angle_alpha 118.891130
_cell_angle_beta 64.451505
_cell_angle_gamma 150.392036
_cell_volume 690.870494
_symmetry_space_group_name_H-M "P -1"
_symmetry_group_IT_number 2
_symmetry_cell_setting 'triclinic'
loop_
_space_group_symop_operation_xyz
x,y,z
-x,-y,-z
loop_
_atom_site_type_symbol
_atom_site_label
_atom_site_fract_x
_atom_site_fract_y
_atom_site_fract_z
Si Si1 0.687998 0.869323 0.555100
Si Si2 0.349457 0.453498 0.457733
Si Si3 0.842083 0.545251 0.610788
Si Si4 0.852623 0.463478 0.137129
Si Si5 0.374546 0.772192 0.218771
Si Si6 0.054082 0.225604 0.769972
Si Si7 0.272063 0.917388 0.562858
Si Si8 0.643068 0.624130 0.160263
O O1 0.690144 0.975236 0.535672
O O2 0.845448 0.010069 0.707604
O O3 0.486916 0.664659 0.604521
O O4 0.720674 0.805063 0.319264
O O5 0.254748 0.430471 0.345973
O O6 0.179697 0.279619 0.560338
O O7 0.486656 0.478099 0.309778
O O8 0.826485 0.456244 0.363808
O O9 0.745091 0.408551 0.729472
O O10 0.061141 0.748551 0.643405
O O11 0.931546 0.640677 0.163880
O O12 0.670892 0.282736 0.001658
O O13 0.000000 0.500000 0.000000
O O14 0.310703 0.833127 0.386472
O O15 0.585892 0.937499 0.259197
O O16 0.180635 0.301473 0.904262
O O17 0.500000 0.500000 0.000000
#
# Coordination Sequence:
#
# PCOD9105248 Si02
#       8
#     2   2   2   2   2   2   2   2
#     4  10  20  39  64  85 126 157 209 254 311 376
#     4   9  21  37  66  83 123 158 206 246 315 372
#     4  11  21  42  66  89 127 176 202 254 327 371
#     4  11  23  39  66  96 127 164 214 258 306 382
#     4  11  23  40  63  92 131 167 210 266 307 372
#     4  11  21  41  66  87 121 169 204 251 317 374
#     4  11  21  38  64  92 124 170 211 254 320 372
#     4  10  23  39  65  92 120 160 205 264 315 367
#
# _framework density 23.159186999999999
#
# number of rings (size 3 to 8) (size 9 to 14) (size 15 to 20)
#    0.750    0.750    5.000    1.125    3.500    0.000 
#    0.000    6.875    0.000    0.000    0.000    0.000 
#    0.000    0.000    0.000    0.000    0.000    0.000 
#
# Total GULP energy -89311.144475 kJ/mol
# GULP energy per Si atom -5581.946530 kJ/mol
# Density = 2.310648 g / cm^3
# Si number density = 23.159187 Si / 1000 Ang^3
#
#
#
# Elastic Constant Matrix: (Units=GPa)
#
#
# Indices 1 2 3 4 5 6 
#
# 1 126.3594 29.2236 14.0230 25.1630 10.4863 18.2844
# 2 29.2236 86.1441 6.0847 23.9660 19.6209 23.4482
# 3 14.0230 6.0847 77.1822 18.2845 27.2316 17.9423
# 4 25.1630 23.9660 18.2845 26.6103 8.4558 6.8050
# 5 10.4863 19.6209 27.2316 8.4558 38.9456 9.4098
# 6 18.2844 23.4482 17.9423 6.8050 9.4098 46.2731
#
#
#
# Elastic Compliance Matrix: (Units=1/GPa)
#
#
# Indices 1 2 3 4 5 6 
#
# 1 0.010166 0.000241 0.001541 -0.009760 -0.001072 -0.003084
# 2 0.000241 0.021302 0.008789 -0.019774 -0.010409 -0.009273
# 3 0.001541 0.008789 0.023796 -0.018681 -0.015393 -0.008412
# 4 -0.009760 -0.019774 -0.018681 0.072737 0.007721 0.008854
# 5 -0.001072 -0.010409 -0.015393 0.007721 0.039703 0.002458
# 6 -0.003084 -0.009273 -0.008412 0.008854 0.002458 0.028988
#
#
# Mechanical properties :
#
#
# Convention : Reuss Voigt Hill
#
# Bulk Modulus (GPa) = 13.08765 43.14979 28.11872
# Shear Modulus (GPa) = 24.87369 38.38944 31.63156
#
# Velocity S-wave (km/s) = 3.28080 4.07582 3.69973
# Velocity P-wave (km/s) = 4.47381 6.38921 5.51530
#
# Compressibility (1/GPa) = 0.07640792
#
# Stress axis : x y z
#
# Youngs Moduli (GPa) = 98.36847 46.94396 42.02458
#
# Poissons Ratio (x) = -0.01133 -0.06477
# Poissons Ratio (y) = -0.02375 -0.36937
# Poissons Ratio (z) = -0.15162 -0.41261
#
# Static dielectric constant tensor:
#      x y z
#    x 1.956310 -0.001070 0.081480 
#    y -0.001070 1.819940 -0.026430 
#    z 0.081480 -0.026430 2.002580 
# 
# From -- ./inp_files/315745.got.cif
#   From: 2010.05.17/outbox.cif.g08.bks.cpg/sg2_158_cif.got.tgz:315745.got - 2010.06.03 11:33:40.
