data_PCOD9105372
_publ_section_title
;
Structure prediction by ZEFSAII (Michael W. Deem and Ramdas Pophale) SiO2 
 PCOD9105372
Probable space group: P -1
;
_chemical_formula_sum "Si O2"
_cell_formula_units_Z 16
_cell_length_a 9.852413
_cell_length_b 19.596809
_cell_length_c 20.216123
_cell_angle_alpha 24.287796
_cell_angle_beta 38.572463
_cell_angle_gamma 28.239409
_cell_volume 755.132271
_symmetry_space_group_name_H-M "P -1"
_symmetry_group_IT_number 2
_symmetry_cell_setting 'triclinic'
loop_
_space_group_symop_operation_xyz
x,y,z
-x,-y,-z
loop_
_atom_site_type_symbol
_atom_site_label
_atom_site_fract_x
_atom_site_fract_y
_atom_site_fract_z
Si Si1 0.599829 0.583955 0.832686
Si Si2 0.074092 0.928356 0.640627
Si Si3 0.124441 0.424263 0.848819
Si Si4 0.955236 0.776720 0.125808
Si Si5 0.276055 0.780963 0.247221
Si Si6 0.827394 0.323614 0.297411
Si Si7 0.168076 0.587171 0.353463
Si Si8 0.659852 0.061893 0.788443
O O1 0.323525 0.805985 0.708381
O O2 0.820528 0.592271 0.780007
O O3 0.784135 0.411089 0.854910
O O4 0.500000 0.500000 0.000000
O O5 0.125901 0.744334 0.736347
O O6 0.053019 0.099731 0.451162
O O7 0.772038 0.057492 0.678618
O O8 0.378899 0.390889 0.742602
O O9 0.134356 0.506462 0.843961
O O10 0.204931 0.188389 0.027000
O O11 0.682779 0.790053 0.208386
O O12 0.032215 0.746341 0.200509
O O13 0.843843 0.007968 0.937718
O O14 0.145498 0.686349 0.345875
O O15 0.229034 0.859514 0.270579
O O16 0.507204 0.419624 0.353693
O O17 0.000000 0.500000 0.500000
#
# Coordination Sequence:
#
# PCOD9105372 Si02
#       8
#     2   2   2   2   2   2   2   2
#     4  12  21  39  66  95 125 160 211 266 307 366
#     4  11  23  42  62  87 133 168 211 254 310 375
#     4  10  20  39  64  92 124 160 208 258 313 368
#     4  11  20  39  65  92 125 162 206 260 314 362
#     4  10  20  39  64  94 125 159 208 257 317 369
#     4  10  24  43  61  88 128 175 207 251 315 379
#     4  11  23  41  62  94 127 164 212 257 307 373
#     4  11  20  40  65  95 124 162 205 262 314 372
#
# _framework density 21.188341000000001
#
# number of rings (size 3 to 8) (size 9 to 14) (size 15 to 20)
#    0.000    1.250    5.000    1.875    0.000    1.000 
#    2.250    8.125    0.000    0.000    0.000    0.000 
#    0.000    0.000    0.000    0.000    0.000    0.000 
#
# Total GULP energy -89351.117410 kJ/mol
# GULP energy per Si atom -5584.444838 kJ/mol
# Density = 2.114012 g / cm^3
# Si number density = 21.188341 Si / 1000 Ang^3
#
#
#
# Elastic Constant Matrix: (Units=GPa)
#
#
# Indices 1 2 3 4 5 6 
#
# 1 140.8486 38.5290 27.9596 3.0501 -13.7864 14.0597
# 2 38.5290 73.2862 15.4183 7.6984 -4.1537 6.9797
# 3 27.9596 15.4183 23.8695 6.0813 1.7043 -6.9200
# 4 3.0501 7.6984 6.0813 16.8344 -4.3753 7.7975
# 5 -13.7864 -4.1537 1.7043 -4.3753 37.9084 -11.5747
# 6 14.0597 6.9797 -6.9200 7.7975 -11.5747 46.7099
#
#
#
# Elastic Compliance Matrix: (Units=1/GPa)
#
#
# Indices 1 2 3 4 5 6 
#
# 1 0.011985 -0.002975 -0.016469 0.009001 0.003941 -0.006129
# 2 -0.002975 0.017370 -0.007425 -0.003702 0.000067 -0.002166
# 3 -0.016469 -0.007425 0.082050 -0.035586 -0.007812 0.022227
# 4 0.009001 -0.003702 -0.035586 0.083397 0.008194 -0.019320
# 5 0.003941 0.000067 -0.007812 0.008194 0.030271 0.003780
# 6 -0.006129 -0.002166 0.022227 -0.019320 0.003780 0.031032
#
#
# Mechanical properties :
#
#
# Convention : Reuss Voigt Hill
#
# Bulk Modulus (GPa) = 17.34090 44.64644 30.99367
# Shear Modulus (GPa) = 15.19455 30.69706 22.94580
#
# Velocity S-wave (km/s) = 2.68081 3.81040 3.29438
# Velocity P-wave (km/s) = 4.21714 6.36206 5.39723
#
# Compressibility (1/GPa) = 0.05766713
#
# Stress axis : x y z
#
# Youngs Moduli (GPa) = 83.43460 57.57030 12.18775
#
# Poissons Ratio (x) = 0.17126 0.20072
# Poissons Ratio (y) = 0.24820 0.09049
# Poissons Ratio (z) = 1.37410 0.42746
#
# Static dielectric constant tensor:
#      x y z
#    x 1.772310 0.012370 0.001920 
#    y 0.012370 1.781370 -0.026680 
#    z 0.001920 -0.026680 1.770280 
# 
# From -- ./inp_files/184246.got.cif
#   From: 2010.05.17/outbox.cif.g08.bks.cpg/sg2_93_cif.got.tgz:184246.got - 2010.06.03 11:33:40.
