data_PCOD9105973
_publ_section_title
;
Structure prediction by ZEFSAII (Michael W. Deem and Ramdas Pophale) SiO2 
 PCOD9105973
Probable space group: P -1
;
_chemical_formula_sum "Si O2"
_cell_formula_units_Z 15
_cell_length_a 8.453143
_cell_length_b 8.085032
_cell_length_c 9.896084
_cell_angle_alpha 98.730407
_cell_angle_beta 78.382141
_cell_angle_gamma 127.574136
_cell_volume 524.693051
_symmetry_space_group_name_H-M "P -1"
_symmetry_group_IT_number 2
_symmetry_cell_setting 'triclinic'
loop_
_space_group_symop_operation_xyz
x,y,z
-x,-y,-z
loop_
_atom_site_type_symbol
_atom_site_label
_atom_site_fract_x
_atom_site_fract_y
_atom_site_fract_z
Si Si1 0.937854 0.015078 0.165960
Si Si2 0.819615 0.118876 0.801842
Si Si3 0.453443 0.731714 0.935841
Si Si4 0.181702 0.572193 0.732187
Si Si5 0.000000 0.000000 0.500000
Si Si6 0.088064 0.382235 0.376986
Si Si7 0.479533 0.618624 0.199017
Si Si8 0.575209 0.893647 0.565750
O O1 0.703583 0.830302 0.197248
O O2 0.058232 0.980597 0.256085
O O3 0.011781 0.241041 0.227941
O O4 0.000000 0.000000 0.000000
O O5 0.008410 0.355321 0.808075
O O6 0.659291 0.965571 0.923733
O O7 0.676797 0.057793 0.693561
O O8 0.285355 0.710369 0.868003
O O9 0.502041 0.570299 0.856299
O O10 0.386687 0.656519 0.089722
O O11 0.396837 0.672510 0.633756
O O12 0.063347 0.561605 0.618126
O O13 0.048863 0.227109 0.481173
O O14 0.243868 0.112106 0.511545
O O15 0.324294 0.554627 0.336668
O O16 0.500000 0.000000 0.500000
#
# Coordination Sequence:
#
# PCOD9105973 Si02
#       8
#     2   2   2   2   1   2   2   2
#     4  12  22  42  72 103 137 191 239 288 357 430
#     4  11  22  41  70 102 137 190 234 279 364 434
#     4  10  20  39  66  96 140 182 227 288 343 423
#     4  11  25  43  68 103 145 187 230 295 371 416
#     4  12  24  50  72 102 136 188 242 298 362 418
#     4  12  26  45  67 103 143 181 244 303 353 431
#     4  11  21  38  67 101 131 184 238 281 347 422
#     4  11  24  48  74  98 143 187 239 308 353 416
#
# _framework density 28.588144
#
# number of rings (size 3 to 8) (size 9 to 14) (size 15 to 20)
#    0.000    0.800    6.667    1.600    0.000    3.200 
#    0.000    2.667    0.000    0.000    0.000    0.000 
#    0.000    0.000    0.000    0.000    0.000    0.000 
#
# Total GULP energy -83678.229921 kJ/mol
# GULP energy per Si atom -5578.548661 kJ/mol
# Density = 2.852308 g / cm^3
# Si number density = 28.588144 Si / 1000 Ang^3
#
#
#
# Elastic Constant Matrix: (Units=GPa)
#
#
# Indices 1 2 3 4 5 6 
#
# 1 146.3957 56.9314 33.9757 -21.7305 32.0484 29.1530
# 2 56.9314 170.1312 43.8926 -38.1048 -16.7933 48.9046
# 3 33.9757 43.8926 102.1222 -24.6528 30.3045 6.2214
# 4 -21.7305 -38.1048 -24.6528 59.0785 11.7778 -10.8125
# 5 32.0484 -16.7933 30.3045 11.7778 58.6689 -15.8302
# 6 29.1530 48.9046 6.2214 -10.8125 -15.8302 53.0373
#
#
#
# Elastic Compliance Matrix: (Units=1/GPa)
#
#
# Indices 1 2 3 4 5 6 
#
# 1 0.011723 -0.002595 0.001861 0.004353 -0.010761 -0.006594
# 2 -0.002595 0.010413 -0.004081 0.002078 0.004488 -0.005934
# 3 0.001861 -0.004081 0.016455 0.007145 -0.012515 -0.001469
# 4 0.004353 0.002078 0.007145 0.024462 -0.011341 -0.003546
# 5 -0.010761 0.004488 -0.012515 -0.011341 0.036109 0.011710
# 6 -0.006594 -0.005934 -0.001469 -0.003546 0.011710 0.030895
#
#
# Mechanical properties :
#
#
# Convention : Reuss Voigt Hill
#
# Bulk Modulus (GPa) = 34.52797 76.47208 55.50002
# Shear Modulus (GPa) = 33.48065 53.08022 43.28044
#
# Velocity S-wave (km/s) = 3.42590 4.31364 3.89515
# Velocity P-wave (km/s) = 5.26811 7.18454 6.29963
#
# Compressibility (1/GPa) = 0.02896203
#
# Stress axis : x y z
#
# Youngs Moduli (GPa) = 85.30237 96.03398 60.77107
#
# Poissons Ratio (x) = 0.24918 -0.11309
# Poissons Ratio (y) = 0.22134 0.24799
# Poissons Ratio (z) = -0.15874 0.39189
#
# Static dielectric constant tensor:
#      x y z
#    x 2.410670 -0.218160 0.040830 
#    y -0.218160 2.235250 0.099530 
#    z 0.040830 0.099530 2.193590 
# 
# From -- ./inp_files/378748.got.cif
#   From: 2010.05.17/outbox.cif.g08.bks.cpg/sg2_190_cif.got.tgz:378748.got - 2010.06.03 11:33:40.
