data_PCOD9105310
_publ_section_title
;
Structure prediction by ZEFSAII (Michael W. Deem and Ramdas Pophale) SiO2 
 PCOD9105310
Probable space group: P -1
;
_chemical_formula_sum "Si O2"
_cell_formula_units_Z 14
_cell_length_a 20.886829
_cell_length_b 12.547978
_cell_length_c 9.043533
_cell_angle_alpha 31.598520
_cell_angle_beta 116.338625
_cell_angle_gamma 141.585418
_cell_volume 560.654974
_symmetry_space_group_name_H-M "P -1"
_symmetry_group_IT_number 2
_symmetry_cell_setting 'triclinic'
loop_
_space_group_symop_operation_xyz
x,y,z
-x,-y,-z
loop_
_atom_site_type_symbol
_atom_site_label
_atom_site_fract_x
_atom_site_fract_y
_atom_site_fract_z
Si Si1 0.014464 0.297732 0.221221
Si Si2 0.613066 0.829544 0.855188
Si Si3 0.350741 0.667596 0.819268
Si Si4 0.748765 0.427684 0.873844
Si Si5 0.210278 0.120207 0.081905
Si Si6 0.334340 0.840378 0.212448
Si Si7 0.036584 0.274136 0.604404
O O1 0.167098 0.578360 0.998872
O O2 0.986154 0.127620 0.555762
O O3 0.888217 0.917953 0.430774
O O4 0.000000 0.500000 0.000000
O O5 0.700613 0.239565 0.403321
O O6 0.555440 0.777448 0.015004
O O7 0.500000 0.500000 0.000000
O O8 0.716191 0.892629 0.895234
O O9 0.261178 0.267279 0.131273
O O10 0.500000 0.000000 0.500000
O O11 0.347309 0.700009 0.949979
O O12 0.652207 0.161275 0.945687
O O13 0.277647 0.483753 0.638876
O O14 0.042887 0.733854 0.390777
O O15 0.203890 0.678418 0.280562
O O16 0.000000 0.000000 0.000000
#
# Coordination Sequence:
#
# PCOD9105310 Si02
#       7
#     2   2   2   2   2   2   2
#     4  10  21  37  65  98 137 176 214 267 345 406
#     4  11  23  40  64  89 125 171 230 274 316 390
#     4  11  22  40  67  89 121 175 223 266 325 386
#     4  10  22  41  63  94 137 167 217 276 335 402
#     4  10  20  39  64  89 128 166 219 269 322 396
#     4   9  22  39  61  93 130 170 210 272 344 387
#     4   9  18  37  62  96 132 166 211 267 332 403
#
# _framework density 24.970793
#
# number of rings (size 3 to 8) (size 9 to 14) (size 15 to 20)
#    0.000    2.000    2.857    0.000    2.000    2.857 
#    0.000    3.571    0.000    0.000    0.000    0.000 
#    0.000    0.000    0.000    0.000    0.000    0.000 
#
# Total GULP energy -78015.923875 kJ/mol
# GULP energy per Si atom -5572.565991 kJ/mol
# Density = 2.491396 g / cm^3
# Si number density = 24.970793 Si / 1000 Ang^3
#
#
#
# Elastic Constant Matrix: (Units=GPa)
#
#
# Indices 1 2 3 4 5 6 
#
# 1 188.4684 47.9084 28.4656 13.1029 0.9032 -31.1182
# 2 47.9084 115.7124 11.2374 10.5527 -2.4973 -45.9105
# 3 28.4656 11.2374 30.2887 8.1052 -2.8886 -7.2278
# 4 13.1029 10.5527 8.1052 18.7546 -6.6056 -7.8112
# 5 0.9032 -2.4973 -2.8886 -6.6056 43.5400 2.6086
# 6 -31.1182 -45.9105 -7.2278 -7.8112 2.6086 60.0527
#
#
#
# Elastic Compliance Matrix: (Units=1/GPa)
#
#
# Indices 1 2 3 4 5 6 
#
# 1 0.006854 -0.001614 -0.005209 -0.001285 -0.000869 0.001561
# 2 -0.001614 0.013064 -0.000620 -0.002349 -0.000141 0.008777
# 3 -0.005209 -0.000620 0.041929 -0.013852 0.000750 0.000038
# 4 -0.001285 -0.002349 -0.013852 0.066337 0.008790 0.004118
# 5 -0.000869 -0.000141 0.000750 0.008790 0.024384 -0.000383
# 6 0.001561 0.008777 0.000038 0.004118 -0.000383 0.024728
#
#
# Mechanical properties :
#
#
# Convention : Reuss Voigt Hill
#
# Bulk Modulus (GPa) = 21.29468 56.63247 38.96358
# Shear Modulus (GPa) = 24.05724 40.92667 32.49196
#
# Velocity S-wave (km/s) = 3.10726 4.05283 3.61113
# Velocity P-wave (km/s) = 4.62815 6.68051 5.74670
#
# Compressibility (1/GPa) = 0.04696009
#
# Stress axis : x y z
#
# Youngs Moduli (GPa) = 145.89317 76.54448 23.84986
#
# Poissons Ratio (x) = 0.12354 0.12424
# Poissons Ratio (y) = 0.23547 0.01480
# Poissons Ratio (z) = 0.76001 0.04749
#
# Static dielectric constant tensor:
#      x y z
#    x 1.985750 0.004350 -0.024710 
#    y 0.004350 2.214910 -0.008020 
#    z -0.024710 -0.008020 2.065110 
# 
# From -- ./inp_files/345870.got.cif
#   From: 2010.05.17/outbox.cif.g08.bks.cpg/sg2_173_cif.got.tgz:345870.got - 2010.06.03 11:33:40.
