data_PCOD9105409
_publ_section_title
;
Structure prediction by ZEFSAII (Michael W. Deem and Ramdas Pophale) SiO2 
 PCOD9105409
Probable space group: P -1
;
_chemical_formula_sum "Si O2"
_cell_formula_units_Z 16
_cell_length_a 9.140837
_cell_length_b 9.068929
_cell_length_c 9.228713
_cell_angle_alpha 58.874831
_cell_angle_beta 81.880456
_cell_angle_gamma 73.627501
_cell_volume 628.337322
_symmetry_space_group_name_H-M "P -1"
_symmetry_group_IT_number 2
_symmetry_cell_setting 'triclinic'
loop_
_space_group_symop_operation_xyz
x,y,z
-x,-y,-z
loop_
_atom_site_type_symbol
_atom_site_label
_atom_site_fract_x
_atom_site_fract_y
_atom_site_fract_z
Si Si1 0.077883 0.094190 0.595829
Si Si2 0.756600 0.275494 0.305104
Si Si3 0.832568 0.570015 0.667471
Si Si4 0.642857 0.977389 0.168250
Si Si5 0.351790 0.427663 0.601136
Si Si6 0.966911 0.340760 0.998483
Si Si7 0.466969 0.319853 0.165221
Si Si8 0.866003 0.020524 0.888403
O O1 0.078133 0.277595 0.427299
O O2 0.219699 0.061583 0.710763
O O3 0.076848 0.882456 0.301859
O O4 0.136171 0.918431 0.576821
O O5 0.738299 0.445860 0.323236
O O6 0.824244 0.300778 0.123475
O O7 0.583414 0.266385 0.310716
O O8 0.757327 0.550578 0.534924
O O9 0.700155 0.631150 0.772676
O O10 0.933707 0.389687 0.811357
O O11 0.609019 0.782729 0.254679
O O12 0.506499 0.140587 0.156157
O O13 0.710069 0.058701 0.977289
O O14 0.500000 0.500000 0.500000
O O15 0.110273 0.177626 0.074674
O O16 0.000000 0.500000 0.000000
O O17 0.500000 0.500000 0.000000
O O18 0.000000 0.000000 0.000000
#
# Coordination Sequence:
#
# PCOD9105409 Si02
#       8
#     2   2   2   2   2   2   2   2
#     4   8  19  36  64  95 126 177 212 274 322 392
#     4  10  20  39  64  93 134 174 212 259 338 393
#     4  11  23  40  66 103 131 166 228 271 333 385
#     4   9  20  36  63  94 133 178 214 265 335 395
#     4  11  22  37  62 100 138 171 212 276 335 383
#     4  11  23  42  69  90 128 179 220 268 319 399
#     4  11  21  38  68  96 131 175 221 268 326 406
#     4   9  18  40  65  90 127 177 219 259 334 392
#
# _framework density 25.464030999999999
#
# number of rings (size 3 to 8) (size 9 to 14) (size 15 to 20)
#    0.000    2.000    2.500    1.500    1.750    1.500 
#    0.000   14.375    2.750    0.000    0.000    0.000 
#    0.000    0.000    0.000    0.000    0.000    0.000 
#
# Total GULP energy -89504.237052 kJ/mol
# GULP energy per Si atom -5594.014816 kJ/mol
# Density = 2.540607 g / cm^3
# Si number density = 25.464031 Si / 1000 Ang^3
#
#
#
# Elastic Constant Matrix: (Units=GPa)
#
#
# Indices 1 2 3 4 5 6 
#
# 1 55.3991 32.2601 28.8301 -16.3247 -11.8104 -0.0320
# 2 32.2601 186.4460 49.3465 -11.6130 -17.0892 -2.3807
# 3 28.8301 49.3465 122.9701 -11.2522 -22.7590 -1.1343
# 4 -16.3247 -11.6130 -11.2522 43.5338 4.0476 0.4070
# 5 -11.8104 -17.0892 -22.7590 4.0476 40.8532 -1.6780
# 6 -0.0320 -2.3807 -1.1343 0.4070 -1.6780 37.4315
#
#
#
# Elastic Compliance Matrix: (Units=1/GPa)
#
#
# Indices 1 2 3 4 5 6 
#
# 1 0.024099 -0.002530 -0.003365 0.007186 0.003315 -0.000172
# 2 -0.002530 0.006373 -0.001767 0.000203 0.000946 0.000390
# 3 -0.003365 -0.001767 0.010439 0.000584 0.004061 0.000377
# 4 0.007186 0.000203 0.000584 0.025881 -0.000087 -0.000249
# 5 0.003315 0.000946 0.004061 -0.000087 0.028162 0.001449
# 6 -0.000172 0.000390 0.000377 -0.000249 0.001449 0.026819
#
#
# Mechanical properties :
#
#
# Convention : Reuss Voigt Hill
#
# Bulk Modulus (GPa) = 39.08308 65.07651 52.07979
# Shear Modulus (GPa) = 34.33422 41.32225 37.82824
#
# Velocity S-wave (km/s) = 3.67596 4.03273 3.85847
# Velocity P-wave (km/s) = 5.77915 6.87718 6.35194
#
# Compressibility (1/GPa) = 0.02558652
#
# Stress axis : x y z
#
# Youngs Moduli (GPa) = 41.49468 156.90534 95.79794
#
# Poissons Ratio (x) = 0.39696 0.32240
# Poissons Ratio (y) = 0.10498 0.16929
# Poissons Ratio (z) = 0.13965 0.27727
#
# Static dielectric constant tensor:
#      x y z
#    x 2.080500 0.057470 0.014290 
#    y 0.057470 2.059110 0.022840 
#    z 0.014290 0.022840 2.080720 
# 
# From -- ./inp_files/237157.got.cif
#   From: 2010.05.17/outbox.cif.g08.bks.cpg/sg2_119_cif.got.tgz:237157.got - 2010.06.03 11:33:40.
