data_PCOD9105931
_publ_section_title
;
Structure prediction by ZEFSAII (Michael W. Deem and Ramdas Pophale) SiO2 
 PCOD9105931
Probable space group: P -1
;
_chemical_formula_sum "Si O2"
_cell_formula_units_Z 16
_cell_length_a 17.892090
_cell_length_b 5.493259
_cell_length_c 9.563577
_cell_angle_alpha 122.607644
_cell_angle_beta 51.902805
_cell_angle_gamma 120.018716
_cell_volume 602.834599
_symmetry_space_group_name_H-M "P -1"
_symmetry_group_IT_number 2
_symmetry_cell_setting 'triclinic'
loop_
_space_group_symop_operation_xyz
x,y,z
-x,-y,-z
loop_
_atom_site_type_symbol
_atom_site_label
_atom_site_fract_x
_atom_site_fract_y
_atom_site_fract_z
Si Si1 0.238322 0.858625 0.812952
Si Si2 0.487537 0.640339 0.404943
Si Si3 0.586925 0.295134 0.970542
Si Si4 0.671612 0.302566 0.574844
Si Si5 0.768677 0.200100 0.897442
Si Si6 0.921471 0.761859 0.843024
Si Si7 0.868248 0.677596 0.564459
Si Si8 0.069925 0.307273 0.799089
O O1 0.309177 0.958479 0.630627
O O2 0.179870 0.508780 0.752433
O O3 0.285780 0.885064 0.918717
O O4 0.155127 0.037204 0.978686
O O5 0.500000 0.500000 0.500000
O O6 0.555637 0.541314 0.178809
O O7 0.376680 0.519092 0.430397
O O8 0.500000 0.000000 0.500000
O O9 0.602695 0.309443 0.789665
O O10 0.691739 0.281011 0.907822
O O11 0.500000 0.000000 0.000000
O O12 0.779423 0.395703 0.547773
O O13 0.866800 0.463413 0.892385
O O14 0.809970 0.934187 0.710354
O O15 0.914226 0.670564 0.660152
O O16 0.030123 0.975103 0.806605
O O17 0.942114 0.725625 0.364852
O O18 0.000000 0.500000 0.000000
#
# Coordination Sequence:
#
# PCOD9105931 Si02
#       8
#     2   2   2   2   2   2   2   2
#     4   9  22  41  65  96 134 175 226 278 342 426
#     4  12  28  47  74 108 145 192 244 308 370 441
#     4  12  26  48  73 105 141 184 241 303 370 439
#     4  11  23  45  71  95 137 182 231 288 360 429
#     4  11  23  41  67  96 135 176 230 288 344 423
#     4  10  20  39  66  94 133 177 220 279 345 408
#     4  10  21  40  64  99 130 178 230 276 347 421
#     4   9  19  39  63  96 136 179 219 280 343 415
#
# _framework density 26.541278999999999
#
# number of rings (size 3 to 8) (size 9 to 14) (size 15 to 20)
#    0.000    1.500    1.250    3.000    1.750    2.000 
#    6.750    0.000    0.000    0.000    0.000    0.000 
#    0.000    0.000    0.000    0.000    0.000    0.000 
#
# Total GULP energy -89401.424292 kJ/mol
# GULP energy per Si atom -5587.589018 kJ/mol
# Density = 2.648087 g / cm^3
# Si number density = 26.541279 Si / 1000 Ang^3
#
#
#
# Elastic Constant Matrix: (Units=GPa)
#
#
# Indices 1 2 3 4 5 6 
#
# 1 124.4740 22.5072 50.3975 -6.1985 3.1031 -7.4112
# 2 22.5072 86.4674 55.5549 -3.8233 6.7514 13.6933
# 3 50.3975 55.5549 259.9024 -13.9986 28.9246 -19.6683
# 4 -6.1985 -3.8233 -13.9986 40.9738 -4.8662 0.4946
# 5 3.1031 6.7514 28.9246 -4.8662 35.6139 -8.0369
# 6 -7.4112 13.6933 -19.6683 0.4946 -8.0369 32.4171
#
#
#
# Elastic Compliance Matrix: (Units=1/GPa)
#
#
# Indices 1 2 3 4 5 6 
#
# 1 0.009057 -0.002020 -0.001231 0.000882 0.001274 0.002479
# 2 -0.002020 0.016140 -0.003573 -0.000168 -0.002263 -0.010006
# 3 -0.001231 -0.003573 0.005494 0.000994 -0.002665 0.003885
# 4 0.000882 -0.000168 0.000994 0.025188 0.002860 0.001201
# 5 0.001274 -0.002263 -0.002665 0.002860 0.032688 0.007691
# 6 0.002479 -0.010006 0.003885 0.001201 0.007691 0.039887
#
#
# Mechanical properties :
#
#
# Convention : Reuss Voigt Hill
#
# Bulk Modulus (GPa) = 58.67024 80.86256 69.76640
# Shear Modulus (GPa) = 33.83342 44.62657 39.23000
#
# Velocity S-wave (km/s) = 3.57423 4.10494 3.84874
# Velocity P-wave (km/s) = 6.25994 7.28013 6.78922
#
# Compressibility (1/GPa) = 0.01704442
#
# Stress axis : x y z
#
# Youngs Moduli (GPa) = 110.40854 61.95790 182.01062
#
# Poissons Ratio (x) = 0.12513 0.22410
# Poissons Ratio (y) = 0.22297 0.65028
# Poissons Ratio (z) = 0.13594 0.22136
#
# Static dielectric constant tensor:
#      x y z
#    x 2.125880 0.108920 0.039260 
#    y 0.108920 2.241050 -0.019760 
#    z 0.039260 -0.019760 2.105100 
# 
# From -- ./inp_files/340631.got.cif
#   From: 2010.05.17/outbox.cif.g08.bks.cpg/sg2_171_cif.got.tgz:340631.got - 2010.06.03 11:33:40.
