data_PCOD9105597
_publ_section_title
;
Structure prediction by ZEFSAII (Michael W. Deem and Ramdas Pophale) SiO2 
 PCOD9105597
Probable space group: P -1
;
_chemical_formula_sum "Si O2"
_cell_formula_units_Z 14
_cell_length_a 14.659784
_cell_length_b 15.046879
_cell_length_c 9.630815
_cell_angle_alpha 151.967602
_cell_angle_beta 46.526645
_cell_angle_gamma 142.640522
_cell_volume 605.160549
_symmetry_space_group_name_H-M "P -1"
_symmetry_group_IT_number 2
_symmetry_cell_setting 'triclinic'
loop_
_space_group_symop_operation_xyz
x,y,z
-x,-y,-z
loop_
_atom_site_type_symbol
_atom_site_label
_atom_site_fract_x
_atom_site_fract_y
_atom_site_fract_z
Si Si1 0.676142 0.830698 0.242797
Si Si2 0.603400 0.274792 0.745697
Si Si3 0.064130 0.149720 0.859092
Si Si4 0.253722 0.767080 0.074766
Si Si5 0.974242 0.705118 0.192681
Si Si6 0.217060 0.895890 0.777370
Si Si7 0.491607 0.709818 0.836256
O O1 0.500991 0.678889 0.175309
O O2 0.779277 0.752185 0.090637
O O3 0.686619 0.008851 0.588899
O O4 0.755643 0.964099 0.200408
O O5 0.750085 0.297135 0.558854
O O6 0.500000 0.000000 0.500000
O O7 0.602680 0.357304 0.013863
O O8 0.084951 0.246379 0.816453
O O9 0.993106 0.881083 0.534984
O O10 0.945624 0.182488 0.106550
O O11 0.142332 0.759630 0.065256
O O12 0.135649 0.548051 0.987948
O O13 0.396782 0.750775 0.879036
O O14 0.345298 0.069925 0.992874
O O15 0.500000 0.500000 0.500000
#
# Coordination Sequence:
#
# PCOD9105597 Si02
#       7
#     2   2   2   2   2   2   2
#     4   9  16  31  56  75 100 138 174 205 254 308
#     4   8  15  30  49  79 100 132 172 208 251 311
#     4  10  19  33  50  78 107 133 173 217 250 306
#     4  10  16  34  53  71 100 142 171 211 258 305
#     4   9  21  32  50  74 107 137 173 212 258 303
#     4  10  17  31  52  82 101 134 174 208 259 311
#     4  10  17  28  54  79 101 130 176 216 250 300
#
# _framework density 23.134354999999999
#
# number of rings (size 3 to 8) (size 9 to 14) (size 15 to 20)
#    0.000    2.857    4.286    1.286    0.000    0.000 
#    0.000    1.429    3.143    3.429    0.000    0.000 
#    0.000    0.000    0.000    0.000    0.000    0.000 
#
# Total GULP energy -78150.489325 kJ/mol
# GULP energy per Si atom -5582.177809 kJ/mol
# Density = 2.308170 g / cm^3
# Si number density = 23.134355 Si / 1000 Ang^3
#
#
#
# Elastic Constant Matrix: (Units=GPa)
#
#
# Indices 1 2 3 4 5 6 
#
# 1 176.8058 39.9354 19.5731 -8.5325 -32.3541 12.5961
# 2 39.9354 48.3496 25.9480 -5.8430 -8.4132 21.2577
# 3 19.5731 25.9480 111.6352 -22.9521 -27.0636 16.7659
# 4 -8.5325 -5.8430 -22.9521 17.3005 7.1657 -8.7189
# 5 -32.3541 -8.4132 -27.0636 7.1657 36.3269 -2.2487
# 6 12.5961 21.2577 16.7659 -8.7189 -2.2487 32.6900
#
#
#
# Elastic Compliance Matrix: (Units=1/GPa)
#
#
# Indices 1 2 3 4 5 6 
#
# 1 0.008330 -0.007190 0.002183 0.002422 0.006993 0.001473
# 2 -0.007190 0.038109 -0.006917 -0.009640 -0.002140 -0.021182
# 3 0.002183 -0.006917 0.015509 0.015963 0.008783 0.000564
# 4 0.002422 -0.009640 0.015963 0.089173 -0.004497 0.020623
# 5 0.006993 -0.002140 0.008783 -0.004497 0.040429 -0.004226
# 6 0.001473 -0.021182 0.000564 0.020623 -0.004226 0.048718
#
#
# Mechanical properties :
#
#
# Convention : Reuss Voigt Hill
#
# Bulk Modulus (GPa) = 26.24678 56.41150 41.32914
# Shear Modulus (GPa) = 18.06248 34.01908 26.04078
#
# Velocity S-wave (km/s) = 2.79725 3.83887 3.35868
# Velocity P-wave (km/s) = 4.66935 6.63976 5.73974
#
# Compressibility (1/GPa) = 0.03809992
#
# Stress axis : x y z
#
# Youngs Moduli (GPa) = 120.04908 26.24045 64.47807
#
# Poissons Ratio (x) = 0.18866 -0.14074
# Poissons Ratio (y) = 0.86314 0.44600
# Poissons Ratio (z) = -0.26204 0.18151
#
# Static dielectric constant tensor:
#      x y z
#    x 1.968510 0.046220 -0.019720 
#    y 0.046220 1.926050 0.044590 
#    z -0.019720 0.044590 1.875270 
# 
# From -- ./inp_files/227336.got.cif
#   From: 2010.05.17/outbox.cif.g08.bks.cpg/sg2_114_cif.got.tgz:227336.got - 2010.06.03 11:33:40.
