data_PCOD9105939
_publ_section_title
;
Structure prediction by ZEFSAII (Michael W. Deem and Ramdas Pophale) SiO2 
 PCOD9105939
Probable space group: P -1
;
_chemical_formula_sum "Si O2"
_cell_formula_units_Z 16
_cell_length_a 17.879251
_cell_length_b 25.916105
_cell_length_c 14.013022
_cell_angle_alpha 157.683388
_cell_angle_beta 158.883958
_cell_angle_gamma 22.012729
_cell_volume 784.633691
_symmetry_space_group_name_H-M "P -1"
_symmetry_group_IT_number 2
_symmetry_cell_setting 'triclinic'
loop_
_space_group_symop_operation_xyz
x,y,z
-x,-y,-z
loop_
_atom_site_type_symbol
_atom_site_label
_atom_site_fract_x
_atom_site_fract_y
_atom_site_fract_z
Si Si1 0.811435 0.163463 0.675280
Si Si2 0.080586 0.326192 0.330577
Si Si3 0.516977 0.087636 0.339974
Si Si4 0.993842 0.337627 0.619087
Si Si5 0.045670 0.027847 0.211950
Si Si6 0.614399 0.574017 0.692505
Si Si7 0.304534 0.866733 0.718395
Si Si8 0.756371 0.868375 0.620529
O O1 0.631114 0.123423 0.446835
O O2 0.728308 0.208101 0.544924
O O3 0.056030 0.006625 0.690543
O O4 0.861034 0.290081 0.002987
O O5 0.262215 0.224589 0.291709
O O6 0.217997 0.244796 0.453898
O O7 0.000000 0.500000 0.500000
O O8 0.690392 0.069269 0.602861
O O9 0.482114 0.937388 0.032821
O O10 0.086317 0.249730 0.477866
O O11 0.000635 0.202175 0.463711
O O12 0.735672 0.475248 0.571674
O O13 0.178406 0.399869 0.969117
O O14 0.881888 0.971603 0.976264
O O15 0.000000 0.000000 0.000000
O O16 0.500000 0.500000 0.500000
O O17 0.410514 0.740152 0.707828
O O18 0.500000 0.000000 0.500000
#
# Coordination Sequence:
#
# PCOD9105939 Si02
#       8
#     2   2   2   2   2   2   2   2
#     4  10  23  42  65  92 120 171 218 263 319 388
#     4  11  25  42  62  99 136 167 211 271 330 387
#     4  11  21  41  70  89 123 170 221 268 316 387
#     4  10  24  41  61  98 128 167 221 261 330 385
#     4  10  20  39  66  95 125 166 221 268 319 390
#     4  11  25  40  63  94 133 172 203 275 327 378
#     4  10  23  42  64  92 123 165 225 266 315 382
#     4  11  24  43  71  98 130 176 220 269 324 400
#
# _framework density 20.391680999999998
#
# number of rings (size 3 to 8) (size 9 to 14) (size 15 to 20)
#    0.000    1.500    2.500    1.875    5.250    2.500 
#    4.500    0.000    0.000    0.000    0.000    0.000 
#    0.000    0.000    0.000    0.000    0.000    0.000 
#
# Total GULP energy -89175.150919 kJ/mol
# GULP energy per Si atom -5573.446932 kJ/mol
# Density = 2.034527 g / cm^3
# Si number density = 20.391681 Si / 1000 Ang^3
#
#
#
# Elastic Constant Matrix: (Units=GPa)
#
#
# Indices 1 2 3 4 5 6 
#
# 1 84.5331 22.7719 22.8821 7.1873 13.2209 0.6740
# 2 22.7719 70.8870 34.0656 9.4850 15.2893 9.7745
# 3 22.8821 34.0656 88.1391 8.7626 21.4452 3.7482
# 4 7.1873 9.4850 8.7626 30.2768 6.2308 5.6018
# 5 13.2209 15.2893 21.4452 6.2308 37.3301 5.7654
# 6 0.6740 9.7745 3.7482 5.6018 5.7654 29.6345
#
#
#
# Elastic Compliance Matrix: (Units=1/GPa)
#
#
# Indices 1 2 3 4 5 6 
#
# 1 0.013627 -0.003048 -0.001633 -0.001581 -0.002640 0.001715
# 2 -0.003048 0.019277 -0.005628 -0.002315 -0.002477 -0.004658
# 3 -0.001633 -0.005628 0.015480 -0.001347 -0.005994 0.001356
# 4 -0.001581 -0.002315 -0.001347 0.036099 -0.002927 -0.005284
# 5 -0.002640 -0.002477 -0.005994 -0.002927 0.033333 -0.004297
# 6 0.001715 -0.004658 0.001356 -0.005284 -0.004297 0.036905
#
#
# Mechanical properties :
#
#
# Convention : Reuss Voigt Hill
#
# Bulk Modulus (GPa) = 36.01717 44.77760 40.39739
# Shear Modulus (GPa) = 27.08654 30.37094 28.72874
#
# Velocity S-wave (km/s) = 3.64856 3.86343 3.75753
# Velocity P-wave (km/s) = 5.95402 6.47363 6.21925
#
# Compressibility (1/GPa) = 0.02776453
#
# Stress axis : x y z
#
# Youngs Moduli (GPa) = 73.38636 51.87500 64.60155
#
# Poissons Ratio (x) = 0.15812 0.10548
# Poissons Ratio (y) = 0.22369 0.36360
# Poissons Ratio (z) = 0.11983 0.29197
#
# Static dielectric constant tensor:
#      x y z
#    x 1.777360 -0.003810 -0.003800 
#    y -0.003810 1.725160 0.003850 
#    z -0.003800 0.003850 1.752150 
# 
# From -- ./inp_files/539425.got.cif
#   From: 2010.05.17/outbox.cif.g08.bks.cpg/sg2_270_cif.got.tgz:539425.got - 2010.06.03 11:33:40.
