data_PCOD9105884
_publ_section_title
;
Structure prediction by ZEFSAII (Michael W. Deem and Ramdas Pophale) SiO2 
 PCOD9105884
Probable space group: P -1
;
_chemical_formula_sum "Si O2"
_cell_formula_units_Z 16
_cell_length_a 11.115157
_cell_length_b 15.904016
_cell_length_c 13.326473
_cell_angle_alpha 26.090534
_cell_angle_beta 105.907884
_cell_angle_gamma 121.638523
_cell_volume 750.092871
_symmetry_space_group_name_H-M "P -1"
_symmetry_group_IT_number 2
_symmetry_cell_setting 'triclinic'
loop_
_space_group_symop_operation_xyz
x,y,z
-x,-y,-z
loop_
_atom_site_type_symbol
_atom_site_label
_atom_site_fract_x
_atom_site_fract_y
_atom_site_fract_z
Si Si1 0.044088 0.964879 0.191612
Si Si2 0.397597 0.743618 0.901455
Si Si3 0.572264 0.821422 0.480915
Si Si4 0.678572 0.749984 0.889788
Si Si5 0.089908 0.790943 0.192575
Si Si6 0.338663 0.526151 0.342597
Si Si7 0.568289 0.823595 0.252138
Si Si8 0.807725 0.781626 0.668859
O O1 0.130276 0.931785 0.157563
O O2 0.858786 0.694904 0.451294
O O3 0.150438 0.059003 0.215288
O O4 0.023505 0.163704 0.937693
O O5 0.404413 0.977694 0.654683
O O6 0.562158 0.814256 0.816742
O O7 0.380461 0.662243 0.100522
O O8 0.245799 0.486405 0.085665
O O9 0.421859 0.532746 0.786981
O O10 0.542035 0.864929 0.314917
O O11 0.736310 0.852003 0.491662
O O12 0.711260 0.746674 0.784580
O O13 0.000000 0.500000 0.500000
O O14 0.256957 0.936098 0.011758
O O15 0.423233 0.712433 0.257913
O O16 0.414532 0.389269 0.504006
O O17 0.000000 0.000000 0.500000
#
# Coordination Sequence:
#
# PCOD9105884 Si02
#       8
#     2   2   2   2   2   2   2   2
#     4  10  23  40  62  93 130 172 217 265 321 382
#     4  11  23  43  67  97 130 168 219 265 320 393
#     4  11  25  42  68  99 127 171 219 264 326 385
#     4  11  24  43  67  94 129 172 216 268 323 383
#     4  10  23  39  59  92 132 169 213 265 322 378
#     4  10  20  39  66  92 131 174 215 262 321 378
#     4  10  21  39  65  92 131 174 215 262 317 388
#     4  11  25  47  71  94 128 166 213 274 334 381
#
# _framework density 21.330693
#
# number of rings (size 3 to 8) (size 9 to 14) (size 15 to 20)
#    0.000    1.500    2.500    3.000    8.750    5.000 
#    0.000    1.250    0.000    0.000    0.000    0.000 
#    0.000    0.000    0.000    0.000    0.000    0.000 
#
# Total GULP energy -89525.523902 kJ/mol
# GULP energy per Si atom -5595.345244 kJ/mol
# Density = 2.128214 g / cm^3
# Si number density = 21.330693 Si / 1000 Ang^3
#
#
#
# Elastic Constant Matrix: (Units=GPa)
#
#
# Indices 1 2 3 4 5 6 
#
# 1 61.8561 26.6782 39.2844 -17.1976 1.9641 -14.7040
# 2 26.6782 129.4946 21.2550 -13.2071 -8.1006 3.3642
# 3 39.2844 21.2550 71.9439 -11.4121 -1.3960 -2.4049
# 4 -17.1976 -13.2071 -11.4121 40.3319 -9.4699 -4.1570
# 5 1.9641 -8.1006 -1.3960 -9.4699 27.6196 -7.8858
# 6 -14.7040 3.3642 -2.4049 -4.1570 -7.8858 36.6461
#
#
#
# Elastic Compliance Matrix: (Units=1/GPa)
#
#
# Indices 1 2 3 4 5 6 
#
# 1 0.033930 -0.003470 -0.015078 0.011589 0.004104 0.015141
# 2 -0.003470 0.008933 -0.000425 0.001918 0.003117 -0.001352
# 3 -0.015078 -0.000425 0.022009 -0.000683 0.000533 -0.004529
# 4 0.011589 0.001918 -0.000683 0.034885 0.014980 0.011610
# 5 0.004104 0.003117 0.000533 0.014980 0.045682 0.012925
# 6 0.015141 -0.001352 -0.004529 0.011610 0.012925 0.037288
#
#
# Mechanical properties :
#
#
# Convention : Reuss Voigt Hill
#
# Bulk Modulus (GPa) = 37.13834 48.63663 42.88748
# Shear Modulus (GPa) = 21.77250 32.65799 27.21525
#
# Velocity S-wave (km/s) = 3.19833 3.91709 3.57581
# Velocity P-wave (km/s) = 5.57562 6.58094 6.09903
#
# Compressibility (1/GPa) = 0.02692636
#
# Stress axis : x y z
#
# Youngs Moduli (GPa) = 29.47240 111.94938 45.43583
#
# Poissons Ratio (x) = 0.38846 0.68508
# Poissons Ratio (y) = 0.10227 0.01930
# Poissons Ratio (z) = 0.44438 0.04756
#
# Static dielectric constant tensor:
#      x y z
#    x 1.768450 -0.007620 0.017970 
#    y -0.007620 1.791070 0.010830 
#    z 0.017970 0.010830 1.758410 
# 
# From -- ./inp_files/433684.got.cif
#   From: 2010.05.17/outbox.cif.g08.bks.cpg/sg2_217_cif.got.tgz:433684.got - 2010.06.03 11:33:40.
