data_PCOD9105631
_publ_section_title
;
Structure prediction by ZEFSAII (Michael W. Deem and Ramdas Pophale) SiO2 
 PCOD9105631
Probable space group: P -1
;
_chemical_formula_sum "Si O2"
_cell_formula_units_Z 16
_cell_length_a 14.444515
_cell_length_b 9.034200
_cell_length_c 23.169503
_cell_angle_alpha 56.932363
_cell_angle_beta 33.265827
_cell_angle_gamma 32.733825
_cell_volume 759.493834
_symmetry_space_group_name_H-M "P -1"
_symmetry_group_IT_number 2
_symmetry_cell_setting 'triclinic'
loop_
_space_group_symop_operation_xyz
x,y,z
-x,-y,-z
loop_
_atom_site_type_symbol
_atom_site_label
_atom_site_fract_x
_atom_site_fract_y
_atom_site_fract_z
Si Si1 0.347175 0.258401 0.752684
Si Si2 0.407585 0.268216 0.325524
Si Si3 0.751551 0.703430 0.889829
Si Si4 0.676547 0.453426 0.796471
Si Si5 0.647215 0.697902 0.517845
Si Si6 0.850334 0.173604 0.252274
Si Si7 0.707048 0.805070 0.761266
Si Si8 0.088408 0.828571 0.081576
O O1 0.318925 0.492182 0.723250
O O2 0.059245 0.464898 0.817544
O O3 0.602827 0.915513 0.659604
O O4 0.403089 0.137073 0.814590
O O5 0.239111 0.552246 0.310246
O O6 0.328257 0.310314 0.424100
O O7 0.752001 0.053945 0.189720
O O8 0.713778 0.826832 0.821288
O O9 0.735637 0.509261 0.925590
O O10 0.500000 0.000000 0.000000
O O11 0.746373 0.562850 0.776967
O O12 0.316559 0.725425 0.939890
O O13 0.885118 0.105774 0.780060
O O14 0.407882 0.749856 0.622243
O O15 0.986102 0.369913 0.385611
O O16 0.500000 0.000000 0.500000
O O17 0.016102 0.005392 0.139068
#
# Coordination Sequence:
#
# PCOD9105631 Si02
#       8
#     2   2   2   2   2   2   2   2
#     4  10  24  42  62 101 132 163 218 263 328 382
#     4   9  22  41  63  96 126 166 218 264 324 378
#     4  11  23  44  66  97 134 172 211 270 328 386
#     4  11  20  37  66  97 124 168 223 262 316 387
#     4  11  21  45  72  86 127 174 220 263 322 389
#     4  11  22  40  66  95 126 173 214 262 325 385
#     4  11  24  44  68  93 131 176 213 266 332 380
#     4  10  20  39  65  92 133 166 218 264 321 388
#
# _framework density 21.066662999999998
#
# number of rings (size 3 to 8) (size 9 to 14) (size 15 to 20)
#    0.000    1.500    2.500    3.000    1.750    3.000 
#   15.750    2.500    0.000    0.000    0.000    0.000 
#    0.000    0.000    0.000    0.000    0.000    0.000 
#
# Total GULP energy -89169.523552 kJ/mol
# GULP energy per Si atom -5573.095222 kJ/mol
# Density = 2.101871 g / cm^3
# Si number density = 21.066663 Si / 1000 Ang^3
#
#
#
# Elastic Constant Matrix: (Units=GPa)
#
#
# Indices 1 2 3 4 5 6 
#
# 1 93.3927 57.7837 65.9300 9.9098 26.0406 -37.4984
# 2 57.7837 99.1678 8.8163 -30.1481 11.3608 -8.3996
# 3 65.9300 8.8163 76.3454 -37.4799 14.0665 1.2338
# 4 9.9098 -30.1481 -37.4799 -9.6815 -16.2130 13.1050
# 5 26.0406 11.3608 14.0665 -16.2130 34.9499 -8.4169
# 6 -37.4984 -8.3996 1.2338 13.1050 -8.4169 33.8175
#
#
#
# Elastic Compliance Matrix: (Units=1/GPa)
#
#
# Indices 1 2 3 4 5 6 
#
# 1 0.011004 -0.000425 -0.000709 0.018838 0.002260 0.005385
# 2 -0.000425 0.009391 -0.003251 -0.006365 -0.003520 0.003570
# 3 -0.000709 -0.003251 0.009355 -0.012512 -0.007747 0.000985
# 4 0.018838 -0.006365 -0.012512 0.006868 0.000398 0.017201
# 5 0.002260 -0.003520 -0.007747 0.000398 0.033827 0.010179
# 6 0.005385 0.003570 0.000985 0.017201 0.010179 0.032260
#
#
# Mechanical properties :
#
#
# Convention : Reuss Voigt Hill
#
# Bulk Modulus (GPa) = 47.66515 59.32956 53.49736
# Shear Modulus (GPa) = 42.20460 20.90889 31.55675
#
# Velocity S-wave (km/s) = 4.48077 3.15383 3.87453
# Velocity P-wave (km/s) = 7.03170 6.44097 6.74281
#
# Compressibility (1/GPa) = 0.02097969
#
# Stress axis : x y z
#
# Youngs Moduli (GPa) = 90.87365 106.48129 106.89081
#
# Poissons Ratio (x) = 0.04524 0.07584
# Poissons Ratio (y) = 0.03861 0.34753
# Poissons Ratio (z) = 0.06447 0.34620
#
# Static dielectric constant tensor:
#      x y z
#    x 1.743720 0.013780 -0.008520 
#    y 0.013780 1.726150 -0.000510 
#    z -0.008520 -0.000510 1.780020 
# 
# From -- ./inp_files/498780.got.cif
#   From: 2010.05.17/outbox.cif.g08.bks.cpg/sg2_250_cif.got.tgz:498780.got - 2010.06.03 11:33:40.
