data_PCOD9105259
_publ_section_title
;
Structure prediction by ZEFSAII (Michael W. Deem and Ramdas Pophale) SiO2 
 PCOD9105259
Probable space group: P -1
;
_chemical_formula_sum "Si O2"
_cell_formula_units_Z 16
_cell_length_a 12.614172
_cell_length_b 13.704637
_cell_length_c 14.331570
_cell_angle_alpha 147.736381
_cell_angle_beta 138.582327
_cell_angle_gamma 33.613252
_cell_volume 723.334965
_symmetry_space_group_name_H-M "P -1"
_symmetry_group_IT_number 2
_symmetry_cell_setting 'triclinic'
loop_
_space_group_symop_operation_xyz
x,y,z
-x,-y,-z
loop_
_atom_site_type_symbol
_atom_site_label
_atom_site_fract_x
_atom_site_fract_y
_atom_site_fract_z
Si Si1 0.840516 0.510280 0.471562
Si Si2 0.987308 0.071957 0.155771
Si Si3 0.612701 0.984554 0.653839
Si Si4 0.661171 0.805557 0.015261
Si Si5 0.054741 0.703739 0.256743
Si Si6 0.936020 0.731858 0.392064
Si Si7 0.378896 0.349801 0.946578
Si Si8 0.182698 0.825773 0.254229
O O1 0.666155 0.763058 0.563132
O O2 0.000000 0.500000 0.500000
O O3 0.929117 0.423406 0.561353
O O4 0.813109 0.326083 0.261803
O O5 0.008214 0.930939 0.146584
O O6 0.189750 0.050276 0.278364
O O7 0.000000 0.000000 0.000000
O O8 0.500000 0.000000 0.500000
O O9 0.514295 0.191763 0.825609
O O10 0.563386 0.767014 0.008475
O O11 0.824304 0.836777 0.189768
O O12 0.809320 0.565407 0.871097
O O13 0.500000 0.000000 0.000000
O O14 0.137412 0.759602 0.269253
O O15 0.054177 0.756509 0.407603
O O16 0.822545 0.629732 0.193575
O O17 0.795141 0.977094 0.540591
O O18 0.343172 0.589673 0.123468
#
# Coordination Sequence:
#
# PCOD9105259 Si02
#       8
#     2   2   2   2   2   2   2   2
#     4   9  20  37  58  84 114 155 203 240 293 369
#     4  10  23  39  59  89 117 158 203 255 297 367
#     4  11  23  39  61  87 119 161 202 248 313 363
#     4   9  19  35  58  92 122 151 209 249 300 374
#     4   9  19  36  62  87 117 168 197 251 313 359
#     4  10  20  39  64  87 118 159 205 246 299 372
#     4  10  22  37  61  89 118 162 191 254 312 353
#     4  10  21  38  61  88 122 153 203 248 304 365
#
# _framework density 22.119767
#
# number of rings (size 3 to 8) (size 9 to 14) (size 15 to 20)
#    0.000    2.250    0.000    3.375    7.000    1.500 
#    2.250    0.000    5.500    6.750    0.000    0.000 
#    0.000    0.000    0.000    0.000    0.000    0.000 
#
# Total GULP energy -89110.404605 kJ/mol
# GULP energy per Si atom -5569.400288 kJ/mol
# Density = 2.206942 g / cm^3
# Si number density = 22.119767 Si / 1000 Ang^3
#
#
#
# Elastic Constant Matrix: (Units=GPa)
#
#
# Indices 1 2 3 4 5 6 
#
# 1 68.9534 34.1417 21.4041 2.5789 -32.4169 14.5190
# 2 34.1417 146.1900 53.6313 7.8563 -9.1987 28.4677
# 3 21.4041 53.6313 94.2869 10.1911 -28.6106 14.8036
# 4 2.5789 7.8563 10.1911 36.5936 -1.2801 -4.8375
# 5 -32.4169 -9.1987 -28.6106 -1.2801 33.9429 -6.6992
# 6 14.5190 28.4677 14.8036 -4.8375 -6.6992 37.3496
#
#
#
# Elastic Compliance Matrix: (Units=1/GPa)
#
#
# Indices 1 2 3 4 5 6 
#
# 1 0.034028 -0.007905 0.008942 -0.002488 0.036922 -0.004447
# 2 -0.007905 0.011774 -0.007570 -0.000954 -0.011790 -0.005139
# 3 0.008942 -0.007570 0.020813 -0.004288 0.023415 -0.002311
# 4 -0.002488 -0.000954 -0.004288 0.029632 -0.003840 0.006543
# 5 0.036922 -0.011790 0.023415 -0.003840 0.080998 -0.000616
# 6 -0.004447 -0.005139 -0.002311 0.006543 -0.000616 0.034073
#
#
# Mechanical properties :
#
#
# Convention : Reuss Voigt Hill
#
# Bulk Modulus (GPa) = 18.67402 58.64272 38.65837
# Shear Modulus (GPa) = 20.64124 34.92743 27.78434
#
# Velocity S-wave (km/s) = 3.05808 3.97799 3.54798
# Velocity P-wave (km/s) = 4.57490 6.90422 5.85653
#
# Compressibility (1/GPa) = 0.05355034
#
# Stress axis : x y z
#
# Youngs Moduli (GPa) = 29.38727 84.93404 48.04655
#
# Poissons Ratio (x) = 0.67139 -0.42965
# Poissons Ratio (y) = 0.23230 0.36372
# Poissons Ratio (z) = -0.26279 0.64296
#
# Static dielectric constant tensor:
#      x y z
#    x 1.888090 0.023230 0.078190 
#    y 0.023230 1.847570 0.042740 
#    z 0.078190 0.042740 1.770800 
# 
# From -- ./inp_files/533929.got.cif
#   From: 2010.05.17/outbox.cif.g08.bks.cpg/sg2_267_cif.got.tgz:533929.got - 2010.06.03 11:33:40.
