data_PCOD9105979
_publ_section_title
;
Structure prediction by ZEFSAII (Michael W. Deem and Ramdas Pophale) SiO2 
 PCOD9105979
Probable space group: P -1
;
_chemical_formula_sum "Si O2"
_cell_formula_units_Z 16
_cell_length_a 9.702870
_cell_length_b 16.974781
_cell_length_c 15.551596
_cell_angle_alpha 24.042102
_cell_angle_beta 84.078762
_cell_angle_gamma 68.222905
_cell_volume 758.129284
_symmetry_space_group_name_H-M "P -1"
_symmetry_group_IT_number 2
_symmetry_cell_setting 'triclinic'
loop_
_space_group_symop_operation_xyz
x,y,z
-x,-y,-z
loop_
_atom_site_type_symbol
_atom_site_label
_atom_site_fract_x
_atom_site_fract_y
_atom_site_fract_z
Si Si1 0.495797 0.705606 0.747315
Si Si2 0.500161 0.266202 0.749712
Si Si3 0.723267 0.627228 0.505676
Si Si4 0.094429 0.077678 0.973481
Si Si5 0.555673 0.468567 0.799407
Si Si6 0.222493 0.644159 0.532471
Si Si7 0.826598 0.846884 0.417144
Si Si8 0.813016 0.714389 0.743690
O O1 0.514610 0.646060 0.704873
O O2 0.673344 0.664687 0.805975
O O3 0.305628 0.998646 0.492536
O O4 0.500000 0.500000 0.000000
O O5 0.500000 0.500000 0.500000
O O6 0.419647 0.232781 0.705229
O O7 0.723183 0.013505 0.997015
O O8 0.353486 0.390099 0.713834
O O9 0.658001 0.496598 0.691389
O O10 0.731855 0.793683 0.406556
O O11 0.934827 0.384768 0.699161
O O12 0.165494 0.896439 0.234599
O O13 0.000000 0.000000 0.000000
O O14 0.359135 0.571025 0.674449
O O15 0.693059 0.161620 0.121525
O O16 0.031673 0.718884 0.497483
O O17 0.848404 0.727429 0.628025
O O18 0.000000 0.500000 0.000000
#
# Coordination Sequence:
#
# PCOD9105979 Si02
#       8
#     2   2   2   2   2   2   2   2
#     4  11  25  47  77 103 137 188 221 281 358 418
#     4  10  20  39  66  97 128 188 230 267 345 402
#     4  12  23  43  69  95 141 181 225 288 338 394
#     4  11  19  38  69  90 131 183 227 275 336 396
#     4  12  24  46  70  98 142 178 232 279 337 414
#     4  11  24  40  68 101 132 181 231 279 335 406
#     4  12  28  43  66 107 135 175 231 286 342 409
#     4  11  27  48  72 107 145 173 228 288 350 423
#
# _framework density 21.104578
#
# number of rings (size 3 to 8) (size 9 to 14) (size 15 to 20)
#    0.000    0.750    8.750    0.000    1.750    4.000 
#    0.000    1.250    0.000    0.000    0.000    0.000 
#    0.000    0.000    0.000    0.000    0.000    0.000 
#
# Total GULP energy -89569.639845 kJ/mol
# GULP energy per Si atom -5598.102490 kJ/mol
# Density = 2.105654 g / cm^3
# Si number density = 21.104578 Si / 1000 Ang^3
#
#
#
# Elastic Constant Matrix: (Units=GPa)
#
#
# Indices 1 2 3 4 5 6 
#
# 1 109.6212 33.5728 64.6548 -5.7237 13.0533 4.1869
# 2 33.5728 116.1659 52.8105 -12.8646 16.7156 21.0043
# 3 64.6548 52.8105 94.8392 4.3861 23.2746 7.6466
# 4 -5.7237 -12.8646 4.3861 29.5819 1.2534 -0.8423
# 5 13.0533 16.7156 23.2746 1.2534 40.9642 2.7689
# 6 4.1869 21.0043 7.6466 -0.8423 2.7689 36.2328
#
#
#
# Elastic Compliance Matrix: (Units=1/GPa)
#
#
# Indices 1 2 3 4 5 6 
#
# 1 0.016083 0.001374 -0.012253 0.005478 0.001111 -0.000027
# 2 0.001374 0.014174 -0.008354 0.007542 -0.001278 -0.006340
# 3 -0.012253 -0.008354 0.025619 -0.009471 -0.007032 0.001169
# 4 0.005478 0.007542 -0.009471 0.039512 -0.000513 -0.002049
# 5 0.001111 -0.001278 -0.007032 -0.000513 0.028597 -0.000101
# 6 -0.000027 -0.006340 0.001169 -0.002049 -0.000101 0.030991
#
#
# Mechanical properties :
#
#
# Convention : Reuss Voigt Hill
#
# Bulk Modulus (GPa) = 57.43695 69.18917 63.31306
# Shear Modulus (GPa) = 25.09459 32.66167 28.87813
#
# Velocity S-wave (km/s) = 3.45201 3.93824 3.70311
# Velocity P-wave (km/s) = 6.56986 7.31674 6.95334
#
# Compressibility (1/GPa) = 0.01741040
#
# Stress axis : x y z
#
# Youngs Moduli (GPa) = 62.17578 70.54977 39.03377
#
# Poissons Ratio (x) = -0.09694 0.47830
# Poissons Ratio (y) = -0.08543 0.32608
# Poissons Ratio (z) = 0.76187 0.58935
#
# Static dielectric constant tensor:
#      x y z
#    x 1.694340 0.070270 -0.043480 
#    y 0.070270 1.612230 0.032260 
#    z -0.043480 0.032260 1.780130 
# 
# From -- ./inp_files/505053.got.cif
#   From: 2010.05.17/outbox.cif.g08.bks.cpg/sg2_253_cif.got.tgz:505053.got - 2010.06.03 11:33:40.
