data_PCOD9105109
_publ_section_title
;
Structure prediction by ZEFSAII (Michael W. Deem and Ramdas Pophale) SiO2 
 PCOD9105109
Probable space group: P -1
;
_chemical_formula_sum "Si O2"
_cell_formula_units_Z 16
_cell_length_a 8.013353
_cell_length_b 8.865381
_cell_length_c 23.111111
_cell_angle_alpha 32.398849
_cell_angle_beta 124.361457
_cell_angle_gamma 124.775463
_cell_volume 709.680574
_symmetry_space_group_name_H-M "P -1"
_symmetry_group_IT_number 2
_symmetry_cell_setting 'triclinic'
loop_
_space_group_symop_operation_xyz
x,y,z
-x,-y,-z
loop_
_atom_site_type_symbol
_atom_site_label
_atom_site_fract_x
_atom_site_fract_y
_atom_site_fract_z
Si Si1 0.036420 0.251029 0.712959
Si Si2 0.852082 0.711382 0.917100
Si Si3 0.213876 0.709220 0.452059
Si Si4 0.106968 0.789823 0.625642
Si Si5 0.565909 0.227459 0.216906
Si Si6 0.898028 0.672619 0.069006
Si Si7 0.794704 0.648809 0.717356
Si Si8 0.414704 0.288278 0.695992
O O1 0.138882 0.551768 0.663475
O O2 0.198283 0.169517 0.725491
O O3 0.829418 0.278254 0.628762
O O4 0.980413 0.028570 0.825516
O O5 0.649616 0.677658 0.848718
O O6 0.798548 0.672932 0.986360
O O7 0.000000 0.500000 0.000000
O O8 0.383148 0.544803 0.563230
O O9 0.000000 0.500000 0.500000
O O10 0.236047 0.032596 0.375734
O O11 0.323753 0.889056 0.669255
O O12 0.940619 0.677851 0.679661
O O13 0.000000 0.000000 0.500000
O O14 0.725985 0.505775 0.133350
O O15 0.532723 0.972739 0.245496
O O16 0.078077 0.487871 0.165550
O O17 0.000000 0.000000 0.000000
O O18 0.585761 0.429267 0.730048
#
# Coordination Sequence:
#
# PCOD9105109 Si02
#       8
#     2   2   2   2   2   2   2   2
#     4  11  23  39  61  95 128 163 212 264 311 369
#     4  12  25  42  64  91 123 163 213 271 316 357
#     4  10  20  39  63  91 128 170 205 251 315 384
#     4  11  22  40  64  97 132 163 203 263 318 371
#     4  11  24  44  66  92 126 171 212 253 319 392
#     4  11  23  43  65  88 123 171 216 258 311 376
#     4  11  23  40  63  93 127 170 215 253 311 391
#     4  11  22  41  66  93 126 169 210 253 314 392
#
# _framework density 22.545356999999999
#
# number of rings (size 3 to 8) (size 9 to 14) (size 15 to 20)
#    0.000    1.000    0.000   10.500    0.000    4.000 
#    0.000    4.375    0.000    0.000    0.000    0.000 
#    0.000    0.000    0.000    0.000    0.000    0.000 
#
# Total GULP energy -89489.842589 kJ/mol
# GULP energy per Si atom -5593.115162 kJ/mol
# Density = 2.249404 g / cm^3
# Si number density = 22.545357 Si / 1000 Ang^3
#
#
#
# Elastic Constant Matrix: (Units=GPa)
#
#
# Indices 1 2 3 4 5 6 
#
# 1 50.4548 10.1652 26.0857 5.6027 18.3315 6.3468
# 2 10.1652 103.2767 28.8379 -2.3341 14.0329 11.9716
# 3 26.0857 28.8379 134.6317 8.4234 9.7896 11.8555
# 4 5.6027 -2.3341 8.4234 49.2083 -3.3991 6.2718
# 5 18.3315 14.0329 9.7896 -3.3991 32.1906 8.0268
# 6 6.3468 11.9716 11.8555 6.2718 8.0268 35.1918
#
#
#
# Elastic Compliance Matrix: (Units=1/GPa)
#
#
# Indices 1 2 3 4 5 6 
#
# 1 0.027753 0.000370 -0.004165 -0.003522 -0.015160 0.000358
# 2 0.000370 0.011012 -0.002001 0.000880 -0.003698 -0.002452
# 3 -0.004165 -0.002001 0.008793 -0.000865 0.000872 -0.001575
# 4 -0.003522 0.000880 -0.000865 0.021850 0.005309 -0.004478
# 5 -0.015160 -0.003698 0.000872 0.005309 0.043387 -0.007144
# 6 0.000358 -0.002452 -0.001575 -0.004478 -0.007144 0.032143
#
#
# Mechanical properties :
#
#
# Convention : Reuss Voigt Hill
#
# Bulk Modulus (GPa) = 27.80423 46.50453 37.15438
# Shear Modulus (GPa) = 29.67053 38.20308 33.93680
#
# Velocity S-wave (km/s) = 3.63166 4.12089 3.88399
# Velocity P-wave (km/s) = 5.47217 6.58136 6.05222
#
# Compressibility (1/GPa) = 0.03596575
#
# Stress axis : x y z
#
# Youngs Moduli (GPa) = 36.03238 90.81382 113.73092
#
# Poissons Ratio (x) = -0.03363 0.47373
# Poissons Ratio (y) = -0.01334 0.22753
# Poissons Ratio (z) = 0.15009 0.18168
#
# Static dielectric constant tensor:
#      x y z
#    x 1.841330 0.022720 -0.022220 
#    y 0.022720 1.832570 0.038620 
#    z -0.022220 0.038620 1.832320 
# 
# From -- ./inp_files/516131.got.cif
#   From: 2010.05.17/outbox.cif.g08.bks.cpg/sg2_259_cif.got.tgz:516131.got - 2010.06.03 11:33:40.
