data_PCOD9105716
_publ_section_title
;
Structure prediction by ZEFSAII (Michael W. Deem and Ramdas Pophale) SiO2 
 PCOD9105716
Probable space group: P -1
;
_chemical_formula_sum "Si O2"
_cell_formula_units_Z 16
_cell_length_a 15.047629
_cell_length_b 9.272931
_cell_length_c 7.410953
_cell_angle_alpha 110.651463
_cell_angle_beta 56.353645
_cell_angle_gamma 71.369737
_cell_volume 604.498761
_symmetry_space_group_name_H-M "P -1"
_symmetry_group_IT_number 2
_symmetry_cell_setting 'triclinic'
loop_
_space_group_symop_operation_xyz
x,y,z
-x,-y,-z
loop_
_atom_site_type_symbol
_atom_site_label
_atom_site_fract_x
_atom_site_fract_y
_atom_site_fract_z
Si Si1 0.025725 0.681601 0.731404
Si Si2 0.703816 0.049235 0.254490
Si Si3 0.256438 0.932145 0.221646
Si Si4 0.634435 0.452285 0.231800
Si Si5 0.724134 0.360928 0.451188
Si Si6 0.665119 0.741319 0.191283
Si Si7 0.004083 0.622216 0.309136
Si Si8 0.475803 0.178536 0.995514
O O1 0.137949 0.710897 0.634753
O O2 0.008489 0.650888 0.530301
O O3 0.064695 0.481590 0.696418
O O4 0.869625 0.881120 0.051009
O O5 0.638875 0.946764 0.342073
O O6 0.661580 0.249096 0.489113
O O7 0.709315 0.055545 0.026600
O O8 0.363506 0.913154 0.228003
O O9 0.299812 0.709994 0.075980
O O10 0.098923 0.143136 0.538136
O O11 0.500000 0.500000 0.500000
O O12 0.759171 0.333255 0.186890
O O13 0.589107 0.668895 0.337243
O O14 0.606292 0.603896 0.718689
O O15 0.625946 0.756612 0.031967
O O16 0.827757 0.556489 0.991078
O O17 0.500000 0.000000 0.000000
#
# Coordination Sequence:
#
# PCOD9105716 Si02
#       8
#     2   2   2   2   2   2   2   2
#     4   9  16  33  64  98 133 171 226 267 340 392
#     4   9  20  37  64 100 135 179 218 277 339 402
#     4  10  20  39  65  95 142 170 219 272 345 393
#     4  11  25  45  65  93 143 186 219 280 344 402
#     4  11  21  39  66  94 137 178 225 268 338 399
#     4  11  23  43  71  99 135 177 231 276 339 398
#     4   9  18  36  66 104 133 172 217 286 332 394
#     4  12  22  39  70 104 131 175 231 277 330 399
#
# _framework density 26.468209000000002
#
# number of rings (size 3 to 8) (size 9 to 14) (size 15 to 20)
#    0.000    1.750    3.750    1.875    0.000    1.000 
#    0.000    8.125    2.750    1.500    0.000    0.000 
#    0.000    0.000    0.000    0.000    0.000    0.000 
#
# Total GULP energy -89357.853255 kJ/mol
# GULP energy per Si atom -5584.865828 kJ/mol
# Density = 2.640797 g / cm^3
# Si number density = 26.468209 Si / 1000 Ang^3
#
#
#
# Elastic Constant Matrix: (Units=GPa)
#
#
# Indices 1 2 3 4 5 6 
#
# 1 166.5982 58.8848 36.7962 14.8433 9.9608 23.7937
# 2 58.8848 164.2704 52.8863 23.2914 0.7479 36.4452
# 3 36.7962 52.8863 57.5837 33.4118 3.0167 24.4228
# 4 14.8433 23.2914 33.4118 41.0737 0.7687 9.0595
# 5 9.9608 0.7479 3.0167 0.7687 38.2347 5.3611
# 6 23.7937 36.4452 24.4228 9.0595 5.3611 37.0550
#
#
#
# Elastic Compliance Matrix: (Units=1/GPa)
#
#
# Indices 1 2 3 4 5 6 
#
# 1 0.007447 -0.001424 -0.003769 0.001438 -0.001499 -0.001032
# 2 -0.001424 0.009636 -0.007197 0.001866 0.001340 -0.004469
# 3 -0.003769 -0.007197 0.053834 -0.034476 0.000030 -0.017558
# 4 0.001438 0.001866 -0.034476 0.049059 0.000209 0.007940
# 5 -0.001499 0.001340 0.000030 0.000209 0.027122 -0.004350
# 6 -0.001032 -0.004469 -0.017558 0.007940 -0.004350 0.042306
#
#
# Mechanical properties :
#
#
# Convention : Reuss Voigt Hill
#
# Bulk Modulus (GPa) = 21.67457 76.17634 48.92545
# Shear Modulus (GPa) = 21.78052 39.26501 30.52276
#
# Velocity S-wave (km/s) = 2.87172 3.85577 3.39954
# Velocity P-wave (km/s) = 4.38206 6.97606 5.82528
#
# Compressibility (1/GPa) = 0.04613702
#
# Stress axis : x y z
#
# Youngs Moduli (GPa) = 134.27901 103.77650 18.57568
#
# Poissons Ratio (x) = 0.14781 0.07001
# Poissons Ratio (y) = 0.19126 0.13369
# Poissons Ratio (z) = 0.50606 0.74688
#
# Static dielectric constant tensor:
#      x y z
#    x 2.074510 -0.028500 -0.012560 
#    y -0.028500 2.222420 -0.001910 
#    z -0.012560 -0.001910 2.111680 
# 
# From -- ./inp_files/299452.got.cif
#   From: 2010.05.17/outbox.cif.g08.bks.cpg/sg2_150_cif.got.tgz:299452.got - 2010.06.03 11:33:40.
