data_PCOD9105410
_publ_section_title
;
Structure prediction by ZEFSAII (Michael W. Deem and Ramdas Pophale) SiO2 
 PCOD9105410
Probable space group: P -1
;
_chemical_formula_sum "Si O2"
_cell_formula_units_Z 16
_cell_length_a 9.918585
_cell_length_b 7.048440
_cell_length_c 9.945224
_cell_angle_alpha 106.366020
_cell_angle_beta 94.237686
_cell_angle_gamma 117.485361
_cell_volume 574.570032
_symmetry_space_group_name_H-M "P -1"
_symmetry_group_IT_number 2
_symmetry_cell_setting 'triclinic'
loop_
_space_group_symop_operation_xyz
x,y,z
-x,-y,-z
loop_
_atom_site_type_symbol
_atom_site_label
_atom_site_fract_x
_atom_site_fract_y
_atom_site_fract_z
Si Si1 0.082249 0.724801 0.646875
Si Si2 0.164637 0.225439 0.023487
Si Si3 0.705637 0.688421 0.477295
Si Si4 0.467352 0.208573 0.034253
Si Si5 0.436660 0.148054 0.721604
Si Si6 0.952095 0.861496 0.291560
Si Si7 0.510448 0.774555 0.666099
Si Si8 0.941224 0.461147 0.835030
O O1 0.260093 0.924533 0.675849
O O2 0.073688 0.635631 0.778354
O O3 0.000000 0.500000 0.500000
O O4 0.991835 0.870488 0.668782
O O5 0.293429 0.155537 0.041213
O O6 0.159898 0.261974 0.869495
O O7 0.180579 0.445322 0.147719
O O8 0.000000 0.000000 0.000000
O O9 0.853581 0.787203 0.407288
O O10 0.663805 0.772753 0.628198
O O11 0.644803 0.425772 0.455403
O O12 0.583218 0.722303 0.378264
O O13 0.490242 0.285128 0.894955
O O14 0.543743 0.315742 0.203164
O O15 0.500000 0.000000 0.000000
O O16 0.537440 0.024269 0.689958
O O17 0.077169 0.775394 0.270501
O O18 0.000000 0.500000 0.000000
#
# Coordination Sequence:
#
# PCOD9105410 Si02
#       8
#     2   2   2   2   2   2   2   2
#     4  11  22  41  65  98 135 182 225 284 353 417
#     4  11  19  41  70  96 136 181 228 286 341 406
#     4  10  20  39  64  93 136 177 218 280 338 412
#     4  10  21  40  70 102 132 178 229 285 342 404
#     4  10  20  42  66  88 136 175 221 284 342 402
#     4  10  21  41  68  94 137 185 228 281 353 410
#     4  10  22  38  65  99 127 176 229 271 341 413
#     4  10  22  38  65  93 128 176 226 278 339 402
#
# _framework density 27.846912
#
# number of rings (size 3 to 8) (size 9 to 14) (size 15 to 20)
#    0.000    1.750    3.750    1.125    0.000    2.000 
#    6.750    7.500    5.500    0.000    0.000    0.000 
#    0.000    0.000    0.000    0.000    0.000    0.000 
#
# Total GULP energy -89315.146487 kJ/mol
# GULP energy per Si atom -5582.196655 kJ/mol
# Density = 2.778353 g / cm^3
# Si number density = 27.846912 Si / 1000 Ang^3
#
#
#
# Elastic Constant Matrix: (Units=GPa)
#
#
# Indices 1 2 3 4 5 6 
#
# 1 135.5261 35.6454 17.4409 20.2903 -34.3418 -22.4170
# 2 35.6454 135.5290 39.5972 15.2535 -27.2571 -5.8079
# 3 17.4409 39.5972 136.9240 -11.5611 -31.4789 -1.5867
# 4 20.2903 15.2535 -11.5611 59.9969 -15.3912 -10.4547
# 5 -34.3418 -27.2571 -31.4789 -15.3912 41.4323 2.7186
# 6 -22.4170 -5.8079 -1.5867 -10.4547 2.7186 43.5574
#
#
#
# Elastic Compliance Matrix: (Units=1/GPa)
#
#
# Indices 1 2 3 4 5 6 
#
# 1 0.010453 -0.001146 0.000948 -0.000115 0.008278 0.004717
# 2 -0.001146 0.009002 -0.001903 -0.001508 0.002967 -0.000006
# 3 0.000948 -0.001903 0.010184 0.004612 0.008909 0.001156
# 4 -0.000115 -0.001508 0.004612 0.021323 0.010049 0.004398
# 5 0.008278 0.002967 0.008909 0.010049 0.043143 0.004700
# 6 0.004717 -0.000006 0.001156 0.004398 0.004700 0.026190
#
#
# Mechanical properties :
#
#
# Convention : Reuss Voigt Hill
#
# Bulk Modulus (GPa) = 39.31203 65.92734 52.61969
# Shear Modulus (GPa) = 37.60107 50.01703 43.80905
#
# Velocity S-wave (km/s) = 3.67860 4.24269 3.97067
# Velocity P-wave (km/s) = 5.67368 6.90846 6.32129
#
# Compressibility (1/GPa) = 0.02543750
#
# Stress axis : x y z
#
# Youngs Moduli (GPa) = 95.66327 111.08713 98.19525
#
# Poissons Ratio (x) = 0.12734 -0.09309
# Poissons Ratio (y) = 0.10966 0.18682
# Poissons Ratio (z) = -0.09069 0.21135
#
# Static dielectric constant tensor:
#      x y z
#    x 2.441150 -0.037090 0.069510 
#    y -0.037090 2.139920 0.079820 
#    z 0.069510 0.079820 2.357040 
# 
# From -- ./inp_files/240457.got.cif
#   From: 2010.05.17/outbox.cif.g08.bks.cpg/sg2_121_cif.got.tgz:240457.got - 2010.06.03 11:33:40.
