data_PCOD9105417
_publ_section_title
;
Structure prediction by ZEFSAII (Michael W. Deem and Ramdas Pophale) SiO2 
 PCOD9105417
Probable space group: P -1
;
_chemical_formula_sum "Si O2"
_cell_formula_units_Z 11
_cell_length_a 11.524284
_cell_length_b 9.646672
_cell_length_c 14.656635
_cell_angle_alpha 143.658184
_cell_angle_beta 33.618579
_cell_angle_gamma 121.571966
_cell_volume 477.781184
_symmetry_space_group_name_H-M "P -1"
_symmetry_group_IT_number 2
_symmetry_cell_setting 'triclinic'
loop_
_space_group_symop_operation_xyz
x,y,z
-x,-y,-z
loop_
_atom_site_type_symbol
_atom_site_label
_atom_site_fract_x
_atom_site_fract_y
_atom_site_fract_z
Si Si1 0.227936 0.110045 0.392247
Si Si2 0.348139 0.786817 0.891135
Si Si3 0.220547 0.358040 0.713921
Si Si4 0.429820 0.541344 0.904453
Si Si5 0.048430 0.693583 0.505216
Si Si6 0.500000 0.000000 0.500000
O O1 0.482934 0.102805 0.202786
O O2 0.154626 0.240658 0.607369
O O3 0.065179 0.276704 0.503967
O O4 0.736695 0.187231 0.793085
O O5 0.308568 0.573947 0.745734
O O6 0.458494 0.649517 0.842839
O O7 0.093439 0.020680 0.204847
O O8 0.419101 0.130755 0.521686
O O9 0.000000 0.500000 0.000000
O O10 0.675028 0.408898 0.727389
O O11 0.376480 0.300819 0.787168
O O12 0.000000 0.500000 0.500000
#
# Coordination Sequence:
#
# PCOD9105417 Si02
#       6
#     2   2   2   2   2   1
#     4  11  22  38  66  99 122 163 216 266 310 368
#     4  10  20  39  64  94 127 160 208 269 316 361
#     4  11  25  44  60  87 135 172 213 259 310 374
#     4  10  20  39  65  93 128 162 209 255 318 380
#     4  11  18  36  67  96 124 154 203 265 323 371
#     4  10  24  44  62  84 128 180 198 252 316 380
#
# _framework density 23.023091999999998
#
# number of rings (size 3 to 8) (size 9 to 14) (size 15 to 20)
#    0.000    1.455    3.636    2.727    0.000    2.182 
#    0.000   13.636    0.000    0.000    0.000    0.000 
#    0.000    0.000    0.000    0.000    0.000    0.000 
#
# Total GULP energy -61279.937782 kJ/mol
# GULP energy per Si atom -5570.903435 kJ/mol
# Density = 2.297069 g / cm^3
# Si number density = 23.023092 Si / 1000 Ang^3
#
#
#
# Elastic Constant Matrix: (Units=GPa)
#
#
# Indices 1 2 3 4 5 6 
#
# 1 161.9131 40.9118 83.5224 34.3575 23.0929 12.1274
# 2 40.9118 101.8332 48.3838 28.9498 17.7365 6.4121
# 3 83.5224 48.3838 112.8243 31.2865 17.2899 -9.6376
# 4 34.3575 28.9498 31.2865 45.7751 1.5362 -0.5587
# 5 23.0929 17.7365 17.2899 1.5362 52.5806 8.1627
# 6 12.1274 6.4121 -9.6376 -0.5587 8.1627 33.2917
#
#
#
# Elastic Compliance Matrix: (Units=1/GPa)
#
#
# Indices 1 2 3 4 5 6 
#
# 1 0.011799 0.001046 -0.008457 -0.003764 -0.001617 -0.006614
# 2 0.001046 0.014367 -0.005087 -0.006349 -0.002821 -0.004036
# 3 -0.008457 -0.005087 0.019562 -0.003597 -0.002492 0.010274
# 4 -0.003764 -0.006349 -0.003597 0.031027 0.003897 0.001118
# 5 -0.001617 -0.002821 -0.002492 0.003897 0.022155 -0.004956
# 6 -0.006614 -0.004036 0.010274 0.001118 -0.004956 0.037432
#
#
# Mechanical properties :
#
#
# Convention : Reuss Voigt Hill
#
# Bulk Modulus (GPa) = 48.23398 80.24516 64.23957
# Shear Modulus (GPa) = 29.71757 39.91298 34.81527
#
# Velocity S-wave (km/s) = 3.59663 4.16818 3.89291
# Velocity P-wave (km/s) = 6.18413 7.62199 6.94040
#
# Compressibility (1/GPa) = 0.02073227
#
# Stress axis : x y z
#
# Youngs Moduli (GPa) = 84.75348 69.60242 51.11883
#
# Poissons Ratio (x) = -0.07280 0.43229
# Poissons Ratio (y) = -0.08864 0.26007
# Poissons Ratio (z) = 0.71672 0.35410
#
# Static dielectric constant tensor:
#      x y z
#    x 1.862920 0.045110 0.001230 
#    y 0.045110 1.873540 -0.046800 
#    z 0.001230 -0.046800 1.878960 
# 
# From -- ./inp_files/34877.got.cif
#   From: 2010.05.17/outbox.cif.g08.bks.cpg/sg2_18_cif.got.tgz:34877.got - 2010.06.03 11:33:40.
