data_PCOD9105708
_publ_section_title
;
Structure prediction by ZEFSAII (Michael W. Deem and Ramdas Pophale) SiO2 
 PCOD9105708
Probable space group: P -1
;
_chemical_formula_sum "Si O2"
_cell_formula_units_Z 15
_cell_length_a 15.836368
_cell_length_b 8.507175
_cell_length_c 14.212108
_cell_angle_alpha 112.619356
_cell_angle_beta 27.161083
_cell_angle_gamma 125.396083
_cell_volume 667.067252
_symmetry_space_group_name_H-M "P -1"
_symmetry_group_IT_number 2
_symmetry_cell_setting 'triclinic'
loop_
_space_group_symop_operation_xyz
x,y,z
-x,-y,-z
loop_
_atom_site_type_symbol
_atom_site_label
_atom_site_fract_x
_atom_site_fract_y
_atom_site_fract_z
Si Si1 0.338607 0.255742 0.594210
Si Si2 0.527366 0.990312 0.315689
Si Si3 0.226332 0.193691 0.892756
Si Si4 0.965744 0.178811 0.593382
Si Si5 0.655790 0.662652 0.600466
Si Si6 0.021499 0.638883 0.729049
Si Si7 0.000000 0.500000 0.500000
Si Si8 0.657692 0.196299 0.034500
O O1 0.500000 0.500000 0.500000
O O2 0.485700 0.159366 0.434472
O O3 0.248750 0.229408 0.570932
O O4 0.177564 0.178338 0.825870
O O5 0.707400 0.962244 0.178740
O O6 0.285901 0.776086 0.513341
O O7 0.593179 0.054790 0.156811
O O8 0.456960 0.424332 0.729107
O O9 0.058630 0.212496 0.129577
O O10 0.160069 0.316980 0.508715
O O11 0.996575 0.304653 0.498929
O O12 0.733437 0.110441 0.857150
O O13 0.000000 0.000000 0.500000
O O14 0.542279 0.775359 0.781380
O O15 0.974884 0.558336 0.649467
O O16 0.869521 0.433185 0.895405
#
# Coordination Sequence:
#
# PCOD9105708 Si02
#       8
#     2   2   2   2   2   2   1   2
#     4   9  20  39  65  96 135 170 219 278 324 403
#     4  11  22  38  69  95 130 177 220 268 340 401
#     4  10  20  39  65  95 130 177 220 271 335 395
#     4  11  24  41  68  96 132 177 226 280 339 401
#     4   9  20  42  63  92 134 174 212 277 341 387
#     4  10  23  44  63  94 139 172 221 287 324 398
#     4  10  24  44  62  98 138 168 226 294 316 396
#     4   9  22  42  61  95 132 170 219 276 322 403
#
# _framework density 22.486488000000001
#
# number of rings (size 3 to 8) (size 9 to 14) (size 15 to 20)
#    0.000    2.133    0.000    2.800    5.600    1.067 
#    4.800    9.333    0.000   17.600    0.000    0.000 
#    0.000    0.000    0.000    0.000    0.000    0.000 
#
# Total GULP energy -83547.900314 kJ/mol
# GULP energy per Si atom -5569.860021 kJ/mol
# Density = 2.243531 g / cm^3
# Si number density = 22.486488 Si / 1000 Ang^3
#
#
#
# Elastic Constant Matrix: (Units=GPa)
#
#
# Indices 1 2 3 4 5 6 
#
# 1 40.1072 0.7082 39.2764 2.9983 -0.7931 -19.9542
# 2 0.7082 107.8954 17.7603 19.2062 0.2932 -16.0916
# 3 39.2764 17.7603 98.3227 5.3335 -4.3645 -11.5341
# 4 2.9983 19.2062 5.3335 33.3545 4.8825 4.7398
# 5 -0.7931 0.2932 -4.3645 4.8825 16.3509 1.8870
# 6 -19.9542 -16.0916 -11.5341 4.7398 1.8870 43.9400
#
#
#
# Elastic Compliance Matrix: (Units=1/GPa)
#
#
# Indices 1 2 3 4 5 6 
#
# 1 0.060137 0.008972 -0.022172 -0.010270 -0.003098 0.026016
# 2 0.008972 0.012758 -0.004385 -0.008759 0.000669 0.008511
# 3 -0.022172 -0.004385 0.019087 0.001829 0.004365 -0.007049
# 4 -0.010270 -0.008759 0.001829 0.038720 -0.010130 -0.011133
# 5 -0.003098 0.000669 0.004365 -0.010130 0.065386 -0.001731
# 6 0.026016 0.008511 -0.007049 -0.011133 -0.001731 0.037115
#
#
# Mechanical properties :
#
#
# Convention : Reuss Voigt Hill
#
# Bulk Modulus (GPa) = 17.60193 40.20167 28.90180
# Shear Modulus (GPa) = 17.40269 31.30111 24.35190
#
# Velocity S-wave (km/s) = 2.78496 3.73499 3.29440
# Velocity P-wave (km/s) = 4.26451 6.04295 5.22988
#
# Compressibility (1/GPa) = 0.05681195
#
# Stress axis : x y z
#
# Youngs Moduli (GPa) = 16.62859 78.38282 52.39113
#
# Poissons Ratio (x) = -0.70322 1.16161
# Poissons Ratio (y) = -0.14918 0.22974
# Poissons Ratio (z) = 0.36869 0.34371
#
# Static dielectric constant tensor:
#      x y z
#    x 1.821380 0.057370 0.000950 
#    y 0.057370 1.892940 -0.032640 
#    z 0.000950 -0.032640 1.877650 
# 
# From -- ./inp_files/577106.got.cif
#   From: 2010.05.17/outbox.cif.g08.bks.cpg/sg2_289_cif.got.tgz:577106.got - 2010.06.03 11:33:40.
