data_PCOD9105008
_publ_section_title
;
Structure prediction by ZEFSAII (Michael W. Deem and Ramdas Pophale) SiO2 
 PCOD9105008
Probable space group: P -1
;
_chemical_formula_sum "Si O2"
_cell_formula_units_Z 14
_cell_length_a 8.465324
_cell_length_b 21.890777
_cell_length_c 11.245014
_cell_angle_alpha 37.540607
_cell_angle_beta 31.382674
_cell_angle_gamma 31.243239
_cell_volume 547.307733
_symmetry_space_group_name_H-M "P -1"
_symmetry_group_IT_number 2
_symmetry_cell_setting 'triclinic'
loop_
_space_group_symop_operation_xyz
x,y,z
-x,-y,-z
loop_
_atom_site_type_symbol
_atom_site_label
_atom_site_fract_x
_atom_site_fract_y
_atom_site_fract_z
Si Si1 0.038961 0.046850 0.584545
Si Si2 0.118116 0.624344 0.174898
Si Si3 0.097059 0.570952 0.919164
Si Si4 0.920231 0.909064 0.251541
Si Si5 0.864740 0.173225 0.248964
Si Si6 0.031516 0.303760 0.575078
Si Si7 0.379056 0.415878 0.594268
O O1 0.909281 0.112426 0.692951
O O2 0.909506 0.129343 0.423549
O O3 0.479186 0.976448 0.424204
O O4 0.949658 0.946755 0.767385
O O5 0.542613 0.518290 0.092599
O O6 0.981470 0.696016 0.275601
O O7 0.882125 0.575756 0.356422
O O8 0.036848 0.730035 0.974238
O O9 0.229507 0.636414 0.643807
O O10 0.000000 0.500000 0.000000
O O11 0.758846 0.628823 0.139079
O O12 0.059365 0.786513 0.281216
O O13 0.000000 0.000000 0.000000
O O14 0.444427 0.251458 0.355553
O O15 0.772362 0.444279 0.492387
#
# Coordination Sequence:
#
# PCOD9105008 Si02
#       7
#     2   2   2   2   2   2   2
#     4   9  21  39  61  93 123 164 210 276 324 396
#     4  11  23  40  68  92 131 175 227 266 339 399
#     4  11  23  43  66  95 138 178 225 281 339 389
#     4  10  20  39  63  87 130 163 211 264 343 387
#     4  10  20  39  64  90 126 164 220 267 329 394
#     4  10  21  38  63  91 123 170 216 271 332 393
#     4  11  24  44  68  98 136 183 224 280 332 406
#
# _framework density 25.579758999999999
#
# number of rings (size 3 to 8) (size 9 to 14) (size 15 to 20)
#    0.000    1.714    1.429    3.429    2.000    1.143 
#    2.571    8.571    0.000    0.000    0.000    0.000 
#    0.000    0.000    0.000    0.000    0.000    0.000 
#
# Total GULP energy -78263.123818 kJ/mol
# GULP energy per Si atom -5590.223130 kJ/mol
# Density = 2.552154 g / cm^3
# Si number density = 25.579759 Si / 1000 Ang^3
#
#
#
# Elastic Constant Matrix: (Units=GPa)
#
#
# Indices 1 2 3 4 5 6 
#
# 1 146.5874 54.5267 41.2950 -10.8889 -10.3161 21.7257
# 2 54.5267 93.1482 51.2928 -17.8610 -6.5252 24.1629
# 3 41.2950 51.2928 148.1787 -5.3041 -4.0049 13.8509
# 4 -10.8889 -17.8610 -5.3041 41.6699 1.3662 -5.9210
# 5 -10.3161 -6.5252 -4.0049 1.3662 41.2584 4.7352
# 6 21.7257 24.1629 13.8509 -5.9210 4.7352 48.2555
#
#
#
# Elastic Compliance Matrix: (Units=1/GPa)
#
#
# Indices 1 2 3 4 5 6 
#
# 1 0.009026 -0.004188 -0.000839 0.000133 0.001724 -0.001879
# 2 -0.004188 0.018160 -0.004366 0.005293 0.001856 -0.005487
# 3 -0.000839 -0.004366 0.008455 -0.001010 -0.000048 0.000018
# 4 0.000133 0.005293 -0.001010 0.026297 -0.000193 0.000825
# 5 0.001724 0.001856 -0.000048 -0.000193 0.025447 -0.004212
# 6 -0.001879 -0.005487 0.000018 0.000825 -0.004212 0.024826
#
#
# Mechanical properties :
#
#
# Convention : Reuss Voigt Hill
#
# Bulk Modulus (GPa) = 59.33333 75.79373 67.56353
# Shear Modulus (GPa) = 36.59952 42.29007 39.44480
#
# Velocity S-wave (km/s) = 3.78670 4.07044 3.93113
# Velocity P-wave (km/s) = 6.50880 7.19625 6.86114
#
# Compressibility (1/GPa) = 0.01685393
#
# Stress axis : x y z
#
# Youngs Moduli (GPa) = 110.79626 55.06673 118.27799
#
# Poissons Ratio (x) = 0.23061 0.09919
# Poissons Ratio (y) = 0.46400 0.51646
# Poissons Ratio (z) = 0.09292 0.24045
#
# Static dielectric constant tensor:
#      x y z
#    x 2.039380 0.000190 0.033860 
#    y 0.000190 2.038310 0.057130 
#    z 0.033860 0.057130 2.029950 
# 
# From -- ./inp_files/105522.got.cif
#   From: 2010.05.17/outbox.cif.g08.bks.cpg/sg2_53_cif.got.tgz:105522.got - 2010.06.03 11:33:40.
