data_PCOD9105111
_publ_section_title
;
Structure prediction by ZEFSAII (Michael W. Deem and Ramdas Pophale) SiO2 
 PCOD9105111
Probable space group: P -1
;
_chemical_formula_sum "Si O2"
_cell_formula_units_Z 14
_cell_length_a 20.735266
_cell_length_b 7.959013
_cell_length_c 14.988390
_cell_angle_alpha 78.544756
_cell_angle_beta 162.409521
_cell_angle_gamma 110.482131
_cell_volume 615.601691
_symmetry_space_group_name_H-M "P -1"
_symmetry_group_IT_number 2
_symmetry_cell_setting 'triclinic'
loop_
_space_group_symop_operation_xyz
x,y,z
-x,-y,-z
loop_
_atom_site_type_symbol
_atom_site_label
_atom_site_fract_x
_atom_site_fract_y
_atom_site_fract_z
Si Si1 0.163192 0.444391 0.818561
Si Si2 0.746547 0.655052 0.863421
Si Si3 0.963155 0.884496 0.829377
Si Si4 0.119921 0.693480 0.203836
Si Si5 0.597606 0.250164 0.151840
Si Si6 0.493445 0.858669 0.145085
Si Si7 0.604441 0.445919 0.313944
O O1 0.867386 0.301730 0.463289
O O2 0.286373 0.442472 0.074036
O O3 0.235512 0.669178 0.863773
O O4 0.324872 0.403862 0.965848
O O5 0.500000 0.500000 0.500000
O O6 0.964005 0.656615 0.092726
O O7 0.824274 0.889380 0.949813
O O8 0.713123 0.899305 0.499569
O O9 0.834951 0.671557 0.627065
O O10 0.083143 0.849938 0.079697
O O11 0.370989 0.710859 0.571979
O O12 0.000000 0.500000 0.000000
O O13 0.636536 0.417876 0.255190
O O14 0.486066 0.051497 0.087668
O O15 0.442631 0.201880 0.860990
#
# Coordination Sequence:
#
# PCOD9105111 Si02
#       7
#     2   2   2   2   2   2   2
#     4  11  23  42  66  99 134 169 219 267 328 390
#     4  12  22  38  64  93 131 173 215 271 325 386
#     4  10  21  39  64  91 135 173 211 272 326 382
#     4  10  20  39  63  91 130 167 213 267 321 388
#     4  11  22  45  70  96 133 173 220 271 322 385
#     4  10  22  42  70  98 130 176 218 268 330 382
#     4  10  22  42  66  96 133 172 217 270 320 393
#
# _framework density 22.741975
#
# number of rings (size 3 to 8) (size 9 to 14) (size 15 to 20)
#    0.000    1.429    2.857    3.429    0.000    3.429 
#    2.571    9.286    3.143    0.000    0.000    0.000 
#    0.000    0.000    0.000    0.000    0.000    0.000 
#
# Total GULP energy -78001.772105 kJ/mol
# GULP energy per Si atom -5571.555150 kJ/mol
# Density = 2.269021 g / cm^3
# Si number density = 22.741975 Si / 1000 Ang^3
#
#
#
# Elastic Constant Matrix: (Units=GPa)
#
#
# Indices 1 2 3 4 5 6 
#
# 1 100.6042 18.3684 11.8623 2.7468 -11.7040 -11.1358
# 2 18.3684 87.5926 16.5705 -3.7401 6.4101 16.9726
# 3 11.8623 16.5705 76.8493 -5.3399 -1.8656 -6.0334
# 4 2.7468 -3.7401 -5.3399 36.4687 5.6474 -8.5157
# 5 -11.7040 6.4101 -1.8656 5.6474 35.8602 -1.4844
# 6 -11.1358 16.9726 -6.0334 -8.5157 -1.4844 35.6886
#
#
#
# Elastic Compliance Matrix: (Units=1/GPa)
#
#
# Indices 1 2 3 4 5 6 
#
# 1 0.011902 -0.003851 -0.000518 -0.000853 0.004906 0.005458
# 2 -0.003851 0.014969 -0.003466 -0.000120 -0.004472 -0.009121
# 3 -0.000518 -0.003466 0.014415 0.002722 0.000963 0.004613
# 4 -0.000853 -0.000120 0.002722 0.030282 -0.004583 0.007286
# 5 0.004906 -0.004472 0.000963 -0.004583 0.031225 0.004026
# 6 0.005458 -0.009121 0.004613 0.007286 0.004026 0.036747
#
#
# Mechanical properties :
#
#
# Convention : Reuss Voigt Hill
#
# Bulk Modulus (GPa) = 39.03976 39.84983 39.44480
# Shear Modulus (GPa) = 30.53423 36.15315 33.34369
#
# Velocity S-wave (km/s) = 3.66818 3.99144 3.83322
# Velocity P-wave (km/s) = 5.92827 6.22919 6.08059
#
# Compressibility (1/GPa) = 0.02561491
#
# Stress axis : x y z
#
# Youngs Moduli (GPa) = 84.01643 66.80337 69.37396
#
# Poissons Ratio (x) = 0.25726 0.03597
# Poissons Ratio (y) = 0.32355 0.24047
# Poissons Ratio (z) = 0.04356 0.23156
#
# Static dielectric constant tensor:
#      x y z
#    x 1.873210 -0.075570 -0.002360 
#    y -0.075570 1.971340 -0.050670 
#    z -0.002360 -0.050670 1.946380 
# 
# From -- ./inp_files/226286.got.cif
#   From: 2010.05.17/outbox.cif.g08.bks.cpg/sg2_114_cif.got.tgz:226286.got - 2010.06.03 11:33:40.
