data_PCOD9105398
_publ_section_title
;
Structure prediction by ZEFSAII (Michael W. Deem and Ramdas Pophale) SiO2 
 PCOD9105398
Probable space group: P -1
;
_chemical_formula_sum "Si O2"
_cell_formula_units_Z 16
_cell_length_a 16.252722
_cell_length_b 7.500375
_cell_length_c 7.398369
_cell_angle_alpha 52.356540
_cell_angle_beta 71.451141
_cell_angle_gamma 81.334113
_cell_volume 675.886002
_symmetry_space_group_name_H-M "P -1"
_symmetry_group_IT_number 2
_symmetry_cell_setting 'triclinic'
loop_
_space_group_symop_operation_xyz
x,y,z
-x,-y,-z
loop_
_atom_site_type_symbol
_atom_site_label
_atom_site_fract_x
_atom_site_fract_y
_atom_site_fract_z
Si Si1 0.277197 0.937170 0.158851
Si Si2 0.263716 0.821504 0.647605
Si Si3 0.027348 0.406074 0.232822
Si Si4 0.245091 0.295049 0.490844
Si Si5 0.588889 0.393282 0.788888
Si Si6 0.208407 0.339677 0.076514
Si Si7 0.115957 0.635744 0.367009
Si Si8 0.546176 0.255725 0.316842
O O1 0.247238 0.900051 0.409016
O O2 0.373690 0.848196 0.141516
O O3 0.204017 0.792760 0.188304
O O4 0.262713 0.199925 0.983736
O O5 0.363797 0.763389 0.631225
O O6 0.249809 0.028541 0.663351
O O7 0.206194 0.596408 0.859412
O O8 0.108638 0.254629 0.228997
O O9 0.065917 0.590672 0.240895
O O10 0.948103 0.293351 0.474548
O O11 0.000000 0.500000 0.000000
O O12 0.327802 0.438462 0.418681
O O13 0.252582 0.345116 0.238463
O O14 0.155207 0.397160 0.547064
O O15 0.510354 0.544429 0.688597
O O16 0.569620 0.340498 0.045752
O O17 0.500000 0.000000 0.500000
#
# Coordination Sequence:
#
# PCOD9105398 Si02
#       8
#     2   2   2   2   2   2   2   2
#     4  10  23  40  61  89 126 165 202 256 310 364
#     4  11  21  38  63  90 120 162 217 250 308 378
#     4  10  20  39  64  93 127 164 209 258 315 374
#     4   9  18  38  62  85 121 165 200 258 309 360
#     4  10  21  39  59  87 124 156 202 256 314 362
#     4  10  21  38  60  88 125 164 206 251 311 372
#     4   9  20  40  62  91 130 163 206 264 311 365
#     4  11  22  37  63  91 119 161 207 256 312 371
#
# _framework density 23.672630999999999
#
# number of rings (size 3 to 8) (size 9 to 14) (size 15 to 20)
#    0.000    2.000    2.500    0.750    0.000    2.000 
#    2.250    5.000    0.000    0.000    0.000    0.000 
#    0.000    0.000    0.000    0.000    0.000    0.000 
#
# Total GULP energy -89232.825447 kJ/mol
# GULP energy per Si atom -5577.051590 kJ/mol
# Density = 2.361875 g / cm^3
# Si number density = 23.672631 Si / 1000 Ang^3
#
#
#
# Elastic Constant Matrix: (Units=GPa)
#
#
# Indices 1 2 3 4 5 6 
#
# 1 87.2659 25.4595 20.3189 0.5925 8.1545 -18.2735
# 2 25.4595 104.9476 24.4798 -10.0520 -7.3670 -33.6476
# 3 20.3189 24.4798 81.6807 4.1458 -0.4891 -3.0160
# 4 0.5925 -10.0520 4.1458 32.4249 2.4810 5.6380
# 5 8.1545 -7.3670 -0.4891 2.4810 23.2146 4.1128
# 6 -18.2735 -33.6476 -3.0160 5.6380 4.1128 36.6176
#
#
#
# Elastic Compliance Matrix: (Units=1/GPa)
#
#
# Indices 1 2 3 4 5 6 
#
# 1 0.014565 -0.001209 -0.003002 -0.000930 -0.006669 0.006802
# 2 -0.001209 0.015114 -0.003908 0.002878 0.002666 0.012220
# 3 -0.003002 -0.003908 0.014154 -0.002407 0.001020 -0.003667
# 4 -0.000930 0.002878 -0.002407 0.032690 -0.001800 -0.002848
# 5 -0.006669 0.002666 0.001020 -0.001800 0.047516 -0.005854
# 6 0.006802 0.012220 -0.003667 -0.002848 -0.005854 0.042727
#
#
# Mechanical properties :
#
#
# Convention : Reuss Voigt Hill
#
# Bulk Modulus (GPa) = 36.23989 46.04561 41.14275
# Shear Modulus (GPa) = 26.01412 32.02717 29.02064
#
# Velocity S-wave (km/s) = 3.31858 3.68220 3.50511
# Velocity P-wave (km/s) = 5.47960 6.12954 5.81366
#
# Compressibility (1/GPa) = 0.02759390
#
# Stress axis : x y z
#
# Youngs Moduli (GPa) = 68.65802 66.16217 70.65299
#
# Poissons Ratio (x) = 0.08002 0.21212
# Poissons Ratio (y) = 0.08303 0.27610
# Poissons Ratio (z) = 0.20613 0.25855
#
# Static dielectric constant tensor:
#      x y z
#    x 1.904660 -0.008740 -0.000490 
#    y -0.008740 2.029960 -0.046450 
#    z -0.000490 -0.046450 1.934940 
# 
# From -- ./inp_files/328329.got.cif
#   From: 2010.05.17/outbox.cif.g08.bks.cpg/sg2_165_cif.got.tgz:328329.got - 2010.06.03 11:33:40.
