data_PCOD9105384
_publ_section_title
;
Structure prediction by ZEFSAII (Michael W. Deem and Ramdas Pophale) SiO2 
 PCOD9105384
Probable space group: P -1
;
_chemical_formula_sum "Si O2"
_cell_formula_units_Z 16
_cell_length_a 15.208046
_cell_length_b 9.626805
_cell_length_c 14.880790
_cell_angle_alpha 140.417842
_cell_angle_beta 52.451980
_cell_angle_gamma 96.906573
_cell_volume 794.837076
_symmetry_space_group_name_H-M "P -1"
_symmetry_group_IT_number 2
_symmetry_cell_setting 'triclinic'
loop_
_space_group_symop_operation_xyz
x,y,z
-x,-y,-z
loop_
_atom_site_type_symbol
_atom_site_label
_atom_site_fract_x
_atom_site_fract_y
_atom_site_fract_z
Si Si1 0.349676 0.703271 0.943563
Si Si2 0.168985 0.873849 0.318156
Si Si3 0.226896 0.168415 0.829121
Si Si4 0.873825 0.738439 0.319114
Si Si5 0.617065 0.802150 0.102637
Si Si6 0.341692 0.265188 0.636055
Si Si7 0.361906 0.153212 0.092817
Si Si8 0.704535 0.287965 0.558558
O O1 0.362720 0.489090 0.757500
O O2 0.518469 0.508195 0.787467
O O3 0.225684 0.805965 0.146898
O O4 0.300978 0.996441 0.074686
O O5 0.171270 0.108942 0.479069
O O6 0.292011 0.548821 0.127420
O O7 0.000000 0.000000 0.500000
O O8 0.274891 0.171379 0.899971
O O9 0.330953 0.155104 0.683740
O O10 0.247533 0.887123 0.652942
O O11 0.056128 0.482772 0.073372
O O12 0.811434 0.591358 0.251396
O O13 0.795877 0.018812 0.439893
O O14 0.470757 0.994629 0.354698
O O15 0.583058 0.911988 0.076939
O O16 0.258869 0.508020 0.349741
O O17 0.500000 0.000000 0.000000
#
# Coordination Sequence:
#
# PCOD9105384 Si02
#       8
#     2   2   2   2   2   2   2   2
#     4  11  23  42  62  92 135 164 212 265 317 376
#     4  12  23  39  66  95 129 163 216 267 318 376
#     4  11  21  40  63 100 132 160 210 269 323 371
#     4  11  23  35  66  97 131 162 209 268 320 368
#     4  12  22  40  68  91 126 168 215 257 322 375
#     4  11  22  37  64  98 126 162 213 267 317 367
#     4  10  25  43  61  94 129 172 211 260 317 378
#     4  10  20  39  64  92 129 169 205 260 315 378
#
# _framework density 20.129909999999999
#
# number of rings (size 3 to 8) (size 9 to 14) (size 15 to 20)
#    0.000    1.000    5.000    3.375    3.500    1.500 
#    0.000    0.625    0.000    1.500    0.000    0.000 
#    0.000    0.000    0.000    0.000    0.000    0.000 
#
# Total GULP energy -89303.395756 kJ/mol
# GULP energy per Si atom -5581.462235 kJ/mol
# Density = 2.008409 g / cm^3
# Si number density = 20.129910 Si / 1000 Ang^3
#
#
#
# Elastic Constant Matrix: (Units=GPa)
#
#
# Indices 1 2 3 4 5 6 
#
# 1 98.5560 31.7826 35.1874 -1.4735 14.4806 -10.5478
# 2 31.7826 83.8256 41.7813 1.5856 2.9242 -1.1330
# 3 35.1874 41.7813 109.9987 -5.2309 5.9910 0.6860
# 4 -1.4735 1.5856 -5.2309 23.3835 3.8881 13.5654
# 5 14.4806 2.9242 5.9910 3.8881 37.9628 4.8646
# 6 -10.5478 -1.1330 0.6860 13.5654 4.8646 26.9167
#
#
#
# Elastic Compliance Matrix: (Units=1/GPa)
#
#
# Indices 1 2 3 4 5 6 
#
# 1 0.013923 -0.003381 -0.003095 -0.003380 -0.005247 0.008044
# 2 -0.003381 0.015801 -0.005133 -0.003099 0.001093 0.000836
# 3 -0.003095 -0.005133 0.012344 0.005580 -0.000368 -0.004489
# 4 -0.003380 -0.003099 0.005580 0.063642 -0.001593 -0.033383
# 5 -0.005247 0.001093 -0.000368 -0.001593 0.029312 -0.006495
# 6 0.008044 0.000836 -0.004489 -0.033383 -0.006495 0.058452
#
#
# Mechanical properties :
#
#
# Convention : Reuss Voigt Hill
#
# Bulk Modulus (GPa) = 53.04450 56.65366 54.84908
# Shear Modulus (GPa) = 22.42408 29.89452 26.15930
#
# Velocity S-wave (km/s) = 3.34124 3.85785 3.60880
# Velocity P-wave (km/s) = 6.42600 6.93175 6.68366
#
# Compressibility (1/GPa) = 0.01885209
#
# Stress axis : x y z
#
# Youngs Moduli (GPa) = 71.82399 63.28588 81.01130
#
# Poissons Ratio (x) = 0.21395 0.25072
# Poissons Ratio (y) = 0.24281 0.41579
# Poissons Ratio (z) = 0.22229 0.32482
#
# Static dielectric constant tensor:
#      x y z
#    x 1.787740 0.027720 0.002480 
#    y 0.027720 1.711340 0.011130 
#    z 0.002480 0.011130 1.726190 
# 
# From -- ./inp_files/282572.got.cif
#   From: 2010.05.17/outbox.cif.g08.bks.cpg/sg2_142_cif.got.tgz:282572.got - 2010.06.03 11:33:40.
