data_PCOD9105036
_publ_section_title
;
Structure prediction by ZEFSAII (Michael W. Deem and Ramdas Pophale) SiO2 
 PCOD9105036
Probable space group: P -1
;
_chemical_formula_sum "Si O2"
_cell_formula_units_Z 15
_cell_length_a 8.023027
_cell_length_b 8.180752
_cell_length_c 14.607381
_cell_angle_alpha 58.714650
_cell_angle_beta 93.250635
_cell_angle_gamma 53.201523
_cell_volume 553.281451
_symmetry_space_group_name_H-M "P -1"
_symmetry_group_IT_number 2
_symmetry_cell_setting 'triclinic'
loop_
_space_group_symop_operation_xyz
x,y,z
-x,-y,-z
loop_
_atom_site_type_symbol
_atom_site_label
_atom_site_fract_x
_atom_site_fract_y
_atom_site_fract_z
Si Si1 0.615690 0.080174 0.178433
Si Si2 0.908384 0.446418 0.770508
Si Si3 0.141793 0.129443 0.438257
Si Si4 0.731634 0.787439 0.999049
Si Si5 0.643213 0.270014 0.783460
Si Si6 0.790342 0.202921 0.300772
Si Si7 0.753651 0.617524 0.417214
Si Si8 0.500000 0.500000 0.500000
O O1 0.845386 0.812516 0.203786
O O2 0.579833 0.935826 0.290019
O O3 0.367790 0.293749 0.048943
O O4 0.725570 0.162640 0.214936
O O5 0.769184 0.741985 0.631815
O O6 0.779364 0.348665 0.799902
O O7 0.019337 0.442235 0.868449
O O8 0.069950 0.040910 0.379243
O O9 0.880425 0.396004 0.401942
O O10 0.266379 0.902006 0.588448
O O11 0.763886 0.962931 0.895842
O O12 0.500000 0.000000 0.000000
O O13 0.404250 0.467705 0.785038
O O14 0.572557 0.351664 0.650552
O O15 0.645804 0.572393 0.503566
O O16 0.000000 0.500000 0.500000
#
# Coordination Sequence:
#
# PCOD9105036 Si02
#       8
#     2   2   2   2   2   2   2   1
#     4  10  20  39  63  89 119 170 212 250 313 382
#     4  10  23  41  66  87 118 171 217 262 298 378
#     4  10  21  39  58  87 131 164 204 246 319 389
#     4  10  21  44  68  85 118 169 223 253 295 384
#     4  12  24  39  63  98 127 156 208 269 322 372
#     4  11  22  37  60  93 132 162 198 259 330 388
#     4  11  19  37  60  87 126 168 211 247 307 390
#     4  12  22  36  64  96 128 164 210 266 316 384
#
# _framework density 27.110976000000001
#
# number of rings (size 3 to 8) (size 9 to 14) (size 15 to 20)
#    0.000    1.333    4.000    3.600    0.000    0.533 
#    0.000    8.000    0.000    0.000    0.000    0.000 
#    0.000    0.000    0.000    0.000    0.000    0.000 
#
# Total GULP energy -83638.804473 kJ/mol
# GULP energy per Si atom -5575.920298 kJ/mol
# Density = 2.704927 g / cm^3
# Si number density = 27.110976 Si / 1000 Ang^3
#
#
#
# Elastic Constant Matrix: (Units=GPa)
#
#
# Indices 1 2 3 4 5 6 
#
# 1 135.1035 -5.1980 36.7283 6.4635 -3.4267 20.0051
# 2 -5.1980 69.8649 19.0021 19.6694 18.2703 12.9165
# 3 36.7283 19.0021 114.7752 10.3902 7.8888 17.2111
# 4 6.4635 19.6694 10.3902 31.1095 16.0429 7.0407
# 5 -3.4267 18.2703 7.8888 16.0429 48.8125 14.7436
# 6 20.0051 12.9165 17.2111 7.0407 14.7436 43.5792
#
#
#
# Elastic Compliance Matrix: (Units=1/GPa)
#
#
# Indices 1 2 3 4 5 6 
#
# 1 0.008985 0.002284 -0.002545 -0.002727 0.002336 -0.004146
# 2 0.002284 0.019127 -0.002337 -0.009792 -0.002373 -0.003410
# 3 -0.002545 -0.002337 0.010310 -0.000954 -0.000040 -0.002043
# 4 -0.002727 -0.009792 -0.000954 0.044874 -0.011472 0.001162
# 5 0.002336 -0.002373 -0.000040 -0.011472 0.027692 -0.007869
# 6 -0.004146 -0.003410 -0.002043 0.001162 -0.007869 0.029142
#
#
# Mechanical properties :
#
#
# Convention : Reuss Voigt Hill
#
# Bulk Modulus (GPa) = 30.09722 46.75647 38.42685
# Shear Modulus (GPa) = 31.96938 42.64765 37.30851
#
# Velocity S-wave (km/s) = 3.43768 3.97051 3.71366
# Velocity P-wave (km/s) = 5.18483 6.18899 5.70903
#
# Compressibility (1/GPa) = 0.03322566
#
# Stress axis : x y z
#
# Youngs Moduli (GPa) = 111.29368 52.28347 96.99741
#
# Poissons Ratio (x) = -0.11943 0.24690
# Poissons Ratio (y) = -0.25423 0.22665
# Poissons Ratio (z) = 0.28329 0.12217
#
# Static dielectric constant tensor:
#      x y z
#    x 2.231060 0.284980 -0.023040 
#    y 0.284980 2.101280 0.217840 
#    z -0.023040 0.217840 2.082150 
# 
# From -- ./inp_files/315793.got.cif
#   From: 2010.05.17/outbox.cif.g08.bks.cpg/sg2_158_cif.got.tgz:315793.got - 2010.06.03 11:33:40.
