data_PCOD9105444
_publ_section_title
;
Structure prediction by ZEFSAII (Michael W. Deem and Ramdas Pophale) SiO2 
 PCOD9105444
Probable space group: P -1
;
_chemical_formula_sum "Si O2"
_cell_formula_units_Z 16
_cell_length_a 10.223605
_cell_length_b 5.290963
_cell_length_c 15.658302
_cell_angle_alpha 103.081655
_cell_angle_beta 62.605014
_cell_angle_gamma 87.431049
_cell_volume 721.549296
_symmetry_space_group_name_H-M "P -1"
_symmetry_group_IT_number 2
_symmetry_cell_setting 'triclinic'
loop_
_space_group_symop_operation_xyz
x,y,z
-x,-y,-z
loop_
_atom_site_type_symbol
_atom_site_label
_atom_site_fract_x
_atom_site_fract_y
_atom_site_fract_z
Si Si1 0.675319 0.922121 0.427628
Si Si2 0.866885 0.834507 0.527275
Si Si3 0.782156 0.816266 0.017783
Si Si4 0.475237 0.799397 0.065833
Si Si5 0.173658 0.649022 0.169627
Si Si6 0.183978 0.683285 0.702137
Si Si7 0.972162 0.904297 0.113038
Si Si8 0.920843 0.611480 0.663682
O O1 0.746846 0.950357 0.502066
O O2 0.735672 0.621346 0.353385
O O3 0.500000 0.000000 0.500000
O O4 0.723203 0.132496 0.364194
O O5 0.825007 0.784709 0.633757
O O6 0.943737 0.558310 0.442751
O O7 0.000000 0.000000 0.500000
O O8 0.788188 0.606317 0.922993
O O9 0.870194 0.042082 0.970511
O O10 0.605357 0.851296 0.096075
O O11 0.882342 0.739646 0.065440
O O12 0.300184 0.833504 0.143864
O O13 0.500000 0.500000 0.000000
O O14 0.500000 0.000000 0.000000
O O15 0.163029 0.566515 0.264739
O O16 0.018076 0.770962 0.180090
O O17 0.140956 0.818907 0.816973
O O18 0.019229 0.731427 0.711981
#
# Coordination Sequence:
#
# PCOD9105444 Si02
#       8
#     2   2   2   2   2   2   2   2
#     4  11  24  44  72  95 136 178 213 267 351 417
#     4  10  20  39  64  95 128 165 218 276 338 394
#     4  10  22  38  62  96 130 184 223 282 332 398
#     4  10  21  41  61  89 131 177 224 272 345 401
#     4  11  21  38  66  95 133 182 234 278 340 403
#     4  11  22  41  67 100 132 175 222 277 333 405
#     4  11  21  37  66  97 131 172 237 281 329 392
#     4  10  21  36  64  98 126 169 224 284 328 396
#
# _framework density 22.174503999999999
#
# number of rings (size 3 to 8) (size 9 to 14) (size 15 to 20)
#    0.000    1.500    3.750    2.250    0.000    0.000 
#    0.000    1.250    2.750    0.000    0.000    0.000 
#    0.000    0.000    0.000    0.000    0.000    0.000 
#
# Total GULP energy -89123.643464 kJ/mol
# GULP energy per Si atom -5570.227717 kJ/mol
# Density = 2.212403 g / cm^3
# Si number density = 22.174504 Si / 1000 Ang^3
#
#
#
# Elastic Constant Matrix: (Units=GPa)
#
#
# Indices 1 2 3 4 5 6 
#
# 1 163.7874 34.5934 38.7110 -13.9475 -6.7514 15.0389
# 2 34.5934 98.8795 34.1046 -20.5291 0.6954 5.5274
# 3 38.7110 34.1046 80.8554 -20.0159 -2.4321 1.2742
# 4 -13.9475 -20.5291 -20.0159 36.6910 8.5472 -11.5596
# 5 -6.7514 0.6954 -2.4321 8.5472 25.7238 -7.6589
# 6 15.0389 5.5274 1.2742 -11.5596 -7.6589 27.1139
#
#
#
# Elastic Compliance Matrix: (Units=1/GPa)
#
#
# Indices 1 2 3 4 5 6 
#
# 1 0.007472 -0.001574 -0.003120 -0.001196 0.000939 -0.003922
# 2 -0.001574 0.013020 -0.003480 0.005431 -0.002938 -0.000132
# 3 -0.003120 -0.003480 0.017187 0.007846 -0.000246 0.004908
# 4 -0.001196 0.005431 0.007846 0.040624 -0.009065 0.013947
# 5 0.000939 -0.002938 -0.000246 -0.009065 0.044836 0.008890
# 6 -0.003922 -0.000132 0.004908 0.013947 0.008890 0.047310
#
#
# Mechanical properties :
#
#
# Convention : Reuss Voigt Hill
#
# Bulk Modulus (GPa) = 46.87896 62.03782 54.45839
# Shear Modulus (GPa) = 25.78552 33.64664 29.71608
#
# Velocity S-wave (km/s) = 3.41375 3.89955 3.66471
# Velocity P-wave (km/s) = 6.06012 6.95077 6.52067
#
# Compressibility (1/GPa) = 0.02133153
#
# Stress axis : x y z
#
# Youngs Moduli (GPa) = 133.83031 76.80586 58.18387
#
# Poissons Ratio (x) = 0.12088 0.18151
# Poissons Ratio (y) = 0.21063 0.20249
# Poissons Ratio (z) = 0.41751 0.26729
#
# Static dielectric constant tensor:
#      x y z
#    x 1.853850 -0.035820 0.138770 
#    y -0.035820 1.913010 0.209810 
#    z 0.138770 0.209810 2.899040 
# 
# From -- ./inp_files/488532.got.cif
#   From: 2010.05.17/outbox.cif.g08.bks.cpg/sg2_245_cif.got.tgz:488532.got - 2010.06.03 11:33:40.
