data_PCOD9105744
_publ_section_title
;
Structure prediction by ZEFSAII (Michael W. Deem and Ramdas Pophale) SiO2 
 PCOD9105744
Probable space group: P -1
;
_chemical_formula_sum "Si O2"
_cell_formula_units_Z 15
_cell_length_a 8.603105
_cell_length_b 16.433143
_cell_length_c 7.682820
_cell_angle_alpha 55.110801
_cell_angle_beta 131.659311
_cell_angle_gamma 110.685777
_cell_volume 664.985263
_symmetry_space_group_name_H-M "P -1"
_symmetry_group_IT_number 2
_symmetry_cell_setting 'triclinic'
loop_
_space_group_symop_operation_xyz
x,y,z
-x,-y,-z
loop_
_atom_site_type_symbol
_atom_site_label
_atom_site_fract_x
_atom_site_fract_y
_atom_site_fract_z
Si Si1 0.500000 0.000000 0.500000
Si Si2 0.972531 0.756996 0.635655
Si Si3 0.459495 0.256048 0.475797
Si Si4 0.260113 0.204889 0.037048
Si Si5 0.043125 0.960753 0.276367
Si Si6 0.921235 0.610223 0.513295
Si Si7 0.855053 0.148548 0.021293
Si Si8 0.333343 0.548516 0.675467
O O1 0.615869 0.896508 0.794420
O O2 0.283922 0.977926 0.467300
O O3 0.742656 0.762976 0.539357
O O4 0.001280 0.645582 0.718156
O O5 0.001002 0.845939 0.410496
O O6 0.125520 0.788703 0.865653
O O7 0.396453 0.251773 0.233447
O O8 0.555948 0.362040 0.446778
O O9 0.634850 0.170384 0.742363
O O10 0.039944 0.184158 0.991081
O O11 0.214911 0.291030 0.761387
O O12 0.901661 0.030864 0.211201
O O13 0.000000 0.000000 0.000000
O O14 0.768316 0.523503 0.454683
O O15 0.130268 0.591435 0.578008
O O16 0.500000 0.500000 0.000000
#
# Coordination Sequence:
#
# PCOD9105744 Si02
#       8
#     1   2   2   2   2   2   2   2
#     4  10  22  34  64  98 128 166 220 266 324 386
#     4  11  26  40  64 102 139 175 217 279 346 402
#     4  11  23  42  67  95 131 182 216 279 348 396
#     4  10  20  39  65  97 129 172 227 277 324 400
#     4  11  23  41  65  99 135 181 232 273 318 402
#     4  11  24  42  68 100 130 170 234 286 331 396
#     4  10  22  41  62  92 145 176 218 273 336 399
#     4  11  24  44  73  97 126 176 236 286 336 398
#
# _framework density 22.556891
#
# number of rings (size 3 to 8) (size 9 to 14) (size 15 to 20)
#    0.000    1.333    2.667    2.800    1.867    4.267 
#    0.000    1.333    0.000    0.000    0.000    0.000 
#    0.000    0.000    0.000    0.000    0.000    0.000 
#
# Total GULP energy -83500.769442 kJ/mol
# GULP energy per Si atom -5566.717963 kJ/mol
# Density = 2.250555 g / cm^3
# Si number density = 22.556891 Si / 1000 Ang^3
#
#
#
# Elastic Constant Matrix: (Units=GPa)
#
#
# Indices 1 2 3 4 5 6 
#
# 1 22.6970 2.2584 12.0484 -0.6392 7.7431 7.9570
# 2 2.2584 111.1902 -6.1633 9.3788 6.1352 0.3310
# 3 12.0484 -6.1633 47.3284 -7.7891 12.7396 0.1858
# 4 -0.6392 9.3788 -7.7891 29.4201 -7.2685 -5.7776
# 5 7.7431 6.1352 12.7396 -7.2685 29.3872 -0.6748
# 6 7.9570 0.3310 0.1858 -5.7776 -0.6748 37.1638
#
#
#
# Elastic Compliance Matrix: (Units=1/GPa)
#
#
# Indices 1 2 3 4 5 6 
#
# 1 0.060133 -0.000582 -0.013333 -0.007853 -0.012212 -0.014246
# 2 -0.000582 0.009602 0.001755 -0.003593 -0.003515 -0.000592
# 3 -0.013333 0.001755 0.027611 0.005289 -0.007437 0.003388
# 4 -0.007853 -0.003593 0.005289 0.040635 0.010765 0.008200
# 5 -0.012212 -0.003515 -0.007437 0.010765 0.043985 0.005155
# 6 -0.014246 -0.000592 0.003388 0.008200 0.005155 0.031315
#
#
# Mechanical properties :
#
#
# Convention : Reuss Voigt Hill
#
# Bulk Modulus (GPa) = 13.69366 21.94474 17.81920
# Shear Modulus (GPa) = 19.08823 30.73237 24.91030
#
# Velocity S-wave (km/s) = 2.91215 3.69513 3.32675
# Velocity P-wave (km/s) = 4.17030 5.28725 4.76164
#
# Compressibility (1/GPa) = 0.07302650
#
# Stress axis : x y z
#
# Youngs Moduli (GPa) = 16.62972 104.15035 36.21787
#
# Poissons Ratio (x) = 0.06060 0.48290
# Poissons Ratio (y) = 0.00968 -0.06358
# Poissons Ratio (z) = 0.22173 -0.18283
#
# Static dielectric constant tensor:
#      x y z
#    x 1.796510 -0.050120 -0.047020 
#    y -0.050120 1.945500 0.046230 
#    z -0.047020 0.046230 1.868000 
# 
# From -- ./inp_files/214597.got.cif
#   From: 2010.05.17/outbox.cif.g08.bks.cpg/sg2_108_cif.got.tgz:214597.got - 2010.06.03 11:33:40.
