data_PCOD9105620
_publ_section_title
;
Structure prediction by ZEFSAII (Michael W. Deem and Ramdas Pophale) SiO2 
 PCOD9105620
Probable space group: P -1
;
_chemical_formula_sum "Si O2"
_cell_formula_units_Z 14
_cell_length_a 9.137260
_cell_length_b 8.698435
_cell_length_c 26.175222
_cell_angle_alpha 138.609520
_cell_angle_beta 150.917488
_cell_angle_gamma 51.726453
_cell_volume 664.345936
_symmetry_space_group_name_H-M "P -1"
_symmetry_group_IT_number 2
_symmetry_cell_setting 'triclinic'
loop_
_space_group_symop_operation_xyz
x,y,z
-x,-y,-z
loop_
_atom_site_type_symbol
_atom_site_label
_atom_site_fract_x
_atom_site_fract_y
_atom_site_fract_z
Si Si1 0.828321 0.656206 0.287196
Si Si2 0.734391 0.414183 0.089620
Si Si3 0.214365 0.303608 0.358822
Si Si4 0.726065 0.436125 0.783819
Si Si5 0.181037 0.090667 0.026494
Si Si6 0.449643 0.986484 0.540898
Si Si7 0.221038 0.863549 0.183087
O O1 0.734447 0.541175 0.175318
O O2 0.554504 0.787851 0.256749
O O3 0.929609 0.445897 0.300151
O O4 0.131355 0.837035 0.418638
O O5 0.058737 0.487061 0.179402
O O6 0.669692 0.133082 0.003675
O O7 0.500000 0.500000 0.000000
O O8 0.500000 0.500000 0.500000
O O9 0.267200 0.135413 0.380172
O O10 0.233746 0.130288 0.273223
O O11 0.900455 0.307571 0.849974
O O12 0.470080 0.240191 0.636650
O O13 0.630278 0.671980 0.837826
O O14 0.967185 0.158940 0.932104
O O15 0.000000 0.000000 0.000000
O O16 0.500000 0.000000 0.500000
#
# Coordination Sequence:
#
# PCOD9105620 Si02
#       7
#     2   2   2   2   2   2   2
#     4  11  21  40  67  92 127 170 212 248 322 382
#     4  11  22  41  65  91 125 170 213 258 320 381
#     4   9  21  37  62  90 129 169 204 255 313 366
#     4  10  22  40  62  90 130 161 210 263 316 363
#     4  10  21  39  63  89 127 166 206 267 316 364
#     4  10  20  39  65  92 129 164 205 266 310 371
#     4  11  22  41  65  96 128 165 211 266 310 376
#
# _framework density 21.073360999999998
#
# number of rings (size 3 to 8) (size 9 to 14) (size 15 to 20)
#    0.000    1.714    2.857    2.143    0.000    5.143 
#    5.143    2.857    0.000    9.429    0.000    0.000 
#    0.000    0.000    0.000    0.000    0.000    0.000 
#
# Total GULP energy -78145.577129 kJ/mol
# GULP energy per Si atom -5581.826938 kJ/mol
# Density = 2.102540 g / cm^3
# Si number density = 21.073361 Si / 1000 Ang^3
#
#
#
# Elastic Constant Matrix: (Units=GPa)
#
#
# Indices 1 2 3 4 5 6 
#
# 1 74.7569 21.9754 30.2153 2.4259 -14.6848 4.9401
# 2 21.9754 117.5952 58.4631 13.7186 -4.3780 -9.4276
# 3 30.2153 58.4631 104.0585 27.2921 -34.3957 -9.7838
# 4 2.4259 13.7186 27.2921 49.7111 -2.0759 -9.3112
# 5 -14.6848 -4.3780 -34.3957 -2.0759 29.3391 -7.6842
# 6 4.9401 -9.4276 -9.7838 -9.3112 -7.6842 31.4136
#
#
#
# Elastic Compliance Matrix: (Units=1/GPa)
#
#
# Indices 1 2 3 4 5 6 
#
# 1 0.015943 -0.001661 -0.003080 0.000986 0.003449 -0.002829
# 2 -0.001661 0.014454 -0.013424 0.002366 -0.014906 -0.002527
# 3 -0.003080 -0.013424 0.036409 -0.011627 0.042156 0.014661
# 4 0.000986 0.002366 -0.011627 0.025739 -0.010437 0.002010
# 5 0.003449 -0.014906 0.042156 -0.010437 0.089305 0.026865
# 6 -0.002829 -0.002527 0.014661 0.002010 0.026865 0.043253
#
#
# Mechanical properties :
#
#
# Convention : Reuss Voigt Hill
#
# Bulk Modulus (GPa) = 32.81404 57.52424 45.16914
# Shear Modulus (GPa) = 18.40993 34.47657 26.44325
#
# Velocity S-wave (km/s) = 2.95890 4.04917 3.54619
# Velocity P-wave (km/s) = 5.22289 7.01551 6.18450
#
# Compressibility (1/GPa) = 0.03047476
#
# Stress axis : x y z
#
# Youngs Moduli (GPa) = 62.72528 69.18318 27.46606
#
# Poissons Ratio (x) = 0.11493 0.08460
# Poissons Ratio (y) = 0.10420 0.36870
# Poissons Ratio (z) = 0.19321 0.92871
#
# Static dielectric constant tensor:
#      x y z
#    x 1.769290 0.014790 0.013030 
#    y 0.014790 1.784970 0.021740 
#    z 0.013030 0.021740 1.761760 
# 
# From -- ./inp_files/179601.got.cif
#   From: 2010.05.17/outbox.cif.g08.bks.cpg/sg2_90_cif.got.tgz:179601.got - 2010.06.03 11:33:40.
