data_PCOD9105739
_publ_section_title
;
Structure prediction by ZEFSAII (Michael W. Deem and Ramdas Pophale) SiO2 
 PCOD9105739
Probable space group: P -1
;
_chemical_formula_sum "Si O2"
_cell_formula_units_Z 14
_cell_length_a 11.644820
_cell_length_b 9.018364
_cell_length_c 18.779025
_cell_angle_alpha 62.766285
_cell_angle_beta 39.080268
_cell_angle_gamma 34.927544
_cell_volume 618.306801
_symmetry_space_group_name_H-M "P -1"
_symmetry_group_IT_number 2
_symmetry_cell_setting 'triclinic'
loop_
_space_group_symop_operation_xyz
x,y,z
-x,-y,-z
loop_
_atom_site_type_symbol
_atom_site_label
_atom_site_fract_x
_atom_site_fract_y
_atom_site_fract_z
Si Si1 0.641509 0.726051 0.562829
Si Si2 0.658017 0.397794 0.734532
Si Si3 0.963741 0.334908 0.078111
Si Si4 0.344055 0.107300 0.341104
Si Si5 0.392631 0.783768 0.540796
Si Si6 0.685631 0.136884 0.095150
Si Si7 0.644758 0.551592 0.324272
O O1 0.615989 0.586535 0.659288
O O2 0.639176 0.881515 0.583834
O O3 0.389576 0.913141 0.579497
O O4 0.990957 0.444039 0.419061
O O5 0.379127 0.477504 0.829629
O O6 0.593584 0.524737 0.816811
O O7 0.024933 0.051909 0.628645
O O8 0.941603 0.341273 0.173043
O O9 0.000000 0.500000 0.000000
O O10 0.234419 0.999712 0.990841
O O11 0.619954 0.015333 0.196270
O O12 0.392351 0.881531 0.345102
O O13 0.660100 0.588100 0.392252
O O14 0.467419 0.552261 0.595636
O O15 0.000000 0.000000 0.000000
#
# Coordination Sequence:
#
# PCOD9105739 Si02
#       7
#     2   2   2   2   2   2   2
#     4  10  21  40  67  92 128 159 207 268 317 368
#     4  10  21  42  67  92 124 165 215 254 319 368
#     4  11  21  40  68  89 126 175 208 256 307 372
#     4  10  20  39  65  97 121 164 210 259 319 368
#     4  11  24  41  64  98 129 163 202 264 323 376
#     4   9  20  39  67  88 118 170 215 252 303 371
#     4  11  23  39  62  97 132 159 211 253 322 378
#
# _framework density 22.642479000000002
#
# number of rings (size 3 to 8) (size 9 to 14) (size 15 to 20)
#    0.000    1.714    4.286    0.000    0.000    4.000 
#    0.000    1.429    0.000    0.000    0.000    0.000 
#    0.000    0.000    0.000    0.000    0.000    0.000 
#
# Total GULP energy -77996.463484 kJ/mol
# GULP energy per Si atom -5571.175963 kJ/mol
# Density = 2.259094 g / cm^3
# Si number density = 22.642479 Si / 1000 Ang^3
#
#
#
# Elastic Constant Matrix: (Units=GPa)
#
#
# Indices 1 2 3 4 5 6 
#
# 1 77.2929 22.1943 37.7940 7.1578 11.8407 10.4511
# 2 22.1943 66.4486 32.8990 -5.8265 2.8526 28.7717
# 3 37.7940 32.8990 122.2145 -9.9015 22.0523 6.6887
# 4 7.1578 -5.8265 -9.9015 30.7637 13.4686 1.0792
# 5 11.8407 2.8526 22.0523 13.4686 46.7741 0.1366
# 6 10.4511 28.7717 6.6887 1.0792 0.1366 34.1044
#
#
#
# Elastic Compliance Matrix: (Units=1/GPa)
#
#
# Indices 1 2 3 4 5 6 
#
# 1 0.016951 -0.003251 -0.004758 -0.005992 -0.000121 -0.001329
# 2 -0.003251 0.028899 -0.005099 0.005389 -0.000021 -0.022554
# 3 -0.004758 -0.005099 0.012569 0.006880 -0.006400 0.003103
# 4 -0.005992 0.005389 0.006880 0.043730 -0.014632 -0.005385
# 5 -0.000121 -0.000021 -0.006400 -0.014632 0.028637 0.001658
# 6 -0.001329 -0.022554 0.003103 -0.005385 0.001658 0.048312
#
#
# Mechanical properties :
#
#
# Convention : Reuss Voigt Hill
#
# Bulk Modulus (GPa) = 31.05335 50.19229 40.62282
# Shear Modulus (GPa) = 23.14314 33.86635 28.50475
#
# Velocity S-wave (km/s) = 3.20052 3.87162 3.55196
# Velocity P-wave (km/s) = 5.23471 6.49626 5.89930
#
# Compressibility (1/GPa) = 0.03220265
#
# Stress axis : x y z
#
# Youngs Moduli (GPa) = 58.99487 34.60335 79.56250
#
# Poissons Ratio (x) = 0.11250 0.37853
# Poissons Ratio (y) = 0.19179 0.40570
# Poissons Ratio (z) = 0.28068 0.17645
#
# Static dielectric constant tensor:
#      x y z
#    x 1.840960 0.020010 0.047590 
#    y 0.020010 1.880390 -0.034580 
#    z 0.047590 -0.034580 1.885030 
# 
# From -- ./inp_files/260930.got.cif
#   From: 2010.05.17/outbox.cif.g08.bks.cpg/sg2_131_cif.got.tgz:260930.got - 2010.06.03 11:33:40.
