data_PCOD9105486
_publ_section_title
;
Structure prediction by ZEFSAII (Michael W. Deem and Ramdas Pophale) SiO2 
 PCOD9105486
Probable space group: P -1
;
_chemical_formula_sum "Si O2"
_cell_formula_units_Z 14
_cell_length_a 13.433183
_cell_length_b 10.032162
_cell_length_c 9.988256
_cell_angle_alpha 67.512018
_cell_angle_beta 146.931473
_cell_angle_gamma 130.498497
_cell_volume 514.321145
_symmetry_space_group_name_H-M "P -1"
_symmetry_group_IT_number 2
_symmetry_cell_setting 'triclinic'
loop_
_space_group_symop_operation_xyz
x,y,z
-x,-y,-z
loop_
_atom_site_type_symbol
_atom_site_label
_atom_site_fract_x
_atom_site_fract_y
_atom_site_fract_z
Si Si1 0.964130 0.794783 0.165876
Si Si2 0.968580 0.575083 0.570950
Si Si3 0.793900 0.013930 0.277983
Si Si4 0.380356 0.612135 0.096589
Si Si5 0.657119 0.244361 0.512000
Si Si6 0.209051 0.214269 0.317117
Si Si7 0.764872 0.140337 0.920588
O O1 0.179335 0.796342 0.361867
O O2 0.740100 0.581582 0.046756
O O3 0.837194 0.787391 0.889898
O O4 0.090302 0.996300 0.299227
O O5 0.067316 0.783429 0.570621
O O6 0.000000 0.500000 0.500000
O O7 0.721285 0.419677 0.431179
O O8 0.153604 0.596889 0.877980
O O9 0.566342 0.808700 0.153039
O O10 0.692789 0.049097 0.021198
O O11 0.000000 0.000000 0.500000
O O12 0.526410 0.642287 0.380243
O O13 0.712329 0.255353 0.728385
O O14 0.382005 0.055664 0.256404
O O15 0.046860 0.251332 0.191404
#
# Coordination Sequence:
#
# PCOD9105486 Si02
#       7
#     2   2   2   2   2   2   2
#     4   9  21  38  65  97 131 177 220 281 333 396
#     4  11  26  45  68  99 132 180 233 281 340 402
#     4  12  26  42  65  98 139 178 219 284 337 408
#     4  11  23  40  66  94 130 178 227 278 333 405
#     4   9  21  41  68  93 127 177 220 279 332 407
#     4  10  20  39  64  97 136 171 225 276 336 404
#     4  10  21  42  63  95 136 171 222 274 344 399
#
# _framework density 27.220347
#
# number of rings (size 3 to 8) (size 9 to 14) (size 15 to 20)
#    0.000    1.714    1.429    1.714    6.000    1.714 
#    0.000    2.143    0.000    0.000    0.000    0.000 
#    0.000    0.000    0.000    0.000    0.000    0.000 
#
# Total GULP energy -78222.252590 kJ/mol
# GULP energy per Si atom -5587.303756 kJ/mol
# Density = 2.715839 g / cm^3
# Si number density = 27.220347 Si / 1000 Ang^3
#
#
#
# Elastic Constant Matrix: (Units=GPa)
#
#
# Indices 1 2 3 4 5 6 
#
# 1 48.2871 32.8862 3.6724 9.9329 -2.8548 5.4112
# 2 32.8862 169.2508 15.0042 27.3682 -10.9003 20.8499
# 3 3.6724 15.0042 104.3774 8.0140 -3.7501 -17.6011
# 4 9.9329 27.3682 8.0140 49.4717 4.1459 -5.4140
# 5 -2.8548 -10.9003 -3.7501 4.1459 40.3310 -3.3404
# 6 5.4112 20.8499 -17.6011 -5.4140 -3.3404 48.8569
#
#
#
# Elastic Compliance Matrix: (Units=1/GPa)
#
#
# Indices 1 2 3 4 5 6 
#
# 1 0.024239 -0.004020 -0.000253 -0.002812 0.000786 -0.001318
# 2 -0.004020 0.008032 -0.001272 -0.003998 0.001868 -0.003756
# 3 -0.000253 -0.001272 0.010595 -0.000568 0.001046 0.004397
# 4 -0.002812 -0.003998 -0.000568 0.023831 -0.003433 0.004219
# 5 0.000786 0.001868 0.001046 -0.003433 0.025878 0.000882
# 6 -0.001318 -0.003756 0.004397 0.004219 0.000882 0.024329
#
#
# Mechanical properties :
#
#
# Convention : Reuss Voigt Hill
#
# Bulk Modulus (GPa) = 31.47111 47.22677 39.34894
# Shear Modulus (GPa) = 36.07875 45.75540 40.91708
#
# Velocity S-wave (km/s) = 3.64460 4.10436 3.88129
# Velocity P-wave (km/s) = 5.41272 6.31256 5.87988
#
# Compressibility (1/GPa) = 0.03177518
#
# Stress axis : x y z
#
# Youngs Moduli (GPa) = 41.25594 124.50785 94.38392
#
# Poissons Ratio (x) = 0.50047 0.02390
# Poissons Ratio (y) = 0.16583 0.12010
# Poissons Ratio (z) = 0.01044 0.15843
#
# Static dielectric constant tensor:
#      x y z
#    x 2.178470 -0.003630 -0.085290 
#    y -0.003630 2.250670 -0.025370 
#    z -0.085290 -0.025370 2.189850 
# 
# From -- ./inp_files/464488.got.cif
#   From: 2010.05.17/outbox.cif.g08.bks.cpg/sg2_233_cif.got.tgz:464488.got - 2010.06.03 11:33:40.
