data_PCOD9105542
_publ_section_title
;
Structure prediction by ZEFSAII (Michael W. Deem and Ramdas Pophale) SiO2 
 PCOD9105542
Probable space group: P -1
;
_chemical_formula_sum "Si O2"
_cell_formula_units_Z 16
_cell_length_a 8.600744
_cell_length_b 9.025860
_cell_length_c 11.564330
_cell_angle_alpha 129.779223
_cell_angle_beta 105.173137
_cell_angle_gamma 90.658009
_cell_volume 646.197402
_symmetry_space_group_name_H-M "P -1"
_symmetry_group_IT_number 2
_symmetry_cell_setting 'triclinic'
loop_
_space_group_symop_operation_xyz
x,y,z
-x,-y,-z
loop_
_atom_site_type_symbol
_atom_site_label
_atom_site_fract_x
_atom_site_fract_y
_atom_site_fract_z
Si Si1 0.612628 0.027219 0.370092
Si Si2 0.721111 0.906395 0.716830
Si Si3 0.509132 0.396455 0.326266
Si Si4 0.668146 0.083705 0.145593
Si Si5 0.079490 0.165585 0.970766
Si Si6 0.974829 0.750247 0.239508
Si Si7 0.244858 0.564704 0.273810
Si Si8 0.820554 0.809688 0.458295
O O1 0.415544 0.999519 0.326491
O O2 0.650777 0.998908 0.230348
O O3 0.705109 0.255485 0.533894
O O4 0.681654 0.885187 0.396756
O O5 0.624077 0.803646 0.757551
O O6 0.759389 0.754088 0.549431
O O7 0.886758 0.060490 0.865315
O O8 0.500000 0.500000 0.500000
O O9 0.666060 0.316533 0.275776
O O10 0.421145 0.503103 0.265286
O O11 0.822577 0.007803 0.088597
O O12 0.500000 0.000000 0.000000
O O13 0.127678 0.279184 0.912943
O O14 0.123943 0.344937 0.160945
O O15 0.889964 0.681032 0.312471
O O16 0.135988 0.662469 0.214881
O O17 0.036875 0.989279 0.386292
#
# Coordination Sequence:
#
# PCOD9105542 Si02
#       8
#     2   2   2   2   2   2   2   2
#     4  10  20  39  65  87 119 162 203 238 299 361
#     4  10  22  35  62  92 118 155 200 253 296 344
#     4  11  22  41  62  86 121 158 206 238 297 367
#     4  11  21  37  63  90 116 162 196 241 295 360
#     4  11  22  39  62  93 121 151 208 246 297 352
#     4   9  19  34  60  93 120 157 193 253 299 348
#     4  11  21  37  65  84 122 164 197 241 297 363
#     4   9  17  34  61  91 120 152 207 244 293 352
#
# _framework density 24.760235000000002
#
# number of rings (size 3 to 8) (size 9 to 14) (size 15 to 20)
#    0.000    1.750    5.000    0.750    1.750    0.500 
#    0.000    2.500    5.500    1.500    0.000    0.000 
#    0.000    0.000    0.000    0.000    0.000    0.000 
#
# Total GULP energy -89076.810553 kJ/mol
# GULP energy per Si atom -5567.300660 kJ/mol
# Density = 2.470388 g / cm^3
# Si number density = 24.760235 Si / 1000 Ang^3
#
#
#
# Elastic Constant Matrix: (Units=GPa)
#
#
# Indices 1 2 3 4 5 6 
#
# 1 92.3279 35.9310 55.2619 3.6305 3.6039 -20.0461
# 2 35.9310 70.5282 26.3289 -12.0250 -13.9958 -20.0422
# 3 55.2619 26.3289 124.0914 7.8609 3.4925 -11.1960
# 4 3.6305 -12.0250 7.8609 33.9422 -0.5024 -3.1793
# 5 3.6039 -13.9958 3.4925 -0.5024 38.7142 -12.2993
# 6 -20.0461 -20.0422 -11.1960 -3.1793 -12.2993 50.6578
#
#
#
# Elastic Compliance Matrix: (Units=1/GPa)
#
#
# Indices 1 2 3 4 5 6 
#
# 1 0.018008 -0.007670 -0.005938 -0.003154 -0.003396 0.001757
# 2 -0.007670 0.027342 -0.002540 0.012395 0.014661 0.011558
# 3 -0.005938 -0.002540 0.011354 -0.003063 -0.001906 -0.001501
# 4 -0.003154 0.012395 -0.003063 0.035681 0.007771 0.007105
# 5 -0.003396 0.014661 -0.001906 0.007771 0.035927 0.013246
# 6 0.001757 0.011558 -0.001501 0.007105 0.013246 0.028338
#
#
# Mechanical properties :
#
#
# Convention : Reuss Voigt Hill
#
# Bulk Modulus (GPa) = 40.97247 57.99900 49.48573
# Shear Modulus (GPa) = 25.36984 35.95789 30.66387
#
# Velocity S-wave (km/s) = 3.20444 3.81497 3.52295
# Velocity P-wave (km/s) = 5.50226 6.54831 6.04794
#
# Compressibility (1/GPa) = 0.02440663
#
# Stress axis : x y z
#
# Youngs Moduli (GPa) = 55.53001 36.57398 88.07108
#
# Poissons Ratio (x) = 0.28053 0.52300
# Poissons Ratio (y) = 0.42592 0.22374
# Poissons Ratio (z) = 0.32976 0.09291
#
# Static dielectric constant tensor:
#      x y z
#    x 2.078490 0.044610 0.013690 
#    y 0.044610 2.066350 0.044220 
#    z 0.013690 0.044220 2.068180 
# 
# From -- ./inp_files/499532.got.cif
#   From: 2010.05.17/outbox.cif.g08.bks.cpg/sg2_250_cif.got.tgz:499532.got - 2010.06.03 11:33:40.
