data_PCOD9105652
_publ_section_title
;
Structure prediction by ZEFSAII (Michael W. Deem and Ramdas Pophale) SiO2 
 PCOD9105652
Probable space group: P -1
;
_chemical_formula_sum "Si O2"
_cell_formula_units_Z 14
_cell_length_a 14.655131
_cell_length_b 22.781858
_cell_length_c 13.672690
_cell_angle_alpha 160.006760
_cell_angle_beta 146.475171
_cell_angle_gamma 21.307713
_cell_volume 534.012174
_symmetry_space_group_name_H-M "P -1"
_symmetry_group_IT_number 2
_symmetry_cell_setting 'triclinic'
loop_
_space_group_symop_operation_xyz
x,y,z
-x,-y,-z
loop_
_atom_site_type_symbol
_atom_site_label
_atom_site_fract_x
_atom_site_fract_y
_atom_site_fract_z
Si Si1 0.675224 0.001770 0.360327
Si Si2 0.456885 0.686246 0.675845
Si Si3 0.681124 0.279510 0.934129
Si Si4 0.832415 0.251785 0.667868
Si Si5 0.693497 0.887242 0.650002
Si Si6 0.041186 0.143925 0.321611
Si Si7 0.188109 0.426124 0.469785
O O1 0.650647 0.225514 0.715020
O O2 0.481796 0.115325 0.273698
O O3 0.550329 0.020058 0.375551
O O4 0.983770 0.746391 0.208751
O O5 0.500000 0.500000 0.500000
O O6 0.290636 0.763371 0.553425
O O7 0.763745 0.474529 0.588642
O O8 0.320526 0.946321 0.022820
O O9 0.894633 0.979793 0.707870
O O10 0.415191 0.474523 0.064858
O O11 0.767758 0.405338 0.219259
O O12 0.000000 0.000000 0.500000
O O13 0.717036 0.952934 0.667203
O O14 0.984714 0.561075 0.410687
O O15 0.000000 0.000000 0.000000
O O16 0.000000 0.500000 0.500000
#
# Coordination Sequence:
#
# PCOD9105652 Si02
#       7
#     2   2   2   2   2   2   2
#     4  11  26  42  64  98 140 176 211 275 345 399
#     4  12  23  43  73  96 130 181 228 274 329 401
#     4  12  23  44  70  96 135 179 218 273 342 399
#     4  12  25  40  68 103 133 172 223 277 340 400
#     4  11  24  43  66  99 132 173 229 272 325 403
#     4  12  22  42  71  97 127 176 231 272 324 403
#     4  10  20  39  65  93 129 173 216 264 323 394
#
# _framework density 26.216629999999999
#
# number of rings (size 3 to 8) (size 9 to 14) (size 15 to 20)
#    0.000    0.571    5.714    2.143    2.000    1.714 
#    0.000    5.714    0.000    0.000    0.000    0.000 
#    0.000    0.000    0.000    0.000    0.000    0.000 
#
# Total GULP energy -78219.492036 kJ/mol
# GULP energy per Si atom -5587.106574 kJ/mol
# Density = 2.615696 g / cm^3
# Si number density = 26.216630 Si / 1000 Ang^3
#
#
#
# Elastic Constant Matrix: (Units=GPa)
#
#
# Indices 1 2 3 4 5 6 
#
# 1 169.1799 47.0370 19.7616 -2.4439 17.1598 -34.7055
# 2 47.0370 134.5397 18.8999 5.8722 3.0143 -25.3642
# 3 19.7616 18.8999 37.8678 -3.4530 -12.7887 -4.7751
# 4 -2.4439 5.8722 -3.4530 38.3275 -1.9092 -1.1892
# 5 17.1598 3.0143 -12.7887 -1.9092 44.2987 -2.8812
# 6 -34.7055 -25.3642 -4.7751 -1.1892 -2.8812 69.5420
#
#
#
# Elastic Compliance Matrix: (Units=1/GPa)
#
#
# Indices 1 2 3 4 5 6 
#
# 1 0.007833 -0.001510 -0.004287 0.000237 -0.003970 0.002904
# 2 -0.001510 0.009040 -0.003992 -0.001829 -0.001119 0.002192
# 3 -0.004287 -0.003992 0.035048 0.004084 0.012186 -0.000614
# 4 0.000237 -0.001829 0.004084 0.026882 0.002389 0.000290
# 5 -0.003970 -0.001119 0.012186 0.002389 0.027786 -0.000361
# 6 0.002904 0.002192 -0.000614 0.000290 -0.000361 0.016576
#
#
# Mechanical properties :
#
#
# Convention : Reuss Voigt Hill
#
# Bulk Modulus (GPa) = 30.91931 56.99826 43.95879
# Shear Modulus (GPa) = 32.56833 47.49289 40.03061
#
# Velocity S-wave (km/s) = 3.52842 4.26085 3.91182
# Velocity P-wave (km/s) = 5.33095 6.78196 6.09975
#
# Compressibility (1/GPa) = 0.03234225
#
# Stress axis : x y z
#
# Youngs Moduli (GPa) = 127.65965 110.62458 28.53262
#
# Poissons Ratio (x) = 0.16709 0.12232
# Poissons Ratio (y) = 0.19282 0.11389
# Poissons Ratio (z) = 0.54729 0.44157
#
# Static dielectric constant tensor:
#      x y z
#    x 2.074420 -0.013280 0.048460 
#    y -0.013280 2.167200 0.037070 
#    z 0.048460 0.037070 2.131610 
# 
# From -- ./inp_files/257306.got.cif
#   From: 2010.05.17/outbox.cif.g08.bks.cpg/sg2_129_cif.got.tgz:257306.got - 2010.06.03 11:33:40.
