data_PCOD9105326
_publ_section_title
;
Structure prediction by ZEFSAII (Michael W. Deem and Ramdas Pophale) SiO2 
 PCOD9105326
Probable space group: P -1
;
_chemical_formula_sum "Si O2"
_cell_formula_units_Z 16
_cell_length_a 14.915164
_cell_length_b 7.002947
_cell_length_c 8.036160
_cell_angle_alpha 56.745643
_cell_angle_beta 100.441691
_cell_angle_gamma 78.082735
_cell_volume 640.777139
_symmetry_space_group_name_H-M "P -1"
_symmetry_group_IT_number 2
_symmetry_cell_setting 'triclinic'
loop_
_space_group_symop_operation_xyz
x,y,z
-x,-y,-z
loop_
_atom_site_type_symbol
_atom_site_label
_atom_site_fract_x
_atom_site_fract_y
_atom_site_fract_z
Si Si1 0.353785 0.370299 0.772566
Si Si2 0.424653 0.054973 0.243990
Si Si3 0.066787 0.731335 0.222163
Si Si4 0.520450 0.592280 0.698469
Si Si5 0.769648 0.912031 0.737746
Si Si6 0.719445 0.417295 0.684995
Si Si7 0.152662 0.797058 0.575432
Si Si8 0.058247 0.513266 0.849577
O O1 0.445150 0.459028 0.762383
O O2 0.318753 0.369305 0.571168
O O3 0.259784 0.578567 0.729039
O O4 0.386736 0.125633 0.011116
O O5 0.484718 0.220550 0.242370
O O6 0.329689 0.134255 0.297106
O O7 0.482712 0.772507 0.439915
O O8 0.170051 0.618031 0.207791
O O9 0.101444 0.757601 0.406878
O O10 0.004142 0.559390 0.275719
O O11 0.000000 0.000000 0.000000
O O12 0.634875 0.437444 0.777925
O O13 0.734687 0.170685 0.701057
O O14 0.824805 0.958577 0.570916
O O15 0.840052 0.712585 0.979721
O O16 0.083252 0.754247 0.713076
O O17 0.000000 0.500000 0.000000
#
# Coordination Sequence:
#
# PCOD9105326 Si02
#       8
#     2   2   2   2   2   2   2   2
#     4  10  20  39  64  90 121 166 200 247 307 367
#     4  11  22  38  65  86 128 161 202 249 312 356
#     4  10  20  42  64  87 124 165 202 250 306 359
#     4  11  23  39  61  95 122 162 201 257 299 362
#     4  10  21  42  61  87 125 165 196 251 309 363
#     4  10  22  40  64  87 128 157 207 253 293 361
#     4  10  21  40  67  88 123 163 207 248 307 370
#     4  12  24  39  69  93 118 163 205 256 315 362
#
# _framework density 24.969677999999998
#
# number of rings (size 3 to 8) (size 9 to 14) (size 15 to 20)
#    0.000    1.750    6.250    1.125    1.750    1.000 
#    0.000    0.000    0.000    0.000    0.000    0.000 
#    0.000    0.000    0.000    0.000    0.000    0.000 
#
# Total GULP energy -89425.599083 kJ/mol
# GULP energy per Si atom -5589.099943 kJ/mol
# Density = 2.491285 g / cm^3
# Si number density = 24.969678 Si / 1000 Ang^3
#
#
#
# Elastic Constant Matrix: (Units=GPa)
#
#
# Indices 1 2 3 4 5 6 
#
# 1 180.2138 21.9884 49.2437 -9.7870 -6.4639 2.1871
# 2 21.9884 32.1302 16.3649 -5.3837 -3.6132 3.8147
# 3 49.2437 16.3649 117.7760 -11.5869 -2.2608 -2.7923
# 4 -9.7870 -5.3837 -11.5869 24.9748 0.6079 3.6218
# 5 -6.4639 -3.6132 -2.2608 0.6079 44.1003 -5.4805
# 6 2.1871 3.8147 -2.7923 3.6218 -5.4805 30.5229
#
#
#
# Elastic Compliance Matrix: (Units=1/GPa)
#
#
# Indices 1 2 3 4 5 6 
#
# 1 0.006616 -0.003139 -0.002237 0.000907 0.000549 -0.000296
# 2 -0.003139 0.036722 -0.003303 0.005847 0.001670 -0.005061
# 3 -0.002237 -0.003303 0.010206 0.002978 0.000028 0.001158
# 4 0.000907 0.005847 0.002978 0.043898 -0.000565 -0.005834
# 5 0.000549 0.001670 0.000028 -0.000565 0.023402 0.004024
# 6 -0.000296 -0.005061 0.001158 -0.005834 0.004024 0.034937
#
#
# Mechanical properties :
#
#
# Convention : Reuss Voigt Hill
#
# Bulk Modulus (GPa) = 27.63518 56.14599 41.89059
# Shear Modulus (GPa) = 26.99779 36.08780 31.54280
#
# Velocity S-wave (km/s) = 3.29176 3.80579 3.55807
# Velocity P-wave (km/s) = 5.05363 6.46889 5.80455
#
# Compressibility (1/GPa) = 0.03618576
#
# Stress axis : x y z
#
# Youngs Moduli (GPa) = 151.15209 27.23147 97.98226
#
# Poissons Ratio (x) = 0.08549 0.21920
# Poissons Ratio (y) = 0.47451 0.32360
# Poissons Ratio (z) = 0.33815 0.08994
#
# Static dielectric constant tensor:
#      x y z
#    x 2.046220 -0.044690 -0.023140 
#    y -0.044690 2.066110 0.026800 
#    z -0.023140 0.026800 2.005330 
# 
# From -- ./inp_files/297500.got.cif
#   From: 2010.05.17/outbox.cif.g08.bks.cpg/sg2_149_cif.got.tgz:297500.got - 2010.06.03 11:33:40.
