data_PCOD9105797
_publ_section_title
;
Structure prediction by ZEFSAII (Michael W. Deem and Ramdas Pophale) SiO2 
 PCOD9105797
Probable space group: P -1
;
_chemical_formula_sum "Si O2"
_cell_formula_units_Z 14
_cell_length_a 7.876180
_cell_length_b 22.644066
_cell_length_c 5.175842
_cell_angle_alpha 120.211437
_cell_angle_beta 55.615620
_cell_angle_gamma 120.222512
_cell_volume 626.472263
_symmetry_space_group_name_H-M "P -1"
_symmetry_group_IT_number 2
_symmetry_cell_setting 'triclinic'
loop_
_space_group_symop_operation_xyz
x,y,z
-x,-y,-z
loop_
_atom_site_type_symbol
_atom_site_label
_atom_site_fract_x
_atom_site_fract_y
_atom_site_fract_z
Si Si1 0.961747 0.705533 0.631984
Si Si2 0.899219 0.365385 0.145216
Si Si3 0.498713 0.381373 0.253633
Si Si4 0.263288 0.861937 0.830241
Si Si5 0.470835 0.914552 0.279071
Si Si6 0.861971 0.996752 0.861729
Si Si7 0.304605 0.489267 0.944205
O O1 0.699293 0.684827 0.821629
O O2 0.036662 0.681370 0.240561
O O3 0.047180 0.664594 0.695885
O O4 0.082159 0.788805 0.758850
O O5 0.067254 0.445779 0.150248
O O6 0.652254 0.363377 0.298321
O O7 0.363459 0.434789 0.573462
O O8 0.668778 0.432351 0.020039
O O9 0.286197 0.871545 0.143104
O O10 0.204052 0.931822 0.948500
O O11 0.543668 0.127531 0.531038
O O12 0.500000 0.000000 0.500000
O O13 0.666160 0.925723 0.930629
O O14 0.000000 0.000000 0.500000
O O15 0.000000 0.000000 0.000000
O O16 0.500000 0.500000 0.000000
#
# Coordination Sequence:
#
# PCOD9105797 Si02
#       7
#     2   2   2   2   2   2   2
#     4  11  25  44  62  92 136 176 220 263 329 401
#     4  11  24  41  67  94 130 178 223 269 327 391
#     4  10  23  41  63  96 133 168 222 278 323 389
#     4  11  22  42  63  88 129 172 207 263 330 392
#     4  10  20  39  66  87 121 166 205 257 323 378
#     4  11  21  37  63  98 122 151 209 271 314 371
#     4  10  20  39  66  96 128 170 219 280 333 374
#
# _framework density 22.347355
#
# number of rings (size 3 to 8) (size 9 to 14) (size 15 to 20)
#    0.000    1.429    1.429    5.571    2.000    0.571 
#    7.714    0.000    0.000    0.000    0.000    0.000 
#    0.000    0.000    0.000    0.000    0.000    0.000 
#
# Total GULP energy -77997.035989 kJ/mol
# GULP energy per Si atom -5571.216856 kJ/mol
# Density = 2.229649 g / cm^3
# Si number density = 22.347355 Si / 1000 Ang^3
#
#
#
# Elastic Constant Matrix: (Units=GPa)
#
#
# Indices 1 2 3 4 5 6 
#
# 1 93.2965 12.2089 10.7618 -10.8899 13.8576 7.8054
# 2 12.2089 96.9952 22.5079 -15.2985 2.6691 34.6813
# 3 10.7618 22.5079 78.4673 -7.8433 24.3330 5.2556
# 4 -10.8899 -15.2985 -7.8433 25.7771 0.7607 13.3589
# 5 13.8576 2.6691 24.3330 0.7607 41.1863 -1.4032
# 6 7.8054 34.6813 5.2556 13.3589 -1.4032 32.5544
#
#
#
# Elastic Compliance Matrix: (Units=1/GPa)
#
#
# Indices 1 2 3 4 5 6 
#
# 1 0.018925 0.022315 0.002773 0.047766 -0.011999 -0.048876
# 2 0.022315 0.088278 0.004781 0.147898 -0.024301 -0.161906
# 3 0.002773 0.004781 0.017927 0.018554 -0.012750 -0.016815
# 4 0.047766 0.147898 0.018554 0.310244 -0.052623 -0.301587
# 5 -0.011999 -0.024301 -0.012750 -0.052623 0.040241 0.054152
# 6 -0.048876 -0.161906 -0.016815 -0.301587 0.054152 0.343727
#
#
# Mechanical properties :
#
#
# Convention : Reuss Voigt Hill
#
# Bulk Modulus (GPa) = 5.40930 39.96845 22.68888
# Shear Modulus (GPa) = 6.08844 34.78892 20.43868
#
# Velocity S-wave (km/s) = 1.65238 3.94983 3.02750
# Velocity P-wave (km/s) = 2.46299 6.22298 4.73243
#
# Compressibility (1/GPa) = 0.18486663
#
# Stress axis : x y z
#
# Youngs Moduli (GPa) = 52.83885 11.32786 55.78126
#
# Poissons Ratio (x) = -0.25278 -0.15467
# Poissons Ratio (y) = -1.17908 -0.26667
# Poissons Ratio (z) = -0.14651 -0.05416
#
# Static dielectric constant tensor:
#      x y z
#    x 2.453930 0.256770 0.557270 
#    y 0.256770 1.897000 0.159570 
#    z 0.557270 0.159570 2.611750 
# 
# From -- ./inp_files/53624.got.cif
#   From: 2010.05.17/outbox.cif.g08.bks.cpg/sg2_27_cif.got.tgz:53624.got - 2010.06.03 11:33:40.
