data_PCOD9105791
_publ_section_title
;
Structure prediction by ZEFSAII (Michael W. Deem and Ramdas Pophale) SiO2 
 PCOD9105791
Probable space group: P -1
;
_chemical_formula_sum "Si O2"
_cell_formula_units_Z 12
_cell_length_a 11.905727
_cell_length_b 12.408290
_cell_length_c 19.828153
_cell_angle_alpha 157.852093
_cell_angle_beta 23.470445
_cell_angle_gamma 147.869513
_cell_volume 439.745736
_symmetry_space_group_name_H-M "P -1"
_symmetry_group_IT_number 2
_symmetry_cell_setting 'triclinic'
loop_
_space_group_symop_operation_xyz
x,y,z
-x,-y,-z
loop_
_atom_site_type_symbol
_atom_site_label
_atom_site_fract_x
_atom_site_fract_y
_atom_site_fract_z
Si Si1 0.255999 0.828579 0.458317
Si Si2 0.230459 0.576785 0.739685
Si Si3 0.549544 0.336840 0.539304
Si Si4 0.876134 0.573774 0.807652
Si Si5 0.583010 0.802812 0.987682
Si Si6 0.788517 0.240571 0.953643
O O1 0.309155 0.515755 0.278379
O O2 0.193339 0.735318 0.361651
O O3 0.501485 0.062125 0.454067
O O4 0.978146 0.982244 0.727724
O O5 0.500000 0.500000 0.500000
O O6 0.293430 0.360319 0.639967
O O7 0.956344 0.571892 0.840372
O O8 0.262712 0.899260 0.935424
O O9 0.844120 0.330129 0.333054
O O10 0.492065 0.636073 0.783660
O O11 0.623564 0.766967 0.026368
O O12 0.301013 0.824494 0.111594
O O13 0.000000 0.500000 0.000000
#
# Coordination Sequence:
#
# PCOD9105791 Si02
#       6
#     2   2   2   2   2   2
#     4   9  22  41  63  91 123 160 207 247 306 360
#     4  10  20  39  66  86 125 162 201 254 304 361
#     4  10  21  39  63  92 121 167 205 244 307 364
#     4   9  21  40  61  90 126 156 205 251 302 357
#     4  10  22  41  64  88 126 163 198 260 305 355
#     4  10  21  40  62  91 127 159 204 254 302 362
#
# _framework density 27.288494
#
# number of rings (size 3 to 8) (size 9 to 14) (size 15 to 20)
#    1.000    1.333    0.000    2.500    0.000    6.667 
#    9.000    5.000    0.000    0.000    0.000    0.000 
#    0.000    0.000    0.000    0.000    0.000    0.000 
#
# Total GULP energy -66906.223741 kJ/mol
# GULP energy per Si atom -5575.518645 kJ/mol
# Density = 2.722638 g / cm^3
# Si number density = 27.288494 Si / 1000 Ang^3
#
#
#
# Elastic Constant Matrix: (Units=GPa)
#
#
# Indices 1 2 3 4 5 6 
#
# 1 63.3821 -41.1954 7.6328 -57.9244 -34.0771 -48.9849
# 2 -41.1954 85.2312 50.3728 -12.4922 -10.7131 -13.0025
# 3 7.6328 50.3728 118.1358 17.1541 -9.5305 -20.4191
# 4 -57.9244 -12.4922 17.1541 32.2271 -15.9599 -31.2309
# 5 -34.0771 -10.7131 -9.5305 -15.9599 34.4417 -5.0857
# 6 -48.9849 -13.0025 -20.4191 -31.2309 -5.0857 11.9391
#
#
#
# Elastic Compliance Matrix: (Units=1/GPa)
#
#
# Indices 1 2 3 4 5 6 
#
# 1 0.002198 -0.001020 -0.000564 -0.005609 -0.002175 -0.008655
# 2 -0.001020 0.013339 -0.006958 -0.002750 -0.001443 -0.009366
# 3 -0.000564 -0.006958 0.013321 -0.001895 0.001341 0.008505
# 4 -0.005609 -0.002750 -0.001895 0.007782 -0.004947 -0.011000
# 5 -0.002175 -0.001443 0.001341 -0.004947 0.022826 -0.011421
# 6 -0.008655 -0.009366 0.008505 -0.011000 -0.011421 0.018956
#
#
# Mechanical properties :
#
#
# Convention : Reuss Voigt Hill
#
# Bulk Modulus (GPa) = 84.92564 33.37437 59.15001
# Shear Modulus (GPa) = 50.28686 32.38416 41.33551
#
# Velocity S-wave (km/s) = 4.29743 3.44864 3.89621
# Velocity P-wave (km/s) = 7.47080 5.30228 6.47792
#
# Compressibility (1/GPa) = 0.01177501
#
# Stress axis : x y z
#
# Youngs Moduli (GPa) = 454.91976 74.97037 75.06694
#
# Poissons Ratio (x) = 0.07647 0.04235
# Poissons Ratio (y) = 0.46399 0.52228
# Poissons Ratio (z) = 0.25664 0.52161
#
# Static dielectric constant tensor:
#      x y z
#    x 2.194180 -0.021680 0.034150 
#    y -0.021680 2.108130 -0.052630 
#    z 0.034150 -0.052630 2.129540 
# 
# From -- ./inp_files/392269.got.cif
#   From: 2010.05.17/outbox.cif.g08.bks.cpg/sg2_197_cif.got.tgz:392269.got - 2010.06.03 11:33:40.
