data_PCOD9105660
_publ_section_title
;
Structure prediction by ZEFSAII (Michael W. Deem and Ramdas Pophale) SiO2 
 PCOD9105660
Probable space group: P -1
;
_chemical_formula_sum "Si O2"
_cell_formula_units_Z 15
_cell_length_a 15.663802
_cell_length_b 7.461395
_cell_length_c 7.429554
_cell_angle_alpha 113.646234
_cell_angle_beta 49.626860
_cell_angle_gamma 116.247690
_cell_volume 584.907373
_symmetry_space_group_name_H-M "P -1"
_symmetry_group_IT_number 2
_symmetry_cell_setting 'triclinic'
loop_
_space_group_symop_operation_xyz
x,y,z
-x,-y,-z
loop_
_atom_site_type_symbol
_atom_site_label
_atom_site_fract_x
_atom_site_fract_y
_atom_site_fract_z
Si Si1 0.467504 0.292062 0.081201
Si Si2 0.130697 0.369890 0.297618
Si Si3 0.297270 0.652086 0.701443
Si Si4 0.920938 0.650164 0.209344
Si Si5 0.294355 0.763929 0.340745
Si Si6 0.089925 0.921762 0.613187
Si Si7 0.765297 0.967317 0.890912
Si Si8 0.500000 0.500000 0.500000
O O1 0.351241 0.145916 0.101042
O O2 0.449608 0.367080 0.334076
O O3 0.500000 0.500000 0.000000
O O4 0.575117 0.189408 0.888483
O O5 0.102078 0.360885 0.548136
O O6 0.216308 0.590905 0.245903
O O7 0.203058 0.204726 0.100990
O O8 0.010544 0.287455 0.322568
O O9 0.197360 0.444973 0.776025
O O10 0.308705 0.678174 0.482579
O O11 0.414619 0.646840 0.634080
O O12 0.253710 0.841565 0.904319
O O13 0.959342 0.885874 0.198050
O O14 0.000000 0.500000 0.000000
O O15 0.210181 0.912350 0.538536
O O16 0.131464 0.956148 0.362365
#
# Coordination Sequence:
#
# PCOD9105660 Si02
#       8
#     2   2   2   2   2   2   2   1
#     4  12  24  48  70 102 141 182 235 291 348 414
#     4  10  20  40  67  94 138 184 228 286 360 407
#     4  11  24  42  65  99 134 186 233 282 355 411
#     4  10  20  39  65  93 137 176 237 288 338 423
#     4  11  24  44  66 100 148 177 232 300 345 415
#     4  11  22  39  68 102 132 184 236 289 352 414
#     4  11  23  44  69  97 134 184 236 287 345 424
#     4  12  24  44  76  96 132 190 232 278 356 408
#
# _framework density 25.645087
#
# number of rings (size 3 to 8) (size 9 to 14) (size 15 to 20)
#    0.000    1.067    2.667    6.000    0.000    3.733 
#    4.800    7.333    0.000    0.000    0.000    0.000 
#    0.000    0.000    0.000    0.000    0.000    0.000 
#
# Total GULP energy -83771.534768 kJ/mol
# GULP energy per Si atom -5584.768985 kJ/mol
# Density = 2.558672 g / cm^3
# Si number density = 25.645087 Si / 1000 Ang^3
#
#
#
# Elastic Constant Matrix: (Units=GPa)
#
#
# Indices 1 2 3 4 5 6 
#
# 1 117.1262 30.3242 33.8589 5.8219 -29.0968 6.2654
# 2 30.3242 102.8542 31.1980 9.8313 -0.9896 20.3265
# 3 33.8589 31.1980 108.0038 26.5275 -25.5333 10.2597
# 4 5.8219 9.8313 26.5275 31.4189 -3.5680 -7.9592
# 5 -29.0968 -0.9896 -25.5333 -3.5680 48.9026 16.0951
# 6 6.2654 20.3265 10.2597 -7.9592 16.0951 44.4959
#
#
#
# Elastic Compliance Matrix: (Units=1/GPa)
#
#
# Indices 1 2 3 4 5 6 
#
# 1 0.011383 -0.002388 -0.000639 -0.000788 0.007378 -0.003174
# 2 -0.002388 0.012289 -0.001529 -0.003529 -0.000454 -0.005392
# 3 -0.000639 -0.001529 0.016983 -0.014983 0.010528 -0.009615
# 4 -0.000788 -0.003529 -0.014983 0.049028 -0.010644 0.017798
# 5 0.007378 -0.000454 0.010528 -0.010644 0.035472 -0.017994
# 6 -0.003174 -0.005392 -0.009615 0.017798 -0.017994 0.037294
#
#
# Mechanical properties :
#
#
# Convention : Reuss Voigt Hill
#
# Bulk Modulus (GPa) = 31.70446 57.63851 44.67149
# Shear Modulus (GPa) = 27.46092 40.47033 33.96563
#
# Velocity S-wave (km/s) = 3.27587 3.97683 3.64325
# Velocity P-wave (km/s) = 5.16701 6.60388 5.92913
#
# Compressibility (1/GPa) = 0.03154131
#
# Stress axis : x y z
#
# Youngs Moduli (GPa) = 87.85235 81.37281 58.88112
#
# Poissons Ratio (x) = 0.19435 0.03764
# Poissons Ratio (y) = 0.20983 0.09005
# Poissons Ratio (z) = 0.05615 0.12445
#
# Static dielectric constant tensor:
#      x y z
#    x 1.974860 -0.036630 -0.020600 
#    y -0.036630 2.045080 -0.038220 
#    z -0.020600 -0.038220 2.034670 
# 
# From -- ./inp_files/201051.got.cif
#   From: 2010.05.17/outbox.cif.g08.bks.cpg/sg2_101_cif.got.tgz:201051.got - 2010.06.03 11:33:40.
