data_PCOD9105245
_publ_section_title
;
Structure prediction by ZEFSAII (Michael W. Deem and Ramdas Pophale) SiO2 
 PCOD9105245
Probable space group: P -1
;
_chemical_formula_sum "Si O2"
_cell_formula_units_Z 14
_cell_length_a 17.415546
_cell_length_b 6.973962
_cell_length_c 6.646135
_cell_angle_alpha 114.564249
_cell_angle_beta 68.074371
_cell_angle_gamma 121.987770
_cell_volume 610.279205
_symmetry_space_group_name_H-M "P -1"
_symmetry_group_IT_number 2
_symmetry_cell_setting 'triclinic'
loop_
_space_group_symop_operation_xyz
x,y,z
-x,-y,-z
loop_
_atom_site_type_symbol
_atom_site_label
_atom_site_fract_x
_atom_site_fract_y
_atom_site_fract_z
Si Si1 0.134635 0.550314 0.254982
Si Si2 0.593459 0.517364 0.012257
Si Si3 0.494668 0.843069 0.741778
Si Si4 0.633501 0.182367 0.514215
Si Si5 0.807148 0.462193 0.203716
Si Si6 0.206608 0.206279 0.961035
Si Si7 0.076032 0.690582 0.759430
O O1 0.123123 0.709311 0.504334
O O2 0.031166 0.391009 0.206081
O O3 0.198250 0.681139 0.060012
O O4 0.174063 0.367101 0.200914
O O5 0.619576 0.357888 0.762443
O O6 0.500000 0.500000 0.000000
O O7 0.558600 0.412210 0.222698
O O8 0.690633 0.745313 0.052626
O O9 0.430860 0.867207 0.641063
O O10 0.594799 0.943943 0.581545
O O11 0.500000 0.000000 0.000000
O O12 0.733171 0.309622 0.373567
O O13 0.794634 0.678952 0.210161
O O14 0.904143 0.506010 0.228475
O O15 0.131135 0.939496 0.920254
#
# Coordination Sequence:
#
# PCOD9105245 Si02
#       7
#     2   2   2   2   2   2   2
#     4   9  22  43  68  99 136 165 224 272 323 418
#     4  11  23  42  59  92 130 169 231 276 323 400
#     4   9  19  37  61  84 112 163 220 264 328 383
#     4  10  20  39  64  83 127 177 210 278 339 381
#     4  10  22  41  64  94 135 167 218 274 326 401
#     4  10  23  43  64  97 136 171 219 283 324 397
#     4  11  21  43  69  99 130 179 214 270 342 391
#
# _framework density 22.940317
#
# number of rings (size 3 to 8) (size 9 to 14) (size 15 to 20)
#    0.857    1.143    1.429    1.714    0.000    4.000 
#    7.714    1.429    0.000    0.000    0.000    0.000 
#    0.000    0.000    0.000    0.000    0.000    0.000 
#
# Total GULP energy -77943.351153 kJ/mol
# GULP energy per Si atom -5567.382225 kJ/mol
# Density = 2.288810 g / cm^3
# Si number density = 22.940317 Si / 1000 Ang^3
#
#
#
# Elastic Constant Matrix: (Units=GPa)
#
#
# Indices 1 2 3 4 5 6 
#
# 1 108.5636 23.9193 3.1189 4.4059 7.2574 21.6112
# 2 23.9193 57.7325 19.3685 4.6570 2.9151 7.3533
# 3 3.1189 19.3685 109.5113 -18.2022 -9.8724 -3.6923
# 4 4.4059 4.6570 -18.2022 34.4545 5.1689 6.9313
# 5 7.2574 2.9151 -9.8724 5.1689 37.9681 1.3756
# 6 21.6112 7.3533 -3.6923 6.9313 1.3756 18.1236
#
#
#
# Elastic Compliance Matrix: (Units=1/GPa)
#
#
# Indices 1 2 3 4 5 6 
#
# 1 0.012961 -0.003540 -0.000078 0.002024 -0.001971 -0.014660
# 2 -0.003540 0.021167 -0.004539 -0.003839 -0.001472 -0.003712
# 3 -0.000078 -0.004539 0.011180 0.005803 0.002415 0.001810
# 4 0.002024 -0.003839 0.005803 0.035403 -0.002932 -0.012991
# 5 -0.001971 -0.001472 0.002415 -0.002932 0.027766 0.002453
# 6 -0.014660 -0.003712 0.001810 -0.012991 0.002453 0.079314
#
#
# Mechanical properties :
#
#
# Convention : Reuss Voigt Hill
#
# Bulk Modulus (GPa) = 34.49054 40.95786 37.72420
# Shear Modulus (GPa) = 23.38953 33.40261 28.39607
#
# Velocity S-wave (km/s) = 3.19655 3.81998 3.52209
# Velocity P-wave (km/s) = 5.35644 6.11140 5.74633
#
# Compressibility (1/GPa) = 0.02899346
#
# Stress axis : x y z
#
# Youngs Moduli (GPa) = 77.15306 47.24234 89.44741
#
# Poissons Ratio (x) = 0.16725 0.00701
# Poissons Ratio (y) = 0.27315 0.40598
# Poissons Ratio (z) = 0.00605 0.21442
#
# Static dielectric constant tensor:
#      x y z
#    x 1.952400 -0.014840 0.001530 
#    y -0.014840 1.899520 -0.014950 
#    z 0.001530 -0.014950 1.877600 
# 
# From -- ./inp_files/105561.got.cif
#   From: 2010.05.17/outbox.cif.g08.bks.cpg/sg2_53_cif.got.tgz:105561.got - 2010.06.03 11:33:40.
