data_PCOD9105747
_publ_section_title
;
Structure prediction by ZEFSAII (Michael W. Deem and Ramdas Pophale) SiO2 
 PCOD9105747
Probable space group: P -1
;
_chemical_formula_sum "Si O2"
_cell_formula_units_Z 15
_cell_length_a 8.062324
_cell_length_b 14.095970
_cell_length_c 7.233120
_cell_angle_alpha 76.203215
_cell_angle_beta 119.808097
_cell_angle_gamma 73.610728
_cell_volume 609.351815
_symmetry_space_group_name_H-M "P -1"
_symmetry_group_IT_number 2
_symmetry_cell_setting 'triclinic'
loop_
_space_group_symop_operation_xyz
x,y,z
-x,-y,-z
loop_
_atom_site_type_symbol
_atom_site_label
_atom_site_fract_x
_atom_site_fract_y
_atom_site_fract_z
Si Si1 0.664853 0.144521 0.242071
Si Si2 0.000000 0.500000 0.000000
Si Si3 0.993915 0.885883 0.084585
Si Si4 0.143886 0.314518 0.541089
Si Si5 0.813403 0.734684 0.975214
Si Si6 0.704714 0.440928 0.009189
Si Si7 0.589616 0.278979 0.781134
Si Si8 0.135289 0.105463 0.584993
O O1 0.876681 0.158578 0.386878
O O2 0.743287 0.014943 0.380084
O O3 0.445344 0.215238 0.197728
O O4 0.612622 0.181866 0.982382
O O5 0.942558 0.625180 0.980364
O O6 0.744797 0.528043 0.874064
O O7 0.243832 0.786302 0.261265
O O8 0.878713 0.831141 0.919499
O O9 0.855262 0.910223 0.182460
O O10 0.000000 0.000000 0.000000
O O11 0.124084 0.304104 0.755669
O O12 0.330428 0.346235 0.581112
O O13 0.212761 0.194529 0.545388
O O14 0.915610 0.396239 0.284301
O O15 0.500000 0.500000 0.000000
O O16 0.667321 0.355200 0.901467
#
# Coordination Sequence:
#
# PCOD9105747 Si02
#       8
#     2   1   2   2   2   2   2   2
#     4  10  20  39  65  97 132 181 224 275 342 413
#     4  12  26  46  72 100 136 184 230 292 340 412
#     4  11  22  39  61  97 140 176 222 281 339 407
#     4  10  24  43  69 101 129 179 236 273 352 418
#     4  10  24  43  68  98 136 179 233 277 346 407
#     4  12  26  49  73  96 138 182 231 298 343 406
#     4  11  22  42  66  98 135 175 220 282 344 404
#     4  10  21  37  65  97 136 177 225 276 342 415
#
# _framework density 24.616322
#
# number of rings (size 3 to 8) (size 9 to 14) (size 15 to 20)
#    0.000    1.333    4.000    1.600    1.867    4.800 
#    2.400    2.000    0.000    0.000    0.000    0.000 
#    0.000    0.000    0.000    0.000    0.000    0.000 
#
# Total GULP energy -83572.634330 kJ/mol
# GULP energy per Si atom -5571.508955 kJ/mol
# Density = 2.456029 g / cm^3
# Si number density = 24.616322 Si / 1000 Ang^3
#
#
#
# Elastic Constant Matrix: (Units=GPa)
#
#
# Indices 1 2 3 4 5 6 
#
# 1 85.4104 49.4997 29.0540 -0.6046 33.3581 0.3971
# 2 49.4997 141.2045 40.7798 3.6819 22.3150 9.8816
# 3 29.0540 40.7798 75.9307 9.2895 24.3921 21.7941
# 4 -0.6046 3.6819 9.2895 10.6881 4.3495 4.6507
# 5 33.3581 22.3150 24.3921 4.3495 48.2957 -0.3472
# 6 0.3971 9.8816 21.7941 4.6507 -0.3472 33.1909
#
#
#
# Elastic Compliance Matrix: (Units=1/GPa)
#
#
# Indices 1 2 3 4 5 6 
#
# 1 0.019731 -0.004657 -0.003307 0.009068 -0.010609 0.001940
# 2 -0.004657 0.009652 -0.003324 -0.000666 0.000492 -0.000537
# 3 -0.003307 -0.003324 0.023615 -0.010968 -0.007213 -0.013016
# 4 0.009068 -0.000666 -0.010968 0.111822 -0.010547 -0.008487
# 5 -0.010609 0.000492 -0.007213 -0.010547 0.032446 0.006534
# 6 0.001940 -0.000537 -0.013016 -0.008487 0.006534 0.040069
#
#
# Mechanical properties :
#
#
# Convention : Reuss Voigt Hill
#
# Bulk Modulus (GPa) = 32.87165 60.13471 46.50318
# Shear Modulus (GPa) = 18.51495 30.64910 24.58203
#
# Velocity S-wave (km/s) = 2.74549 3.53239 3.16350
# Velocity P-wave (km/s) = 4.84076 6.41240 5.68119
#
# Compressibility (1/GPa) = 0.03042135
#
# Stress axis : x y z
#
# Youngs Moduli (GPa) = 50.68216 103.60845 42.34539
#
# Poissons Ratio (x) = 0.48254 0.14002
# Poissons Ratio (y) = 0.23605 0.14076
# Poissons Ratio (z) = 0.16759 0.34441
#
# Static dielectric constant tensor:
#      x y z
#    x 2.030110 0.095270 -0.117970 
#    y 0.095270 1.886820 -0.054760 
#    z -0.117970 -0.054760 2.247580 
# 
# From -- ./inp_files/207186.got.cif
#   From: 2010.05.17/outbox.cif.g08.bks.cpg/sg2_104_cif.got.tgz:207186.got - 2010.06.03 11:33:40.
