data_PCOD9105865
_publ_section_title
;
Structure prediction by ZEFSAII (Michael W. Deem and Ramdas Pophale) SiO2 
 PCOD9105865
Probable space group: P -1
;
_chemical_formula_sum "Si O2"
_cell_formula_units_Z 12
_cell_length_a 11.691525
_cell_length_b 7.830852
_cell_length_c 13.493616
_cell_angle_alpha 46.749811
_cell_angle_beta 142.239216
_cell_angle_gamma 127.406795
_cell_volume 544.999141
_symmetry_space_group_name_H-M "P -1"
_symmetry_group_IT_number 2
_symmetry_cell_setting 'triclinic'
loop_
_space_group_symop_operation_xyz
x,y,z
-x,-y,-z
loop_
_atom_site_type_symbol
_atom_site_label
_atom_site_fract_x
_atom_site_fract_y
_atom_site_fract_z
Si Si1 0.214762 0.601785 0.587668
Si Si2 0.821596 0.978667 0.736684
Si Si3 0.330674 0.486005 0.308307
Si Si4 0.536169 0.280825 0.900440
Si Si5 0.769302 0.044108 0.900408
Si Si6 0.407321 0.734600 0.855524
O O1 0.242721 0.782106 0.443702
O O2 0.348795 0.400083 0.747590
O O3 0.269574 0.751611 0.664874
O O4 0.000000 0.500000 0.500000
O O5 0.760555 0.771850 0.695089
O O6 0.745468 0.939388 0.813541
O O7 0.047129 0.022159 0.892255
O O8 0.500000 0.500000 0.500000
O O9 0.397021 0.612435 0.199994
O O10 0.201567 0.668310 0.194617
O O11 0.683678 0.321322 0.076838
O O12 0.500000 0.000000 0.000000
O O13 0.581598 0.941895 0.872832
O O14 0.500000 0.500000 0.000000
#
# Coordination Sequence:
#
# PCOD9105865 Si02
#       6
#     2   2   2   2   2   2
#     4  11  24  42  67  99 133 173 226 283 338 401
#     4  11  24  42  67 100 136 179 227 283 340 403
#     4  12  25  42  70 100 137 178 230 281 337 407
#     4  11  23  42  68  96 133 176 222 270 338 403
#     4  11  23  43  67  96 137 179 227 278 340 403
#     4  10  20  39  66  91 126 177 218 268 333 401
#
# _framework density 22.018384999999999
#
# number of rings (size 3 to 8) (size 9 to 14) (size 15 to 20)
#    0.000    1.000    1.667    6.500    0.000    3.333 
#    0.000    2.500    0.000    0.000    0.000    0.000 
#    0.000    0.000    0.000    0.000    0.000    0.000 
#
# Total GULP energy -66816.718242 kJ/mol
# GULP energy per Si atom -5568.059854 kJ/mol
# Density = 2.196827 g / cm^3
# Si number density = 22.018385 Si / 1000 Ang^3
#
#
#
# Elastic Constant Matrix: (Units=GPa)
#
#
# Indices 1 2 3 4 5 6 
#
# 1 43.8434 17.9425 27.7354 17.9982 -18.8768 3.1829
# 2 17.9425 105.9680 42.7062 -4.3071 -3.8995 -7.8492
# 3 27.7354 42.7062 146.5616 6.8250 -23.9535 0.2502
# 4 17.9982 -4.3071 6.8250 44.3343 -11.2460 -1.2606
# 5 -18.8768 -3.8995 -23.9535 -11.2460 43.4868 -2.2353
# 6 3.1829 -7.8492 0.2502 -1.2606 -2.2353 32.0299
#
#
#
# Elastic Compliance Matrix: (Units=1/GPa)
#
#
# Indices 1 2 3 4 5 6 
#
# 1 0.036995 -0.005493 -0.003115 -0.012583 0.010352 -0.004771
# 2 -0.005493 0.011860 -0.002883 0.003459 -0.001835 0.003483
# 3 -0.003115 -0.002883 0.008776 0.000473 0.003335 -0.000214
# 4 -0.012583 0.003459 0.000473 0.028712 0.002709 0.003414
# 5 0.010352 -0.001835 0.003335 0.002709 0.029897 0.000689
# 6 -0.004771 0.003483 -0.000214 0.003414 0.000689 0.032733
#
#
# Mechanical properties :
#
#
# Convention : Reuss Voigt Hill
#
# Bulk Modulus (GPa) = 28.86020 52.57124 40.71572
# Shear Modulus (GPa) = 27.24739 37.83613 32.54176
#
# Velocity S-wave (km/s) = 3.52160 4.14984 3.84856
# Velocity P-wave (km/s) = 5.44714 6.84759 6.18712
#
# Compressibility (1/GPa) = 0.03464979
#
# Stress axis : x y z
#
# Youngs Moduli (GPa) = 27.03053 84.31764 113.94685
#
# Poissons Ratio (x) = 0.46313 0.35489
# Poissons Ratio (y) = 0.14847 0.32855
# Poissons Ratio (z) = 0.08419 0.24312
#
# Static dielectric constant tensor:
#      x y z
#    x 1.821690 -0.088520 -0.001650 
#    y -0.088520 1.999270 0.032000 
#    z -0.001650 0.032000 1.791900 
# 
# From -- ./inp_files/403514.got.cif
#   From: 2010.05.17/outbox.cif.g08.bks.cpg/sg2_202_cif.got.tgz:403514.got - 2010.06.03 11:33:40.
