data_PCOD9105273
_publ_section_title
;
Structure prediction by ZEFSAII (Michael W. Deem and Ramdas Pophale) SiO2 
 PCOD9105273
Probable space group: P -1
;
_chemical_formula_sum "Si O2"
_cell_formula_units_Z 12
_cell_length_a 7.692103
_cell_length_b 18.643366
_cell_length_c 8.201112
_cell_angle_alpha 46.385795
_cell_angle_beta 97.138098
_cell_angle_gamma 131.862622
_cell_volume 495.899543
_symmetry_space_group_name_H-M "P -1"
_symmetry_group_IT_number 2
_symmetry_cell_setting 'triclinic'
loop_
_space_group_symop_operation_xyz
x,y,z
-x,-y,-z
loop_
_atom_site_type_symbol
_atom_site_label
_atom_site_fract_x
_atom_site_fract_y
_atom_site_fract_z
Si Si1 0.745631 0.073008 0.036485
Si Si2 0.400450 0.729357 0.544989
Si Si3 0.185302 0.809050 0.813734
Si Si4 0.280643 0.175274 0.910329
Si Si5 0.887378 0.864799 0.568503
Si Si6 0.848476 0.432441 0.768540
O O1 0.828741 0.192727 0.988932
O O2 0.555763 0.897831 0.370826
O O3 0.047787 0.157701 0.883068
O O4 0.500000 0.000000 0.000000
O O5 0.551758 0.775357 0.313843
O O6 0.543085 0.715026 0.706613
O O7 0.057820 0.585947 0.680288
O O8 0.955834 0.785046 0.756855
O O9 0.500000 0.000000 0.500000
O O10 0.152203 0.678432 0.980084
O O11 0.514645 0.309974 0.870014
O O12 0.097140 0.995684 0.235638
O O13 0.000000 0.000000 0.500000
O O14 0.000000 0.500000 0.500000
#
# Coordination Sequence:
#
# PCOD9105273 Si02
#       6
#     2   2   2   2   2   2
#     4  11  22  38  64  93 119 166 220 246 300 385
#     4  10  22  40  64  89 125 166 204 256 309 367
#     4  12  24  38  66  93 123 164 210 259 306 370
#     4  10  20  39  64  87 125 167 201 255 307 366
#     4  11  20  39  63  92 125 160 207 258 310 364
#     4  10  22  42  62  91 129 166 203 256 316 364
#
# _framework density 24.198449
#
# number of rings (size 3 to 8) (size 9 to 14) (size 15 to 20)
#    0.000    1.333    5.000    4.000    2.333    0.667 
#    0.000   10.833    0.000    0.000    0.000    0.000 
#    0.000    0.000    0.000    0.000    0.000    0.000 
#
# Total GULP energy -66999.872160 kJ/mol
# GULP energy per Si atom -5583.322680 kJ/mol
# Density = 2.414337 g / cm^3
# Si number density = 24.198449 Si / 1000 Ang^3
#
#
#
# Elastic Constant Matrix: (Units=GPa)
#
#
# Indices 1 2 3 4 5 6 
#
# 1 90.4345 38.1938 19.1302 5.3706 4.9943 34.6329
# 2 38.1938 139.3960 -5.4724 -4.6870 -11.7428 41.6440
# 3 19.1302 -5.4724 46.0800 7.5356 -10.3032 7.0594
# 4 5.3706 -4.6870 7.5356 42.0820 8.7565 1.7582
# 5 4.9943 -11.7428 -10.3032 8.7565 31.6276 3.9742
# 6 34.6329 41.6440 7.0594 1.7582 3.9742 62.1726
#
#
#
# Elastic Compliance Matrix: (Units=1/GPa)
#
#
# Indices 1 2 3 4 5 6 
#
# 1 0.016759 -0.003742 -0.007958 0.000356 -0.006029 -0.005550
# 2 -0.003742 0.010908 0.005567 -0.000582 0.007409 -0.006311
# 3 -0.007958 0.005567 0.030901 -0.007033 0.015792 -0.003615
# 4 0.000356 -0.000582 -0.007033 0.026987 -0.010145 0.000876
# 5 -0.006029 0.007409 0.015792 -0.010145 0.044018 -0.005924
# 6 -0.005550 -0.006311 -0.003615 0.000876 -0.005924 0.024167
#
#
# Mechanical properties :
#
#
# Convention : Reuss Voigt Hill
#
# Bulk Modulus (GPa) = 21.59722 42.17932 31.88827
# Shear Modulus (GPa) = 27.55745 42.11371 34.83558
#
# Velocity S-wave (km/s) = 3.37829 4.17627 3.79829
# Velocity P-wave (km/s) = 4.91544 6.38149 5.69583
#
# Compressibility (1/GPa) = 0.04630225
#
# Stress axis : x y z
#
# Youngs Moduli (GPa) = 59.67004 91.67976 32.36120
#
# Poissons Ratio (x) = 0.34308 0.25753
# Poissons Ratio (y) = 0.22330 -0.18017
# Poissons Ratio (z) = 0.47485 -0.51043
#
# Static dielectric constant tensor:
#      x y z
#    x 2.091710 0.000380 -0.048990 
#    y 0.000380 2.030190 0.083580 
#    z -0.048990 0.083580 2.033270 
# 
# From -- ./inp_files/183993.got.cif
#   From: 2010.05.17/outbox.cif.g08.bks.cpg/sg2_92_cif.got.tgz:183993.got - 2010.06.03 11:33:40.
