data_PCOD9105954
_publ_section_title
;
Structure prediction by ZEFSAII (Michael W. Deem and Ramdas Pophale) SiO2 
 PCOD9105954
Probable space group: P -1
;
_chemical_formula_sum "Si O2"
_cell_formula_units_Z 14
_cell_length_a 11.278264
_cell_length_b 7.484777
_cell_length_c 9.324474
_cell_angle_alpha 54.027906
_cell_angle_beta 107.785506
_cell_angle_gamma 108.774398
_cell_volume 596.130657
_symmetry_space_group_name_H-M "P -1"
_symmetry_group_IT_number 2
_symmetry_cell_setting 'triclinic'
loop_
_space_group_symop_operation_xyz
x,y,z
-x,-y,-z
loop_
_atom_site_type_symbol
_atom_site_label
_atom_site_fract_x
_atom_site_fract_y
_atom_site_fract_z
Si Si1 0.024850 0.641840 0.273519
Si Si2 0.795333 0.327970 0.443289
Si Si3 0.611281 0.782097 0.007757
Si Si4 0.113697 0.161010 0.547230
Si Si5 0.330504 0.679374 0.881431
Si Si6 0.173066 0.862104 0.971153
Si Si7 0.375228 0.407108 0.583288
O O1 0.109726 0.774228 0.370448
O O2 0.070449 0.402113 0.404136
O O3 0.879869 0.561412 0.302259
O O4 0.057742 0.749803 0.081864
O O5 0.735429 0.222774 0.324909
O O6 0.686809 0.387695 0.476031
O O7 0.650809 0.573783 0.032800
O O8 0.595500 0.712652 0.202364
O O9 0.721408 0.998504 0.950451
O O10 0.473299 0.813371 0.890737
O O11 0.264445 0.247442 0.529052
O O12 0.125966 0.027404 0.762527
O O13 0.000000 0.000000 0.500000
O O14 0.243440 0.698919 0.978243
O O15 0.500000 0.500000 0.500000
#
# Coordination Sequence:
#
# PCOD9105954 Si02
#       7
#     2   2   2   2   2   2   2
#     4  10  22  43  68  94 140 184 222 284 352 411
#     4   9  20  40  63  90 136 176 215 288 344 388
#     4   9  21  40  64  98 143 178 222 294 345 405
#     4  10  22  40  64 102 138 170 230 292 332 409
#     4  10  20  39  66  95 141 175 225 293 336 402
#     4  11  23  42  72 102 130 189 233 272 358 421
#     4   9  19  38  66  92 132 189 223 274 357 408
#
# _framework density 23.484781999999999
#
# number of rings (size 3 to 8) (size 9 to 14) (size 15 to 20)
#    0.000    2.286    0.000    2.143    4.000    2.286 
#    0.000   24.286    3.143    0.000    0.000    0.000 
#    0.000    0.000    0.000    0.000    0.000    0.000 
#
# Total GULP energy -78099.077384 kJ/mol
# GULP energy per Si atom -5578.505527 kJ/mol
# Density = 2.343133 g / cm^3
# Si number density = 23.484782 Si / 1000 Ang^3
#
#
#
# Elastic Constant Matrix: (Units=GPa)
#
#
# Indices 1 2 3 4 5 6 
#
# 1 136.1560 45.8451 45.6024 2.8515 -21.9249 10.7787
# 2 45.8451 108.8183 19.6235 23.9710 2.8836 5.5290
# 3 45.6024 19.6235 70.5476 -0.5835 -10.3949 18.8925
# 4 2.8515 23.9710 -0.5835 28.8933 17.4212 9.5717
# 5 -21.9249 2.8836 -10.3949 17.4212 45.1603 7.9785
# 6 10.7787 5.5290 18.8925 9.5717 7.9785 43.1024
#
#
#
# Elastic Compliance Matrix: (Units=1/GPa)
#
#
# Indices 1 2 3 4 5 6 
#
# 1 0.011236 -0.003664 -0.005332 -0.000921 0.004943 -0.000713
# 2 -0.003664 0.013749 -0.002078 -0.012762 0.001319 0.002653
# 3 -0.005332 -0.002078 0.020978 0.004246 0.002319 -0.008967
# 4 -0.000921 -0.012762 0.004246 0.060923 -0.020436 -0.009740
# 5 0.004943 0.001319 0.002319 -0.020436 0.033601 -0.004103
# 6 -0.000713 0.002653 -0.008967 -0.009740 -0.004103 0.029891
#
#
# Mechanical properties :
#
#
# Convention : Reuss Voigt Hill
#
# Bulk Modulus (GPa) = 41.99008 59.74045 50.86526
# Shear Modulus (GPa) = 24.94216 37.06125 31.00171
#
# Velocity S-wave (km/s) = 3.26246 3.97684 3.63723
# Velocity P-wave (km/s) = 5.66657 6.82496 6.27256
#
# Compressibility (1/GPa) = 0.02381515
#
# Stress axis : x y z
#
# Youngs Moduli (GPa) = 89.00203 72.73040 47.66994
#
# Poissons Ratio (x) = 0.26648 0.25418
# Poissons Ratio (y) = 0.32610 0.09905
# Poissons Ratio (z) = 0.47456 0.15112
#
# Static dielectric constant tensor:
#      x y z
#    x 1.949370 -0.045170 0.037810 
#    y -0.045170 1.997960 0.059750 
#    z 0.037810 0.059750 1.878480 
# 
# From -- ./inp_files/242229.got.cif
#   From: 2010.05.17/outbox.cif.g08.bks.cpg/sg2_122_cif.got.tgz:242229.got - 2010.06.03 11:33:40.
