data_PCOD9105247
_publ_section_title
;
Structure prediction by ZEFSAII (Michael W. Deem and Ramdas Pophale) SiO2 
 PCOD9105247
Probable space group: P -1
;
_chemical_formula_sum "Si O2"
_cell_formula_units_Z 13
_cell_length_a 5.222473
_cell_length_b 12.890374
_cell_length_c 8.596876
_cell_angle_alpha 83.615933
_cell_angle_beta 59.044922
_cell_angle_gamma 85.169630
_cell_volume 492.983792
_symmetry_space_group_name_H-M "P -1"
_symmetry_group_IT_number 2
_symmetry_cell_setting 'triclinic'
loop_
_space_group_symop_operation_xyz
x,y,z
-x,-y,-z
loop_
_atom_site_type_symbol
_atom_site_label
_atom_site_fract_x
_atom_site_fract_y
_atom_site_fract_z
Si Si1 0.040727 0.719538 0.529607
Si Si2 0.386770 0.693353 0.730791
Si Si3 0.610501 0.455065 0.688516
Si Si4 0.500000 0.000000 0.500000
Si Si5 0.931149 0.943951 0.867554
Si Si6 0.555688 0.122481 0.777128
Si Si7 0.963010 0.408151 0.898661
O O1 0.164690 0.728326 0.660937
O O2 0.126790 0.599295 0.484028
O O3 0.214122 0.786205 0.337159
O O4 0.694839 0.751807 0.632910
O O5 0.504184 0.573995 0.675358
O O6 0.205110 0.684559 0.948569
O O7 0.743848 0.444182 0.822623
O O8 0.311722 0.388936 0.752374
O O9 0.538932 0.912218 0.360340
O O10 0.237871 0.932214 0.679790
O O11 0.737895 0.021032 0.802976
O O12 0.706237 0.857234 0.018100
O O13 0.000000 0.000000 0.000000
O O14 0.000000 0.500000 0.000000
#
# Coordination Sequence:
#
# PCOD9105247 Si02
#       7
#     2   2   2   1   2   2   2
#     4  12  25  39  62  96 134 163 222 270 316 394
#     4  11  22  40  62  91 131 175 217 267 320 376
#     4  11  21  40  64  90 128 180 217 266 325 373
#     4  10  20  42  74  92 124 168 214 262 338 406
#     4   9  20  42  71  90 126 164 210 267 332 405
#     4  10  23  42  64 100 130 170 214 272 336 393
#     4  10  20  39  64  85 121 170 230 264 317 382
#
# _framework density 26.370035999999999
#
# number of rings (size 3 to 8) (size 9 to 14) (size 15 to 20)
#    0.000    1.538    0.000    6.923    4.308    0.000 
#    5.538    1.538    0.000    0.000    0.000    0.000 
#    0.000    0.000    0.000    0.000    0.000    0.000 
#
# Total GULP energy -72458.331232 kJ/mol
# GULP energy per Si atom -5573.717787 kJ/mol
# Density = 2.631002 g / cm^3
# Si number density = 26.370036 Si / 1000 Ang^3
#
#
#
# Elastic Constant Matrix: (Units=GPa)
#
#
# Indices 1 2 3 4 5 6 
#
# 1 159.2434 13.3605 71.9513 -9.0270 -10.0095 -5.1375
# 2 13.3605 55.7610 16.3180 1.6245 -4.6563 -4.6102
# 3 71.9513 16.3180 216.3707 -16.3515 -29.9901 -1.5750
# 4 -9.0270 1.6245 -16.3515 37.8003 3.9345 -9.5109
# 5 -10.0095 -4.6563 -29.9901 3.9345 61.3890 -0.5152
# 6 -5.1375 -4.6102 -1.5750 -9.5109 -0.5152 24.1784
#
#
#
# Elastic Compliance Matrix: (Units=1/GPa)
#
#
# Indices 1 2 3 4 5 6 
#
# 1 0.007544 -0.001022 -0.002329 0.001287 -0.000053 0.001761
# 2 -0.001022 0.018815 -0.001001 -0.000819 0.000849 0.003001
# 3 -0.002329 -0.001001 0.005945 0.001946 0.002328 0.000517
# 4 0.001287 -0.000819 0.001946 0.030828 -0.000774 0.012354
# 5 -0.000053 0.000849 0.002328 -0.000774 0.017535 0.000372
# 6 0.001761 0.003001 0.000517 0.012354 0.000372 0.047207
#
#
# Mechanical properties :
#
#
# Convention : Reuss Voigt Hill
#
# Bulk Modulus (GPa) = 42.37515 70.51496 56.44505
# Shear Modulus (GPa) = 34.61503 46.65656 40.63579
#
# Velocity S-wave (km/s) = 3.62700 4.21087 3.92980
# Velocity P-wave (km/s) = 5.80039 7.10215 6.48402
#
# Compressibility (1/GPa) = 0.02359874
#
# Stress axis : x y z
#
# Youngs Moduli (GPa) = 132.55251 53.15038 168.20237
#
# Poissons Ratio (x) = 0.05434 0.39172
# Poissons Ratio (y) = 0.13552 0.16843
# Poissons Ratio (z) = 0.30870 0.05322
#
# Static dielectric constant tensor:
#      x y z
#    x 2.107130 0.081530 -0.081580 
#    y 0.081530 2.251710 -0.085730 
#    z -0.081580 -0.085730 2.093420 
# 
# From -- ./inp_files/134884.got.cif
#   From: 2010.05.17/outbox.cif.g08.bks.cpg/sg2_68_cif.got.tgz:134884.got - 2010.06.03 11:33:40.
