data_PCOD9105978
_publ_section_title
;
Structure prediction by ZEFSAII (Michael W. Deem and Ramdas Pophale) SiO2 
 PCOD9105978
Probable space group: P -1
;
_chemical_formula_sum "Si O2"
_cell_formula_units_Z 15
_cell_length_a 11.660956
_cell_length_b 8.667878
_cell_length_c 7.530617
_cell_angle_alpha 90.104518
_cell_angle_beta 86.980845
_cell_angle_gamma 49.060683
_cell_volume 573.520754
_symmetry_space_group_name_H-M "P -1"
_symmetry_group_IT_number 2
_symmetry_cell_setting 'triclinic'
loop_
_space_group_symop_operation_xyz
x,y,z
-x,-y,-z
loop_
_atom_site_type_symbol
_atom_site_label
_atom_site_fract_x
_atom_site_fract_y
_atom_site_fract_z
Si Si1 0.845351 0.437613 0.420547
Si Si2 0.340300 0.958853 0.605200
Si Si3 0.552832 0.831291 0.263737
Si Si4 0.500000 0.500000 0.500000
Si Si5 0.188113 0.805069 0.352763
Si Si6 0.102000 0.419194 0.225295
Si Si7 0.283894 0.985051 0.106683
Si Si8 0.938638 0.846766 0.176272
O O1 0.613454 0.952208 0.252007
O O2 0.874338 0.231988 0.465601
O O3 0.837875 0.537259 0.608281
O O4 0.974415 0.411386 0.301244
O O5 0.401615 0.730937 0.597091
O O6 0.158402 0.112386 0.640083
O O7 0.418553 0.956557 0.422335
O O8 0.684502 0.604253 0.332406
O O9 0.466458 0.826656 0.108061
O O10 0.363815 0.596976 0.360420
O O11 0.073410 0.840922 0.213500
O O12 0.214307 0.954033 0.280566
O O13 0.234554 0.206572 0.124744
O O14 0.023610 0.616718 0.109986
O O15 0.194411 0.991855 0.947689
#
# Coordination Sequence:
#
# PCOD9105978 Si02
#       8
#     2   2   2   1   2   2   2   2
#     4  10  20  39  66  97 127 167 226 287 319 371
#     4  11  23  43  68 100 128 172 223 284 329 379
#     4  11  22  41  70  97 133 171 224 283 327 384
#     4  12  24  42  70 100 124 168 228 278 336 376
#     4  11  24  42  66  98 136 174 219 279 327 394
#     4  10  22  39  66  98 128 171 228 272 325 382
#     4  12  25  42  65  99 141 183 213 260 338 411
#     4  11  26  45  65  97 142 177 219 267 335 403
#
# _framework density 26.154240999999999
#
# number of rings (size 3 to 8) (size 9 to 14) (size 15 to 20)
#    0.000    1.067    4.000    2.400    5.600    2.667 
#    0.000    0.667    0.000    0.000    0.000    0.000 
#    0.000    0.000    0.000    0.000    0.000    0.000 
#
# Total GULP energy -83506.007893 kJ/mol
# GULP energy per Si atom -5567.067193 kJ/mol
# Density = 2.609471 g / cm^3
# Si number density = 26.154241 Si / 1000 Ang^3
#
#
#
# Elastic Constant Matrix: (Units=GPa)
#
#
# Indices 1 2 3 4 5 6 
#
# 1 183.0633 39.9037 40.5673 -21.0504 42.0537 3.8131
# 2 39.9037 117.6793 18.4998 -10.1332 15.5928 8.4102
# 3 40.5673 18.4998 85.0476 -15.8700 28.5141 -8.6921
# 4 -21.0504 -10.1332 -15.8700 32.0609 -14.2544 4.3523
# 5 42.0537 15.5928 28.5141 -14.2544 49.3678 -17.0298
# 6 3.8131 8.4102 -8.6921 4.3523 -17.0298 41.7845
#
#
#
# Elastic Compliance Matrix: (Units=1/GPa)
#
#
# Indices 1 2 3 4 5 6 
#
# 1 0.007692 -0.001195 -0.001408 0.001758 -0.006024 -0.003393
# 2 -0.001195 0.009660 -0.000862 0.001269 -0.002222 -0.003052
# 3 -0.001408 -0.000862 0.015427 0.003606 -0.006186 0.000614
# 4 0.001758 0.001269 0.003606 0.037567 0.006553 -0.000908
# 5 -0.006024 -0.002222 -0.006186 0.006553 0.036327 0.013833
# 6 -0.003393 -0.003052 0.000614 -0.000908 0.013833 0.030717
#
#
# Mechanical properties :
#
#
# Convention : Reuss Voigt Hill
#
# Bulk Modulus (GPa) = 38.68471 64.85908 51.77190
# Shear Modulus (GPa) = 32.69373 43.76393 38.22883
#
# Velocity S-wave (km/s) = 3.53942 4.09504 3.82733
# Velocity P-wave (km/s) = 5.61484 6.87107 6.27447
#
# Compressibility (1/GPa) = 0.02585001
#
# Stress axis : x y z
#
# Youngs Moduli (GPa) = 130.00898 103.51850 64.82299
#
# Poissons Ratio (x) = 0.12368 0.09127
# Poissons Ratio (y) = 0.15533 0.05585
# Poissons Ratio (z) = 0.18305 0.08918
#
# Static dielectric constant tensor:
#      x y z
#    x 2.185500 0.145660 -0.104300 
#    y 0.145660 2.134330 -0.215000 
#    z -0.104300 -0.215000 2.470710 
# 
# From -- ./inp_files/234240.got.cif
#   From: 2010.05.17/outbox.cif.g08.bks.cpg/sg2_118_cif.got.tgz:234240.got - 2010.06.03 11:33:40.
