data_PCOD9105777
_publ_section_title
;
Structure prediction by ZEFSAII (Michael W. Deem and Ramdas Pophale) SiO2 
 PCOD9105777
Probable space group: P -1
;
_chemical_formula_sum "Si O2"
_cell_formula_units_Z 15
_cell_length_a 11.083588
_cell_length_b 11.446733
_cell_length_c 9.004425
_cell_angle_alpha 94.820531
_cell_angle_beta 116.193587
_cell_angle_gamma 38.944472
_cell_volume 572.221236
_symmetry_space_group_name_H-M "P -1"
_symmetry_group_IT_number 2
_symmetry_cell_setting 'triclinic'
loop_
_space_group_symop_operation_xyz
x,y,z
-x,-y,-z
loop_
_atom_site_type_symbol
_atom_site_label
_atom_site_fract_x
_atom_site_fract_y
_atom_site_fract_z
Si Si1 0.753327 0.598634 0.701631
Si Si2 0.347156 0.788249 0.189875
Si Si3 0.111733 0.798130 0.856460
Si Si4 0.153661 0.157005 0.751359
Si Si5 0.500000 0.500000 0.500000
Si Si6 0.545619 0.854680 0.164001
Si Si7 0.745383 0.111116 0.445817
Si Si8 0.882429 0.470672 0.099375
O O1 0.468001 0.807203 0.577205
O O2 0.881347 0.400880 0.654427
O O3 0.870813 0.639858 0.739638
O O4 0.836058 0.504364 0.903020
O O5 0.389546 0.666980 0.331734
O O6 0.529171 0.765161 0.267009
O O7 0.094908 0.033513 0.113028
O O8 0.322118 0.730573 0.019800
O O9 0.150893 0.632131 0.861500
O O10 0.988700 0.925086 0.651387
O O11 0.296923 0.144433 0.721190
O O12 0.195318 0.000588 0.685714
O O13 0.286687 0.068355 0.974202
O O14 0.629355 0.323332 0.418364
O O15 0.684572 0.697758 0.084986
#
# Coordination Sequence:
#
# PCOD9105777 Si02
#       8
#     2   2   2   2   1   2   2   2
#     4  10  21  39  70  97 138 185 227 284 352 407
#     4  10  22  43  70  96 136 186 229 296 342 419
#     4  10  23  41  64  95 136 181 240 277 350 419
#     4  10  22  41  69 110 141 179 232 288 349 422
#     4  10  24  46  70 100 136 178 244 282 350 412
#     4  10  21  40  70 107 141 177 236 290 352 411
#     4  11  23  45  67 100 139 187 228 295 338 420
#     4  10  20  39  66 101 136 180 232 288 345 418
#
# _framework density 26.213638
#
# number of rings (size 3 to 8) (size 9 to 14) (size 15 to 20)
#    0.000    1.867    1.333    1.600    3.733    3.200 
#    7.200    2.667    0.000    0.000    0.000    0.000 
#    0.000    0.000    0.000    0.000    0.000    0.000 
#
# Total GULP energy -83699.855928 kJ/mol
# GULP energy per Si atom -5579.990395 kJ/mol
# Density = 2.615397 g / cm^3
# Si number density = 26.213638 Si / 1000 Ang^3
#
#
#
# Elastic Constant Matrix: (Units=GPa)
#
#
# Indices 1 2 3 4 5 6 
#
# 1 102.1321 52.6822 18.0233 -11.2245 0.0526 5.5291
# 2 52.6822 146.9985 24.5912 16.6950 4.4803 21.1594
# 3 18.0233 24.5912 53.7404 -7.0827 7.9812 2.0135
# 4 -11.2245 16.6950 -7.0827 34.7011 7.4878 -2.0965
# 5 0.0526 4.4803 7.9812 7.4878 27.9629 -5.1279
# 6 5.5291 21.1594 2.0135 -2.0965 -5.1279 47.2383
#
#
#
# Elastic Compliance Matrix: (Units=1/GPa)
#
#
# Indices 1 2 3 4 5 6 
#
# 1 0.013616 -0.005687 -0.000997 0.007122 -0.000506 0.001257
# 2 -0.005687 0.011135 -0.004285 -0.008538 0.000926 -0.004418
# 3 -0.000997 -0.004285 0.023160 0.008231 -0.008026 0.000543
# 4 0.007122 -0.008538 0.008231 0.039471 -0.010977 0.003200
# 5 -0.000506 0.000926 -0.008026 -0.010977 0.041580 0.004013
# 6 0.001257 -0.004418 0.000543 0.003200 0.004013 0.023556
#
#
# Mechanical properties :
#
#
# Convention : Reuss Voigt Hill
#
# Bulk Modulus (GPa) = 38.50421 54.82939 46.66680
# Shear Modulus (GPa) = 27.30524 35.81874 31.56199
#
# Velocity S-wave (km/s) = 3.23095 3.70052 3.47368
# Velocity P-wave (km/s) = 5.35156 6.26260 5.82492
#
# Compressibility (1/GPa) = 0.02597119
#
# Stress axis : x y z
#
# Youngs Moduli (GPa) = 73.44397 89.80377 43.17827
#
# Poissons Ratio (x) = 0.51075 0.04306
# Poissons Ratio (y) = 0.41770 0.18503
# Poissons Ratio (z) = 0.07324 0.38484
#
# Static dielectric constant tensor:
#      x y z
#    x 2.267000 -0.117260 0.010770 
#    y -0.117260 2.092610 0.118360 
#    z 0.010770 0.118360 2.130710 
# 
# From -- ./inp_files/195363.got.cif
#   From: 2010.05.17/outbox.cif.g08.bks.cpg/sg2_98_cif.got.tgz:195363.got - 2010.06.03 11:33:40.
