data_PCOD9105888
_publ_section_title
;
Structure prediction by ZEFSAII (Michael W. Deem and Ramdas Pophale) SiO2 
 PCOD9105888
Probable space group: P -1
;
_chemical_formula_sum "Si O2"
_cell_formula_units_Z 16
_cell_length_a 9.099703
_cell_length_b 13.648085
_cell_length_c 14.926286
_cell_angle_alpha 113.911927
_cell_angle_beta 65.072408
_cell_angle_gamma 149.549849
_cell_volume 848.375494
_symmetry_space_group_name_H-M "P -1"
_symmetry_group_IT_number 2
_symmetry_cell_setting 'triclinic'
loop_
_space_group_symop_operation_xyz
x,y,z
-x,-y,-z
loop_
_atom_site_type_symbol
_atom_site_label
_atom_site_fract_x
_atom_site_fract_y
_atom_site_fract_z
Si Si1 0.662776 0.839055 0.046494
Si Si2 0.755345 0.809195 0.381922
Si Si3 0.233144 0.722373 0.995997
Si Si4 0.160014 0.621870 0.777664
Si Si5 0.393662 0.244810 0.402776
Si Si6 0.263954 0.447322 0.710547
Si Si7 0.475295 0.663625 0.208182
Si Si8 0.312722 0.457023 0.901673
O O1 0.607172 0.818812 0.159194
O O2 0.519990 0.856189 0.030773
O O3 0.474618 0.630735 0.987665
O O4 0.000000 0.000000 0.000000
O O5 0.572778 0.727156 0.489218
O O6 0.851101 0.736477 0.330611
O O7 0.579007 0.737343 0.310473
O O8 0.051512 0.040538 0.396212
O O9 0.277108 0.733534 0.882580
O O10 0.000000 0.500000 0.000000
O O11 0.038896 0.719857 0.065720
O O12 0.417413 0.748157 0.686143
O O13 0.063610 0.443419 0.754006
O O14 0.875401 0.526441 0.782011
O O15 0.513881 0.411202 0.376147
O O16 0.406580 0.536594 0.805174
O O17 0.597312 0.614308 0.131755
#
# Coordination Sequence:
#
# PCOD9105888 Si02
#       8
#     2   2   2   2   2   2   2   2
#     4  11  21  32  53  79 111 144 183 228 273 322
#     4  10  21  36  60  86 107 140 195 231 278 334
#     4  10  16  34  55  73 105 154 184 209 278 338
#     4  10  19  34  59  75 110 151 183 227 280 328
#     4   9  20  38  61  79 112 145 182 237 280 332
#     4   9  18  35  62  78 106 151 183 220 276 342
#     4  11  22  34  55  85 107 147 188 235 271 324
#     4  10  19  36  56  75 111 147 188 219 272 337
#
# _framework density 18.859573999999999
#
# number of rings (size 3 to 8) (size 9 to 14) (size 15 to 20)
#    0.750    1.250    5.000    0.750    3.500    0.500 
#    0.000    4.375    0.000    1.500    0.000    0.000 
#    0.000    0.000    0.000    0.000    0.000    0.000 
#
# Total GULP energy -89081.972932 kJ/mol
# GULP energy per Si atom -5567.623308 kJ/mol
# Density = 1.881665 g / cm^3
# Si number density = 18.859574 Si / 1000 Ang^3
#
#
#
# Elastic Constant Matrix: (Units=GPa)
#
#
# Indices 1 2 3 4 5 6 
#
# 1 108.0549 24.3680 46.6292 -0.8357 9.8997 34.6138
# 2 24.3680 33.6045 16.7345 -6.3078 14.4016 17.0596
# 3 46.6292 16.7345 135.4919 -12.9237 28.4563 16.0671
# 4 -0.8357 -6.3078 -12.9237 20.4799 6.2502 -7.5110
# 5 9.8997 14.4016 28.4563 6.2502 27.7363 1.7348
# 6 34.6138 17.0596 16.0671 -7.5110 1.7348 25.3852
#
#
#
# Elastic Compliance Matrix: (Units=1/GPa)
#
#
# Indices 1 2 3 4 5 6 
#
# 1 0.020836 -0.004324 -0.006468 -0.016455 0.006825 -0.026747
# 2 -0.004324 0.077251 0.011420 0.033146 -0.055273 -0.039663
# 3 -0.006468 0.011420 0.015116 0.019582 -0.023479 -0.001025
# 4 -0.016455 0.033146 0.019582 0.094259 -0.053878 0.019340
# 5 0.006825 -0.055273 -0.023479 -0.053878 0.097289 0.020109
# 6 -0.026747 -0.039663 -0.001025 0.019340 0.020109 0.107515
#
#
# Mechanical properties :
#
#
# Convention : Reuss Voigt Hill
#
# Bulk Modulus (GPa) = 8.73660 50.29054 29.51357
# Shear Modulus (GPa) = 11.13184 27.34825 19.24004
#
# Velocity S-wave (km/s) = 2.43214 3.81215 3.19748
# Velocity P-wave (km/s) = 3.53971 6.78972 5.41433
#
# Compressibility (1/GPa) = 0.11446101
#
# Stress axis : x y z
#
# Youngs Moduli (GPa) = 47.99362 12.94478 66.15411
#
# Poissons Ratio (x) = 0.05597 0.42788
# Poissons Ratio (y) = 0.20751 -0.75550
# Poissons Ratio (z) = 0.31042 -0.14783
#
# Static dielectric constant tensor:
#      x y z
#    x 1.700220 -0.023330 -0.007380 
#    y -0.023330 1.646190 -0.010940 
#    z -0.007380 -0.010940 1.690360 
# 
# From -- ./inp_files/196303.got.cif
#   From: 2010.05.17/outbox.cif.g08.bks.cpg/sg2_99_cif.got.tgz:196303.got - 2010.06.03 11:33:40.
