data_PCOD9105577
_publ_section_title
;
Structure prediction by ZEFSAII (Michael W. Deem and Ramdas Pophale) SiO2 
 PCOD9105577
Probable space group: P -1
;
_chemical_formula_sum "Si O2"
_cell_formula_units_Z 12
_cell_length_a 15.906514
_cell_length_b 7.942033
_cell_length_c 8.994603
_cell_angle_alpha 146.367167
_cell_angle_beta 49.402892
_cell_angle_gamma 119.821443
_cell_volume 475.188207
_symmetry_space_group_name_H-M "P -1"
_symmetry_group_IT_number 2
_symmetry_cell_setting 'triclinic'
loop_
_space_group_symop_operation_xyz
x,y,z
-x,-y,-z
loop_
_atom_site_type_symbol
_atom_site_label
_atom_site_fract_x
_atom_site_fract_y
_atom_site_fract_z
Si Si1 0.124533 0.380182 0.056813
Si Si2 0.899965 0.308801 0.125607
Si Si3 0.236349 0.448055 0.260855
Si Si4 0.677348 0.004644 0.620769
Si Si5 0.468254 0.158288 0.808521
Si Si6 0.157293 0.998685 0.336449
O O1 0.142398 0.333904 0.178132
O O2 0.106774 0.739783 0.302249
O O3 0.020619 0.226301 0.999036
O O4 0.239128 0.250148 0.747212
O O5 0.813359 0.369975 0.406042
O O6 0.897989 0.658166 0.322146
O O7 0.861445 0.103495 0.885688
O O8 0.290124 0.685100 0.264953
O O9 0.335769 0.195281 0.006930
O O10 0.548433 0.994835 0.722358
O O11 0.717718 0.001706 0.742000
O O12 0.500000 0.000000 0.500000
O O13 0.500000 0.500000 0.000000
#
# Coordination Sequence:
#
# PCOD9105577 Si02
#       6
#     2   2   2   2   2   2
#     4  11  22  41  66  90 123 165 211 244 300 371
#     4  12  26  39  62  93 131 161 196 257 311 358
#     4  10  24  40  63  96 124 156 205 261 309 351
#     4  10  22  41  68  91 117 164 214 249 296 368
#     4  10  20  39  65  90 117 158 206 253 298 360
#     4  11  25  42  61  90 126 170 205 240 303 377
#
# _framework density 25.253152
#
# number of rings (size 3 to 8) (size 9 to 14) (size 15 to 20)
#    0.000    1.333    3.333    1.500    7.000    0.667 
#    0.000    1.667    0.000    0.000    0.000    0.000 
#    0.000    0.000    0.000    0.000    0.000    0.000 
#
# Total GULP energy -67178.087133 kJ/mol
# GULP energy per Si atom -5598.173928 kJ/mol
# Density = 2.519567 g / cm^3
# Si number density = 25.253152 Si / 1000 Ang^3
#
#
#
# Elastic Constant Matrix: (Units=GPa)
#
#
# Indices 1 2 3 4 5 6 
#
# 1 239.9674 37.5899 80.4552 -24.1197 8.9459 -25.3501
# 2 37.5899 57.9118 19.0419 -4.6272 1.5267 -14.6563
# 3 80.4552 19.0419 154.0490 -5.7901 22.8970 -6.0022
# 4 -24.1197 -4.6272 -5.7901 36.9570 -5.3886 8.9182
# 5 8.9459 1.5267 22.8970 -5.3886 50.1493 -5.2864
# 6 -25.3501 -14.6563 -6.0022 8.9182 -5.2864 32.8229
#
#
#
# Elastic Compliance Matrix: (Units=1/GPa)
#
#
# Indices 1 2 3 4 5 6 
#
# 1 0.005929 -0.002107 -0.002759 0.002681 0.000822 0.002538
# 2 -0.002107 0.020994 -0.001381 -0.000697 0.001121 0.007865
# 3 -0.002759 -0.001381 0.008551 -0.000787 -0.003618 -0.001553
# 4 0.002681 -0.000697 -0.000787 0.030475 0.002517 -0.006259
# 5 0.000822 0.001121 -0.003618 0.002517 0.022034 0.003339
# 6 0.002538 0.007865 -0.001553 -0.006259 0.003339 0.037893
#
#
# Mechanical properties :
#
#
# Convention : Reuss Voigt Hill
#
# Bulk Modulus (GPa) = 43.51426 80.67801 62.09613
# Shear Modulus (GPa) = 34.23955 44.97524 39.60740
#
# Velocity S-wave (km/s) = 3.68619 4.22474 3.96462
# Velocity P-wave (km/s) = 5.94861 7.47094 6.75281
#
# Compressibility (1/GPa) = 0.02298097
#
# Stress axis : x y z
#
# Youngs Moduli (GPa) = 168.66014 47.63179 116.95002
#
# Poissons Ratio (x) = 0.10034 0.32263
# Poissons Ratio (y) = 0.35529 0.16155
# Poissons Ratio (z) = 0.46528 0.06580
#
# Static dielectric constant tensor:
#      x y z
#    x 2.084690 0.010740 -0.012870 
#    y 0.010740 2.044240 0.024460 
#    z -0.012870 0.024460 1.969260 
# 
# From -- ./inp_files/20288.got.cif
#   From: 2010.05.17/outbox.cif.g08.bks.cpg/sg2_11_cif.got.tgz:20288.got - 2010.06.03 11:33:40.
