data_PCOD9105830
_publ_section_title
;
Structure prediction by ZEFSAII (Michael W. Deem and Ramdas Pophale) SiO2 
 PCOD9105830
Probable space group: P -1
;
_chemical_formula_sum "Si O2"
_cell_formula_units_Z 14
_cell_length_a 6.569578
_cell_length_b 19.036205
_cell_length_c 5.682290
_cell_angle_alpha 73.880499
_cell_angle_beta 105.126962
_cell_angle_gamma 127.398075
_cell_volume 538.367366
_symmetry_space_group_name_H-M "P -1"
_symmetry_group_IT_number 2
_symmetry_cell_setting 'triclinic'
loop_
_space_group_symop_operation_xyz
x,y,z
-x,-y,-z
loop_
_atom_site_type_symbol
_atom_site_label
_atom_site_fract_x
_atom_site_fract_y
_atom_site_fract_z
Si Si1 0.343090 0.392468 0.552793
Si Si2 0.357260 0.068357 0.186462
Si Si3 0.312865 0.656405 0.085350
Si Si4 0.355460 0.213980 0.307470
Si Si5 0.124712 0.873477 0.424140
Si Si6 0.212555 0.408909 0.001704
Si Si7 0.319439 0.806135 0.204937
O O1 0.500000 0.500000 0.500000
O O2 0.540111 0.364593 0.664998
O O3 0.197646 0.362387 0.287987
O O4 0.183693 0.366951 0.772528
O O5 0.263830 0.128336 0.194248
O O6 0.617312 0.097747 0.381889
O O7 0.157894 0.963986 0.272201
O O8 0.453896 0.096908 0.921996
O O9 0.282327 0.737358 0.057646
O O10 0.499828 0.694426 0.881041
O O11 0.013535 0.576168 0.056823
O O12 0.574139 0.221824 0.527716
O O13 0.118009 0.185969 0.427172
O O14 0.113258 0.820240 0.239067
O O15 0.500000 0.500000 0.000000
#
# Coordination Sequence:
#
# PCOD9105830 Si02
#       7
#     2   2   2   2   2   2   2
#     4  10  25  46  76 111 140 190 240 295 374 439
#     4   9  20  39  61  94 130 183 234 298 341 421
#     4  11  26  45  68 102 152 180 237 308 362 439
#     4  10  23  39  60  99 136 183 232 288 365 427
#     4  10  20  39  66  89 135 181 239 289 351 424
#     4  10  25  47  76 110 142 188 243 297 370 441
#     4  10  23  39  59  98 134 182 233 286 368 423
#
# _framework density 26.004546999999999
#
# number of rings (size 3 to 8) (size 9 to 14) (size 15 to 20)
#    0.000    2.000    0.000    0.857    4.000   12.000 
#    0.000    0.000    0.000    0.000    0.000    0.000 
#    0.000    0.000    0.000    0.000    0.000    0.000 
#
# Total GULP energy -78319.292457 kJ/mol
# GULP energy per Si atom -5594.235176 kJ/mol
# Density = 2.594536 g / cm^3
# Si number density = 26.004547 Si / 1000 Ang^3
#
#
#
# Elastic Constant Matrix: (Units=GPa)
#
#
# Indices 1 2 3 4 5 6 
#
# 1 156.7601 42.1486 49.7564 -3.0032 -33.2924 1.6916
# 2 42.1486 83.9610 15.1350 -5.8883 -11.6305 -5.7516
# 3 49.7564 15.1350 156.8124 -1.0677 -9.8794 -2.3384
# 4 -3.0032 -5.8883 -1.0677 29.4283 2.2693 -1.1844
# 5 -33.2924 -11.6305 -9.8794 2.2693 57.4128 3.3702
# 6 1.6916 -5.7516 -2.3384 -1.1844 3.3702 33.4488
#
#
#
# Elastic Compliance Matrix: (Units=1/GPa)
#
#
# Indices 1 2 3 4 5 6 
#
# 1 0.008982 -0.003656 -0.002260 -0.000287 0.004188 -0.001673
# 2 -0.003656 0.014194 -0.000123 0.002533 0.000478 0.002658
# 3 -0.002260 -0.000123 0.007106 0.000039 -0.000150 0.000606
# 4 -0.000287 0.002533 0.000039 0.034618 -0.001120 0.001791
# 5 0.004188 0.000478 -0.000150 -0.001120 0.020091 -0.002204
# 6 -0.001673 0.002658 0.000606 0.001791 -0.002204 0.030766
#
#
# Mechanical properties :
#
#
# Convention : Reuss Voigt Hill
#
# Bulk Modulus (GPa) = 54.93484 67.95706 61.44595
# Shear Modulus (GPa) = 37.34074 43.42422 40.38248
#
# Velocity S-wave (km/s) = 3.79348 4.09084 3.94496
# Velocity P-wave (km/s) = 6.35282 6.96439 6.66562
#
# Compressibility (1/GPa) = 0.01820339
#
# Stress axis : x y z
#
# Youngs Moduli (GPa) = 111.33938 70.45391 140.72855
#
# Poissons Ratio (x) = 0.25758 0.31805
# Poissons Ratio (y) = 0.40705 0.01730
# Poissons Ratio (z) = 0.25163 0.00866
#
# Static dielectric constant tensor:
#      x y z
#    x 2.067530 0.058540 -0.037800 
#    y 0.058540 2.184200 0.026830 
#    z -0.037800 0.026830 2.019070 
# 
# From -- ./inp_files/10176.got.cif
#   From: 2010.05.17/outbox.cif.g08.bks.cpg/sg2_6_cif.got.tgz:10176.got - 2010.06.03 11:33:40.
