data_PCOD9105400
_publ_section_title
;
Structure prediction by ZEFSAII (Michael W. Deem and Ramdas Pophale) SiO2 
 PCOD9105400
Probable space group: P -1
;
_chemical_formula_sum "Si O2"
_cell_formula_units_Z 16
_cell_length_a 16.977476
_cell_length_b 13.089869
_cell_length_c 7.382542
_cell_angle_alpha 82.562811
_cell_angle_beta 108.733866
_cell_angle_gamma 153.693596
_cell_volume 637.593164
_symmetry_space_group_name_H-M "P -1"
_symmetry_group_IT_number 2
_symmetry_cell_setting 'triclinic'
loop_
_space_group_symop_operation_xyz
x,y,z
-x,-y,-z
loop_
_atom_site_type_symbol
_atom_site_label
_atom_site_fract_x
_atom_site_fract_y
_atom_site_fract_z
Si Si1 0.912282 0.012145 0.962794
Si Si2 0.426484 0.059834 0.126170
Si Si3 0.829526 0.385355 0.818793
Si Si4 0.746539 0.467894 0.025697
Si Si5 0.413112 0.218292 0.636719
Si Si6 0.115823 0.717408 0.649730
Si Si7 0.484150 0.340364 0.269878
Si Si8 0.181982 0.139820 0.681954
O O1 0.041573 0.237045 0.890397
O O2 0.900155 0.013623 0.169639
O O3 0.683771 0.763588 0.795226
O O4 0.000000 0.000000 0.000000
O O5 0.658502 0.320469 0.177734
O O6 0.293863 0.886009 0.886631
O O7 0.388386 0.132778 0.150736
O O8 0.360511 0.905407 0.266397
O O9 0.766011 0.401289 0.906752
O O10 0.937681 0.556288 0.686517
O O11 0.000000 0.500000 0.000000
O O12 0.578661 0.361532 0.865167
O O13 0.535332 0.365443 0.505759
O O14 0.299890 0.192607 0.629458
O O15 0.233584 0.931034 0.562170
O O16 0.000000 0.500000 0.500000
O O17 0.654870 0.586322 0.221259
O O18 0.000000 0.000000 0.500000
#
# Coordination Sequence:
#
# PCOD9105400 Si02
#       8
#     2   2   2   2   2   2   2   2
#     4  12  23  39  65  98 129 171 220 271 327 388
#     4  10  22  40  63  95 128 167 218 270 322 386
#     4  10  20  39  64  93 127 171 218 267 320 384
#     4  11  22  41  64  92 131 173 214 270 329 388
#     4  11  24  43  63  95 133 174 221 271 328 394
#     4  10  21  40  65  93 129 173 216 268 326 386
#     4  12  24  43  68  97 131 172 220 274 326 391
#     4  12  25  45  68  97 134 175 217 271 331 393
#
# _framework density 25.094373000000001
#
# number of rings (size 3 to 8) (size 9 to 14) (size 15 to 20)
#    0.000    1.000    0.000    8.625    0.000    1.000 
#    0.000   10.625    0.000    0.000    0.000    0.000 
#    0.000    0.000    0.000    0.000    0.000    0.000 
#
# Total GULP energy -89479.757935 kJ/mol
# GULP energy per Si atom -5592.484871 kJ/mol
# Density = 2.503726 g / cm^3
# Si number density = 25.094373 Si / 1000 Ang^3
#
#
#
# Elastic Constant Matrix: (Units=GPa)
#
#
# Indices 1 2 3 4 5 6 
#
# 1 115.1676 13.4460 12.6969 11.9962 -8.3876 4.5324
# 2 13.4460 167.7159 5.1090 4.9035 0.9615 11.1278
# 3 12.6969 5.1090 60.7436 0.4103 2.1833 2.7924
# 4 11.9962 4.9035 0.4103 33.1397 3.5846 -14.0478
# 5 -8.3876 0.9615 2.1833 3.5846 31.0379 1.1533
# 6 4.5324 11.1278 2.7924 -14.0478 1.1533 43.6789
#
#
#
# Elastic Compliance Matrix: (Units=1/GPa)
#
#
# Indices 1 2 3 4 5 6 
#
# 1 0.009809 -0.000442 -0.001993 -0.004866 0.003457 -0.002434
# 2 -0.000442 0.006189 -0.000323 -0.001608 -0.000027 -0.002027
# 3 -0.001993 -0.000323 0.016993 0.000499 -0.001760 -0.000590
# 4 -0.004866 -0.001608 0.000499 0.038544 -0.006251 0.013444
# 5 0.003457 -0.000027 -0.001760 -0.006251 0.034117 -0.003151
# 6 -0.002434 -0.002027 -0.000590 0.013444 -0.003151 0.028108
#
#
# Mechanical properties :
#
#
# Convention : Reuss Voigt Hill
#
# Bulk Modulus (GPa) = 36.39492 45.12568 40.76030
# Shear Modulus (GPa) = 33.68508 42.39629 38.04069
#
# Velocity S-wave (km/s) = 3.66777 4.11478 3.89769
# Velocity P-wave (km/s) = 5.69837 6.37155 6.04434
#
# Compressibility (1/GPa) = 0.02747636
#
# Stress axis : x y z
#
# Youngs Moduli (GPa) = 101.95007 161.56733 58.84653
#
# Poissons Ratio (x) = 0.07137 0.11726
# Poissons Ratio (y) = 0.04503 0.01902
# Poissons Ratio (z) = 0.20315 0.05222
#
# Static dielectric constant tensor:
#      x y z
#    x 2.073990 -0.061340 0.165690 
#    y -0.061340 2.095080 -0.123220 
#    z 0.165690 -0.123220 2.283100 
# 
# From -- ./inp_files/307591.got.cif
#   From: 2010.05.17/outbox.cif.g08.bks.cpg/sg2_154_cif.got.tgz:307591.got - 2010.06.03 11:33:40.
