data_PCOD9105239
_publ_section_title
;
Structure prediction by ZEFSAII (Michael W. Deem and Ramdas Pophale) SiO2 
 PCOD9105239
Probable space group: P -1
;
_chemical_formula_sum "Si O2"
_cell_formula_units_Z 16
_cell_length_a 27.733965
_cell_length_b 13.213192
_cell_length_c 8.968840
_cell_angle_alpha 121.284862
_cell_angle_beta 46.797589
_cell_angle_gamma 156.290307
_cell_volume 896.218230
_symmetry_space_group_name_H-M "P -1"
_symmetry_group_IT_number 2
_symmetry_cell_setting 'triclinic'
loop_
_space_group_symop_operation_xyz
x,y,z
-x,-y,-z
loop_
_atom_site_type_symbol
_atom_site_label
_atom_site_fract_x
_atom_site_fract_y
_atom_site_fract_z
Si Si1 0.571198 0.668692 0.831371
Si Si2 0.592426 0.235822 0.091998
Si Si3 0.093849 0.605160 0.594936
Si Si4 0.819499 0.982734 0.342018
Si Si5 0.139842 0.490497 0.142899
Si Si6 0.759120 0.142857 0.985748
Si Si7 0.632280 0.964707 0.440626
Si Si8 0.604253 0.517304 0.215648
O O1 0.450860 0.512654 0.842231
O O2 0.692700 0.777445 0.581275
O O3 0.662029 0.929481 0.895823
O O4 0.500000 0.500000 0.000000
O O5 0.478073 0.100128 0.357607
O O6 0.634452 0.425504 0.063037
O O7 0.737697 0.404926 0.979093
O O8 0.500000 0.000000 0.000000
O O9 0.139358 0.812579 0.612648
O O10 0.113609 0.547212 0.371258
O O11 0.918835 0.330711 0.802718
O O12 0.210920 0.759144 0.594173
O O13 0.975791 0.175074 0.208077
O O14 0.743727 0.804529 0.220464
O O15 0.201553 0.661082 0.999174
O O16 0.669802 0.992574 0.214405
O O17 0.539185 0.716458 0.543723
#
# Coordination Sequence:
#
# PCOD9105239 Si02
#       8
#     2   2   2   2   2   2   2   2
#     4  12  22  35  61  86 118 150 186 246 303 346
#     4  10  20  39  64  80 112 166 198 231 282 348
#     4  11  19  37  60  84 123 153 189 236 301 349
#     4  11  20  37  58  86 120 152 191 240 293 346
#     4  11  20  38  62  85 116 164 196 228 288 345
#     4  11  21  35  55  97 118 143 194 247 292 340
#     4  10  21  36  59  87 117 150 193 239 288 340
#     4  10  23  39  57  85 116 155 197 235 290 351
#
# _framework density 17.852795
#
# number of rings (size 3 to 8) (size 9 to 14) (size 15 to 20)
#    0.750    0.500    5.000    3.000    1.750    1.000 
#    0.000    0.000    0.000    0.750    0.000    0.000 
#    0.000    0.000    0.000    0.000    0.000    0.000 
#
# Total GULP energy -89247.344291 kJ/mol
# GULP energy per Si atom -5577.959018 kJ/mol
# Density = 1.781216 g / cm^3
# Si number density = 17.852795 Si / 1000 Ang^3
#
#
#
# Elastic Constant Matrix: (Units=GPa)
#
#
# Indices 1 2 3 4 5 6 
#
# 1 110.7321 47.9287 54.9482 -11.2147 -11.4970 26.7511
# 2 47.9287 117.2859 36.2257 3.6294 -6.9926 34.5242
# 3 54.9482 36.2257 93.6440 -2.5199 -3.3739 14.1728
# 4 -11.2147 3.6294 -2.5199 23.3466 7.1662 -1.8257
# 5 -11.4970 -6.9926 -3.3739 7.1662 34.1847 -5.3012
# 6 26.7511 34.5242 14.1728 -1.8257 -5.3012 36.0424
#
#
#
# Elastic Compliance Matrix: (Units=1/GPa)
#
#
# Indices 1 2 3 4 5 6 
#
# 1 0.016043 -0.002657 -0.007253 0.006291 0.001901 -0.005912
# 2 -0.002657 0.013500 -0.002213 -0.004736 0.001065 -0.010172
# 3 -0.007253 -0.002213 0.015547 -0.001078 -0.000946 0.001196
# 4 0.006291 -0.004736 -0.001078 0.049377 -0.009085 0.001456
# 5 0.001901 0.001065 -0.000946 -0.009085 0.032266 0.002227
# 6 -0.005912 -0.010172 0.001196 0.001456 0.002227 0.041808
#
#
# Mechanical properties :
#
#
# Convention : Reuss Voigt Hill
#
# Bulk Modulus (GPa) = 47.97680 66.65191 57.31435
# Shear Modulus (GPa) = 25.03336 30.88535 27.95936
#
# Velocity S-wave (km/s) = 3.74867 4.16384 3.96170
# Velocity P-wave (km/s) = 6.75786 7.78023 7.28699
#
# Compressibility (1/GPa) = 0.02084341
#
# Stress axis : x y z
#
# Youngs Moduli (GPa) = 62.33403 74.07602 64.32218
#
# Poissons Ratio (x) = 0.19679 0.46654
# Poissons Ratio (y) = 0.16560 0.14234
# Poissons Ratio (z) = 0.45212 0.16393
#
# Static dielectric constant tensor:
#      x y z
#    x 1.612560 -0.014640 -0.006860 
#    y -0.014640 1.650150 -0.009620 
#    z -0.006860 -0.009620 1.610530 
# 
# From -- ./inp_files/358787.got.cif
#   From: 2010.05.17/outbox.cif.g08.bks.cpg/sg2_180_cif.got.tgz:358787.got - 2010.06.03 11:33:40.
