data_PCOD9105256
_publ_section_title
;
Structure prediction by ZEFSAII (Michael W. Deem and Ramdas Pophale) SiO2 
 PCOD9105256
Probable space group: P -1
;
_chemical_formula_sum "Si O2"
_cell_formula_units_Z 16
_cell_length_a 11.734205
_cell_length_b 7.411095
_cell_length_c 11.989634
_cell_angle_alpha 57.707291
_cell_angle_beta 123.832333
_cell_angle_gamma 91.433617
_cell_volume 674.796834
_symmetry_space_group_name_H-M "P -1"
_symmetry_group_IT_number 2
_symmetry_cell_setting 'triclinic'
loop_
_space_group_symop_operation_xyz
x,y,z
-x,-y,-z
loop_
_atom_site_type_symbol
_atom_site_label
_atom_site_fract_x
_atom_site_fract_y
_atom_site_fract_z
Si Si1 0.073127 0.269885 0.539512
Si Si2 0.186567 0.524043 0.361114
Si Si3 0.120488 0.610692 0.043520
Si Si4 0.080181 0.953647 0.331843
Si Si5 0.585610 0.075847 0.119195
Si Si6 0.625452 0.102879 0.536932
Si Si7 0.472915 0.822500 0.300277
Si Si8 0.421752 0.541046 0.162971
O O1 0.092719 0.370746 0.397881
O O2 0.000000 0.500000 0.500000
O O3 0.970019 0.127795 0.554651
O O4 0.242273 0.105025 0.721774
O O5 0.145441 0.727998 0.362413
O O6 0.362067 0.364016 0.517405
O O7 0.144085 0.624271 0.182874
O O8 0.279942 0.473058 0.119179
O O9 0.058899 0.857800 0.867444
O O10 0.000000 0.500000 0.000000
O O11 0.213109 0.045093 0.374054
O O12 0.504519 0.042409 0.198553
O O13 0.575123 0.327280 0.992552
O O14 0.500000 0.000000 0.000000
O O15 0.627602 0.145187 0.656627
O O16 0.566659 0.325907 0.350832
O O17 0.500000 0.000000 0.500000
O O18 0.408056 0.723756 0.195619
#
# Coordination Sequence:
#
# PCOD9105256 Si02
#       8
#     2   2   2   2   2   2   2   2
#     4   9  19  36  59  89 118 145 190 246 293 338
#     4  10  20  39  64  87 115 151 198 243 286 352
#     4  12  24  38  56  87 125 155 191 243 295 344
#     4  11  22  39  59  90 119 151 197 243 294 344
#     4   9  19  35  62  89 112 148 194 244 287 344
#     4  12  24  39  59  86 120 158 198 241 289 349
#     4  10  20  39  65  89 109 153 203 239 287 347
#     4  11  20  40  64  85 116 155 200 237 288 352
#
# _framework density 23.710843000000001
#
# number of rings (size 3 to 8) (size 9 to 14) (size 15 to 20)
#    0.000    1.500    3.750    2.250    1.750    0.000 
#    2.250    2.500    0.000    0.000    0.000    0.000 
#    0.000    0.000    0.000    0.000    0.000    0.000 
#
# Total GULP energy -89444.353339 kJ/mol
# GULP energy per Si atom -5590.272084 kJ/mol
# Density = 2.365688 g / cm^3
# Si number density = 23.710843 Si / 1000 Ang^3
#
#
#
# Elastic Constant Matrix: (Units=GPa)
#
#
# Indices 1 2 3 4 5 6 
#
# 1 130.1670 21.2754 32.9916 -3.9119 -13.7553 11.3933
# 2 21.2754 41.1054 13.7777 4.4804 -15.4472 2.0944
# 3 32.9916 13.7777 99.0333 -24.3333 -12.3658 -4.8059
# 4 -3.9119 4.4804 -24.3333 27.0496 9.7779 -0.7469
# 5 -13.7553 -15.4472 -12.3658 9.7779 41.1648 -3.0503
# 6 11.3933 2.0944 -4.8059 -0.7469 -3.0503 40.8813
#
#
#
# Elastic Compliance Matrix: (Units=1/GPa)
#
#
# Indices 1 2 3 4 5 6 
#
# 1 0.009257 -0.003083 -0.002964 -0.001310 0.001157 -0.002708
# 2 -0.003083 0.035398 -0.006396 -0.017283 0.014366 -0.000950
# 3 -0.002964 -0.006396 0.015694 0.015614 -0.002154 0.003123
# 4 -0.001310 -0.017283 0.015614 0.059616 -0.016173 0.002968
# 5 0.001157 0.014366 -0.002154 -0.016173 0.033330 0.000880
# 6 -0.002708 -0.000950 0.003123 0.002968 0.000880 0.025751
#
#
# Mechanical properties :
#
#
# Convention : Reuss Voigt Hill
#
# Bulk Modulus (GPa) = 28.19794 45.15500 36.67647
# Shear Modulus (GPa) = 23.17448 35.30323 29.23885
#
# Velocity S-wave (km/s) = 3.12970 3.86282 3.51542
# Velocity P-wave (km/s) = 4.99782 6.24344 5.65503
#
# Compressibility (1/GPa) = 0.03546358
#
# Stress axis : x y z
#
# Youngs Moduli (GPa) = 108.02159 28.25004 63.71888
#
# Poissons Ratio (x) = 0.08708 0.18886
# Poissons Ratio (y) = 0.33298 0.40758
# Poissons Ratio (z) = 0.32017 0.18070
#
# Static dielectric constant tensor:
#      x y z
#    x 1.879540 0.076000 -0.022840 
#    y 0.076000 2.033570 -0.000560 
#    z -0.022840 -0.000560 1.858440 
# 
# From -- ./inp_files/418977.got.cif
#   From: 2010.05.17/outbox.cif.g08.bks.cpg/sg2_210_cif.got.tgz:418977.got - 2010.06.03 11:33:40.
