data_PCOD9105084
_publ_section_title
;
Structure prediction by ZEFSAII (Michael W. Deem and Ramdas Pophale) SiO2 
 PCOD9105084
Probable space group: P -1
;
_chemical_formula_sum "Si O2"
_cell_formula_units_Z 16
_cell_length_a 8.545933
_cell_length_b 5.548603
_cell_length_c 18.598753
_cell_angle_alpha 113.515057
_cell_angle_beta 71.462962
_cell_angle_gamma 75.962639
_cell_volume 694.067189
_symmetry_space_group_name_H-M "P -1"
_symmetry_group_IT_number 2
_symmetry_cell_setting 'triclinic'
loop_
_space_group_symop_operation_xyz
x,y,z
-x,-y,-z
loop_
_atom_site_type_symbol
_atom_site_label
_atom_site_fract_x
_atom_site_fract_y
_atom_site_fract_z
Si Si1 0.631177 0.808211 0.134617
Si Si2 0.774948 0.859102 0.972693
Si Si3 0.116719 0.304354 0.646936
Si Si4 0.481801 0.414452 0.259057
Si Si5 0.715055 0.402060 0.452317
Si Si6 0.570162 0.544745 0.898806
Si Si7 0.154026 0.678987 0.425119
Si Si8 0.138880 0.599821 0.821205
O O1 0.492148 0.705534 0.102471
O O2 0.765001 0.590978 0.146235
O O3 0.497892 0.093111 0.231071
O O4 0.760732 0.843021 0.058815
O O5 0.735774 0.595227 0.913978
O O6 0.955686 0.849237 0.908955
O O7 0.606602 0.164682 0.020331
O O8 0.242160 0.424690 0.597827
O O9 0.085492 0.438585 0.746451
O O10 0.934752 0.427407 0.638914
O O11 0.194140 0.953729 0.604250
O O12 0.420322 0.477964 0.192406
O O13 0.343959 0.651131 0.360177
O O14 0.692208 0.351837 0.229268
O O15 0.500000 0.500000 0.500000
O O16 0.793083 0.476109 0.524025
O O17 0.000000 0.000000 0.500000
#
# Coordination Sequence:
#
# PCOD9105084 Si02
#       8
#     2   2   2   2   2   2   2   2
#     4  10  22  38  60  96 127 174 222 278 342 405
#     4  10  20  39  63  90 132 171 226 274 338 404
#     4  11  25  45  66 105 136 179 231 284 351 416
#     4  10  22  42  62  92 133 170 227 281 348 405
#     4  11  24  45  73 101 137 177 228 289 356 418
#     4   9  20  39  63  92 127 173 221 279 334 406
#     4  10  23  46  71  97 133 178 231 286 351 419
#     4  11  24  38  63  93 135 177 225 279 345 407
#
# _framework density 23.052526
#
# number of rings (size 3 to 8) (size 9 to 14) (size 15 to 20)
#    0.000    1.750    0.000    3.000    3.500    6.500 
#   15.750    0.000    0.000    0.000    0.000    0.000 
#    0.000    0.000    0.000    0.000    0.000    0.000 
#
# Total GULP energy -89245.968654 kJ/mol
# GULP energy per Si atom -5577.873041 kJ/mol
# Density = 2.300006 g / cm^3
# Si number density = 23.052526 Si / 1000 Ang^3
#
#
#
# Elastic Constant Matrix: (Units=GPa)
#
#
# Indices 1 2 3 4 5 6 
#
# 1 90.4327 7.3502 35.8970 1.8490 -2.9539 3.8686
# 2 7.3502 44.7258 12.4935 2.5595 -4.4513 5.4380
# 3 35.8970 12.4935 111.4646 5.2887 -13.6636 0.2996
# 4 1.8490 2.5595 5.2887 19.7057 -4.6979 4.4366
# 5 -2.9539 -4.4513 -13.6636 -4.6979 51.2652 -9.3810
# 6 3.8686 5.4380 0.2996 4.4366 -9.3810 25.8748
#
#
#
# Elastic Compliance Matrix: (Units=1/GPa)
#
#
# Indices 1 2 3 4 5 6 
#
# 1 0.012823 -0.000796 -0.004144 0.000284 -0.000781 -0.002034
# 2 -0.000796 0.023789 -0.002278 -0.001285 0.000478 -0.004460
# 3 -0.004144 -0.002278 0.010990 -0.002139 0.002722 0.002325
# 4 0.000284 -0.001285 -0.002139 0.053928 0.002818 -0.007973
# 5 -0.000781 0.000478 0.002722 0.002818 0.021845 0.007421
# 6 -0.002034 -0.004460 0.002325 -0.007973 0.007421 0.043920
#
#
# Mechanical properties :
#
#
# Convention : Reuss Voigt Hill
#
# Bulk Modulus (GPa) = 30.15220 39.78939 34.97080
# Shear Modulus (GPa) = 25.93513 32.09463 29.01488
#
# Velocity S-wave (km/s) = 3.35781 3.73532 3.55158
# Velocity P-wave (km/s) = 5.30484 5.99177 5.65874
#
# Compressibility (1/GPa) = 0.03316508
#
# Stress axis : x y z
#
# Youngs Moduli (GPa) = 77.98237 42.03574 90.98858
#
# Poissons Ratio (x) = 0.03348 0.37708
# Poissons Ratio (y) = 0.06211 0.20730
# Poissons Ratio (z) = 0.32318 0.09577
#
# Static dielectric constant tensor:
#      x y z
#    x 1.975920 0.079140 -0.014000 
#    y 0.079140 1.918610 0.000660 
#    z -0.014000 0.000660 1.906280 
# 
# From -- ./inp_files/38988.got.cif
#   From: 2010.05.17/outbox.cif.g08.bks.cpg/sg2_20_cif.got.tgz:38988.got - 2010.06.03 11:33:40.
