data_PCOD9105254
_publ_section_title
;
Structure prediction by ZEFSAII (Michael W. Deem and Ramdas Pophale) SiO2 
 PCOD9105254
Probable space group: P -1
;
_chemical_formula_sum "Si O2"
_cell_formula_units_Z 14
_cell_length_a 9.548990
_cell_length_b 16.766728
_cell_length_c 14.648628
_cell_angle_alpha 25.511771
_cell_angle_beta 139.316682
_cell_angle_gamma 122.128215
_cell_volume 552.768043
_symmetry_space_group_name_H-M "P -1"
_symmetry_group_IT_number 2
_symmetry_cell_setting 'triclinic'
loop_
_space_group_symop_operation_xyz
x,y,z
-x,-y,-z
loop_
_atom_site_type_symbol
_atom_site_label
_atom_site_fract_x
_atom_site_fract_y
_atom_site_fract_z
Si Si1 0.129466 0.256676 0.772178
Si Si2 0.374024 0.754294 0.257808
Si Si3 0.943660 0.941605 0.382380
Si Si4 0.858498 0.509549 0.628363
Si Si5 0.397081 0.678965 0.542198
Si Si6 0.302093 0.455121 0.999320
Si Si7 0.622147 0.149632 0.192764
O O1 0.206509 0.284571 0.679469
O O2 0.000000 0.500000 0.500000
O O3 0.899178 0.221077 0.685447
O O4 0.375747 0.135074 0.083842
O O5 0.659093 0.589889 0.530187
O O6 0.214314 0.639251 0.309411
O O7 0.407021 0.798641 0.332526
O O8 0.219051 0.926445 0.922828
O O9 0.067760 0.686784 0.684005
O O10 0.189535 0.951542 0.522825
O O11 0.775273 0.031586 0.297513
O O12 0.153091 0.386988 0.929411
O O13 0.545019 0.692833 0.686749
O O14 0.530936 0.410653 0.872397
O O15 0.500000 0.500000 0.000000
#
# Coordination Sequence:
#
# PCOD9105254 Si02
#       7
#     2   2   2   2   2   2   2
#     4  10  16  33  62  89 109 165 207 232 275 376
#     4  11  21  38  61  95 119 152 202 257 297 340
#     4  10  21  36  60  91 123 150 204 257 292 343
#     4  11  21  37  65  87 124 157 202 241 300 365
#     4  10  20  37  65  85 123 159 201 240 299 362
#     4  11  24  41  62  87 120 167 202 238 301 376
#     4   9  17  35  59  89 114 160 206 235 281 364
#
# _framework density 25.327076999999999
#
# number of rings (size 3 to 8) (size 9 to 14) (size 15 to 20)
#    0.000    1.714    5.714    0.857    0.000    1.143 
#    0.000    3.571    0.000    0.000    0.000    0.000 
#    0.000    0.000    0.000    0.000    0.000    0.000 
#
# Total GULP energy -78271.886484 kJ/mol
# GULP energy per Si atom -5590.849035 kJ/mol
# Density = 2.526943 g / cm^3
# Si number density = 25.327077 Si / 1000 Ang^3
#
#
#
# Elastic Constant Matrix: (Units=GPa)
#
#
# Indices 1 2 3 4 5 6 
#
# 1 68.5492 17.6655 26.8165 9.9178 -10.9904 -8.2904
# 2 17.6655 97.5355 46.4221 38.5913 -2.5973 -0.2977
# 3 26.8165 46.4221 111.0241 33.3094 -6.2376 6.7448
# 4 9.9178 38.5913 33.3094 65.0246 -1.1712 -2.1004
# 5 -10.9904 -2.5973 -6.2376 -1.1712 45.9258 13.0765
# 6 -8.2904 -0.2977 6.7448 -2.1004 13.0765 27.5123
#
#
#
# Elastic Compliance Matrix: (Units=1/GPa)
#
#
# Indices 1 2 3 4 5 6 
#
# 1 0.017392 -0.001347 -0.003954 0.000379 0.002066 0.005243
# 2 -0.001347 0.015028 -0.003999 -0.006658 -0.000290 0.000367
# 3 -0.003954 -0.003999 0.013310 -0.003991 0.002199 -0.005847
# 4 0.000379 -0.006658 -0.003991 0.021400 -0.001200 0.003225
# 5 0.002066 -0.000290 0.002199 -0.001200 0.026049 -0.012392
# 6 0.005243 0.000367 -0.005847 0.003225 -0.012392 0.045501
#
#
# Mechanical properties :
#
#
# Convention : Reuss Voigt Hill
#
# Bulk Modulus (GPa) = 36.85852 50.99078 43.92465
# Shear Modulus (GPa) = 30.06198 40.10618 35.08408
#
# Velocity S-wave (km/s) = 3.44895 3.98368 3.72592
# Velocity P-wave (km/s) = 5.51770 6.42932 5.99087
#
# Compressibility (1/GPa) = 0.02713077
#
# Stress axis : x y z
#
# Youngs Moduli (GPa) = 57.49638 66.54301 75.12961
#
# Poissons Ratio (x) = 0.08964 0.29704
# Poissons Ratio (y) = 0.07746 0.30045
# Poissons Ratio (z) = 0.22732 0.26611
#
# Static dielectric constant tensor:
#      x y z
#    x 1.980040 -0.019340 -0.007710 
#    y -0.019340 2.074610 -0.066880 
#    z -0.007710 -0.066880 2.038280 
# 
# From -- ./inp_files/506583.got.cif
#   From: 2010.05.17/outbox.cif.g08.bks.cpg/sg2_254_cif.got.tgz:506583.got - 2010.06.03 11:33:40.
