data_PCOD9105559
_publ_section_title
;
Structure prediction by ZEFSAII (Michael W. Deem and Ramdas Pophale) SiO2 
 PCOD9105559
Probable space group: P -1
;
_chemical_formula_sum "Si O2"
_cell_formula_units_Z 14
_cell_length_a 8.864710
_cell_length_b 15.351935
_cell_length_c 14.147085
_cell_angle_alpha 30.713517
_cell_angle_beta 74.926344
_cell_angle_gamma 55.701417
_cell_volume 687.924340
_symmetry_space_group_name_H-M "P -1"
_symmetry_group_IT_number 2
_symmetry_cell_setting 'triclinic'
loop_
_space_group_symop_operation_xyz
x,y,z
-x,-y,-z
loop_
_atom_site_type_symbol
_atom_site_label
_atom_site_fract_x
_atom_site_fract_y
_atom_site_fract_z
Si Si1 0.594732 0.684668 0.311370
Si Si2 0.415295 0.397983 0.162767
Si Si3 0.792378 0.198184 0.411255
Si Si4 0.362505 0.127449 0.051235
Si Si5 0.864569 0.165326 0.779648
Si Si6 0.762894 0.618822 0.967863
Si Si7 0.019209 0.113561 0.145349
O O1 0.642695 0.715380 0.169293
O O2 0.786152 0.417794 0.561566
O O3 0.365095 0.758817 0.269721
O O4 0.559324 0.862575 0.227512
O O5 0.588878 0.246704 0.358021
O O6 0.500000 0.500000 0.000000
O O7 0.381837 0.280995 0.197173
O O8 0.188163 0.634832 0.016789
O O9 0.767821 0.421028 0.194166
O O10 0.846089 0.085461 0.610335
O O11 0.000000 0.000000 0.500000
O O12 0.336255 0.198744 0.099077
O O13 0.157437 0.162188 0.034290
O O14 0.016703 0.003184 0.817939
O O15 0.000000 0.000000 0.000000
O O16 0.000000 0.500000 0.000000
#
# Coordination Sequence:
#
# PCOD9105559 Si02
#       7
#     2   2   2   2   2   2   2
#     4   9  21  42  64  90 125 170 207 267 323 372
#     4  10  21  37  62  87 125 166 213 254 313 379
#     4  11  21  39  63  86 125 172 217 257 310 384
#     4  10  20  39  65  88 132 171 207 264 327 375
#     4  10  22  40  67  94 120 160 224 264 317 386
#     4  11  20  37  63  91 129 169 207 269 320 377
#     4  11  21  39  62  90 125 168 210 267 316 379
#
# _framework density 20.351075000000002
#
# number of rings (size 3 to 8) (size 9 to 14) (size 15 to 20)
#    0.000    1.714    4.286    0.857    0.000    5.714 
#    0.000   10.714    6.286    0.000    0.000    0.000 
#    0.000    0.000    0.000    0.000    0.000    0.000 
#
# Total GULP energy -77988.320543 kJ/mol
# GULP energy per Si atom -5570.594324 kJ/mol
# Density = 2.030476 g / cm^3
# Si number density = 20.351075 Si / 1000 Ang^3
#
#
#
# Elastic Constant Matrix: (Units=GPa)
#
#
# Indices 1 2 3 4 5 6 
#
# 1 40.5245 20.2473 11.1980 -5.3358 3.8706 12.6175
# 2 20.2473 140.6981 43.6927 -10.1859 8.0648 28.8505
# 3 11.1980 43.6927 97.3828 -7.3990 8.3462 28.7033
# 4 -5.3358 -10.1859 -7.3990 23.7465 5.1697 -2.1514
# 5 3.8706 8.0648 8.3462 5.1697 25.2515 12.3533
# 6 12.6175 28.8505 28.7033 -2.1514 12.3533 42.0122
#
#
#
# Elastic Compliance Matrix: (Units=1/GPa)
#
#
# Indices 1 2 3 4 5 6 
#
# 1 0.028646 -0.002410 0.000192 0.005253 -0.001668 -0.006320
# 2 -0.002410 0.009183 -0.002571 0.002371 -0.000452 -0.003571
# 3 0.000192 -0.002571 0.013853 0.002744 -0.000728 -0.007402
# 4 0.005253 0.002371 0.002744 0.048075 -0.012884 0.001169
# 5 -0.001668 -0.000452 -0.000728 -0.012884 0.049714 -0.013969
# 6 -0.006320 -0.003571 -0.007402 0.001169 -0.013969 0.037377
#
#
# Mechanical properties :
#
#
# Convention : Reuss Voigt Hill
#
# Bulk Modulus (GPa) = 23.75118 47.65349 35.70233
# Shear Modulus (GPa) = 23.75740 31.76651 27.76195
#
# Velocity S-wave (km/s) = 3.42040 3.95514 3.69745
# Velocity P-wave (km/s) = 5.22445 6.65763 5.98410
#
# Compressibility (1/GPa) = 0.04210317
#
# Stress axis : x y z
#
# Youngs Moduli (GPa) = 34.90848 108.90220 72.18683
#
# Poissons Ratio (x) = 0.26248 -0.01388
# Poissons Ratio (y) = 0.08414 0.18562
# Poissons Ratio (z) = -0.00671 0.28003
#
# Static dielectric constant tensor:
#      x y z
#    x 1.756270 0.049960 -0.033430 
#    y 0.049960 1.837210 0.002720 
#    z -0.033430 0.002720 1.706510 
# 
# From -- ./inp_files/503615.got.cif
#   From: 2010.05.17/outbox.cif.g08.bks.cpg/sg2_252_cif.got.tgz:503615.got - 2010.06.03 11:33:40.
