data_PCOD9105730
_publ_section_title
;
Structure prediction by ZEFSAII (Michael W. Deem and Ramdas Pophale) SiO2 
 PCOD9105730
Probable space group: P -1
;
_chemical_formula_sum "Si O2"
_cell_formula_units_Z 16
_cell_length_a 15.546058
_cell_length_b 8.418090
_cell_length_c 8.414473
_cell_angle_alpha 57.952499
_cell_angle_beta 75.548924
_cell_angle_gamma 112.202238
_cell_volume 707.932188
_symmetry_space_group_name_H-M "P -1"
_symmetry_group_IT_number 2
_symmetry_cell_setting 'triclinic'
loop_
_space_group_symop_operation_xyz
x,y,z
-x,-y,-z
loop_
_atom_site_type_symbol
_atom_site_label
_atom_site_fract_x
_atom_site_fract_y
_atom_site_fract_z
Si Si1 0.870282 0.574881 0.603482
Si Si2 0.348801 0.518944 0.387015
Si Si3 0.932046 0.943372 0.900245
Si Si4 0.327485 0.044184 0.676349
Si Si5 0.236550 0.939551 0.120731
Si Si6 0.552140 0.687722 0.022512
Si Si7 0.419910 0.651184 0.639880
Si Si8 0.798138 0.455066 0.062950
O O1 0.764891 0.535256 0.587692
O O2 0.859734 0.346287 0.670256
O O3 0.981414 0.839275 0.373193
O O4 0.845409 0.543838 0.818023
O O5 0.328075 0.266788 0.529688
O O6 0.453049 0.692240 0.126757
O O7 0.382463 0.629866 0.487675
O O8 0.825318 0.945466 0.950626
O O9 0.884302 0.678457 0.015147
O O10 0.000000 0.000000 0.000000
O O11 0.448675 0.122338 0.522442
O O12 0.227941 0.798516 0.766481
O O13 0.308876 0.983723 0.905123
O O14 0.322654 0.057337 0.169510
O O15 0.573181 0.561745 0.217448
O O16 0.500000 0.500000 0.000000
O O17 0.324541 0.607452 0.822647
#
# Coordination Sequence:
#
# PCOD9105730 Si02
#       8
#     2   2   2   2   2   2   2   2
#     4  11  26  43  66  98 130 175 224 272 327 385
#     4  11  21  41  65  96 137 177 215 261 330 393
#     4  12  25  48  71  91 127 177 227 274 332 381
#     4  10  20  39  65  96 130 171 215 269 325 390
#     4  11  22  45  68  96 135 171 219 272 329 391
#     4  11  21  38  66 100 136 178 210 268 331 394
#     4  11  19  40  65  95 139 174 214 263 328 393
#     4  11  23  41  65  96 129 168 217 277 325 387
#
# _framework density 22.601032
#
# number of rings (size 3 to 8) (size 9 to 14) (size 15 to 20)
#    0.000    1.000    3.750    4.125    0.000    0.500 
#   11.250    6.875    0.000    0.000    0.000    0.000 
#    0.000    0.000    0.000    0.000    0.000    0.000 
#
# Total GULP energy -89383.336098 kJ/mol
# GULP energy per Si atom -5586.458506 kJ/mol
# Density = 2.254959 g / cm^3
# Si number density = 22.601032 Si / 1000 Ang^3
#
#
#
# Elastic Constant Matrix: (Units=GPa)
#
#
# Indices 1 2 3 4 5 6 
#
# 1 55.1147 18.5872 5.5527 -3.0101 -7.4883 10.8272
# 2 18.5872 139.3893 39.5381 -33.8747 -2.2164 17.5035
# 3 5.5527 39.5381 83.5112 -13.8011 -21.7374 5.8270
# 4 -3.0101 -33.8747 -13.8011 37.7188 -5.6180 -1.8931
# 5 -7.4883 -2.2164 -21.7374 -5.6180 28.6234 -4.3088
# 6 10.8272 17.5035 5.8270 -1.8931 -4.3088 27.6676
#
#
#
# Elastic Compliance Matrix: (Units=1/GPa)
#
#
# Indices 1 2 3 4 5 6 
#
# 1 0.020752 -0.002182 0.001751 0.000900 0.005842 -0.006138
# 2 -0.002182 0.011095 -0.003979 0.007784 -0.001974 -0.005102
# 3 0.001751 -0.003979 0.018704 0.005769 0.015595 0.000716
# 4 0.000900 0.007784 0.005769 0.037409 0.012257 -0.002023
# 5 0.005842 -0.001974 0.015595 0.012257 0.051238 0.004496
# 6 -0.006138 -0.005102 0.000716 -0.002023 0.004496 0.042184
#
#
# Mechanical properties :
#
#
# Convention : Reuss Voigt Hill
#
# Bulk Modulus (GPa) = 23.96283 45.04123 34.50203
# Shear Modulus (GPa) = 24.49635 33.09112 28.79373
#
# Velocity S-wave (km/s) = 3.29577 3.83056 3.57319
# Velocity P-wave (km/s) = 5.01083 6.28780 5.68528
#
# Compressibility (1/GPa) = 0.04173129
#
# Stress axis : x y z
#
# Youngs Moduli (GPa) = 48.18803 90.13349 53.46327
#
# Poissons Ratio (x) = 0.19663 -0.09360
# Poissons Ratio (y) = 0.10512 0.21273
# Poissons Ratio (z) = -0.08436 0.35865
#
# Static dielectric constant tensor:
#      x y z
#    x 1.811420 -0.029130 -0.010600 
#    y -0.029130 1.899060 -0.045430 
#    z -0.010600 -0.045430 1.894120 
# 
# From -- ./inp_files/245344.got.cif
#   From: 2010.05.17/outbox.cif.g08.bks.cpg/sg2_123_cif.got.tgz:245344.got - 2010.06.03 11:33:40.
