data_PCOD9105294
_publ_section_title
;
Structure prediction by ZEFSAII (Michael W. Deem and Ramdas Pophale) SiO2 
 PCOD9105294
Probable space group: P -1
;
_chemical_formula_sum "Si O2"
_cell_formula_units_Z 12
_cell_length_a 7.543192
_cell_length_b 8.141383
_cell_length_c 9.485635
_cell_angle_alpha 69.449463
_cell_angle_beta 109.419929
_cell_angle_gamma 122.286623
_cell_volume 453.325356
_symmetry_space_group_name_H-M "P -1"
_symmetry_group_IT_number 2
_symmetry_cell_setting 'triclinic'
loop_
_space_group_symop_operation_xyz
x,y,z
-x,-y,-z
loop_
_atom_site_type_symbol
_atom_site_label
_atom_site_fract_x
_atom_site_fract_y
_atom_site_fract_z
Si Si1 0.269374 0.402518 0.401300
Si Si2 0.742881 0.411532 0.951427
Si Si3 0.156942 0.281502 0.909483
Si Si4 0.782484 0.043956 0.086503
Si Si5 0.200728 0.735377 0.393661
Si Si6 0.708001 0.980458 0.409624
O O1 0.500000 0.500000 0.500000
O O2 0.159108 0.509144 0.430588
O O3 0.209725 0.172659 0.468233
O O4 0.293500 0.482623 0.224781
O O5 0.707790 0.493580 0.066682
O O6 0.675577 0.181179 0.974509
O O7 0.000000 0.500000 0.000000
O O8 0.979981 0.254472 0.754307
O O9 0.295943 0.181810 0.918200
O O10 0.018868 0.154703 0.045379
O O11 0.789988 0.050417 0.253834
O O12 0.447985 0.868042 0.366448
O O13 0.219364 0.838473 0.517503
#
# Coordination Sequence:
#
# PCOD9105294 Si02
#       6
#     2   2   2   2   2   2
#     4  10  21  40  63  89 126 168 202 249 315 371
#     4  10  20  39  64  88 126 165 202 253 313 367
#     4  10  22  39  66  88 126 165 203 251 317 365
#     4  10  22  40  62  95 120 161 211 257 300 367
#     4  10  21  42  63  87 127 168 200 251 317 365
#     4  10  24  39  64  93 124 160 212 257 300 367
#
# _framework density 26.471055
#
# number of rings (size 3 to 8) (size 9 to 14) (size 15 to 20)
#    0.000    2.000    3.333    0.000    7.000    2.667 
#    0.000    1.667    0.000    5.000    0.000    0.000 
#    0.000    0.000    0.000    0.000    0.000    0.000 
#
# Total GULP energy -67163.329635 kJ/mol
# GULP energy per Si atom -5596.944136 kJ/mol
# Density = 2.641081 g / cm^3
# Si number density = 26.471055 Si / 1000 Ang^3
#
#
#
# Elastic Constant Matrix: (Units=GPa)
#
#
# Indices 1 2 3 4 5 6 
#
# 1 132.2746 61.2146 52.2471 3.6302 12.3978 -38.2356
# 2 61.2146 179.0134 64.9976 21.0586 2.4632 -29.3449
# 3 52.2471 64.9976 193.9878 14.5721 7.1442 -21.2389
# 4 3.6302 21.0586 14.5721 54.4637 -7.2692 -4.5185
# 5 12.3978 2.4632 7.1442 -7.2692 51.1348 6.6596
# 6 -38.2356 -29.3449 -21.2389 -4.5185 6.6596 69.1020
#
#
#
# Elastic Compliance Matrix: (Units=1/GPa)
#
#
# Indices 1 2 3 4 5 6 
#
# 1 0.010951 -0.002420 -0.001548 0.000642 -0.002866 0.004874
# 2 -0.002420 0.007429 -0.001539 -0.002203 -0.000026 0.001201
# 3 -0.001548 -0.001539 0.006230 -0.001018 -0.000618 0.000398
# 4 0.000642 -0.002203 -0.001018 0.019839 0.002897 0.000125
# 5 -0.002866 -0.000026 -0.000618 0.002897 0.021225 -0.003643
# 6 0.004874 0.001201 0.000398 0.000125 -0.003643 0.018160
#
#
# Mechanical properties :
#
#
# Convention : Reuss Voigt Hill
#
# Bulk Modulus (GPa) = 73.54810 95.79935 84.67373
# Shear Modulus (GPa) = 50.31145 56.72788 53.51967
#
# Velocity S-wave (km/s) = 4.36434 4.63429 4.50134
# Velocity P-wave (km/s) = 7.29666 8.05632 7.68589
#
# Compressibility (1/GPa) = 0.01359654
#
# Stress axis : x y z
#
# Youngs Moduli (GPa) = 91.31378 134.60685 160.50359
#
# Poissons Ratio (x) = 0.32574 0.24841
# Poissons Ratio (y) = 0.22097 0.24709
# Poissons Ratio (z) = 0.14132 0.20722
#
# Static dielectric constant tensor:
#      x y z
#    x 2.133390 0.059170 -0.056980 
#    y 0.059170 2.301350 -0.040580 
#    z -0.056980 -0.040580 1.979840 
# 
# From -- ./inp_files/157504.got.cif
#   From: 2010.05.17/outbox.cif.g08.bks.cpg/sg2_79_cif.got.tgz:157504.got - 2010.06.03 11:33:40.
