data_PCOD9105264
_publ_section_title
;
Structure prediction by ZEFSAII (Michael W. Deem and Ramdas Pophale) SiO2 
 PCOD9105264
Probable space group: P -1
;
_chemical_formula_sum "Si O2"
_cell_formula_units_Z 16
_cell_length_a 9.710662
_cell_length_b 11.806303
_cell_length_c 13.552842
_cell_angle_alpha 130.562705
_cell_angle_beta 40.290549
_cell_angle_gamma 108.883516
_cell_volume 714.797728
_symmetry_space_group_name_H-M "P -1"
_symmetry_group_IT_number 2
_symmetry_cell_setting 'triclinic'
loop_
_space_group_symop_operation_xyz
x,y,z
-x,-y,-z
loop_
_atom_site_type_symbol
_atom_site_label
_atom_site_fract_x
_atom_site_fract_y
_atom_site_fract_z
Si Si1 0.603132 0.593753 0.751549
Si Si2 0.233510 0.902396 0.035445
Si Si3 0.985242 0.111509 0.663778
Si Si4 0.417044 0.139312 0.403386
Si Si5 0.298392 0.162287 0.027365
Si Si6 0.676079 0.461272 0.970993
Si Si7 0.145756 0.450694 0.610236
Si Si8 0.833095 0.233489 0.204532
O O1 0.805706 0.535016 0.525991
O O2 0.412877 0.733455 0.874724
O O3 0.677618 0.681898 0.851271
O O4 0.480301 0.481977 0.810350
O O5 0.078579 0.964829 0.249202
O O6 0.117041 0.866086 0.980185
O O7 0.327347 0.038401 0.030231
O O8 0.208492 0.151212 0.593533
O O9 0.796332 0.276724 0.828724
O O10 0.000000 0.000000 0.500000
O O11 0.287700 0.269343 0.463185
O O12 0.631821 0.188697 0.340513
O O13 0.513596 0.953234 0.213959
O O14 0.056208 0.197676 0.128121
O O15 0.894471 0.497968 0.826110
O O16 0.500000 0.500000 0.000000
O O17 0.242384 0.580833 0.675186
#
# Coordination Sequence:
#
# PCOD9105264 Si02
#       8
#     2   2   2   2   2   2   2   2
#     4  11  22  40  67  94 119 168 218 254 318 374
#     4  10  21  39  65  90 122 163 210 252 317 379
#     4  10  22  39  64  95 121 162 213 260 308 375
#     4  10  20  39  64  87 122 161 211 252 308 374
#     4  11  22  38  65  91 125 161 206 268 317 361
#     4  10  23  40  58  92 131 156 201 266 317 362
#     4  11  23  40  66  89 124 170 213 256 304 384
#     4  11  23  41  60  90 129 166 204 258 317 371
#
# _framework density 22.383953000000002
#
# number of rings (size 3 to 8) (size 9 to 14) (size 15 to 20)
#    0.000    1.500    2.500    4.500    3.500    2.000 
#    2.250    4.375    0.000    0.000    0.000    0.000 
#    0.000    0.000    0.000    0.000    0.000    0.000 
#
# Total GULP energy -89070.439657 kJ/mol
# GULP energy per Si atom -5566.902479 kJ/mol
# Density = 2.233301 g / cm^3
# Si number density = 22.383953 Si / 1000 Ang^3
#
#
#
# Elastic Constant Matrix: (Units=GPa)
#
#
# Indices 1 2 3 4 5 6 
#
# 1 91.2061 2.6721 22.9383 -4.8528 -20.8235 7.6635
# 2 2.6721 42.4492 16.8853 -13.8518 0.0306 -0.0252
# 3 22.9383 16.8853 63.8812 -10.3158 -12.0273 6.4252
# 4 -4.8528 -13.8518 -10.3158 37.6031 5.3518 2.8998
# 5 -20.8235 0.0306 -12.0273 5.3518 34.1173 2.1205
# 6 7.6635 -0.0252 6.4252 2.8998 2.1205 32.1431
#
#
#
# Elastic Compliance Matrix: (Units=1/GPa)
#
#
# Indices 1 2 3 4 5 6 
#
# 1 0.013745 0.000536 -0.003336 0.000248 0.007367 -0.003118
# 2 0.000536 0.029486 -0.007251 0.009422 -0.003780 0.000744
# 3 -0.003336 -0.007251 0.020447 0.002078 0.005090 -0.003821
# 4 0.000248 0.009422 0.002078 0.031452 -0.003869 -0.003049
# 5 0.007367 -0.003780 0.005090 -0.003869 0.036513 -0.004837
# 6 -0.003118 0.000744 -0.003821 -0.003049 -0.004837 0.033213
#
#
# Mechanical properties :
#
#
# Convention : Reuss Voigt Hill
#
# Bulk Modulus (GPa) = 22.94956 31.39199 27.17078
# Shear Modulus (GPa) = 25.06476 31.10876 28.08676
#
# Velocity S-wave (km/s) = 3.34992 3.73202 3.54612
# Velocity P-wave (km/s) = 5.02370 5.71186 5.37880
#
# Compressibility (1/GPa) = 0.04357382
#
# Stress axis : x y z
#
# Youngs Moduli (GPa) = 72.75471 33.91451 48.90742
#
# Poissons Ratio (x) = -0.01816 0.16317
# Poissons Ratio (y) = -0.03896 0.35463
# Poissons Ratio (z) = 0.24273 0.24592
#
# Static dielectric constant tensor:
#      x y z
#    x 1.830980 0.012240 -0.034120 
#    y 0.012240 1.857370 -0.037330 
#    z -0.034120 -0.037330 1.957160 
# 
# From -- ./inp_files/392793.got.cif
#   From: 2010.05.17/outbox.cif.g08.bks.cpg/sg2_197_cif.got.tgz:392793.got - 2010.06.03 11:33:40.
