data_PCOD9105604
_publ_section_title
;
Structure prediction by ZEFSAII (Michael W. Deem and Ramdas Pophale) SiO2 
 PCOD9105604
Probable space group: P -1
;
_chemical_formula_sum "Si O2"
_cell_formula_units_Z 12
_cell_length_a 8.716866
_cell_length_b 15.005537
_cell_length_c 8.278242
_cell_angle_alpha 49.806979
_cell_angle_beta 104.629578
_cell_angle_gamma 137.167631
_cell_volume 509.017792
_symmetry_space_group_name_H-M "P -1"
_symmetry_group_IT_number 2
_symmetry_cell_setting 'triclinic'
loop_
_space_group_symop_operation_xyz
x,y,z
-x,-y,-z
loop_
_atom_site_type_symbol
_atom_site_label
_atom_site_fract_x
_atom_site_fract_y
_atom_site_fract_z
Si Si1 0.543980 0.863893 0.763265
Si Si2 0.690180 0.545892 0.126238
Si Si3 0.554513 0.282903 0.661652
Si Si4 0.047066 0.545803 0.175540
Si Si5 0.205759 0.181032 0.950482
Si Si6 0.423615 0.884259 0.375308
O O1 0.579391 0.941775 0.509277
O O2 0.598283 0.989499 0.770899
O O3 0.262971 0.658723 0.964628
O O4 0.734681 0.868281 0.825744
O O5 0.561168 0.373042 0.404356
O O6 0.803543 0.699081 0.110405
O O7 0.913347 0.594743 0.054394
O O8 0.500000 0.500000 0.000000
O O9 0.799261 0.372928 0.711074
O O10 0.435493 0.294180 0.756750
O O11 0.453323 0.107030 0.756447
O O12 0.841680 0.328103 0.405414
O O13 0.000000 0.000000 0.000000
#
# Coordination Sequence:
#
# PCOD9105604 Si02
#       6
#     2   2   2   2   2   2
#     4  10  23  40  62  93 126 163 213 255 311 380
#     4  11  23  43  64  95 128 163 208 260 321 376
#     4  10  23  42  66  88 123 168 215 249 309 386
#     4  10  22  40  69  87 122 170 212 255 307 378
#     4  11  25  39  62  94 130 163 204 265 321 367
#     4  10  20  39  65  92 120 160 216 259 302 370
#
# _framework density 23.574815999999998
#
# number of rings (size 3 to 8) (size 9 to 14) (size 15 to 20)
#    0.000    1.667    0.000    5.000    7.000    2.667 
#    6.000    1.667    0.000    0.000    0.000    0.000 
#    0.000    0.000    0.000    0.000    0.000    0.000 
#
# Total GULP energy -66830.572650 kJ/mol
# GULP energy per Si atom -5569.214387 kJ/mol
# Density = 2.352116 g / cm^3
# Si number density = 23.574816 Si / 1000 Ang^3
#
#
#
# Elastic Constant Matrix: (Units=GPa)
#
#
# Indices 1 2 3 4 5 6 
#
# 1 77.2272 50.8404 4.8340 -8.8812 19.6223 -12.1270
# 2 50.8404 103.4121 11.0273 -1.8704 4.2402 -21.8599
# 3 4.8340 11.0273 41.7815 11.0558 6.4028 2.7652
# 4 -8.8812 -1.8704 11.0558 50.0484 -8.9645 15.2665
# 5 19.6223 4.2402 6.4028 -8.9645 27.5056 4.1352
# 6 -12.1270 -21.8599 2.7652 15.2665 4.1352 53.3918
#
#
#
# Elastic Compliance Matrix: (Units=1/GPa)
#
#
# Indices 1 2 3 4 5 6 
#
# 1 0.024930 -0.011360 0.002681 -0.000362 -0.017122 0.002302
# 2 -0.011360 0.016289 -0.003913 -0.000776 0.005638 0.004077
# 3 0.002681 -0.003913 0.028371 -0.008044 -0.010635 0.000661
# 4 -0.000362 -0.000776 -0.008044 0.026425 0.012138 -0.008479
# 5 -0.017122 0.005638 -0.010635 0.012138 0.055455 -0.008795
# 6 0.002302 0.004077 0.000661 -0.008479 -0.008795 0.023993
#
#
# Mechanical properties :
#
#
# Convention : Reuss Voigt Hill
#
# Bulk Modulus (GPa) = 22.51958 39.53602 31.02780
# Shear Modulus (GPa) = 23.20738 36.57043 29.88890
#
# Velocity S-wave (km/s) = 3.14094 3.94286 3.56453
# Velocity P-wave (km/s) = 4.76730 6.12659 5.48918
#
# Compressibility (1/GPa) = 0.04440581
#
# Stress axis : x y z
#
# Youngs Moduli (GPa) = 40.11280 61.39201 35.24700
#
# Poissons Ratio (x) = 0.69741 -0.09450
# Poissons Ratio (y) = 0.45568 0.13793
# Poissons Ratio (z) = -0.10755 0.24024
#
# Static dielectric constant tensor:
#      x y z
#    x 1.964270 0.006920 -0.033660 
#    y 0.006920 1.976000 0.014950 
#    z -0.033660 0.014950 1.824170 
# 
# From -- ./inp_files/145899.got.cif
#   From: 2010.05.17/outbox.cif.g08.bks.cpg/sg2_73_cif.got.tgz:145899.got - 2010.06.03 11:33:40.
