data_PCOD9105556
_publ_section_title
;
Structure prediction by ZEFSAII (Michael W. Deem and Ramdas Pophale) SiO2 
 PCOD9105556
Probable space group: P -1
;
_chemical_formula_sum "Si O2"
_cell_formula_units_Z 14
_cell_length_a 10.610724
_cell_length_b 9.260671
_cell_length_c 9.892302
_cell_angle_alpha 127.213815
_cell_angle_beta 98.595286
_cell_angle_gamma 105.916567
_cell_volume 678.419076
_symmetry_space_group_name_H-M "P -1"
_symmetry_group_IT_number 2
_symmetry_cell_setting 'triclinic'
loop_
_space_group_symop_operation_xyz
x,y,z
-x,-y,-z
loop_
_atom_site_type_symbol
_atom_site_label
_atom_site_fract_x
_atom_site_fract_y
_atom_site_fract_z
Si Si1 0.631006 0.362430 0.859373
Si Si2 0.959808 0.777825 0.811850
Si Si3 0.838647 0.400828 0.153134
Si Si4 0.688125 0.817950 0.183578
Si Si5 0.944602 0.202774 0.474451
Si Si6 0.368627 0.871365 0.811699
Si Si7 0.286688 0.631079 0.424976
O O1 0.460697 0.238815 0.793300
O O2 0.663253 0.313747 0.687933
O O3 0.731712 0.332097 0.969959
O O4 0.675045 0.603671 0.012942
O O5 0.051312 0.695012 0.870996
O O6 0.997627 0.783885 0.661845
O O7 0.792405 0.612617 0.707575
O O8 0.000000 0.000000 0.000000
O O9 0.743924 0.315316 0.223849
O O10 0.928131 0.645815 0.322019
O O11 0.839044 0.968009 0.364268
O O12 0.686397 0.965372 0.147142
O O13 0.837413 0.305504 0.521007
O O14 0.405389 0.771196 0.631359
O O15 0.500000 0.000000 0.000000
#
# Coordination Sequence:
#
# PCOD9105556 Si02
#       7
#     2   2   2   2   2   2   2
#     4  11  24  40  62  93 130 162 200 254 311 370
#     4  11  20  36  65  94 122 157 207 261 308 352
#     4  11  21  40  65  93 121 161 214 251 298 375
#     4  10  22  40  63  88 131 166 197 249 319 355
#     4  10  20  39  65  88 123 163 207 255 307 355
#     4  11  20  40  69  88 115 169 213 250 296 370
#     4  10  21  38  64  88 126 160 202 250 315 364
#
# _framework density 20.636209999999998
#
# number of rings (size 3 to 8) (size 9 to 14) (size 15 to 20)
#    0.000    1.429    5.714    1.714    0.000    5.143 
#    0.000    3.571    3.143    0.000    0.000    0.000 
#    0.000    0.000    0.000    0.000    0.000    0.000 
#
# Total GULP energy -78047.888829 kJ/mol
# GULP energy per Si atom -5574.849202 kJ/mol
# Density = 2.058924 g / cm^3
# Si number density = 20.636210 Si / 1000 Ang^3
#
#
#
# Elastic Constant Matrix: (Units=GPa)
#
#
# Indices 1 2 3 4 5 6 
#
# 1 41.1701 26.3807 40.1324 -6.2895 0.9846 3.9607
# 2 26.3807 80.8988 59.0499 14.1922 10.7405 2.7342
# 3 40.1324 59.0499 133.5985 -10.1031 -5.8907 8.8637
# 4 -6.2895 14.1922 -10.1031 37.4561 7.1262 -3.3610
# 5 0.9846 10.7405 -5.8907 7.1262 21.4437 6.2453
# 6 3.9607 2.7342 8.8637 -3.3610 6.2453 30.2193
#
#
#
# Elastic Compliance Matrix: (Units=1/GPa)
#
#
# Indices 1 2 3 4 5 6 
#
# 1 0.037869 -0.008168 -0.007207 0.007812 -0.001981 -0.000832
# 2 -0.008168 0.026802 -0.011079 -0.011713 -0.013165 0.003313
# 3 -0.007207 -0.011079 0.015623 0.004989 0.009704 -0.004086
# 4 0.007812 -0.011713 0.004989 0.035253 -0.005919 0.003717
# 5 -0.001981 -0.013165 0.009704 -0.005919 0.062300 -0.014929
# 6 -0.000832 0.003313 -0.004086 0.003717 -0.014929 0.037598
#
#
# Mechanical properties :
#
#
# Convention : Reuss Voigt Hill
#
# Bulk Modulus (GPa) = 36.51338 56.31039 46.41188
# Shear Modulus (GPa) = 18.01917 26.49744 22.25830
#
# Velocity S-wave (km/s) = 2.95817 3.58722 3.28777
# Velocity P-wave (km/s) = 5.42217 6.67113 6.07881
#
# Compressibility (1/GPa) = 0.02738722
#
# Stress axis : x y z
#
# Youngs Moduli (GPa) = 26.40649 37.31043 64.00733
#
# Poissons Ratio (x) = 0.30474 0.46131
# Poissons Ratio (y) = 0.21568 0.70914
# Poissons Ratio (z) = 0.19031 0.41336
#
# Static dielectric constant tensor:
#      x y z
#    x 1.785900 0.009430 0.071700 
#    y 0.009430 1.752570 0.020680 
#    z 0.071700 0.020680 1.810090 
# 
# From -- ./inp_files/173219.got.cif
#   From: 2010.05.17/outbox.cif.g08.bks.cpg/sg2_87_cif.got.tgz:173219.got - 2010.06.03 11:33:40.
