data_PCOD9105675
_publ_section_title
;
Structure prediction by ZEFSAII (Michael W. Deem and Ramdas Pophale) SiO2 
 PCOD9105675
Probable space group: P -1
;
_chemical_formula_sum "Si O2"
_cell_formula_units_Z 14
_cell_length_a 8.579032
_cell_length_b 23.552601
_cell_length_c 5.375106
_cell_angle_alpha 97.418208
_cell_angle_beta 57.863661
_cell_angle_gamma 135.888555
_cell_volume 578.272996
_symmetry_space_group_name_H-M "P -1"
_symmetry_group_IT_number 2
_symmetry_cell_setting 'triclinic'
loop_
_space_group_symop_operation_xyz
x,y,z
-x,-y,-z
loop_
_atom_site_type_symbol
_atom_site_label
_atom_site_fract_x
_atom_site_fract_y
_atom_site_fract_z
Si Si1 0.189062 0.681769 0.979325
Si Si2 0.369692 0.157499 0.643278
Si Si3 0.828562 0.440998 0.860773
Si Si4 0.577693 0.946219 0.682826
Si Si5 0.818667 0.210732 0.670794
Si Si6 0.924332 0.127516 0.308047
Si Si7 0.624165 0.503764 0.142676
O O1 0.495215 0.772615 0.653806
O O2 0.221814 0.638552 0.125312
O O3 0.063650 0.710877 0.209922
O O4 0.963503 0.602823 0.926168
O O5 0.258801 0.069626 0.583973
O O6 0.643150 0.203055 0.604530
O O7 0.149631 0.143479 0.973865
O O8 0.000000 0.500000 0.500000
O O9 0.569667 0.423335 0.104127
O O10 0.000000 0.500000 0.000000
O O11 0.326904 0.909389 0.687533
O O12 0.790389 0.051238 0.581311
O O13 0.421715 0.883418 0.021816
O O14 0.027045 0.211428 0.391167
O O15 0.500000 0.500000 0.500000
O O16 0.500000 0.500000 0.000000
#
# Coordination Sequence:
#
# PCOD9105675 Si02
#       7
#     2   2   2   2   2   2   2
#     4  10  24  44  62  90 139 168 217 285 338 413
#     4  10  22  39  61  95 133 178 220 276 345 394
#     4  10  22  43  71  93 127 174 219 272 342 410
#     4   9  20  39  62  92 137 171 230 281 320 397
#     4  10  22  39  60  95 133 175 219 282 337 394
#     4  10  20  39  65  94 129 182 226 271 331 404
#     4  11  24  45  71 102 126 171 229 280 343 413
#
# _framework density 24.210018000000002
#
# number of rings (size 3 to 8) (size 9 to 14) (size 15 to 20)
#    0.000    2.000    0.000    2.571    6.000    2.857 
#   10.286    0.000    0.000    0.000    0.000    0.000 
#    0.000    0.000    0.000    0.000    0.000    0.000 
#
# Total GULP energy -78216.874636 kJ/mol
# GULP energy per Si atom -5586.919617 kJ/mol
# Density = 2.415492 g / cm^3
# Si number density = 24.210018 Si / 1000 Ang^3
#
#
#
# Elastic Constant Matrix: (Units=GPa)
#
#
# Indices 1 2 3 4 5 6 
#
# 1 105.9433 49.0669 46.8271 3.0573 8.3255 -44.3860
# 2 49.0669 152.3951 54.2290 19.1104 -10.9606 -49.0694
# 3 46.8271 54.2290 126.3576 23.7814 -5.3199 -41.0828
# 4 3.0573 19.1104 23.7814 39.7575 -16.5255 -1.7155
# 5 8.3255 -10.9606 -5.3199 -16.5255 50.1860 7.7498
# 6 -44.3860 -49.0694 -41.0828 -1.7155 7.7498 45.3707
#
#
#
# Elastic Compliance Matrix: (Units=1/GPa)
#
#
# Indices 1 2 3 4 5 6 
#
# 1 0.017859 0.000247 -0.000396 -0.003324 -0.006892 0.018431
# 2 0.000247 0.010952 0.000144 -0.005380 -0.001294 0.012234
# 3 -0.000396 0.000144 0.013533 -0.008984 -0.003318 0.012249
# 4 -0.003324 -0.005380 -0.008984 0.038342 0.013848 -0.018121
# 5 -0.006892 -0.001294 -0.003318 0.013848 0.027357 -0.015296
# 6 0.018431 0.012234 0.012249 -0.018121 -0.015296 0.066322
#
#
# Mechanical properties :
#
#
# Convention : Reuss Voigt Hill
#
# Bulk Modulus (GPa) = 23.62250 76.10468 49.86359
# Shear Modulus (GPa) = 26.52702 42.70106 34.61404
#
# Velocity S-wave (km/s) = 3.31373 4.20429 3.78529
# Velocity P-wave (km/s) = 4.94162 7.42102 6.30441
#
# Compressibility (1/GPa) = 0.04233253
#
# Stress axis : x y z
#
# Youngs Moduli (GPa) = 55.99299 91.30754 73.89440
#
# Poissons Ratio (x) = -0.02252 0.02929
# Poissons Ratio (y) = -0.01381 -0.01064
# Poissons Ratio (z) = 0.02220 -0.01315
#
# Static dielectric constant tensor:
#      x y z
#    x 1.907300 0.030260 -0.052730 
#    y 0.030260 1.970900 0.031110 
#    z -0.052730 0.031110 1.977130 
# 
# From -- ./inp_files/43980.got.cif
#   From: 2010.05.17/outbox.cif.g08.bks.cpg/sg2_22_cif.got.tgz:43980.got - 2010.06.03 11:33:40.
