data_PCOD9105026
_publ_section_title
;
Structure prediction by ZEFSAII (Michael W. Deem and Ramdas Pophale) SiO2 
 PCOD9105026
Probable space group: P -1
;
_chemical_formula_sum "Si O2"
_cell_formula_units_Z 16
_cell_length_a 11.245375
_cell_length_b 10.004667
_cell_length_c 13.990536
_cell_angle_alpha 32.742415
_cell_angle_beta 122.716425
_cell_angle_gamma 100.172364
_cell_volume 567.078683
_symmetry_space_group_name_H-M "P -1"
_symmetry_group_IT_number 2
_symmetry_cell_setting 'triclinic'
loop_
_space_group_symop_operation_xyz
x,y,z
-x,-y,-z
loop_
_atom_site_type_symbol
_atom_site_label
_atom_site_fract_x
_atom_site_fract_y
_atom_site_fract_z
Si Si1 0.531495 0.570028 0.863231
Si Si2 0.823193 0.119332 0.686360
Si Si3 0.142660 0.052559 0.891053
Si Si4 0.743272 0.861482 0.307492
Si Si5 0.540861 0.165070 0.718260
Si Si6 0.571809 0.639288 0.643058
Si Si7 0.939934 0.465094 0.207231
Si Si8 0.146016 0.898584 0.498672
O O1 0.610567 0.667996 0.753318
O O2 0.324678 0.859331 0.585766
O O3 0.500000 0.500000 0.000000
O O4 0.633349 0.223847 0.071254
O O5 0.908035 0.100838 0.632331
O O6 0.946070 0.177317 0.765385
O O7 0.872107 0.790373 0.937108
O O8 0.608212 0.346338 0.445826
O O9 0.256139 0.059422 0.021563
O O10 0.256944 0.685693 0.130748
O O11 0.172330 0.196310 0.725626
O O12 0.591420 0.818860 0.274847
O O13 0.893884 0.672768 0.566889
O O14 0.500000 0.500000 0.500000
O O15 0.490843 0.115214 0.620272
O O16 0.006704 0.215902 0.300831
O O17 0.817940 0.394840 0.252733
#
# Coordination Sequence:
#
# PCOD9105026 Si02
#       8
#     2   2   2   2   2   2   2   2
#     4  10  20  39  63  88 128 167 203 261 315 378
#     4  11  22  40  63  93 129 165 213 260 314 381
#     4  10  21  42  66  88 128 167 210 273 314 369
#     4  11  21  38  66  92 121 169 218 254 323 380
#     4  10  21  40  63  91 125 164 214 268 315 371
#     4   9  22  38  62  92 126 161 209 261 311 379
#     4  11  21  35  62  87 124 174 204 254 320 370
#     4  10  22  39  56  90 132 162 210 259 306 382
#
# _framework density 28.214779
#
# number of rings (size 3 to 8) (size 9 to 14) (size 15 to 20)
#    0.000    1.750    2.500    2.250    1.750    0.500 
#    0.000    1.875    0.000    6.000    0.000    0.000 
#    0.000    0.000    0.000    0.000    0.000    0.000 
#
# Total GULP energy -89283.041329 kJ/mol
# GULP energy per Si atom -5580.190083 kJ/mol
# Density = 2.815056 g / cm^3
# Si number density = 28.214779 Si / 1000 Ang^3
#
#
#
# Elastic Constant Matrix: (Units=GPa)
#
#
# Indices 1 2 3 4 5 6 
#
# 1 111.0989 22.4087 12.5306 -4.5709 9.9325 -9.8057
# 2 22.4087 63.9433 -3.1929 3.5547 -7.6298 -23.0140
# 3 12.5306 -3.1929 75.5798 -10.5956 16.9800 -10.7688
# 4 -4.5709 3.5547 -10.5956 43.8129 8.9160 -12.2936
# 5 9.9325 -7.6298 16.9800 8.9160 49.9616 28.2778
# 6 -9.8057 -23.0140 -10.7688 -12.2936 28.2778 51.1083
#
#
#
# Elastic Compliance Matrix: (Units=1/GPa)
#
#
# Indices 1 2 3 4 5 6 
#
# 1 0.010875 -0.002429 0.001684 0.005386 -0.008098 0.007124
# 2 -0.002429 0.021738 0.007062 0.006753 -0.009960 0.017946
# 3 0.001684 0.007062 0.027085 0.020671 -0.029377 0.030436
# 4 0.005386 0.006753 0.020671 0.047365 -0.038927 0.041361
# 5 -0.008098 -0.009960 -0.029377 -0.038927 0.071714 -0.061271
# 6 0.007124 0.017946 0.030436 0.041361 -0.061271 0.079277
#
#
# Mechanical properties :
#
#
# Convention : Reuss Voigt Hill
#
# Bulk Modulus (GPa) = 13.82508 34.90166 24.36337
# Shear Modulus (GPa) = 18.55087 43.56825 31.05956
#
# Velocity S-wave (km/s) = 2.56693 3.93385 3.32147
# Velocity P-wave (km/s) = 3.70083 5.74721 4.83356
#
# Compressibility (1/GPa) = 0.07233233
#
# Stress axis : x y z
#
# Youngs Moduli (GPa) = 91.95102 46.00301 36.92119
#
# Poissons Ratio (x) = 0.11174 -0.06217
# Poissons Ratio (y) = 0.22334 -0.26075
# Poissons Ratio (z) = -0.15483 -0.32489
#
# Static dielectric constant tensor:
#      x y z
#    x 2.239070 0.051190 0.007790 
#    y 0.051190 2.489070 0.157070 
#    z 0.007790 0.157070 2.260860 
# 
# From -- ./inp_files/284871.got.cif
#   From: 2010.05.17/outbox.cif.g08.bks.cpg/sg2_143_cif.got.tgz:284871.got - 2010.06.03 11:33:40.
