data_PCOD9105303
_publ_section_title
;
Structure prediction by ZEFSAII (Michael W. Deem and Ramdas Pophale) SiO2 
 PCOD9105303
Probable space group: P -1
;
_chemical_formula_sum "Si O2"
_cell_formula_units_Z 16
_cell_length_a 17.560771
_cell_length_b 20.493269
_cell_length_c 5.319436
_cell_angle_alpha 53.698371
_cell_angle_beta 126.153976
_cell_angle_gamma 149.743738
_cell_volume 762.675456
_symmetry_space_group_name_H-M "P -1"
_symmetry_group_IT_number 2
_symmetry_cell_setting 'triclinic'
loop_
_space_group_symop_operation_xyz
x,y,z
-x,-y,-z
loop_
_atom_site_type_symbol
_atom_site_label
_atom_site_fract_x
_atom_site_fract_y
_atom_site_fract_z
Si Si1 0.310649 0.968256 0.292337
Si Si2 0.811967 0.828345 0.754046
Si Si3 0.928227 0.075031 0.319990
Si Si4 0.944201 0.379395 0.788497
Si Si5 0.981318 0.309293 0.505910
Si Si6 0.399288 0.884557 0.271225
Si Si7 0.493171 0.549975 0.619253
Si Si8 0.837677 0.689262 0.413279
O O1 0.187853 0.844105 0.526303
O O2 0.351277 0.923041 0.283434
O O3 0.479006 0.099860 0.429356
O O4 0.215451 0.977587 0.969982
O O5 0.644048 0.708995 0.566456
O O6 0.947023 0.880938 0.725040
O O7 0.860535 0.952971 0.623372
O O8 0.801728 0.758933 0.123448
O O9 0.021363 0.205049 0.362705
O O10 0.973840 0.339006 0.703423
O O11 0.763592 0.265078 0.766845
O O12 0.000000 0.500000 0.500000
O O13 0.017124 0.396570 0.151885
O O14 0.100298 0.316786 0.692550
O O15 0.500000 0.000000 0.000000
O O16 0.500000 0.500000 0.500000
O O17 0.317576 0.462123 0.466111
O O18 0.500000 0.500000 0.000000
#
# Coordination Sequence:
#
# PCOD9105303 Si02
#       8
#     2   2   2   2   2   2   2   2
#     4  10  21  37  62  93 122 161 219 257 321 389
#     4  10  22  38  59  92 127 169 211 271 329 368
#     4  11  21  37  62  91 130 164 213 275 321 375
#     4  11  24  43  65  95 131 166 212 271 333 390
#     4  11  22  39  68  93 123 170 220 259 318 399
#     4  10  20  39  64  89 122 168 206 266 319 392
#     4  10  21  39  61  85 120 169 216 262 315 385
#     4  11  21  38  65  88 127 170 226 258 316 397
#
# _framework density 20.978778999999999
#
# number of rings (size 3 to 8) (size 9 to 14) (size 15 to 20)
#    0.000    1.500    3.750    2.250    0.000    0.000 
#    2.250    0.000    0.000    0.000    0.000    0.000 
#    0.000    0.000    0.000    0.000    0.000    0.000 
#
# Total GULP energy -89128.401789 kJ/mol
# GULP energy per Si atom -5570.525112 kJ/mol
# Density = 2.093103 g / cm^3
# Si number density = 20.978779 Si / 1000 Ang^3
#
#
#
# Elastic Constant Matrix: (Units=GPa)
#
#
# Indices 1 2 3 4 5 6 
#
# 1 89.7508 27.1394 14.1791 7.0739 2.4049 23.7629
# 2 27.1394 91.7712 29.3103 2.6999 20.6301 21.6465
# 3 14.1791 29.3103 99.3961 -11.3431 8.8586 4.5794
# 4 7.0739 2.6999 -11.3431 27.1337 -0.5341 -2.8152
# 5 2.4049 20.6301 8.8586 -0.5341 30.8504 2.2646
# 6 23.7629 21.6465 4.5794 -2.8152 2.2646 29.3859
#
#
#
# Elastic Compliance Matrix: (Units=1/GPa)
#
#
# Indices 1 2 3 4 5 6 
#
# 1 0.015427 -0.001092 -0.002093 -0.006015 0.000905 -0.011991
# 2 -0.001092 0.017441 -0.004134 -0.004511 -0.009661 -0.011008
# 3 -0.002093 -0.004134 0.012213 0.006412 -0.000726 0.003505
# 4 -0.006015 -0.004511 0.006412 0.042741 0.001565 0.011162
# 5 0.000905 -0.009661 -0.000726 0.001565 0.038771 0.003660
# 6 -0.011991 -0.011008 0.003505 0.011162 0.003660 0.052076
#
#
# Mechanical properties :
#
#
# Convention : Reuss Voigt Hill
#
# Bulk Modulus (GPa) = 32.84793 46.90841 39.87817
# Shear Modulus (GPa) = 24.57537 31.49327 28.03432
#
# Velocity S-wave (km/s) = 3.42634 3.87873 3.65953
# Velocity P-wave (km/s) = 5.59864 6.51674 6.07506
#
# Compressibility (1/GPa) = 0.03044332
#
# Stress axis : x y z
#
# Youngs Moduli (GPa) = 64.81977 57.33680 81.87750
#
# Poissons Ratio (x) = 0.06260 0.17140
# Poissons Ratio (y) = 0.07077 0.33847
# Poissons Ratio (z) = 0.13569 0.23702
#
# Static dielectric constant tensor:
#      x y z
#    x 1.754020 0.019980 -0.024140 
#    y 0.019980 1.844940 0.045280 
#    z -0.024140 0.045280 1.849900 
# 
# From -- ./inp_files/112159.got.cif
#   From: 2010.05.17/outbox.cif.g08.bks.cpg/sg2_57_cif.got.tgz:112159.got - 2010.06.03 11:33:40.
