data_PCOD9105039
_publ_section_title
;
Structure prediction by ZEFSAII (Michael W. Deem and Ramdas Pophale) SiO2 
 PCOD9105039
Probable space group: P -1
;
_chemical_formula_sum "Si O2"
_cell_formula_units_Z 15
_cell_length_a 14.554580
_cell_length_b 20.346658
_cell_length_c 9.127073
_cell_angle_alpha 58.615353
_cell_angle_beta 67.493924
_cell_angle_gamma 19.926158
_cell_volume 731.464402
_symmetry_space_group_name_H-M "P -1"
_symmetry_group_IT_number 2
_symmetry_cell_setting 'triclinic'
loop_
_space_group_symop_operation_xyz
x,y,z
-x,-y,-z
loop_
_atom_site_type_symbol
_atom_site_label
_atom_site_fract_x
_atom_site_fract_y
_atom_site_fract_z
Si Si1 0.135049 0.684199 0.222973
Si Si2 0.938673 0.975591 0.175721
Si Si3 0.272820 0.437162 0.089818
Si Si4 0.000000 0.500000 0.000000
Si Si5 0.977205 0.630552 0.346810
Si Si6 0.997986 0.204236 0.152662
Si Si7 0.790862 0.213323 0.456664
Si Si8 0.667621 0.736771 0.238007
O O1 0.951063 0.738956 0.276079
O O2 0.458847 0.433773 0.372581
O O3 0.998602 0.850952 0.206620
O O4 0.150682 0.698641 0.027579
O O5 0.138312 0.837125 0.356981
O O6 0.603155 0.222834 0.134946
O O7 0.000000 0.000000 0.000000
O O8 0.203470 0.462614 0.268896
O O9 0.204869 0.418217 0.042217
O O10 0.072781 0.656473 0.922295
O O11 0.774829 0.672226 0.082551
O O12 0.106224 0.488447 0.567039
O O13 0.703105 0.787462 0.259237
O O14 0.870440 0.237626 0.308052
O O15 0.340600 0.945652 0.214605
O O16 0.000000 0.000000 0.500000
#
# Coordination Sequence:
#
# PCOD9105039 Si02
#       8
#     2   2   2   1   2   2   2   2
#     4  11  23  39  62  91 122 156 202 251 302 355
#     4  12  25  41  61  88 125 160 201 253 302 352
#     4  10  22  40  60  88 122 157 202 246 294 356
#     4  10  22  36  60  90 120 150 190 248 300 346
#     4   9  21  40  62  87 120 160 201 242 294 363
#     4  11  22  39  65  89 119 161 204 245 297 363
#     4  12  24  41  63  88 121 161 204 248 300 359
#     4  10  20  39  63  89 121 157 197 246 301 356
#
# _framework density 20.506806000000001
#
# number of rings (size 3 to 8) (size 9 to 14) (size 15 to 20)
#    0.000    1.333    0.000    6.400    0.000    8.000 
#    0.000    0.000    0.000   12.800    0.000    0.000 
#    0.000    0.000    0.000    0.000    0.000    0.000 
#
# Total GULP energy -83610.344710 kJ/mol
# GULP energy per Si atom -5574.022981 kJ/mol
# Density = 2.046013 g / cm^3
# Si number density = 20.506806 Si / 1000 Ang^3
#
#
#
# Elastic Constant Matrix: (Units=GPa)
#
#
# Indices 1 2 3 4 5 6 
#
# 1 94.8049 2.8714 42.5843 11.1154 15.3046 17.8507
# 2 2.8714 15.5273 3.6778 -4.1988 -0.5681 8.7707
# 3 42.5843 3.6778 97.5493 10.0522 10.2444 5.4621
# 4 11.1154 -4.1988 10.0522 18.7287 -1.9307 -3.7146
# 5 15.3046 -0.5681 10.2444 -1.9307 29.7523 3.9936
# 6 17.8507 8.7707 5.4621 -3.7146 3.9936 31.8339
#
#
#
# Elastic Compliance Matrix: (Units=1/GPa)
#
#
# Indices 1 2 3 4 5 6 
#
# 1 0.016623 0.000383 -0.005155 -0.009409 -0.006189 -0.008864
# 2 0.000383 0.082136 -0.004588 0.017211 0.006875 -0.020911
# 3 -0.005155 -0.004588 0.013384 -0.005104 -0.002588 0.001588
# 4 -0.009409 0.017211 -0.005104 0.068238 0.010269 0.008084
# 5 -0.006189 0.006875 -0.002588 0.010269 0.038703 -0.001636
# 6 -0.008864 -0.020911 0.001588 0.008084 -0.001636 0.043021
#
#
# Mechanical properties :
#
#
# Convention : Reuss Voigt Hill
#
# Bulk Modulus (GPa) = 10.70416 34.01649 22.36032
# Shear Modulus (GPa) = 16.02729 26.64618 21.33674
#
# Velocity S-wave (km/s) = 2.79867 3.60861 3.22913
# Velocity P-wave (km/s) = 3.95911 5.82980 4.98303
#
# Compressibility (1/GPa) = 0.09342164
#
# Stress axis : x y z
#
# Youngs Moduli (GPa) = 60.15627 12.17488 74.71808
#
# Poissons Ratio (x) = -0.00466 0.38520
# Poissons Ratio (y) = -0.02304 0.34284
# Poissons Ratio (z) = 0.31013 0.05586
#
# Static dielectric constant tensor:
#      x y z
#    x 1.762100 0.003650 -0.012870 
#    y 0.003650 1.708280 0.001310 
#    z -0.012870 0.001310 1.719840 
# 
# From -- ./inp_files/171125.got.cif
#   From: 2010.05.17/outbox.cif.g08.bks.cpg/sg2_86_cif.got.tgz:171125.got - 2010.06.03 11:33:40.
