data_PCOD9105530
_publ_section_title
;
Structure prediction by ZEFSAII (Michael W. Deem and Ramdas Pophale) SiO2 
 PCOD9105530
Probable space group: P -1
;
_chemical_formula_sum "Si O2"
_cell_formula_units_Z 16
_cell_length_a 8.597593
_cell_length_b 13.597002
_cell_length_c 12.135256
_cell_angle_alpha 68.477121
_cell_angle_beta 43.060116
_cell_angle_gamma 47.627209
_cell_volume 693.053873
_symmetry_space_group_name_H-M "P -1"
_symmetry_group_IT_number 2
_symmetry_cell_setting 'triclinic'
loop_
_space_group_symop_operation_xyz
x,y,z
-x,-y,-z
loop_
_atom_site_type_symbol
_atom_site_label
_atom_site_fract_x
_atom_site_fract_y
_atom_site_fract_z
Si Si1 0.695279 0.208674 0.088271
Si Si2 0.863141 0.632883 0.170249
Si Si3 0.736663 0.069010 0.694286
Si Si4 0.711650 0.481809 0.202456
Si Si5 0.352426 0.392145 0.383615
Si Si6 0.759043 0.229884 0.789709
Si Si7 0.612840 0.996841 0.190410
Si Si8 0.240971 0.222294 0.628194
O O1 0.510557 0.341261 0.204661
O O2 0.560636 0.131190 0.199096
O O3 0.692553 0.234652 0.950190
O O4 0.042909 0.106673 0.983636
O O5 0.533757 0.778244 0.272352
O O6 0.850681 0.509079 0.219184
O O7 0.962132 0.656104 0.224260
O O8 0.039794 0.618090 0.976540
O O9 0.815614 0.100952 0.755291
O O10 0.606372 0.988976 0.791618
O O11 0.000000 0.000000 0.500000
O O12 0.502740 0.444431 0.349377
O O13 0.507131 0.628647 0.186603
O O14 0.424931 0.261433 0.462737
O O15 0.000000 0.500000 0.500000
O O16 0.038407 0.225008 0.642213
O O17 0.598085 0.920949 0.332940
#
# Coordination Sequence:
#
# PCOD9105530 Si02
#       8
#     2   2   2   2   2   2   2   2
#     4  10  23  41  64  89 122 161 213 249 291 371
#     4   9  21  40  62  89 116 169 198 245 305 366
#     4  10  21  38  65  91 120 153 203 257 305 358
#     4  10  20  39  65  84 130 157 203 245 297 374
#     4  12  24  35  60  99 125 158 200 258 299 360
#     4  10  21  38  63  91 118 169 198 240 314 359
#     4   9  21  45  63  86 120 162 206 254 299 364
#     4  10  21  39  61  91 123 157 205 243 315 352
#
# _framework density 23.086227999999998
#
# number of rings (size 3 to 8) (size 9 to 14) (size 15 to 20)
#    0.000    2.000    1.250    2.250    3.500    2.500 
#   11.250    0.000   19.250    0.000    0.000    0.000 
#    0.000    0.000    0.000    0.000    0.000    0.000 
#
# Total GULP energy -89343.895298 kJ/mol
# GULP energy per Si atom -5583.993456 kJ/mol
# Density = 2.303368 g / cm^3
# Si number density = 23.086228 Si / 1000 Ang^3
#
#
#
# Elastic Constant Matrix: (Units=GPa)
#
#
# Indices 1 2 3 4 5 6 
#
# 1 117.7429 14.1271 24.1444 -5.1041 -22.2665 43.3375
# 2 14.1271 48.1275 14.8208 -11.8870 -13.5127 18.1909
# 3 24.1444 14.8208 74.4337 0.3756 -12.1311 13.4548
# 4 -5.1041 -11.8870 0.3756 45.2422 9.9273 -6.9327
# 5 -22.2665 -13.5127 -12.1311 9.9273 36.8394 -8.7554
# 6 43.3375 18.1909 13.4548 -6.9327 -8.7554 31.4846
#
#
#
# Elastic Compliance Matrix: (Units=1/GPa)
#
#
# Indices 1 2 3 4 5 6 
#
# 1 0.020331 0.007523 -0.001354 -0.002075 0.008037 -0.029974
# 2 0.007523 0.032018 -0.003042 0.003685 0.008503 -0.024378
# 3 -0.001354 -0.003042 0.015469 -0.002164 0.003126 -0.002597
# 4 -0.002075 0.003685 -0.002164 0.025024 -0.006057 0.005478
# 5 0.008037 0.008503 0.003126 -0.006057 0.035712 -0.008714
# 6 -0.029974 -0.024378 -0.002597 0.005478 -0.008714 0.086997
#
#
# Mechanical properties :
#
#
# Convention : Reuss Voigt Hill
#
# Bulk Modulus (GPa) = 13.50034 38.49873 25.99954
# Shear Modulus (GPa) = 21.36855 35.19403 28.28129
#
# Velocity S-wave (km/s) = 3.04566 3.90867 3.50384
# Velocity P-wave (km/s) = 4.26949 6.08954 5.25885
#
# Compressibility (1/GPa) = 0.07407219
#
# Stress axis : x y z
#
# Youngs Moduli (GPa) = 49.18683 31.23202 64.64356
#
# Poissons Ratio (x) = -0.23495 0.08753
# Poissons Ratio (y) = -0.37001 0.19663
# Poissons Ratio (z) = 0.06660 0.09500
#
# Static dielectric constant tensor:
#      x y z
#    x 2.002470 0.006900 -0.013170 
#    y 0.006900 1.877640 -0.014210 
#    z -0.013170 -0.014210 1.877960 
# 
# From -- ./inp_files/306154.got.cif
#   From: 2010.05.17/outbox.cif.g08.bks.cpg/sg2_154_cif.got.tgz:306154.got - 2010.06.03 11:33:40.
