data_PCOD9105199
_publ_section_title
;
Structure prediction by ZEFSAII (Michael W. Deem and Ramdas Pophale) SiO2 
 PCOD9105199
Probable space group: P -1
;
_chemical_formula_sum "Si O2"
_cell_formula_units_Z 16
_cell_length_a 9.464686
_cell_length_b 14.698871
_cell_length_c 9.681426
_cell_angle_alpha 102.335687
_cell_angle_beta 86.163290
_cell_angle_gamma 147.948584
_cell_volume 681.121407
_symmetry_space_group_name_H-M "P -1"
_symmetry_group_IT_number 2
_symmetry_cell_setting 'triclinic'
loop_
_space_group_symop_operation_xyz
x,y,z
-x,-y,-z
loop_
_atom_site_type_symbol
_atom_site_label
_atom_site_fract_x
_atom_site_fract_y
_atom_site_fract_z
Si Si1 0.783089 0.820735 0.054692
Si Si2 0.411755 0.361833 0.554358
Si Si3 0.207374 0.346665 0.162779
Si Si4 0.776043 0.414962 0.095861
Si Si5 0.061743 0.939026 0.686381
Si Si6 0.664480 0.159892 0.135319
Si Si7 0.872047 0.518040 0.437042
Si Si8 0.669348 0.087482 0.383822
O O1 0.806617 0.722902 0.997765
O O2 0.465943 0.662724 0.984177
O O3 0.853593 0.911245 0.223457
O O4 0.000000 0.000000 0.000000
O O5 0.500000 0.500000 0.500000
O O6 0.523105 0.452756 0.727955
O O7 0.097794 0.162407 0.479595
O O8 0.576395 0.368762 0.475404
O O9 0.126389 0.219972 0.238169
O O10 0.974662 0.295309 0.159865
O O11 0.630694 0.242082 0.107788
O O12 0.881112 0.517569 0.268657
O O13 0.000000 0.500000 0.000000
O O14 0.316358 0.011589 0.694091
O O15 0.552563 0.085619 0.271154
O O16 0.500000 0.000000 0.000000
O O17 0.000000 0.500000 0.500000
O O18 0.038927 0.703081 0.533050
O O19 0.500000 0.000000 0.500000
#
# Coordination Sequence:
#
# PCOD9105199 Si02
#       8
#     2   2   2   2   2   2   2   2
#     4  10  20  37  61  91 123 171 216 257 320 387
#     4  10  16  33  61  89 116 160 215 255 311 381
#     4   9  17  34  58  89 116 160 212 261 308 376
#     4  12  26  40  64 100 133 168 214 272 323 380
#     4   9  18  33  59  90 116 162 215 255 307 382
#     4  11  22  42  64  93 130 171 212 265 325 384
#     4  12  22  40  64  94 125 166 212 265 321 376
#     4  11  23  39  64  94 129 168 213 261 320 384
#
# _framework density 23.490673000000001
#
# number of rings (size 3 to 8) (size 9 to 14) (size 15 to 20)
#    0.000    1.500    5.000    4.500    3.500    0.000 
#    0.000    0.625    0.000    5.250    0.000    0.000 
#    0.000    0.000    0.000    0.000    0.000    0.000 
#
# Total GULP energy -89260.172156 kJ/mol
# GULP energy per Si atom -5578.760760 kJ/mol
# Density = 2.343721 g / cm^3
# Si number density = 23.490673 Si / 1000 Ang^3
#
#
#
# Elastic Constant Matrix: (Units=GPa)
#
#
# Indices 1 2 3 4 5 6 
#
# 1 64.2399 -6.8083 -8.6435 -3.0773 -9.0109 -6.6325
# 2 -6.8083 27.8334 16.4862 -2.5671 -1.3744 -0.5466
# 3 -8.6435 16.4862 103.2997 20.4071 -19.1784 -10.2976
# 4 -3.0773 -2.5671 20.4071 36.4054 0.9690 -6.8846
# 5 -9.0109 -1.3744 -19.1784 0.9690 36.6770 9.5632
# 6 -6.6325 -0.5466 -10.2976 -6.8846 9.5632 23.3330
#
#
#
# Elastic Compliance Matrix: (Units=1/GPa)
#
#
# Indices 1 2 3 4 5 6 
#
# 1 0.017305 0.003592 0.001802 0.001456 0.004105 0.004546
# 2 0.003592 0.042507 -0.008465 0.008471 -0.002663 0.001872
# 3 0.001802 -0.008465 0.014377 -0.008511 0.007599 0.001034
# 4 0.001456 0.008471 -0.008511 0.035090 -0.007370 0.010230
# 5 0.004105 -0.002663 0.007599 -0.007370 0.035545 -0.012285
# 6 0.004546 0.001872 0.001034 0.010230 -0.012285 0.052703
#
#
# Mechanical properties :
#
#
# Convention : Reuss Voigt Hill
#
# Bulk Modulus (GPa) = 14.69559 21.93798 18.31678
# Shear Modulus (GPa) = 22.08953 32.23900 27.16426
#
# Velocity S-wave (km/s) = 3.06984 3.70863 3.40426
# Velocity P-wave (km/s) = 4.33990 5.26288 4.82352
#
# Compressibility (1/GPa) = 0.06804765
#
# Stress axis : x y z
#
# Youngs Moduli (GPa) = 57.78796 23.52559 69.55350
#
# Poissons Ratio (x) = -0.08449 -0.12536
# Poissons Ratio (y) = -0.20755 0.58874
# Poissons Ratio (z) = -0.10415 0.19913
#
# Static dielectric constant tensor:
#      x y z
#    x 1.863960 -0.003050 0.002810 
#    y -0.003050 1.891000 -0.040710 
#    z 0.002810 -0.040710 1.912580 
# 
# From -- ./inp_files/207826.got.cif
#   From: 2010.05.17/outbox.cif.g08.bks.cpg/sg2_104_cif.got.tgz:207826.got - 2010.06.03 11:33:40.
