data_PCOD9105228
_publ_section_title
;
Structure prediction by ZEFSAII (Michael W. Deem and Ramdas Pophale) SiO2 
 PCOD9105228
Probable space group: P -1
;
_chemical_formula_sum "Si O2"
_cell_formula_units_Z 16
_cell_length_a 13.493201
_cell_length_b 19.244483
_cell_length_c 7.949504
_cell_angle_alpha 149.654253
_cell_angle_beta 57.511228
_cell_angle_gamma 134.961545
_cell_volume 722.516469
_symmetry_space_group_name_H-M "P -1"
_symmetry_group_IT_number 2
_symmetry_cell_setting 'triclinic'
loop_
_space_group_symop_operation_xyz
x,y,z
-x,-y,-z
loop_
_atom_site_type_symbol
_atom_site_label
_atom_site_fract_x
_atom_site_fract_y
_atom_site_fract_z
Si Si1 0.629114 0.688645 0.726320
Si Si2 0.897820 0.596452 0.951964
Si Si3 0.854929 0.628062 0.419273
Si Si4 0.406059 0.755126 0.142014
Si Si5 0.320293 0.043473 0.237085
Si Si6 0.930816 0.297578 0.323175
Si Si7 0.444599 0.924076 0.122188
Si Si8 0.345477 0.350276 0.770688
O O1 0.500000 0.500000 0.500000
O O2 0.776713 0.720965 0.724088
O O3 0.645737 0.699428 0.532367
O O4 0.562245 0.786407 0.053494
O O5 0.876793 0.418786 0.621386
O O6 0.005224 0.687421 0.889141
O O7 0.938761 0.683027 0.279982
O O8 0.758096 0.588685 0.009574
O O9 0.949539 0.638815 0.509000
O O10 0.720672 0.435273 0.103850
O O11 0.377302 0.799026 0.076992
O O12 0.430365 0.893318 0.538775
O O13 0.297360 0.189027 0.590905
O O14 0.333602 0.948343 0.181635
O O15 0.475562 0.126489 0.181588
O O16 0.192091 0.896011 0.936606
O O17 0.500000 0.500000 0.000000
#
# Coordination Sequence:
#
# PCOD9105228 Si02
#       8
#     2   2   2   2   2   2   2   2
#     4   9  20  37  62  96 124 159 217 263 327 385
#     4  10  25  43  66  99 128 179 224 265 324 394
#     4  10  22  41  69  93 132 172 221 268 321 398
#     4  10  20  39  64 100 126 171 212 269 337 382
#     4  11  25  42  63  99 131 173 214 273 330 388
#     4  11  25  43  68  93 136 177 221 269 324 394
#     4  10  23  38  65  94 136 162 216 276 326 392
#     4  11  25  41  68  93 130 171 215 277 330 386
#
# _framework density 22.144822999999999
#
# number of rings (size 3 to 8) (size 9 to 14) (size 15 to 20)
#    0.000    1.750    1.250    1.125   15.750    0.500 
#    2.250    2.500    0.000    0.000    0.000    0.000 
#    0.000    0.000    0.000    0.000    0.000    0.000 
#
# Total GULP energy -89370.290676 kJ/mol
# GULP energy per Si atom -5585.643167 kJ/mol
# Density = 2.209442 g / cm^3
# Si number density = 22.144823 Si / 1000 Ang^3
#
#
#
# Elastic Constant Matrix: (Units=GPa)
#
#
# Indices 1 2 3 4 5 6 
#
# 1 133.1757 37.8160 41.5011 -4.5878 -35.7776 -3.0565
# 2 37.8160 55.6653 23.4201 -19.9448 -3.2159 6.6635
# 3 41.5011 23.4201 51.1966 -8.0894 -19.7476 11.6230
# 4 -4.5878 -19.9448 -8.0894 27.9082 0.1354 1.2795
# 5 -35.7776 -3.2159 -19.7476 0.1354 29.5334 -0.0519
# 6 -3.0565 6.6635 11.6230 1.2795 -0.0519 20.2408
#
#
#
# Elastic Compliance Matrix: (Units=1/GPa)
#
#
# Indices 1 2 3 4 5 6 
#
# 1 0.016915 -0.012392 -0.005868 -0.008334 0.015276 0.010569
# 2 -0.012392 0.038526 -0.007095 0.024068 -0.015692 -0.012042
# 3 -0.005868 -0.007095 0.041387 0.006906 0.019721 -0.022702
# 4 -0.008334 0.024068 0.006906 0.054440 -0.003137 -0.016597
# 5 0.015276 -0.015692 0.019721 -0.003137 0.063852 -0.003490
# 6 0.010569 -0.012042 -0.022702 -0.016597 -0.003490 0.069042
#
#
# Mechanical properties :
#
#
# Convention : Reuss Voigt Hill
#
# Bulk Modulus (GPa) = 21.68283 49.50132 35.59208
# Shear Modulus (GPa) = 14.27578 24.68982 19.48280
#
# Velocity S-wave (km/s) = 2.54176 3.34267 2.96934
# Velocity P-wave (km/s) = 4.29263 6.10737 5.27857
#
# Compressibility (1/GPa) = 0.04611944
#
# Stress axis : x y z
#
# Youngs Moduli (GPa) = 59.11792 25.95640 24.16237
#
# Poissons Ratio (x) = 0.32164 0.14177
# Poissons Ratio (y) = 0.73257 0.17144
# Poissons Ratio (z) = 0.34688 0.18417
#
# Static dielectric constant tensor:
#      x y z
#    x 1.840660 -0.024190 -0.026480 
#    y -0.024190 1.837590 -0.010650 
#    z -0.026480 -0.010650 1.811050 
# 
# From -- ./inp_files/283494.got.cif
#   From: 2010.05.17/outbox.cif.g08.bks.cpg/sg2_142_cif.got.tgz:283494.got - 2010.06.03 11:33:40.
