data_PCOD9105350
_publ_section_title
;
Structure prediction by ZEFSAII (Michael W. Deem and Ramdas Pophale) SiO2 
 PCOD9105350
Probable space group: P -1
;
_chemical_formula_sum "Si O2"
_cell_formula_units_Z 14
_cell_length_a 20.539521
_cell_length_b 11.172576
_cell_length_c 13.198512
_cell_angle_alpha 32.703523
_cell_angle_beta 20.767041
_cell_angle_gamma 35.611547
_cell_volume 574.784939
_symmetry_space_group_name_H-M "P -1"
_symmetry_group_IT_number 2
_symmetry_cell_setting 'triclinic'
loop_
_space_group_symop_operation_xyz
x,y,z
-x,-y,-z
loop_
_atom_site_type_symbol
_atom_site_label
_atom_site_fract_x
_atom_site_fract_y
_atom_site_fract_z
Si Si1 0.693669 0.182161 0.430373
Si Si2 0.200270 0.416143 0.503157
Si Si3 0.429287 0.140705 0.670669
Si Si4 0.097292 0.213941 0.237665
Si Si5 0.648735 0.671741 0.046744
Si Si6 0.430228 0.736578 0.820464
Si Si7 0.867985 0.731312 0.497054
O O1 0.563278 0.064931 0.624117
O O2 0.705053 0.420075 0.189282
O O3 0.562728 0.249485 0.669911
O O4 0.869788 0.997410 0.329568
O O5 0.354606 0.299211 0.435685
O O6 0.116402 0.268688 0.647257
O O7 0.057522 0.580444 0.658242
O O8 0.317388 0.551544 0.158846
O O9 0.560145 0.246913 0.325306
O O10 0.357554 0.950590 0.841769
O O11 0.245740 0.269285 0.897722
O O12 0.218524 0.183332 0.186164
O O13 0.000000 0.000000 0.500000
O O14 0.691152 0.698572 0.848583
O O15 0.000000 0.500000 0.500000
#
# Coordination Sequence:
#
# PCOD9105350 Si02
#       7
#     2   2   2   2   2   2   2
#     4  10  22  43  66  96 132 172 224 276 314 412
#     4  11  22  40  61  97 131 169 221 266 333 395
#     4  10  20  39  64  91 124 169 216 268 330 378
#     4  11  22  41  63  93 133 169 214 279 329 395
#     4  10  23  42  67  96 131 175 221 269 338 384
#     4  10  21  37  65  92 121 172 215 268 324 389
#     4  12  23  40  65  99 132 177 216 269 336 394
#
# _framework density 24.356936999999999
#
# number of rings (size 3 to 8) (size 9 to 14) (size 15 to 20)
#    0.000    1.429    4.286    1.286    0.000    1.143 
#    0.000    5.714    0.000    0.000    0.000    0.000 
#    0.000    0.000    0.000    0.000    0.000    0.000 
#
# Total GULP energy -78030.058832 kJ/mol
# GULP energy per Si atom -5573.575631 kJ/mol
# Density = 2.430150 g / cm^3
# Si number density = 24.356937 Si / 1000 Ang^3
#
#
#
# Elastic Constant Matrix: (Units=GPa)
#
#
# Indices 1 2 3 4 5 6 
#
# 1 71.7060 36.4222 37.7244 14.3087 23.8608 20.5680
# 2 36.4222 156.0790 32.8999 26.2401 13.5124 8.9320
# 3 37.7244 32.8999 49.6065 5.4794 17.4998 8.5051
# 4 14.3087 26.2401 5.4794 50.6666 10.3559 4.9155
# 5 23.8608 13.5124 17.4998 10.3559 38.3924 2.4248
# 6 20.5680 8.9320 8.5051 4.9155 2.4248 32.9959
#
#
#
# Elastic Compliance Matrix: (Units=1/GPa)
#
#
# Indices 1 2 3 4 5 6 
#
# 1 0.031176 -0.001698 -0.016550 -0.002854 -0.009607 -0.013577
# 2 -0.001698 0.008165 -0.004152 -0.003542 0.001006 0.000372
# 3 -0.016550 -0.004152 0.036973 0.003936 -0.006280 0.001785
# 4 -0.002854 -0.003542 0.003936 0.023088 -0.004915 -0.001355
# 5 -0.009607 0.001006 -0.006280 -0.004915 0.035507 0.005458
# 6 -0.013577 0.000372 0.001785 -0.001355 0.005458 0.038010
#
#
# Mechanical properties :
#
#
# Convention : Reuss Voigt Hill
#
# Bulk Modulus (GPa) = 31.73141 54.60938 43.17039
# Shear Modulus (GPa) = 21.90840 35.76734 28.83787
#
# Velocity S-wave (km/s) = 3.00237 3.83621 3.44462
# Velocity P-wave (km/s) = 5.00749 6.48777 5.79509
#
# Compressibility (1/GPa) = 0.03151452
#
# Stress axis : x y z
#
# Youngs Moduli (GPa) = 32.07591 122.46671 27.04712
#
# Poissons Ratio (x) = 0.20794 0.44764
# Poissons Ratio (y) = 0.05446 0.11229
# Poissons Ratio (z) = 0.53087 0.50842
#
# Static dielectric constant tensor:
#      x y z
#    x 1.970300 -0.001400 -0.038360 
#    y -0.001400 2.004010 -0.044240 
#    z -0.038360 -0.044240 1.998710 
# 
# From -- ./inp_files/256129.got.cif
#   From: 2010.05.17/outbox.cif.g08.bks.cpg/sg2_129_cif.got.tgz:256129.got - 2010.06.03 11:33:40.
