data_PCOD9105139
_publ_section_title
;
Structure prediction by ZEFSAII (Michael W. Deem and Ramdas Pophale) SiO2 
 PCOD9105139
Probable space group: P -1
;
_chemical_formula_sum "Si O2"
_cell_formula_units_Z 13
_cell_length_a 9.001931
_cell_length_b 13.844320
_cell_length_c 9.210397
_cell_angle_alpha 132.996000
_cell_angle_beta 113.423614
_cell_angle_gamma 88.231860
_cell_volume 719.308104
_symmetry_space_group_name_H-M "P -1"
_symmetry_group_IT_number 2
_symmetry_cell_setting 'triclinic'
loop_
_space_group_symop_operation_xyz
x,y,z
-x,-y,-z
loop_
_atom_site_type_symbol
_atom_site_label
_atom_site_fract_x
_atom_site_fract_y
_atom_site_fract_z
Si Si1 0.842012 0.831475 0.145603
Si Si2 0.926802 0.419004 0.738559
Si Si3 0.264644 0.462824 0.725871
Si Si4 0.293613 0.433489 0.368848
Si Si5 0.403783 0.275687 0.786098
Si Si6 0.198005 0.888818 0.498165
Si Si7 0.500000 0.000000 0.500000
O O1 0.730198 0.751751 0.160047
O O2 0.041620 0.860001 0.290679
O O3 0.812222 0.979809 0.276889
O O4 0.777913 0.728122 0.879412
O O5 0.792780 0.481861 0.680748
O O6 0.841416 0.253218 0.570959
O O7 0.086850 0.447173 0.720152
O O8 0.000000 0.500000 0.000000
O O9 0.245635 0.446190 0.529567
O O10 0.334662 0.346543 0.702138
O O11 0.411263 0.613457 0.976439
O O12 0.500000 0.500000 0.500000
O O13 0.424311 0.129875 0.604962
O O14 0.375572 0.930014 0.521998
#
# Coordination Sequence:
#
# PCOD9105139 Si02
#       7
#     2   2   2   2   2   2   1
#     4  10  20  42  63  90 125 169 203 263 316 379
#     4  12  23  42  67  94 123 171 218 259 312 384
#     4  11  23  39  63  92 132 164 213 260 314 373
#     4  12  25  41  63  98 132 166 210 267 319 369
#     4  10  20  39  63  93 122 169 211 255 314 379
#     4  10  21  39  66  91 124 160 220 254 315 376
#     4  10  22  34  64  98 116 158 218 270 298 372
#
# _framework density 18.072922999999999
#
# number of rings (size 3 to 8) (size 9 to 14) (size 15 to 20)
#    0.000    1.231    4.615    1.385    4.308    0.000 
#    0.000    3.077    0.000    0.000    0.000    0.000 
#    0.000    0.000    0.000    0.000    0.000    0.000 
#
# Total GULP energy -72374.161859 kJ/mol
# GULP energy per Si atom -5567.243220 kJ/mol
# Density = 1.803179 g / cm^3
# Si number density = 18.072923 Si / 1000 Ang^3
#
#
#
# Elastic Constant Matrix: (Units=GPa)
#
#
# Indices 1 2 3 4 5 6 
#
# 1 98.7576 38.0367 44.3004 -12.5331 -14.0049 -0.8110
# 2 38.0367 105.9315 54.7136 -2.1727 -0.6830 4.8792
# 3 44.3004 54.7136 92.2889 -7.0676 -2.6314 -5.3746
# 4 -12.5331 -2.1727 -7.0676 28.4010 7.1457 3.4731
# 5 -14.0049 -0.6830 -2.6314 7.1457 18.7645 -3.7990
# 6 -0.8110 4.8792 -5.3746 3.4731 -3.7990 22.4263
#
#
#
# Elastic Compliance Matrix: (Units=1/GPa)
#
#
# Indices 1 2 3 4 5 6 
#
# 1 0.015213 -0.002754 -0.005122 0.002626 0.009773 0.001171
# 2 -0.002754 0.014733 -0.007883 -0.000437 -0.003620 -0.005740
# 3 -0.005122 -0.007883 0.018363 0.001243 -0.000876 0.005590
# 4 0.002626 -0.000437 0.001243 0.041580 -0.015450 -0.008568
# 5 0.009773 -0.003620 -0.000876 -0.015450 0.069263 0.015057
# 6 0.001171 -0.005740 0.005590 -0.008568 0.015057 0.051099
#
#
# Mechanical properties :
#
#
# Convention : Reuss Voigt Hill
#
# Bulk Modulus (GPa) = 59.55657 63.45326 61.50491
# Shear Modulus (GPa) = 20.21295 24.58018 22.39657
#
# Velocity S-wave (km/s) = 3.34789 3.69189 3.52409
# Velocity P-wave (km/s) = 6.92600 7.30474 7.11789
#
# Compressibility (1/GPa) = 0.01679076
#
# Stress axis : x y z
#
# Youngs Moduli (GPa) = 65.73424 67.87589 54.45598
#
# Poissons Ratio (x) = 0.18694 0.27891
# Poissons Ratio (y) = 0.18104 0.42929
# Poissons Ratio (z) = 0.33667 0.53509
#
# Static dielectric constant tensor:
#      x y z
#    x 1.606260 0.002910 0.014110 
#    y 0.002910 1.604240 0.019100 
#    z 0.014110 0.019100 1.615240 
# 
# From -- ./inp_files/147207.got.cif
#   From: 2010.05.17/outbox.cif.g08.bks.cpg/sg2_74_cif.got.tgz:147207.got - 2010.06.03 11:33:40.
