data_PCOD9105580
_publ_section_title
;
Structure prediction by ZEFSAII (Michael W. Deem and Ramdas Pophale) SiO2 
 PCOD9105580
Probable space group: P -1
;
_chemical_formula_sum "Si O2"
_cell_formula_units_Z 16
_cell_length_a 8.862311
_cell_length_b 13.797051
_cell_length_c 8.750262
_cell_angle_alpha 85.446693
_cell_angle_beta 132.190083
_cell_angle_gamma 76.040279
_cell_volume 724.666567
_symmetry_space_group_name_H-M "P -1"
_symmetry_group_IT_number 2
_symmetry_cell_setting 'triclinic'
loop_
_space_group_symop_operation_xyz
x,y,z
-x,-y,-z
loop_
_atom_site_type_symbol
_atom_site_label
_atom_site_fract_x
_atom_site_fract_y
_atom_site_fract_z
Si Si1 0.930981 0.798093 0.937968
Si Si2 0.538337 0.733312 0.736620
Si Si3 0.565552 0.360777 0.027089
Si Si4 0.174099 0.555966 0.613683
Si Si5 0.261779 0.952865 0.689187
Si Si6 0.274292 0.848459 0.017802
Si Si7 0.683600 0.382339 0.600935
Si Si8 0.579639 0.014079 0.722921
O O1 0.027891 0.850573 0.866600
O O2 0.147823 0.697750 0.154030
O O3 0.748609 0.748867 0.808929
O O4 0.789221 0.904934 0.924976
O O5 0.366757 0.846215 0.670941
O O6 0.444796 0.683571 0.548817
O O7 0.566572 0.656518 0.912802
O O8 0.417952 0.464729 0.820801
O O9 0.590301 0.267625 0.939342
O O10 0.798636 0.362903 0.249316
O O11 0.165292 0.605114 0.435670
O O12 0.000000 0.500000 0.500000
O O13 0.374805 0.027165 0.691389
O O14 0.308664 0.921646 0.901156
O O15 0.000000 0.000000 0.500000
O O16 0.345771 0.889108 0.215922
O O17 0.500000 0.500000 0.500000
O O18 0.500000 0.000000 0.500000
#
# Coordination Sequence:
#
# PCOD9105580 Si02
#       8
#     2   2   2   2   2   2   2   2
#     4  11  24  40  67  91 133 175 217 270 337 388
#     4   9  22  41  62  93 135 168 222 273 330 392
#     4   9  20  41  60  91 131 165 215 280 319 396
#     4  10  20  39  65  90 126 169 217 268 336 386
#     4  10  22  42  65  96 131 173 221 273 332 400
#     4  11  23  41  64  97 128 175 221 272 327 403
#     4  11  24  40  63  97 130 174 218 275 331 399
#     4  11  25  44  67  98 134 180 223 276 337 396
#
# _framework density 22.079118999999999
#
# number of rings (size 3 to 8) (size 9 to 14) (size 15 to 20)
#    0.000    1.750    0.000    3.000    5.250    1.500 
#    9.000    0.000    0.000    0.000    0.000    0.000 
#    0.000    0.000    0.000    0.000    0.000    0.000 
#
# Total GULP energy -89128.238611 kJ/mol
# GULP energy per Si atom -5570.514913 kJ/mol
# Density = 2.202887 g / cm^3
# Si number density = 22.079119 Si / 1000 Ang^3
#
#
#
# Elastic Constant Matrix: (Units=GPa)
#
#
# Indices 1 2 3 4 5 6 
#
# 1 115.4235 20.1622 38.6769 15.1875 19.9353 31.5288
# 2 20.1622 84.5868 47.2328 24.9907 10.2733 10.8017
# 3 38.6769 47.2328 79.2523 13.8326 5.8279 -2.7322
# 4 15.1875 24.9907 13.8326 42.0075 5.3874 8.2759
# 5 19.9353 10.2733 5.8279 5.3874 22.6698 -1.4497
# 6 31.5288 10.8017 -2.7322 8.2759 -1.4497 36.7274
#
#
#
# Elastic Compliance Matrix: (Units=1/GPa)
#
#
# Indices 1 2 3 4 5 6 
#
# 1 0.022700 0.009365 -0.015714 -0.001126 -0.021433 -0.024002
# 2 0.009365 0.025719 -0.018020 -0.007800 -0.014412 -0.015755
# 3 -0.015714 -0.018020 0.030624 0.000064 0.015482 0.021664
# 4 -0.001126 -0.007800 0.000064 0.029900 -0.002826 -0.003583
# 5 -0.021433 -0.014412 0.015482 -0.002826 0.067915 0.027107
# 6 -0.024002 -0.015755 0.021664 -0.003583 0.027107 0.055955
#
#
# Mechanical properties :
#
#
# Convention : Reuss Voigt Hill
#
# Bulk Modulus (GPa) = 32.99931 54.60070 43.80001
# Shear Modulus (GPa) = 17.14362 31.82699 24.48530
#
# Velocity S-wave (km/s) = 2.78953 3.80082 3.33375
# Velocity P-wave (km/s) = 5.03525 6.63664 5.89061
#
# Compressibility (1/GPa) = 0.03030366
#
# Stress axis : x y z
#
# Youngs Moduli (GPa) = 44.05312 38.88149 32.65452
#
# Poissons Ratio (x) = -0.36412 0.51313
# Poissons Ratio (y) = -0.41255 0.58844
# Poissons Ratio (z) = 0.69225 0.70065
#
# Static dielectric constant tensor:
#      x y z
#    x 1.763440 -0.017780 -0.023370 
#    y -0.017780 1.884940 -0.000180 
#    z -0.023370 -0.000180 1.853940 
# 
# From -- ./inp_files/207452.got.cif
#   From: 2010.05.17/outbox.cif.g08.bks.cpg/sg2_104_cif.got.tgz:207452.got - 2010.06.03 11:33:40.
