data_PCOD9105989
_publ_section_title
;
Structure prediction by ZEFSAII (Michael W. Deem and Ramdas Pophale) SiO2 
 PCOD9105989
Probable space group: P -1
;
_chemical_formula_sum "Si O2"
_cell_formula_units_Z 16
_cell_length_a 13.974583
_cell_length_b 12.403680
_cell_length_c 9.140996
_cell_angle_alpha 47.616955
_cell_angle_beta 138.645612
_cell_angle_gamma 129.208236
_cell_volume 747.004131
_symmetry_space_group_name_H-M "P -1"
_symmetry_group_IT_number 2
_symmetry_cell_setting 'triclinic'
loop_
_space_group_symop_operation_xyz
x,y,z
-x,-y,-z
loop_
_atom_site_type_symbol
_atom_site_label
_atom_site_fract_x
_atom_site_fract_y
_atom_site_fract_z
Si Si1 0.360146 0.362071 0.010253
Si Si2 0.428451 0.705737 0.463234
Si Si3 0.170425 0.437975 0.976487
Si Si4 0.870050 0.204764 0.967602
Si Si5 0.266869 0.355050 0.596451
Si Si6 0.686059 0.778472 0.511892
Si Si7 0.965764 0.008134 0.779661
Si Si8 0.931401 0.284265 0.300202
O O1 0.440578 0.262839 0.293014
O O2 0.500000 0.500000 0.000000
O O3 0.231616 0.412445 0.909301
O O4 0.291588 0.298000 0.837897
O O5 0.286759 0.765864 0.285826
O O6 0.374027 0.523911 0.545796
O O7 0.518763 0.781877 0.354864
O O8 0.163489 0.606107 0.848286
O O9 0.008152 0.330029 0.934960
O O10 0.289790 0.384432 0.263093
O O11 0.875099 0.215797 0.139940
O O12 0.904405 0.050006 0.098554
O O13 0.282869 0.227969 0.616781
O O14 0.100824 0.377652 0.373667
O O15 0.811391 0.893993 0.645576
O O16 0.949168 0.165585 0.552547
O O17 0.000000 0.000000 0.000000
#
# Coordination Sequence:
#
# PCOD9105989 Si02
#       8
#     2   2   2   2   2   2   2   2
#     4   9  22  37  57 100 136 173 205 261 333 385
#     4  10  21  40  67  97 134 168 212 275 331 384
#     4  10  20  39  66  98 129 164 220 274 319 383
#     4  11  22  42  67 100 127 169 224 275 324 385
#     4  11  20  36  67 100 130 165 220 269 326 383
#     4  10  22  43  67  93 134 173 218 265 332 391
#     4  11  27  45  65  92 133 179 220 269 329 394
#     4  12  23  39  70 100 129 168 227 274 324 382
#
# _framework density 21.418890999999999
#
# number of rings (size 3 to 8) (size 9 to 14) (size 15 to 20)
#    0.000    1.500    3.750    1.875    5.250    4.500 
#    0.000    1.250    8.250    0.000    0.000    0.000 
#    0.000    0.000    0.000    0.000    0.000    0.000 
#
# Total GULP energy -89256.655261 kJ/mol
# GULP energy per Si atom -5578.540954 kJ/mol
# Density = 2.137014 g / cm^3
# Si number density = 21.418891 Si / 1000 Ang^3
#
#
#
# Elastic Constant Matrix: (Units=GPa)
#
#
# Indices 1 2 3 4 5 6 
#
# 1 135.1202 34.1475 52.3035 3.1998 2.0799 -18.5421
# 2 34.1475 69.7095 37.9955 0.1459 -10.1932 -15.7214
# 3 52.3035 37.9955 63.7082 3.2165 7.1618 -20.5992
# 4 3.1998 0.1459 3.2165 36.5492 -7.9164 -6.5864
# 5 2.0799 -10.1932 7.1618 -7.9164 44.8249 12.0448
# 6 -18.5421 -15.7214 -20.5992 -6.5864 12.0448 25.9504
#
#
#
# Elastic Compliance Matrix: (Units=1/GPa)
#
#
# Indices 1 2 3 4 5 6 
#
# 1 0.010897 -0.000448 -0.008649 0.000018 0.000688 0.000334
# 2 -0.000448 0.024023 -0.015611 0.002971 0.008917 -0.001543
# 3 -0.008649 -0.015611 0.042343 -0.002034 -0.017096 0.025393
# 4 0.000018 0.002971 -0.002034 0.029543 0.004740 0.005496
# 5 0.000688 0.008917 -0.017096 0.004740 0.033833 -0.022178
# 6 0.000334 -0.001543 0.025393 0.005496 -0.022178 0.069685
#
#
# Mechanical properties :
#
#
# Convention : Reuss Voigt Hill
#
# Bulk Modulus (GPa) = 35.91066 57.49232 46.70149
# Shear Modulus (GPa) = 18.58581 31.07099 24.82840
#
# Velocity S-wave (km/s) = 2.94892 3.81285 3.40837
# Velocity P-wave (km/s) = 5.32890 6.80323 6.11069
#
# Compressibility (1/GPa) = 0.02784689
#
# Stress axis : x y z
#
# Youngs Moduli (GPa) = 91.76948 41.62651 23.61656
#
# Poissons Ratio (x) = 0.01863 0.20427
# Poissons Ratio (y) = 0.04107 0.36868
# Poissons Ratio (z) = 0.79375 0.64984
#
# Static dielectric constant tensor:
#      x y z
#    x 1.854650 0.028910 -0.051990 
#    y 0.028910 1.848490 0.012680 
#    z -0.051990 0.012680 1.780000 
# 
# From -- ./inp_files/257207.got.cif
#   From: 2010.05.17/outbox.cif.g08.bks.cpg/sg2_129_cif.got.tgz:257207.got - 2010.06.03 11:33:40.
