data_PCOD9105967
_publ_section_title
;
Structure prediction by ZEFSAII (Michael W. Deem and Ramdas Pophale) SiO2 
 PCOD9105967
Probable space group: P -1
;
_chemical_formula_sum "Si O2"
_cell_formula_units_Z 16
_cell_length_a 22.114142
_cell_length_b 8.953660
_cell_length_c 16.250127
_cell_angle_alpha 33.857300
_cell_angle_beta 153.887824
_cell_angle_gamma 148.284535
_cell_volume 712.979495
_symmetry_space_group_name_H-M "P -1"
_symmetry_group_IT_number 2
_symmetry_cell_setting 'triclinic'
loop_
_space_group_symop_operation_xyz
x,y,z
-x,-y,-z
loop_
_atom_site_type_symbol
_atom_site_label
_atom_site_fract_x
_atom_site_fract_y
_atom_site_fract_z
Si Si1 0.825806 0.391918 0.944788
Si Si2 0.395011 0.612635 0.192211
Si Si3 0.149644 0.692854 0.171924
Si Si4 0.362881 0.180990 0.852001
Si Si5 0.743180 0.708517 0.175806
Si Si6 0.086992 0.818978 0.571945
Si Si7 0.217878 0.360892 0.922943
Si Si8 0.338422 0.396597 0.554662
O O1 0.718310 0.493060 0.820258
O O2 0.846275 0.459576 0.841541
O O3 0.002657 0.524332 0.126047
O O4 0.754860 0.038884 0.027869
O O5 0.546835 0.561773 0.398579
O O6 0.302149 0.458286 0.067925
O O7 0.435467 0.959799 0.067846
O O8 0.295687 0.667067 0.399745
O O9 0.152526 0.006752 0.010405
O O10 0.360245 0.399619 0.820228
O O11 0.417043 0.337879 0.759310
O O12 0.183788 0.958122 0.710721
O O13 0.699339 0.557181 0.102486
O O14 0.911986 0.748088 0.386192
O O15 0.106423 0.522373 0.711585
O O16 0.184422 0.087833 0.505216
#
# Coordination Sequence:
#
# PCOD9105967 Si02
#       8
#     2   2   2   2   2   2   2   2
#     4   9  19  36  60  78 109 142 186 218 267 327
#     4  10  20  37  55  82 109 147 179 221 268 323
#     4  10  20  37  57  83 105 144 180 226 270 319
#     4   8  18  31  58  79 102 142 186 218 261 319
#     4  10  16  34  55  85 105 141 182 227 269 311
#     4   9  18  32  56  84 105 140 180 230 263 311
#     4  10  22  32  55  80 119 140 171 229 280 310
#     4  10  20  34  62  78 108 144 190 212 263 330
#
# _framework density 22.441039
#
# number of rings (size 3 to 8) (size 9 to 14) (size 15 to 20)
#    0.750    1.750    1.250    1.125    0.000    2.500 
#    0.000    0.625    2.750    0.000    0.000    0.000 
#    0.000    0.000    0.000    0.000    0.000    0.000 
#
# Total GULP energy -89076.597238 kJ/mol
# GULP energy per Si atom -5567.287327 kJ/mol
# Density = 2.238996 g / cm^3
# Si number density = 22.441039 Si / 1000 Ang^3
#
#
#
# Elastic Constant Matrix: (Units=GPa)
#
#
# Indices 1 2 3 4 5 6 
#
# 1 117.8267 29.8979 12.8272 -3.6900 31.6660 4.0407
# 2 29.8979 46.0856 20.7403 -2.0868 11.3499 -6.7367
# 3 12.8272 20.7403 63.5141 -10.2704 15.6748 2.6455
# 4 -3.6900 -2.0868 -10.2704 22.1571 3.3682 2.4083
# 5 31.6660 11.3499 15.6748 3.3682 33.8511 1.8490
# 6 4.0407 -6.7367 2.6455 2.4083 1.8490 28.3783
#
#
#
# Elastic Compliance Matrix: (Units=1/GPa)
#
#
# Indices 1 2 3 4 5 6 
#
# 1 0.013694 -0.007933 0.003943 0.005657 -0.012327 -0.003878
# 2 -0.007933 0.032526 -0.010458 -0.004394 0.001243 0.010118
# 3 0.003943 -0.010458 0.023720 0.013122 -0.012167 -0.005576
# 4 0.005657 -0.004394 0.013122 0.054752 -0.014974 -0.006743
# 5 -0.012327 0.001243 -0.012167 -0.014974 0.047706 0.001347
# 6 -0.003878 0.010118 -0.005576 -0.006743 0.001347 0.039196
#
#
# Mechanical properties :
#
#
# Convention : Reuss Voigt Hill
#
# Bulk Modulus (GPa) = 24.36379 39.37302 31.86841
# Shear Modulus (GPa) = 19.67180 27.80804 23.73992
#
# Velocity S-wave (km/s) = 2.96395 3.52399 3.25603
# Velocity P-wave (km/s) = 4.75329 5.84305 5.32611
#
# Compressibility (1/GPa) = 0.04104452
#
# Stress axis : x y z
#
# Youngs Moduli (GPa) = 73.02585 30.74480 42.15850
#
# Poissons Ratio (x) = 0.24391 -0.16625
# Poissons Ratio (y) = 0.57934 0.44088
# Poissons Ratio (z) = -0.28797 0.32152
#
# Static dielectric constant tensor:
#      x y z
#    x 1.884950 -0.032420 -0.046420 
#    y -0.032420 1.903130 0.084420 
#    z -0.046420 0.084420 1.928520 
# 
# From -- ./inp_files/270477.got.cif
#   From: 2010.05.17/outbox.cif.g08.bks.cpg/sg2_136_cif.got.tgz:270477.got - 2010.06.03 11:33:40.
