data_PCOD9105006
_publ_section_title
;
Structure prediction by ZEFSAII (Michael W. Deem and Ramdas Pophale) SiO2 
 PCOD9105006
Probable space group: P -1
;
_chemical_formula_sum "Si O2"
_cell_formula_units_Z 16
_cell_length_a 5.608641
_cell_length_b 15.390973
_cell_length_c 9.804451
_cell_angle_alpha 123.245778
_cell_angle_beta 89.838610
_cell_angle_gamma 112.855569
_cell_volume 627.535426
_symmetry_space_group_name_H-M "P -1"
_symmetry_group_IT_number 2
_symmetry_cell_setting 'triclinic'
loop_
_space_group_symop_operation_xyz
x,y,z
-x,-y,-z
loop_
_atom_site_type_symbol
_atom_site_label
_atom_site_fract_x
_atom_site_fract_y
_atom_site_fract_z
Si Si1 0.663718 0.562488 0.361801
Si Si2 0.659826 0.215435 0.466798
Si Si3 0.154080 0.614049 0.920375
Si Si4 0.684776 0.845090 0.826035
Si Si5 0.767274 0.001917 0.189685
Si Si6 0.318086 0.066645 0.579327
Si Si7 0.145539 0.343291 0.271503
Si Si8 0.327526 0.613836 0.205435
O O1 0.736718 0.463211 0.225616
O O2 0.365328 0.476798 0.351600
O O3 0.858097 0.645020 0.552703
O O4 0.593382 0.627351 0.294735
O O5 0.542119 0.238607 0.348933
O O6 0.733767 0.113962 0.335171
O O7 0.432363 0.159726 0.538297
O O8 0.828009 0.333086 0.652869
O O9 0.091416 0.682828 0.859410
O O10 0.866445 0.526591 0.915557
O O11 0.341786 0.662435 0.095131
O O12 0.779620 0.762750 0.836459
O O13 0.924075 0.939202 0.811372
O O14 0.608743 0.922608 0.993691
O O15 0.676690 0.914963 0.242916
O O16 0.500000 0.000000 0.500000
O O17 0.000000 0.000000 0.500000
#
# Coordination Sequence:
#
# PCOD9105006 Si02
#       8
#     2   2   2   2   2   2   2   2
#     4  10  20  39  63  87 127 165 210 266 323 400
#     4  11  22  40  68  93 128 174 229 272 347 407
#     4  10  22  40  60  91 133 164 211 270 331 389
#     4  11  22  42  63  93 130 168 226 277 338 405
#     4  10  24  41  63  94 127 172 223 285 338 402
#     4  10  21  43  67  94 134 177 227 287 347 410
#     4  10  22  37  60  95 122 167 211 267 326 404
#     4  10  22  39  62  96 124 166 220 263 328 405
#
# _framework density 25.496569000000001
#
# number of rings (size 3 to 8) (size 9 to 14) (size 15 to 20)
#    0.000    1.750    2.500    1.125    1.750    2.000 
#    4.500    0.000    0.000    0.000    0.000    0.000 
#    0.000    0.000    0.000    0.000    0.000    0.000 
#
# Total GULP energy -89223.795425 kJ/mol
# GULP energy per Si atom -5576.487214 kJ/mol
# Density = 2.543854 g / cm^3
# Si number density = 25.496569 Si / 1000 Ang^3
#
#
#
# Elastic Constant Matrix: (Units=GPa)
#
#
# Indices 1 2 3 4 5 6 
#
# 1 82.0372 35.4144 39.8257 -16.3583 11.0056 -29.4135
# 2 35.4144 115.7292 48.5718 -17.7689 10.5533 -29.0441
# 3 39.8257 48.5718 165.5496 -24.5920 2.3356 -29.9056
# 4 -16.3583 -17.7689 -24.5920 42.4135 -9.2868 11.4991
# 5 11.0056 10.5533 2.3356 -9.2868 37.1702 -8.6479
# 6 -29.4135 -29.0441 -29.9056 11.4991 -8.6479 54.3599
#
#
#
# Elastic Compliance Matrix: (Units=1/GPa)
#
#
# Indices 1 2 3 4 5 6 
#
# 1 0.017090 -0.002317 -0.001954 0.002341 -0.002281 0.006076
# 2 -0.002317 0.011322 -0.001934 0.001585 -0.001268 0.003195
# 3 -0.001954 -0.001934 0.007818 0.002847 0.001788 0.001892
# 4 0.002341 0.001585 0.002847 0.028380 0.005429 -0.001460
# 5 -0.002281 -0.001268 0.001788 0.005429 0.029803 0.002665
# 6 0.006076 0.003195 0.001892 -0.001460 0.002665 0.025164
#
#
# Mechanical properties :
#
#
# Convention : Reuss Voigt Hill
#
# Bulk Modulus (GPa) = 41.98313 67.88219 54.93266
# Shear Modulus (GPa) = 35.73309 42.75566 39.24437
#
# Velocity S-wave (km/s) = 3.74770 4.09946 3.92752
# Velocity P-wave (km/s) = 5.93540 7.00638 6.49301
#
# Compressibility (1/GPa) = 0.02381909
#
# Stress axis : x y z
#
# Youngs Moduli (GPa) = 58.51478 88.32049 127.91731
#
# Poissons Ratio (x) = 0.20467 0.24993
# Poissons Ratio (y) = 0.13560 0.24741
# Poissons Ratio (z) = 0.11433 0.17082
#
# Static dielectric constant tensor:
#      x y z
#    x 2.124150 0.076760 0.051370 
#    y 0.076760 2.094090 0.028430 
#    z 0.051370 0.028430 2.047210 
# 
# From -- ./inp_files/139579.got.cif
#   From: 2010.05.17/outbox.cif.g08.bks.cpg/sg2_70_cif.got.tgz:139579.got - 2010.06.03 11:33:40.
