data_PCOD9105725
_publ_section_title
;
Structure prediction by ZEFSAII (Michael W. Deem and Ramdas Pophale) SiO2 
 PCOD9105725
Probable space group: P -1
;
_chemical_formula_sum "Si O2"
_cell_formula_units_Z 12
_cell_length_a 11.417943
_cell_length_b 15.588603
_cell_length_c 5.790456
_cell_angle_alpha 108.198832
_cell_angle_beta 60.245185
_cell_angle_gamma 143.153414
_cell_volume 529.392091
_symmetry_space_group_name_H-M "P -1"
_symmetry_group_IT_number 2
_symmetry_cell_setting 'triclinic'
loop_
_space_group_symop_operation_xyz
x,y,z
-x,-y,-z
loop_
_atom_site_type_symbol
_atom_site_label
_atom_site_fract_x
_atom_site_fract_y
_atom_site_fract_z
Si Si1 0.858917 0.673210 0.392806
Si Si2 0.379866 0.702683 0.777966
Si Si3 0.029289 0.938085 0.229721
Si Si4 0.540703 0.423423 0.141158
Si Si5 0.361856 0.193998 0.790535
Si Si6 0.033049 0.587511 0.330810
O O1 0.008621 0.832704 0.292074
O O2 0.757704 0.578176 0.171983
O O3 0.651771 0.605666 0.675583
O O4 0.978810 0.665620 0.437363
O O5 0.510330 0.683521 0.718800
O O6 0.523325 0.809636 0.514164
O O7 0.158949 0.548166 0.759265
O O8 0.276807 0.705069 0.089353
O O9 0.835843 0.851758 0.162478
O O10 0.000000 0.000000 0.500000
O O11 0.251101 0.074342 0.992734
O O12 0.527672 0.357447 0.864860
O O13 0.000000 0.500000 0.500000
#
# Coordination Sequence:
#
# PCOD9105725 Si02
#       6
#     2   2   2   2   2   2
#     4  10  21  41  63  99 130 162 217 275 307 379
#     4  10  20  40  60  91 128 168 208 265 318 380
#     4  11  22  40  60  98 134 169 208 264 322 382
#     4  10  20  39  65  96 127 163 216 272 320 364
#     4  11  21  37  67  92 129 175 206 258 330 380
#     4  10  22  40  62  90 130 172 210 260 325 381
#
# _framework density 22.667511000000001
#
# number of rings (size 3 to 8) (size 9 to 14) (size 15 to 20)
#    0.000    1.667    3.333    1.000    0.000    0.667 
#    9.000    0.833    0.000    7.000    0.000    3.500 
#    0.000    0.000    0.000    0.000    0.000    0.000 
#
# Total GULP energy -66851.466664 kJ/mol
# GULP energy per Si atom -5570.955555 kJ/mol
# Density = 2.261592 g / cm^3
# Si number density = 22.667511 Si / 1000 Ang^3
#
#
#
# Elastic Constant Matrix: (Units=GPa)
#
#
# Indices 1 2 3 4 5 6 
#
# 1 130.4030 39.9170 42.3017 -5.7202 -15.8511 -35.3984
# 2 39.9170 98.7880 44.9423 -12.7927 0.1449 -21.8433
# 3 42.3017 44.9423 124.9438 -32.5963 -13.6233 -19.5945
# 4 -5.7202 -12.7927 -32.5963 42.5681 10.2801 12.8473
# 5 -15.8511 0.1449 -13.6233 10.2801 24.7158 -4.3249
# 6 -35.3984 -21.8433 -19.5945 12.8473 -4.3249 38.8242
#
#
#
# Elastic Compliance Matrix: (Units=1/GPa)
#
#
# Indices 1 2 3 4 5 6 
#
# 1 0.014779 -0.002679 -0.002337 -0.008729 0.014513 0.015294
# 2 -0.002679 0.013611 -0.003739 0.001020 -0.003834 0.002564
# 3 -0.002337 -0.003739 0.012294 0.007558 0.002105 -0.000295
# 4 -0.008729 0.001020 0.007558 0.039194 -0.021045 -0.018885
# 5 0.014513 -0.003834 0.002105 -0.021045 0.064300 0.026264
# 6 0.015294 0.002564 -0.000295 -0.018885 0.026264 0.050170
#
#
# Mechanical properties :
#
#
# Convention : Reuss Voigt Hill
#
# Bulk Modulus (GPa) = 43.14803 67.60632 55.37718
# Shear Modulus (GPa) = 22.77061 36.35322 29.56192
#
# Velocity S-wave (km/s) = 3.17290 4.00904 3.61522
# Velocity P-wave (km/s) = 5.70084 7.16379 6.47377
#
# Compressibility (1/GPa) = 0.02317603
#
# Stress axis : x y z
#
# Youngs Moduli (GPa) = 67.66213 73.47244 81.33789
#
# Poissons Ratio (x) = 0.19682 0.19005
# Poissons Ratio (y) = 0.18126 0.30410
# Poissons Ratio (z) = 0.15809 0.27470
#
# Static dielectric constant tensor:
#      x y z
#    x 1.925910 0.030310 0.019310 
#    y 0.030310 1.852020 0.013450 
#    z 0.019310 0.013450 2.007500 
# 
# From -- ./inp_files/72717.got.cif
#   From: 2010.05.17/outbox.cif.g08.bks.cpg/sg2_37_cif.got.tgz:72717.got - 2010.06.03 11:33:40.
