data_PCOD9105045
_publ_section_title
;
Structure prediction by ZEFSAII (Michael W. Deem and Ramdas Pophale) SiO2 
 PCOD9105045
Probable space group: P -1
;
_chemical_formula_sum "Si O2"
_cell_formula_units_Z 16
_cell_length_a 14.418140
_cell_length_b 11.052947
_cell_length_c 9.385334
_cell_angle_alpha 54.121875
_cell_angle_beta 140.536966
_cell_angle_gamma 103.104165
_cell_volume 692.313577
_symmetry_space_group_name_H-M "P -1"
_symmetry_group_IT_number 2
_symmetry_cell_setting 'triclinic'
loop_
_space_group_symop_operation_xyz
x,y,z
-x,-y,-z
loop_
_atom_site_type_symbol
_atom_site_label
_atom_site_fract_x
_atom_site_fract_y
_atom_site_fract_z
Si Si1 0.555365 0.915115 0.905053
Si Si2 0.361015 0.688838 0.119309
Si Si3 0.242461 0.591062 0.579006
Si Si4 0.535442 0.365267 0.415848
Si Si5 0.232619 0.881104 0.563092
Si Si6 0.917126 0.733616 0.945304
Si Si7 0.308166 0.265169 0.067066
Si Si8 0.332894 0.256197 0.564544
O O1 0.677561 0.811054 0.246246
O O2 0.416135 0.851623 0.763040
O O3 0.651243 0.880798 0.897158
O O4 0.451623 0.095942 0.722230
O O5 0.375301 0.518569 0.185778
O O6 0.342615 0.706665 0.255153
O O7 0.549515 0.655812 0.340862
O O8 0.245794 0.835322 0.778765
O O9 0.395791 0.574587 0.678240
O O10 0.194897 0.752275 0.513397
O O11 0.262863 0.433473 0.805952
O O12 0.104046 0.626374 0.272827
O O13 0.467365 0.241877 0.359615
O O14 0.121661 0.074996 0.268005
O O15 0.825095 0.729096 0.984268
O O16 0.835236 0.671145 0.767318
#
# Coordination Sequence:
#
# PCOD9105045 Si02
#       8
#     2   2   2   2   2   2   2   2
#     4   9  19  34  63  90 117 152 205 252 303 340
#     4  10  20  39  66  94 116 158 211 258 301 351
#     4  12  23  41  60  91 126 167 201 249 306 371
#     4  11  22  38  67  94 119 157 215 255 298 361
#     4  10  20  39  63  89 123 162 202 253 303 360
#     4  11  25  39  59  90 133 163 198 245 317 369
#     4  12  22  41  62  95 122 160 209 258 296 362
#     4   9  18  37  57  87 124 156 191 254 303 356
#
# _framework density 23.110916
#
# number of rings (size 3 to 8) (size 9 to 14) (size 15 to 20)
#    0.000    1.500    3.750    3.375    0.000    3.000 
#    0.000    4.375    0.000    0.000    0.000    0.000 
#    0.000    0.000    0.000    0.000    0.000    0.000 
#
# Total GULP energy -89373.691855 kJ/mol
# GULP energy per Si atom -5585.855741 kJ/mol
# Density = 2.305831 g / cm^3
# Si number density = 23.110916 Si / 1000 Ang^3
#
#
#
# Elastic Constant Matrix: (Units=GPa)
#
#
# Indices 1 2 3 4 5 6 
#
# 1 58.3750 -0.8753 13.5458 -7.8060 -24.7680 -5.4311
# 2 -0.8753 62.8971 8.7305 -0.1809 -7.2333 -5.0569
# 3 13.5458 8.7305 107.3639 1.0162 -24.4096 5.3030
# 4 -7.8060 -0.1809 1.0162 34.7461 6.5828 -13.9180
# 5 -24.7680 -7.2333 -24.4096 6.5828 31.8550 2.3347
# 6 -5.4311 -5.0569 5.3030 -13.9180 2.3347 24.3216
#
#
#
# Elastic Compliance Matrix: (Units=1/GPa)
#
#
# Indices 1 2 3 4 5 6 
#
# 1 0.027267 0.003317 0.000577 0.005272 0.020745 0.007678
# 2 0.003317 0.017066 -0.000961 0.002000 0.004926 0.005170
# 3 0.000577 -0.000961 0.012225 -0.005013 0.011124 -0.006673
# 4 0.005272 0.002000 -0.005013 0.043545 -0.010383 0.028601
# 5 0.020745 0.004926 0.011124 -0.010383 0.059930 -0.008464
# 6 0.007678 0.005170 -0.006673 0.028601 -0.008464 0.062540
#
#
# Mechanical properties :
#
#
# Convention : Reuss Voigt Hill
#
# Bulk Modulus (GPa) = 16.01857 30.15979 23.08918
# Shear Modulus (GPa) = 21.05124 32.00022 26.52573
#
# Velocity S-wave (km/s) = 3.02135 3.72511 3.39153
# Velocity P-wave (km/s) = 4.37237 5.61963 5.03477
#
# Compressibility (1/GPa) = 0.06242756
#
# Stress axis : x y z
#
# Youngs Moduli (GPa) = 36.67376 58.59448 81.79625
#
# Poissons Ratio (x) = -0.19439 -0.04721
# Poissons Ratio (y) = -0.12166 0.07857
# Poissons Ratio (z) = -0.02117 0.05629
#
# Static dielectric constant tensor:
#      x y z
#    x 1.837420 0.023940 -0.059420 
#    y 0.023940 1.975980 -0.003620 
#    z -0.059420 -0.003620 1.888590 
# 
# From -- ./inp_files/239536.got.cif
#   From: 2010.05.17/outbox.cif.g08.bks.cpg/sg2_120_cif.got.tgz:239536.got - 2010.06.03 11:33:40.
