data_PCOD9105433
_publ_section_title
;
Structure prediction by ZEFSAII (Michael W. Deem and Ramdas Pophale) SiO2 
 PCOD9105433
Probable space group: P -1
;
_chemical_formula_sum "Si O2"
_cell_formula_units_Z 16
_cell_length_a 9.218730
_cell_length_b 12.320178
_cell_length_c 14.693838
_cell_angle_alpha 111.141684
_cell_angle_beta 143.912243
_cell_angle_gamma 54.397333
_cell_volume 777.975695
_symmetry_space_group_name_H-M "P -1"
_symmetry_group_IT_number 2
_symmetry_cell_setting 'triclinic'
loop_
_space_group_symop_operation_xyz
x,y,z
-x,-y,-z
loop_
_atom_site_type_symbol
_atom_site_label
_atom_site_fract_x
_atom_site_fract_y
_atom_site_fract_z
Si Si1 0.099466 0.090355 0.634040
Si Si2 0.314142 0.102141 0.560006
Si Si3 0.318689 0.635825 0.387982
Si Si4 0.691778 0.631670 0.404986
Si Si5 0.845685 0.226733 0.939201
Si Si6 0.112224 0.347248 0.978547
Si Si7 0.955469 0.935735 0.838423
Si Si8 0.256795 0.884816 0.795401
O O1 0.282194 0.114583 0.658272
O O2 0.831680 0.230761 0.581952
O O3 0.278420 0.998912 0.783990
O O4 0.000000 0.000000 0.500000
O O5 0.281052 0.236946 0.541892
O O6 0.041829 0.097234 0.386042
O O7 0.632051 0.974695 0.658403
O O8 0.500000 0.500000 0.500000
O O9 0.535535 0.631861 0.419258
O O10 0.057558 0.645239 0.197969
O O11 0.474422 0.656793 0.219053
O O12 0.000000 0.500000 0.500000
O O13 0.044041 0.265121 0.994406
O O14 0.885242 0.082045 0.886069
O O15 0.920961 0.195014 0.072932
O O16 0.457763 0.261547 0.118409
O O17 0.000000 0.500000 0.000000
O O18 0.191832 0.908101 0.875068
#
# Coordination Sequence:
#
# PCOD9105433 Si02
#       8
#     2   2   2   2   2   2   2   2
#     4  10  22  39  68  97 131 170 220 276 330 388
#     4  10  21  37  62  93 128 164 209 271 335 385
#     4  11  25  44  69  98 132 175 230 271 333 401
#     4  10  21  38  65  89 127 173 216 270 326 391
#     4   9  21  40  64  87 127 165 213 269 339 388
#     4  11  26  43  64  92 138 181 218 271 336 402
#     4  10  20  39  64  95 121 161 216 281 333 392
#     4  11  23  38  63  93 132 164 221 268 334 388
#
# _framework density 20.566196000000001
#
# number of rings (size 3 to 8) (size 9 to 14) (size 15 to 20)
#    0.000    1.750    0.000    4.125    7.000    7.000 
#    2.250    0.625    0.000    0.000    0.000    0.000 
#    0.000    0.000    0.000    0.000    0.000    0.000 
#
# Total GULP energy -89248.667948 kJ/mol
# GULP energy per Si atom -5578.041747 kJ/mol
# Density = 2.051939 g / cm^3
# Si number density = 20.566196 Si / 1000 Ang^3
#
#
#
# Elastic Constant Matrix: (Units=GPa)
#
#
# Indices 1 2 3 4 5 6 
#
# 1 113.8644 50.6106 54.9183 -27.5138 -6.7770 6.0119
# 2 50.6106 103.0391 47.0651 -31.3563 -1.6615 -12.2448
# 3 54.9183 47.0651 51.1886 -20.1154 -5.8964 2.4831
# 4 -27.5138 -31.3563 -20.1154 39.5354 4.5783 4.5339
# 5 -6.7770 -1.6615 -5.8964 4.5783 36.0139 -10.8215
# 6 6.0119 -12.2448 2.4831 4.5339 -10.8215 38.6756
#
#
#
# Elastic Compliance Matrix: (Units=1/GPa)
#
#
# Indices 1 2 3 4 5 6 
#
# 1 0.018777 0.000337 -0.018814 0.004112 -0.000743 -0.002294
# 2 0.000337 0.019815 -0.016180 0.007084 -0.000699 0.006234
# 3 -0.018814 -0.016180 0.056390 0.003036 0.002953 -0.005348
# 4 0.004112 0.007084 0.003036 0.036270 -0.004222 -0.004024
# 5 -0.000743 -0.000699 0.002953 -0.004222 0.031307 0.008959
# 6 -0.002294 0.006234 -0.005348 -0.004024 0.008959 0.031508
#
#
# Mechanical properties :
#
#
# Convention : Reuss Voigt Hill
#
# Bulk Modulus (GPa) = 38.95760 63.69780 51.32770
# Shear Modulus (GPa) = 18.38665 30.54486 24.46576
#
# Velocity S-wave (km/s) = 2.99327 3.85801 3.45281
# Velocity P-wave (km/s) = 5.56146 7.13337 6.39589
#
# Compressibility (1/GPa) = 0.02566893
#
# Stress axis : x y z
#
# Youngs Moduli (GPa) = 53.25652 50.46609 17.73376
#
# Poissons Ratio (x) = -0.01703 0.33364
# Poissons Ratio (y) = -0.01797 0.28693
# Poissons Ratio (z) = 1.00196 0.81654
#
# Static dielectric constant tensor:
#      x y z
#    x 1.783220 -0.003190 -0.034190 
#    y -0.003190 1.709260 0.053270 
#    z -0.034190 0.053270 1.835130 
# 
# From -- ./inp_files/314481.got.cif
#   From: 2010.05.17/outbox.cif.g08.bks.cpg/sg2_158_cif.got.tgz:314481.got - 2010.06.03 11:33:40.
