data_PCOD9105680
_publ_section_title
;
Structure prediction by ZEFSAII (Michael W. Deem and Ramdas Pophale) SiO2 
 PCOD9105680
Probable space group: P -1
;
_chemical_formula_sum "Si O2"
_cell_formula_units_Z 16
_cell_length_a 8.737136
_cell_length_b 13.421573
_cell_length_c 10.737436
_cell_angle_alpha 78.730972
_cell_angle_beta 105.602394
_cell_angle_gamma 148.528942
_cell_volume 631.684987
_symmetry_space_group_name_H-M "P -1"
_symmetry_group_IT_number 2
_symmetry_cell_setting 'triclinic'
loop_
_space_group_symop_operation_xyz
x,y,z
-x,-y,-z
loop_
_atom_site_type_symbol
_atom_site_label
_atom_site_fract_x
_atom_site_fract_y
_atom_site_fract_z
Si Si1 0.341009 0.458276 0.272842
Si Si2 0.140869 0.921413 0.122427
Si Si3 0.885945 0.990832 0.134283
Si Si4 0.273899 0.576497 0.003513
Si Si5 0.240646 0.465308 0.751621
Si Si6 0.310801 0.863676 0.682412
Si Si7 0.307601 0.753277 0.461507
Si Si8 0.292804 0.173472 0.604488
O O1 0.292156 0.494217 0.125615
O O2 0.455428 0.407304 0.278324
O O3 0.598020 0.658647 0.358375
O O4 0.975077 0.707740 0.685823
O O5 0.470180 0.051943 0.178652
O O6 0.016566 0.863861 0.967855
O O7 0.095410 0.006115 0.158542
O O8 0.925305 0.728749 0.196969
O O9 0.580609 0.800742 0.039641
O O10 0.776343 0.935231 0.264233
O O11 0.262103 0.537107 0.867655
O O12 0.000000 0.500000 0.000000
O O13 0.018439 0.399906 0.625003
O O14 0.317026 0.776076 0.604628
O O15 0.468316 0.042264 0.601968
O O16 0.431775 0.717240 0.442411
O O17 0.000000 0.000000 0.500000
#
# Coordination Sequence:
#
# PCOD9105680 Si02
#       8
#     2   2   2   2   2   2   2   2
#     4  11  24  41  66  96 130 169 218 270 328 387
#     4  10  20  39  65  94 130 175 210 269 320 395
#     4  10  21  38  64  96 131 168 217 260 332 386
#     4  11  22  40  66  97 135 166 214 270 325 385
#     4  11  22  42  68  96 131 173 211 273 327 386
#     4  10  23  43  65  92 130 172 223 271 323 385
#     4  10  24  42  66  89 130 176 223 263 330 385
#     4  11  23  43  67  97 131 172 217 273 327 380
#
# _framework density 25.329080000000001
#
# number of rings (size 3 to 8) (size 9 to 14) (size 15 to 20)
#    0.000    1.500    2.500    3.375    3.500    2.000 
#    2.250    3.125    0.000    0.000    0.000    0.000 
#    0.000    0.000    0.000    0.000    0.000    0.000 
#
# Total GULP energy -89657.475224 kJ/mol
# GULP energy per Si atom -5603.592201 kJ/mol
# Density = 2.527143 g / cm^3
# Si number density = 25.329080 Si / 1000 Ang^3
#
#
#
# Elastic Constant Matrix: (Units=GPa)
#
#
# Indices 1 2 3 4 5 6 
#
# 1 150.6260 26.9268 41.5587 15.7185 -12.7217 35.8161
# 2 26.9268 86.1938 23.9018 -0.2282 -1.2733 17.5477
# 3 41.5587 23.9018 120.1757 12.8144 -8.7600 10.3359
# 4 15.7185 -0.2282 12.8144 34.5189 4.0229 -1.4912
# 5 -12.7217 -1.2733 -8.7600 4.0229 42.6102 4.4464
# 6 35.8161 17.5477 10.3359 -1.4912 4.4464 48.1600
#
#
#
# Elastic Compliance Matrix: (Units=1/GPa)
#
#
# Indices 1 2 3 4 5 6 
#
# 1 0.009768 -0.001090 -0.001815 -0.004509 0.003662 -0.006956
# 2 -0.001090 0.013240 -0.002092 0.001221 -0.000108 -0.003517
# 3 -0.001815 -0.002092 0.009839 -0.003052 0.001733 -0.000254
# 4 -0.004509 0.001221 -0.003052 0.033036 -0.005589 0.005102
# 5 0.003662 -0.000108 0.001733 -0.005589 0.026030 -0.005632
# 6 -0.006956 -0.003517 -0.000254 0.005102 -0.005632 0.027951
#
#
# Mechanical properties :
#
#
# Convention : Reuss Voigt Hill
#
# Bulk Modulus (GPa) = 43.75926 60.19666 51.97796
# Shear Modulus (GPa) = 36.37002 42.69837 39.53420
#
# Velocity S-wave (km/s) = 3.79344 4.11024 3.95501
# Velocity P-wave (km/s) = 6.04158 6.80756 6.43597
#
# Compressibility (1/GPa) = 0.02285231
#
# Stress axis : x y z
#
# Youngs Moduli (GPa) = 102.37087 75.52870 101.64023
#
# Poissons Ratio (x) = 0.08233 0.18451
# Poissons Ratio (y) = 0.11159 0.21263
# Poissons Ratio (z) = 0.18584 0.15801
#
# Static dielectric constant tensor:
#      x y z
#    x 2.006600 -0.072020 -0.033630 
#    y -0.072020 2.137800 -0.008560 
#    z -0.033630 -0.008560 2.019010 
# 
# From -- ./inp_files/391153.got.cif
#   From: 2010.05.17/outbox.cif.g08.bks.cpg/sg2_196_cif.got.tgz:391153.got - 2010.06.03 11:33:40.
