data_PCOD9105942
_publ_section_title
;
Structure prediction by ZEFSAII (Michael W. Deem and Ramdas Pophale) SiO2 
 PCOD9105942
Probable space group: P -1
;
_chemical_formula_sum "Si O2"
_cell_formula_units_Z 16
_cell_length_a 11.204210
_cell_length_b 7.578967
_cell_length_c 14.608136
_cell_angle_alpha 92.703890
_cell_angle_beta 29.329928
_cell_angle_gamma 92.883435
_cell_volume 606.845682
_symmetry_space_group_name_H-M "P -1"
_symmetry_group_IT_number 2
_symmetry_cell_setting 'triclinic'
loop_
_space_group_symop_operation_xyz
x,y,z
-x,-y,-z
loop_
_atom_site_type_symbol
_atom_site_label
_atom_site_fract_x
_atom_site_fract_y
_atom_site_fract_z
Si Si1 0.620076 0.598796 0.679050
Si Si2 0.427122 0.190929 0.017144
Si Si3 0.848277 0.254405 0.962494
Si Si4 0.064281 0.679487 0.600731
Si Si5 0.665713 0.167016 0.416954
Si Si6 0.043846 0.699094 0.298093
Si Si7 0.173922 0.136839 0.988723
Si Si8 0.698042 0.597253 0.252650
O O1 0.411642 0.663651 0.886459
O O2 0.772027 0.418195 0.587579
O O3 0.445536 0.560279 0.706088
O O4 0.832444 0.738861 0.513158
O O5 0.318230 0.180713 0.987299
O O6 0.206415 0.255548 0.231345
O O7 0.682909 0.296013 0.847656
O O8 0.500000 0.000000 0.000000
O O9 0.965012 0.193788 0.786913
O O10 0.030486 0.399186 0.888259
O O11 0.813238 0.075024 0.038637
O O12 0.213661 0.823569 0.561804
O O13 0.020351 0.504912 0.689205
O O14 0.480318 0.326934 0.549500
O O15 0.892875 0.181246 0.197604
O O16 0.500000 0.000000 0.500000
O O17 0.275679 0.250729 0.839955
#
# Coordination Sequence:
#
# PCOD9105942 Si02
#       8
#     2   2   2   2   2   2   2   2
#     4   9  24  43  61  98 133 173 217 266 316 403
#     4  11  21  44  73  94 128 172 225 274 325 385
#     4  12  23  40  67  98 135 171 218 266 325 394
#     4   8  21  43  64  93 128 172 216 263 329 381
#     4  10  20  39  66  95 127 171 214 263 326 382
#     4  10  23  44  66  96 130 176 221 266 327 383
#     4  11  25  41  66  97 132 176 213 275 333 378
#     4  11  24  43  64  98 134 175 215 264 333 393
#
# _framework density 26.365848
#
# number of rings (size 3 to 8) (size 9 to 14) (size 15 to 20)
#    0.750    1.000    2.500    1.125    3.500    2.500 
#    2.250    5.625    0.000    0.000    0.000    0.000 
#    0.000    0.000    0.000    0.000    0.000    0.000 
#
# Total GULP energy -89437.748608 kJ/mol
# GULP energy per Si atom -5589.859288 kJ/mol
# Density = 2.630584 g / cm^3
# Si number density = 26.365848 Si / 1000 Ang^3
#
#
#
# Elastic Constant Matrix: (Units=GPa)
#
#
# Indices 1 2 3 4 5 6 
#
# 1 100.5856 17.1123 44.2797 -19.9239 -14.3909 0.1133
# 2 17.1123 78.3108 34.1105 -3.4135 -0.6349 -1.7222
# 3 44.2797 34.1105 215.2263 1.8989 -38.7149 3.9085
# 4 -19.9239 -3.4135 1.8989 43.5147 8.7539 -12.8529
# 5 -14.3909 -0.6349 -38.7149 8.7539 41.7386 -9.4126
# 6 0.1133 -1.7222 3.9085 -12.8529 -9.4126 34.3821
#
#
#
# Elastic Compliance Matrix: (Units=1/GPa)
#
#
# Indices 1 2 3 4 5 6 
#
# 1 0.012630 -0.001458 -0.002179 0.006300 0.001653 0.002941
# 2 -0.001458 0.014211 -0.002458 0.001315 -0.002672 0.000756
# 3 -0.002179 -0.002458 0.006557 -0.002730 0.005799 -0.000294
# 4 0.006300 0.001315 -0.002730 0.030024 -0.004291 0.010404
# 5 0.001653 -0.002672 0.005799 -0.004291 0.032214 0.006416
# 6 0.002941 0.000756 -0.000294 0.010404 0.006416 0.034793
#
#
# Mechanical properties :
#
#
# Convention : Reuss Voigt Hill
#
# Bulk Modulus (GPa) = 47.15322 65.01418 56.08370
# Shear Modulus (GPa) = 33.40261 43.83509 38.61885
#
# Velocity S-wave (km/s) = 3.56320 4.08189 3.83133
# Velocity P-wave (km/s) = 5.90352 6.85038 6.39450
#
# Compressibility (1/GPa) = 0.02120746
#
# Stress axis : x y z
#
# Youngs Moduli (GPa) = 79.17583 70.36629 152.51343
#
# Poissons Ratio (x) = 0.10260 0.33232
# Poissons Ratio (y) = 0.11545 0.37493
# Poissons Ratio (z) = 0.17252 0.17298
#
# Static dielectric constant tensor:
#      x y z
#    x 2.082670 0.034560 0.035920 
#    y 0.034560 2.065150 0.011950 
#    z 0.035920 0.011950 2.117180 
# 
# From -- ./inp_files/597192.got.cif
#   From: 2010.05.17/outbox.cif.g08.bks.cpg/sg2_299_cif.got.tgz:597192.got - 2010.06.03 11:33:40.
