data_PCOD9105749
_publ_section_title
;
Structure prediction by ZEFSAII (Michael W. Deem and Ramdas Pophale) SiO2 
 PCOD9105749
Probable space group: P -1
;
_chemical_formula_sum "Si O2"
_cell_formula_units_Z 16
_cell_length_a 8.091068
_cell_length_b 9.125942
_cell_length_c 16.234958
_cell_angle_alpha 58.003892
_cell_angle_beta 78.948456
_cell_angle_gamma 116.097558
_cell_volume 757.812507
_symmetry_space_group_name_H-M "P -1"
_symmetry_group_IT_number 2
_symmetry_cell_setting 'triclinic'
loop_
_space_group_symop_operation_xyz
x,y,z
-x,-y,-z
loop_
_atom_site_type_symbol
_atom_site_label
_atom_site_fract_x
_atom_site_fract_y
_atom_site_fract_z
Si Si1 0.035308 0.838599 0.002241
Si Si2 0.369957 0.645046 0.411540
Si Si3 0.674242 0.533264 0.358425
Si Si4 0.540358 0.010760 0.163566
Si Si5 0.912497 0.315043 0.791139
Si Si6 0.992184 0.713903 0.574646
Si Si7 0.341609 0.222382 0.339774
Si Si8 0.414097 0.572990 0.917238
O O1 0.067112 0.715373 0.106636
O O2 0.820126 0.650760 0.026539
O O3 0.258775 0.976372 0.887342
O O4 0.000000 0.000000 0.000000
O O5 0.551785 0.624174 0.372576
O O6 0.349673 0.615813 0.519359
O O7 0.143962 0.440942 0.446784
O O8 0.446258 0.877161 0.298644
O O9 0.550646 0.386211 0.332025
O O10 0.933957 0.723621 0.258246
O O11 0.612298 0.255074 0.092918
O O12 0.338822 0.860311 0.163284
O O13 0.011645 0.564479 0.678377
O O14 0.833058 0.744827 0.627355
O O15 0.212498 0.959420 0.451878
O O16 0.422778 0.300332 0.215291
O O17 0.500000 0.500000 0.000000
#
# Coordination Sequence:
#
# PCOD9105749 Si02
#       8
#     2   2   2   2   2   2   2   2
#     4  12  26  48  72  95 129 180 232 277 333 397
#     4   9  21  40  66  95 136 169 222 269 328 399
#     4  10  20  39  65  97 133 172 218 267 333 388
#     4  11  26  44  67 101 136 174 222 279 335 393
#     4  11  23  39  72  98 130 172 225 275 330 402
#     4   9  22  39  66  97 131 175 214 277 324 406
#     4  10  22  44  63  94 137 173 220 265 342 386
#     4  12  28  46  68  98 136 177 222 281 334 397
#
# _framework density 21.113399999999999
#
# number of rings (size 3 to 8) (size 9 to 14) (size 15 to 20)
#    0.000    1.500    1.250    2.250    8.750    2.500 
#    6.750    0.000    0.000    0.000    0.000    0.000 
#    0.000    0.000    0.000    0.000    0.000    0.000 
#
# Total GULP energy -89486.219736 kJ/mol
# GULP energy per Si atom -5592.888733 kJ/mol
# Density = 2.106534 g / cm^3
# Si number density = 21.113400 Si / 1000 Ang^3
#
#
#
# Elastic Constant Matrix: (Units=GPa)
#
#
# Indices 1 2 3 4 5 6 
#
# 1 76.9301 47.8662 44.5658 -4.7954 2.4067 12.3437
# 2 47.8662 80.5563 53.4778 -9.2953 5.3943 -2.8187
# 3 44.5658 53.4778 111.6060 12.5110 8.4928 18.0889
# 4 -4.7954 -9.2953 12.5110 37.3341 4.1362 2.6969
# 5 2.4067 5.3943 8.4928 4.1362 51.6696 3.6641
# 6 12.3437 -2.8187 18.0889 2.6969 3.6641 30.8879
#
#
#
# Elastic Compliance Matrix: (Units=1/GPa)
#
#
# Indices 1 2 3 4 5 6 
#
# 1 0.023979 -0.013454 -0.001693 0.000889 0.001207 -0.010040
# 2 -0.013454 0.030441 -0.012493 0.009213 -0.002295 0.014939
# 3 -0.001693 -0.012493 0.018296 -0.008687 -0.000191 -0.010397
# 4 0.000889 0.009213 -0.008687 0.032146 -0.002365 0.003046
# 5 0.001207 -0.002295 -0.000191 -0.002365 0.019952 -0.002740
# 6 -0.010040 0.014939 -0.010397 0.003046 -0.002740 0.043899
#
#
# Mechanical properties :
#
#
# Convention : Reuss Voigt Hill
#
# Bulk Modulus (GPa) = 57.35273 62.32355 59.83814
# Shear Modulus (GPa) = 21.75749 32.19051 26.97400
#
# Velocity S-wave (km/s) = 3.21363 3.90891 3.57820
# Velocity P-wave (km/s) = 6.40258 7.06791 6.74345
#
# Compressibility (1/GPa) = 0.01743596
#
# Stress axis : x y z
#
# Youngs Moduli (GPa) = 41.70269 32.85002 54.65704
#
# Poissons Ratio (x) = 0.44197 0.09252
# Poissons Ratio (y) = 0.56108 0.68285
# Poissons Ratio (z) = 0.07059 0.41041
#
# Static dielectric constant tensor:
#      x y z
#    x 1.762790 -0.023560 -0.008770 
#    y -0.023560 1.724320 -0.000360 
#    z -0.008770 -0.000360 1.761750 
# 
# From -- ./inp_files/494490.got.cif
#   From: 2010.05.17/outbox.cif.g08.bks.cpg/sg2_248_cif.got.tgz:494490.got - 2010.06.03 11:33:40.
