data_PCOD9105377
_publ_section_title
;
Structure prediction by ZEFSAII (Michael W. Deem and Ramdas Pophale) SiO2 
 PCOD9105377
Probable space group: P -1
;
_chemical_formula_sum "Si O2"
_cell_formula_units_Z 14
_cell_length_a 13.589091
_cell_length_b 9.162297
_cell_length_c 6.587194
_cell_angle_alpha 93.185324
_cell_angle_beta 124.575088
_cell_angle_gamma 116.604136
_cell_volume 547.776734
_symmetry_space_group_name_H-M "P -1"
_symmetry_group_IT_number 2
_symmetry_cell_setting 'triclinic'
loop_
_space_group_symop_operation_xyz
x,y,z
-x,-y,-z
loop_
_atom_site_type_symbol
_atom_site_label
_atom_site_fract_x
_atom_site_fract_y
_atom_site_fract_z
Si Si1 0.867098 0.955618 0.195950
Si Si2 0.106709 0.804636 0.126668
Si Si3 0.363509 0.717175 0.914606
Si Si4 0.674825 0.597525 0.698598
Si Si5 0.366390 0.173150 0.540655
Si Si6 0.853305 0.481823 0.047348
Si Si7 0.419045 0.081387 0.149502
O O1 0.730111 0.953780 0.122850
O O2 0.921813 0.089161 0.070744
O O3 0.000000 0.000000 0.500000
O O4 0.774112 0.748414 0.996439
O O5 0.247317 0.963767 0.425353
O O6 0.991642 0.675616 0.154256
O O7 0.127669 0.670609 0.014277
O O8 0.202439 0.556081 0.786971
O O9 0.395168 0.892046 0.082324
O O10 0.425930 0.779362 0.768292
O O11 0.510929 0.297978 0.849791
O O12 0.711501 0.724322 0.556947
O O13 0.725740 0.469468 0.766211
O O14 0.500000 0.500000 0.500000
O O15 0.414925 0.145604 0.372999
#
# Coordination Sequence:
#
# PCOD9105377 Si02
#       7
#     2   2   2   2   2   2   2
#     4  10  22  43  64  88 137 179 209 267 334 396
#     4   9  22  38  63  91 125 175 215 264 318 407
#     4  11  19  35  68  89 127 164 213 277 317 388
#     4  10  21  37  64  96 124 161 221 270 314 388
#     4  10  20  39  64  92 126 171 216 261 332 390
#     4  11  20  38  62  95 129 160 222 270 327 372
#     4   9  21  36  59  98 119 165 225 256 320 393
#
# _framework density 25.557855
#
# number of rings (size 3 to 8) (size 9 to 14) (size 15 to 20)
#    0.000    2.286    4.286    0.429    0.000    4.571 
#    0.000    5.000    3.143    0.000    0.000    0.000 
#    0.000    0.000    0.000    0.000    0.000    0.000 
#
# Total GULP energy -78042.379967 kJ/mol
# GULP energy per Si atom -5574.455712 kJ/mol
# Density = 2.549968 g / cm^3
# Si number density = 25.557855 Si / 1000 Ang^3
#
#
#
# Elastic Constant Matrix: (Units=GPa)
#
#
# Indices 1 2 3 4 5 6 
#
# 1 86.9653 52.5619 11.2808 2.2592 20.3524 49.3030
# 2 52.5619 120.1153 33.8316 5.2400 10.5007 29.9763
# 3 11.2808 33.8316 92.3184 10.7726 10.4053 -2.0725
# 4 2.2592 5.2400 10.7726 29.8853 4.3317 29.0317
# 5 20.3524 10.5007 10.4053 4.3317 35.9258 3.2990
# 6 49.3030 29.9763 -2.0725 29.0317 3.2990 58.7540
#
#
#
# Elastic Compliance Matrix: (Units=1/GPa)
#
#
# Indices 1 2 3 4 5 6 
#
# 1 -0.151160 -0.009092 0.050296 -0.273108 0.082450 0.263577
# 2 -0.009092 0.012529 -0.003354 -0.003121 0.002605 0.002514
# 3 0.050296 -0.003354 -0.001316 0.075552 -0.029241 -0.076231
# 4 -0.273108 -0.003121 0.075552 -0.408359 0.143762 0.427142
# 5 0.082450 0.002605 -0.029241 0.143762 -0.015486 -0.141714
# 6 0.263577 0.002514 -0.076231 0.427142 -0.141714 -0.411234
#
#
# Mechanical properties :
#
#
# Convention : Reuss Voigt Hill
#
# Bulk Modulus (GPa) = -15.56501 54.97196 19.70347
# Shear Modulus (GPa) = -4.66356 38.36133 16.84888
#
# Velocity S-wave (km/s) = -1.35228 3.87843 2.57036
# Velocity P-wave (km/s) = 2.92259 6.45072 4.06634
#
# Compressibility (1/GPa) = -0.06424668
#
# Stress axis : x y z
#
# Youngs Moduli (GPa) = -6.61550 79.81250 -759.59827
#
# Poissons Ratio (x) = 0.72563 38.20452
# Poissons Ratio (y) = -0.06015 -2.54744
# Poissons Ratio (z) = 0.33273 0.26766
#
# Static dielectric constant tensor:
#      x y z
#    x 2.097810 0.092590 0.023850 
#    y 0.092590 2.180960 -0.095140 
#    z 0.023850 -0.095140 2.098250 
# 
# From -- ./inp_files/328953.got.cif
#   From: 2010.05.17/outbox.cif.g08.bks.cpg/sg2_165_cif.got.tgz:328953.got - 2010.06.03 11:33:40.
