data_PCOD9105189
_publ_section_title
;
Structure prediction by ZEFSAII (Michael W. Deem and Ramdas Pophale) SiO2 
 PCOD9105189
Probable space group: P -1
;
_chemical_formula_sum "Si O2"
_cell_formula_units_Z 12
_cell_length_a 7.340078
_cell_length_b 9.451559
_cell_length_c 10.964399
_cell_angle_alpha 49.419827
_cell_angle_beta 109.559139
_cell_angle_gamma 125.060630
_cell_volume 471.959925
_symmetry_space_group_name_H-M "P -1"
_symmetry_group_IT_number 2
_symmetry_cell_setting 'triclinic'
loop_
_space_group_symop_operation_xyz
x,y,z
-x,-y,-z
loop_
_atom_site_type_symbol
_atom_site_label
_atom_site_fract_x
_atom_site_fract_y
_atom_site_fract_z
Si Si1 0.655524 0.913196 0.026666
Si Si2 0.703837 0.511871 0.880639
Si Si3 0.347943 0.145318 0.484393
Si Si4 0.736454 0.697396 0.396340
Si Si5 0.181923 0.718097 0.530642
Si Si6 0.015713 0.369607 0.884437
O O1 0.510389 0.722702 0.006316
O O2 0.703902 0.790041 0.213063
O O3 0.121750 0.865163 0.074789
O O4 0.500000 0.000000 0.000000
O O5 0.650877 0.672727 0.703916
O O6 0.853068 0.452376 0.857657
O O7 0.839484 0.621105 0.971936
O O8 0.211016 0.126758 0.584953
O O9 0.601395 0.213489 0.541232
O O10 0.250428 0.926953 0.511699
O O11 0.500000 0.500000 0.500000
O O12 0.940933 0.652693 0.459654
O O13 0.158275 0.536182 0.719855
#
# Coordination Sequence:
#
# PCOD9105189 Si02
#       6
#     2   2   2   2   2   2
#     4  10  21  38  64  98 123 165 221 259 328 389
#     4  10  20  39  63  95 126 170 216 263 324 385
#     4  11  24  42  65  97 130 168 223 266 321 391
#     4  12  22  42  70  92 130 172 212 274 324 383
#     4  11  25  42  65  99 127 171 221 266 325 387
#     4  10  21  38  66  92 130 171 214 266 322 390
#
# _framework density 25.425889000000002
#
# number of rings (size 3 to 8) (size 9 to 14) (size 15 to 20)
#    0.000    1.333    3.333    2.500    7.000    1.333 
#    0.000    0.833    0.000    0.000    0.000    0.000 
#    0.000    0.000    0.000    0.000    0.000    0.000 
#
# Total GULP energy -67269.400083 kJ/mol
# GULP energy per Si atom -5605.783340 kJ/mol
# Density = 2.536802 g / cm^3
# Si number density = 25.425889 Si / 1000 Ang^3
#
#
#
# Elastic Constant Matrix: (Units=GPa)
#
#
# Indices 1 2 3 4 5 6 
#
# 1 127.0280 13.2802 24.0313 5.3294 18.0054 11.0528
# 2 13.2802 113.9849 8.4093 -25.9793 6.1359 19.9571
# 3 24.0313 8.4093 72.0869 -8.8507 18.0583 19.1856
# 4 5.3294 -25.9793 -8.8507 43.3004 8.1339 7.9310
# 5 18.0054 6.1359 18.0583 8.1339 25.8433 5.5758
# 6 11.0528 19.9571 19.1856 7.9310 5.5758 37.7787
#
#
#
# Elastic Compliance Matrix: (Units=1/GPa)
#
#
# Indices 1 2 3 4 5 6 
#
# 1 0.009009 -0.000877 -0.001862 -0.001138 -0.004333 -0.000348
# 2 -0.000877 0.013903 0.005339 0.013145 -0.008106 -0.011362
# 3 -0.001862 0.005339 0.024193 0.014536 -0.018231 -0.014923
# 4 -0.001138 0.013145 0.014536 0.041697 -0.021382 -0.019591
# 5 -0.004333 -0.008106 -0.018231 -0.021382 0.060883 0.010311
# 6 -0.000348 -0.011362 -0.014923 -0.019591 0.010311 0.042743
#
#
# Mechanical properties :
#
#
# Convention : Reuss Voigt Hill
#
# Bulk Modulus (GPa) = 19.11899 44.94904 32.03402
# Shear Modulus (GPa) = 24.43028 39.20976 31.82002
#
# Velocity S-wave (km/s) = 3.10311 3.93124 3.54147
# Velocity P-wave (km/s) = 4.51385 6.19056 5.41747
#
# Compressibility (1/GPa) = 0.05230402
#
# Stress axis : x y z
#
# Youngs Moduli (GPa) = 111.00515 71.92629 41.33345
#
# Poissons Ratio (x) = 0.06311 0.07698
# Poissons Ratio (y) = 0.09740 -0.22069
# Poissons Ratio (z) = 0.20674 -0.38403
#
# Static dielectric constant tensor:
#      x y z
#    x 2.023050 0.031710 0.031740 
#    y 0.031710 2.104670 -0.009440 
#    z 0.031740 -0.009440 1.873300 
# 
# From -- ./inp_files/420173.got.cif
#   From: 2010.05.17/outbox.cif.g08.bks.cpg/sg2_211_cif.got.tgz:420173.got - 2010.06.03 11:33:40.
