data_PCOD9105515
_publ_section_title
;
Structure prediction by ZEFSAII (Michael W. Deem and Ramdas Pophale) SiO2 
 PCOD9105515
Probable space group: P -1
;
_chemical_formula_sum "Si O2"
_cell_formula_units_Z 14
_cell_length_a 7.466926
_cell_length_b 13.197849
_cell_length_c 6.479311
_cell_angle_alpha 91.040756
_cell_angle_beta 62.303145
_cell_angle_gamma 110.582138
_cell_volume 521.082237
_symmetry_space_group_name_H-M "P -1"
_symmetry_group_IT_number 2
_symmetry_cell_setting 'triclinic'
loop_
_space_group_symop_operation_xyz
x,y,z
-x,-y,-z
loop_
_atom_site_type_symbol
_atom_site_label
_atom_site_fract_x
_atom_site_fract_y
_atom_site_fract_z
Si Si1 0.258123 0.045521 0.104503
Si Si2 0.692857 0.090218 0.614085
Si Si3 0.085489 0.671146 0.476594
Si Si4 0.754543 0.604765 0.992973
Si Si5 0.350906 0.627269 0.995531
Si Si6 0.467988 0.786976 0.573989
Si Si7 0.089067 0.170844 0.908371
O O1 0.495852 0.088604 0.871454
O O2 0.139461 0.123707 0.097654
O O3 0.263523 0.015561 0.340817
O O4 0.119859 0.927252 0.071531
O O5 0.895063 0.203964 0.562401
O O6 0.615881 0.114600 0.431283
O O7 0.286367 0.691868 0.529493
O O8 0.865674 0.604827 0.711354
O O9 0.144474 0.625396 0.236392
O O10 0.536548 0.624867 0.055739
O O11 0.705959 0.485293 0.106598
O O12 0.911727 0.710471 0.038720
O O13 0.444752 0.736202 0.810267
O O14 0.703598 0.812422 0.348519
#
# Coordination Sequence:
#
# PCOD9105515 Si02
#       7
#     2   2   2   2   2   2   2
#     4   9  17  36  72  89 133 175 211 278 330 381
#     4   8  18  38  63  97 125 166 221 265 324 394
#     4  10  22  44  63  96 137 167 223 273 320 400
#     4  11  24  42  67  98 130 180 221 265 337 387
#     4  11  23  44  67  95 139 174 215 278 324 394
#     4   9  21  39  65  96 136 165 219 272 326 387
#     4  10  20  39  65 101 131 169 226 270 324 402
#
# _framework density 26.867159000000001
#
# number of rings (size 3 to 8) (size 9 to 14) (size 15 to 20)
#    0.857    1.429    1.429    0.429    2.000    2.286 
#    0.000    1.429   15.714    0.000    0.000    0.000 
#    0.000    0.000    0.000    0.000    0.000    0.000 
#
# Total GULP energy -78362.831660 kJ/mol
# GULP energy per Si atom -5597.345119 kJ/mol
# Density = 2.680601 g / cm^3
# Si number density = 26.867159 Si / 1000 Ang^3
#
#
#
# Elastic Constant Matrix: (Units=GPa)
#
#
# Indices 1 2 3 4 5 6 
#
# 1 85.2300 22.5214 31.0657 -2.2581 8.9047 -9.1245
# 2 22.5214 142.6811 41.4818 -5.2109 1.6571 -7.1007
# 3 31.0657 41.4818 99.0191 1.1993 -14.3794 -27.5818
# 4 -2.2581 -5.2109 1.1993 39.7023 2.9809 5.7732
# 5 8.9047 1.6571 -14.3794 2.9809 32.2512 -5.8063
# 6 -9.1245 -7.1007 -27.5818 5.7732 -5.8063 37.2742
#
#
#
# Elastic Compliance Matrix: (Units=1/GPa)
#
#
# Indices 1 2 3 4 5 6 
#
# 1 0.014680 -0.000481 -0.006216 0.001888 -0.007433 -0.002548
# 2 -0.000481 0.008375 -0.004540 0.001813 -0.002962 -0.002624
# 3 -0.006216 -0.004540 0.020499 -0.004945 0.014389 0.015789
# 4 0.001888 0.001813 -0.004945 0.027380 -0.006818 -0.008154
# 5 -0.007433 -0.002962 0.014389 -0.006818 0.043144 0.016040
# 6 -0.002548 -0.002624 0.015789 -0.008154 0.016040 0.041149
#
#
# Mechanical properties :
#
#
# Convention : Reuss Voigt Hill
#
# Bulk Modulus (GPa) = 47.44384 57.45199 52.44791
# Shear Modulus (GPa) = 27.06687 37.30299 32.18493
#
# Velocity S-wave (km/s) = 3.17745 3.73020 3.46486
# Velocity P-wave (km/s) = 5.58199 6.32318 5.96411
#
# Compressibility (1/GPa) = 0.02107755
#
# Stress axis : x y z
#
# Youngs Moduli (GPa) = 68.12165 119.40755 48.78361
#
# Poissons Ratio (x) = 0.05749 0.30323
# Poissons Ratio (y) = 0.03280 0.22150
# Poissons Ratio (z) = 0.42343 0.54216
#
# Static dielectric constant tensor:
#      x y z
#    x 2.138610 0.018650 0.089340 
#    y 0.018650 2.130160 0.005710 
#    z 0.089340 0.005710 2.059140 
# 
# From -- ./inp_files/32800.got.cif
#   From: 2010.05.17/outbox.cif.g08.bks.cpg/sg2_17_cif.got.tgz:32800.got - 2010.06.03 11:33:40.
