data_PCOD9105164
_publ_section_title
;
Structure prediction by ZEFSAII (Michael W. Deem and Ramdas Pophale) SiO2 
 PCOD9105164
Probable space group: P -1
;
_chemical_formula_sum "Si O2"
_cell_formula_units_Z 14
_cell_length_a 9.331197
_cell_length_b 15.093802
_cell_length_c 12.423685
_cell_angle_alpha 31.555668
_cell_angle_beta 132.940409
_cell_angle_gamma 122.889999
_cell_volume 667.144150
_symmetry_space_group_name_H-M "P -1"
_symmetry_group_IT_number 2
_symmetry_cell_setting 'triclinic'
loop_
_space_group_symop_operation_xyz
x,y,z
-x,-y,-z
loop_
_atom_site_type_symbol
_atom_site_label
_atom_site_fract_x
_atom_site_fract_y
_atom_site_fract_z
Si Si1 0.657550 0.793302 0.897043
Si Si2 0.421467 0.841968 0.063396
Si Si3 0.205975 0.068883 0.556713
Si Si4 0.088181 0.650173 0.193947
Si Si5 0.605544 0.473600 0.343340
Si Si6 0.523230 0.172044 0.457588
Si Si7 0.264208 0.372768 0.428063
O O1 0.506543 0.791999 0.720883
O O2 0.649800 0.990031 0.725511
O O3 0.607428 0.656153 0.101168
O O4 0.873312 0.729061 0.030831
O O5 0.227658 0.787093 0.078733
O O6 0.595630 0.695883 0.329321
O O7 0.500000 0.000000 0.000000
O O8 0.353711 0.913685 0.839318
O O9 0.311149 0.143046 0.431248
O O10 0.188465 0.216339 0.486158
O O11 0.000000 0.000000 0.500000
O O12 0.202178 0.572175 0.438016
O O13 0.099338 0.506298 0.255675
O O14 0.602016 0.326580 0.402828
O O15 0.411305 0.457143 0.334162
#
# Coordination Sequence:
#
# PCOD9105164 Si02
#       7
#     2   2   2   2   2   2   2
#     4  11  24  43  62  88 133 167 205 259 308 370
#     4   9  18  35  60  87 123 157 191 255 310 353
#     4  10  20  39  63  94 119 160 212 254 305 368
#     4  11  22  40  62  99 123 152 215 260 307 374
#     4  10  21  43  66  90 123 167 208 254 315 369
#     4  10  24  43  62  88 128 172 209 247 313 378
#     4   9  21  39  62  94 122 155 203 261 315 366
#
# _framework density 20.984970000000001
#
# number of rings (size 3 to 8) (size 9 to 14) (size 15 to 20)
#    0.000    2.000    0.000    4.286    4.000    0.571 
#   12.857    2.143    0.000    0.000    0.000    0.000 
#    0.000    0.000    0.000    0.000    0.000    0.000 
#
# Total GULP energy -78219.014497 kJ/mol
# GULP energy per Si atom -5587.072464 kJ/mol
# Density = 2.093721 g / cm^3
# Si number density = 20.984970 Si / 1000 Ang^3
#
#
#
# Elastic Constant Matrix: (Units=GPa)
#
#
# Indices 1 2 3 4 5 6 
#
# 1 43.3404 30.6541 30.8165 -13.4971 22.2967 -0.1520
# 2 30.6541 101.9005 37.0387 -21.4492 14.6531 -4.5089
# 3 30.8165 37.0387 100.6322 -13.6026 -11.1220 0.2256
# 4 -13.4971 -21.4492 -13.6026 32.6326 -10.9072 1.0894
# 5 22.2967 14.6531 -11.1220 -10.9072 44.7581 -1.9842
# 6 -0.1520 -4.5089 0.2256 1.0894 -1.9842 22.2289
#
#
#
# Elastic Compliance Matrix: (Units=1/GPa)
#
#
# Indices 1 2 3 4 5 6 
#
# 1 0.056271 -0.005680 -0.018237 0.001893 -0.030393 -0.003388
# 2 -0.005680 0.013886 -0.002791 0.005186 -0.001037 0.002459
# 3 -0.018237 -0.002791 0.018759 0.003632 0.015560 0.000330
# 4 0.001893 0.005186 0.003632 0.038944 0.007744 -0.000189
# 5 -0.030393 -0.001037 0.015560 0.007744 0.043707 0.002946
# 6 -0.003388 0.002459 0.000330 -0.000189 0.002946 0.045731
#
#
# Mechanical properties :
#
#
# Convention : Reuss Voigt Hill
#
# Bulk Modulus (GPa) = 28.16817 49.21019 38.68918
# Shear Modulus (GPa) = 17.69620 29.74818 23.72219
#
# Velocity S-wave (km/s) = 2.90708 3.76918 3.36584
# Velocity P-wave (km/s) = 4.97195 6.51486 5.79499
#
# Compressibility (1/GPa) = 0.03550106
#
# Stress axis : x y z
#
# Youngs Moduli (GPa) = 17.77113 72.01459 53.30820
#
# Poissons Ratio (x) = 0.40903 0.97217
# Poissons Ratio (y) = 0.10094 0.14877
# Poissons Ratio (z) = 0.32409 0.20097
#
# Static dielectric constant tensor:
#      x y z
#    x 1.714610 -0.008660 -0.016620 
#    y -0.008660 1.702950 -0.006440 
#    z -0.016620 -0.006440 1.782870 
# 
# From -- ./inp_files/295623.got.cif
#   From: 2010.05.17/outbox.cif.g08.bks.cpg/sg2_148_cif.got.tgz:295623.got - 2010.06.03 11:33:40.
