data_PCOD9105277
_publ_section_title
;
Structure prediction by ZEFSAII (Michael W. Deem and Ramdas Pophale) SiO2 
 PCOD9105277
Probable space group: P -1
;
_chemical_formula_sum "Si O2"
_cell_formula_units_Z 16
_cell_length_a 21.057268
_cell_length_b 9.143139
_cell_length_c 10.300414
_cell_angle_alpha 58.865774
_cell_angle_beta 124.879000
_cell_angle_gamma 149.498132
_cell_volume 824.341613
_symmetry_space_group_name_H-M "P -1"
_symmetry_group_IT_number 2
_symmetry_cell_setting 'triclinic'
loop_
_space_group_symop_operation_xyz
x,y,z
-x,-y,-z
loop_
_atom_site_type_symbol
_atom_site_label
_atom_site_fract_x
_atom_site_fract_y
_atom_site_fract_z
Si Si1 0.600857 0.128454 0.448827
Si Si2 0.782123 0.391269 0.045794
Si Si3 0.640255 0.807608 0.576613
Si Si4 0.015703 0.327431 0.076098
Si Si5 0.134993 0.640926 0.574823
Si Si6 0.492547 0.867242 0.925189
Si Si7 0.260644 0.297992 0.055651
Si Si8 0.888916 0.665436 0.549806
O O1 0.547910 0.091961 0.263741
O O2 0.740555 0.467634 0.476857
O O3 0.500000 0.000000 0.500000
O O4 0.623228 0.964143 0.549842
O O5 0.824473 0.384794 0.235187
O O6 0.889702 0.544265 0.993065
O O7 0.764134 0.563057 0.967287
O O8 0.640118 0.064060 0.989625
O O9 0.500000 0.500000 0.500000
O O10 0.695529 0.766431 0.760060
O O11 0.746736 0.027100 0.486595
O O12 0.077197 0.363169 0.262416
O O13 0.000000 0.500000 0.000000
O O14 0.874043 0.995257 0.034501
O O15 0.113729 0.469180 0.512313
O O16 0.000000 0.500000 0.500000
O O17 0.377790 0.531891 0.981445
O O18 0.500000 0.000000 0.000000
O O19 0.000000 0.000000 0.500000
#
# Coordination Sequence:
#
# PCOD9105277 Si02
#       8
#     2   2   2   2   2   2   2   2
#     4  11  23  41  61  89 124 160 197 245 301 358
#     4  11  22  41  65  89 117 159 203 246 299 358
#     4  11  22  39  62  92 122 155 200 252 298 352
#     4  12  24  40  59  88 124 159 195 245 300 354
#     4  11  23  41  62  89 121 157 200 248 296 355
#     4  10  20  39  64  88 116 158 202 246 297 356
#     4  11  22  39  63  91 119 157 203 250 295 353
#     4  11  23  40  60  86 120 159 198 242 294 354
#
# _framework density 19.409427999999998
#
# number of rings (size 3 to 8) (size 9 to 14) (size 15 to 20)
#    0.000    1.000    0.000   10.875    0.000    2.000 
#    0.000    5.000    0.000    0.000    0.000    0.000 
#    0.000    0.000    0.000    0.000    0.000    0.000 
#
# Total GULP energy -89452.843034 kJ/mol
# GULP energy per Si atom -5590.802690 kJ/mol
# Density = 1.936525 g / cm^3
# Si number density = 19.409428 Si / 1000 Ang^3
#
#
#
# Elastic Constant Matrix: (Units=GPa)
#
#
# Indices 1 2 3 4 5 6 
#
# 1 100.7782 65.6443 63.3251 -8.4714 0.9441 21.2888
# 2 65.6443 167.0249 50.2018 2.2769 -4.9801 35.2942
# 3 63.3251 50.2018 203.2924 1.4256 4.8197 13.6161
# 4 -8.4714 2.2769 1.4256 36.0028 6.2785 6.2321
# 5 0.9441 -4.9801 4.8197 6.2785 22.7683 -2.0307
# 6 21.2888 35.2942 13.6161 6.2321 -2.0307 28.8825
#
#
#
# Elastic Compliance Matrix: (Units=1/GPa)
#
#
# Indices 1 2 3 4 5 6 
#
# 1 0.017156 -0.004260 -0.003775 0.006270 -0.003219 -0.007240
# 2 -0.004260 0.009595 -0.000540 -0.000501 0.001806 -0.008096
# 3 -0.003775 -0.000540 0.006212 -0.001056 -0.000925 0.000676
# 4 0.006270 -0.000501 -0.001056 0.033087 -0.010284 -0.011374
# 5 -0.003219 0.001806 -0.000925 -0.010284 0.048034 0.006198
# 6 -0.007240 -0.008096 0.000676 -0.011374 0.006198 0.052423
#
#
# Mechanical properties :
#
#
# Convention : Reuss Voigt Hill
#
# Bulk Modulus (GPa) = 63.23229 92.15976 77.69603
# Shear Modulus (GPa) = 26.46528 36.99235 31.72881
#
# Velocity S-wave (km/s) = 3.69660 4.37039 4.04754
# Velocity P-wave (km/s) = 7.13223 8.54705 7.87149
#
# Compressibility (1/GPa) = 0.01581471
#
# Stress axis : x y z
#
# Youngs Moduli (GPa) = 58.28859 104.22312 160.97335
#
# Poissons Ratio (x) = 0.44396 0.60766
# Poissons Ratio (y) = 0.24829 0.08686
# Poissons Ratio (z) = 0.22003 0.05624
#
# Static dielectric constant tensor:
#      x y z
#    x 1.660430 0.019190 -0.002910 
#    y 0.019190 1.702370 -0.011720 
#    z -0.002910 -0.011720 1.669560 
# 
# From -- ./inp_files/207885.got.cif
#   From: 2010.05.17/outbox.cif.g08.bks.cpg/sg2_104_cif.got.tgz:207885.got - 2010.06.03 11:33:40.
