data_PCOD9105460
_publ_section_title
;
Structure prediction by ZEFSAII (Michael W. Deem and Ramdas Pophale) SiO2 
 PCOD9105460
Probable space group: P -1
;
_chemical_formula_sum "Si O2"
_cell_formula_units_Z 11
_cell_length_a 9.930847
_cell_length_b 5.269122
_cell_length_c 9.362344
_cell_angle_alpha 115.963341
_cell_angle_beta 59.085107
_cell_angle_gamma 110.289880
_cell_volume 373.138471
_symmetry_space_group_name_H-M "P -1"
_symmetry_group_IT_number 2
_symmetry_cell_setting 'triclinic'
loop_
_space_group_symop_operation_xyz
x,y,z
-x,-y,-z
loop_
_atom_site_type_symbol
_atom_site_label
_atom_site_fract_x
_atom_site_fract_y
_atom_site_fract_z
Si Si1 0.743580 0.642456 0.383455
Si Si2 0.484855 0.581103 0.287565
Si Si3 0.500000 0.000000 0.000000
Si Si4 0.787455 0.159230 0.640512
Si Si5 0.205889 0.854420 0.037843
Si Si6 0.969647 0.651676 0.828076
O O1 0.648773 0.699077 0.307811
O O2 0.620585 0.575050 0.562402
O O3 0.848678 0.387512 0.253523
O O4 0.857519 0.925910 0.450245
O O5 0.508464 0.351911 0.098033
O O6 0.366388 0.783527 0.344694
O O7 0.377258 0.969269 0.911597
O O8 0.731330 0.054760 0.806792
O O9 0.903623 0.453576 0.679468
O O10 0.126980 0.534576 0.039338
O O11 0.079656 0.043221 0.097845
#
# Coordination Sequence:
#
# PCOD9105460 Si02
#       6
#     2   2   1   2   2   2
#     4  11  23  41  61 102 131 164 214 281 322 378
#     4  11  24  39  67  93 133 172 218 264 328 380
#     4  12  20  48  62  96 126 180 216 262 314 408
#     4  10  20  39  64  96 126 166 222 258 325 380
#     4  10  23  39  69  97 125 175 218 262 319 391
#     4  10  22  41  66  98 131 169 215 270 327 382
#
# _framework density 29.479669999999999
#
# number of rings (size 3 to 8) (size 9 to 14) (size 15 to 20)
#    1.091    0.364    3.636    1.091    2.545    4.364 
#    0.000    1.818    0.000    0.000    0.000    0.000 
#    0.000    0.000    0.000    0.000    0.000    0.000 
#
# Total GULP energy -61420.282940 kJ/mol
# GULP energy per Si atom -5583.662085 kJ/mol
# Density = 2.941257 g / cm^3
# Si number density = 29.479670 Si / 1000 Ang^3
#
#
#
# Elastic Constant Matrix: (Units=GPa)
#
#
# Indices 1 2 3 4 5 6 
#
# 1 186.5217 30.6928 20.1331 -14.6018 3.0991 -33.1474
# 2 30.6928 90.0784 31.7976 14.0061 13.4911 -29.0915
# 3 20.1331 31.7976 109.9605 6.6691 -10.4478 -16.7809
# 4 -14.6018 14.0061 6.6691 40.4172 -13.3468 -7.6597
# 5 3.0991 13.4911 -10.4478 -13.3468 39.8155 11.2113
# 6 -33.1474 -29.0915 -16.7809 -7.6597 11.2113 64.0136
#
#
#
# Elastic Compliance Matrix: (Units=1/GPa)
#
#
# Indices 1 2 3 4 5 6 
#
# 1 0.006483 -0.001805 -0.000421 0.003717 0.000457 0.002791
# 2 -0.001805 0.019278 -0.004726 -0.009363 -0.012948 0.007735
# 3 -0.000421 -0.004726 0.010899 0.001292 0.004992 -0.000228
# 4 0.003717 -0.009363 0.001292 0.033881 0.014725 -0.000516
# 5 0.000457 -0.012948 0.004992 0.014725 0.038330 -0.009290
# 6 0.002791 0.007735 -0.000228 -0.000516 -0.009290 0.022087
#
#
# Mechanical properties :
#
#
# Convention : Reuss Voigt Hill
#
# Bulk Modulus (GPa) = 43.94641 61.31195 52.62918
# Shear Modulus (GPa) = 32.79787 49.11174 40.95481
#
# Velocity S-wave (km/s) = 3.33912 4.08604 3.73132
# Velocity P-wave (km/s) = 5.45949 6.56537 6.03780
#
# Compressibility (1/GPa) = 0.02275499
#
# Stress axis : x y z
#
# Youngs Moduli (GPa) = 154.24325 51.87248 91.75154
#
# Poissons Ratio (x) = 0.09365 0.03863
# Poissons Ratio (y) = 0.27847 0.43363
# Poissons Ratio (z) = 0.06495 0.24516
#
# Static dielectric constant tensor:
#      x y z
#    x 1.863120 -0.460560 0.363700 
#    y -0.460560 1.951620 0.347400 
#    z 0.363700 0.347400 2.388510 
# 
# From -- ./inp_files/372264.got.cif
#   From: 2010.05.17/outbox.cif.g08.bks.cpg/sg2_187_cif.got.tgz:372264.got - 2010.06.03 11:33:40.
