data_PCOD9105890
_publ_section_title
;
Structure prediction by ZEFSAII (Michael W. Deem and Ramdas Pophale) SiO2 
 PCOD9105890
Probable space group: P -1
;
_chemical_formula_sum "Si O2"
_cell_formula_units_Z 15
_cell_length_a 13.088541
_cell_length_b 14.099783
_cell_length_c 8.161160
_cell_angle_alpha 136.545075
_cell_angle_beta 138.163129
_cell_angle_gamma 46.114681
_cell_volume 651.714801
_symmetry_space_group_name_H-M "P -1"
_symmetry_group_IT_number 2
_symmetry_cell_setting 'triclinic'
loop_
_space_group_symop_operation_xyz
x,y,z
-x,-y,-z
loop_
_atom_site_type_symbol
_atom_site_label
_atom_site_fract_x
_atom_site_fract_y
_atom_site_fract_z
Si Si1 0.802246 0.639501 0.797841
Si Si2 0.000000 0.500000 0.500000
Si Si3 0.973133 0.198624 0.124010
Si Si4 0.335538 0.032636 0.940033
Si Si5 0.337057 0.584811 0.818697
Si Si6 0.815797 0.475514 0.932433
Si Si7 0.955197 0.931184 0.608464
Si Si8 0.702470 0.258170 0.353251
O O1 0.772162 0.519141 0.486916
O O2 0.752011 0.600231 0.870926
O O3 0.994778 0.606213 0.994624
O O4 0.708666 0.803963 0.834906
O O5 0.036878 0.326792 0.313407
O O6 0.843268 0.525982 0.208770
O O7 0.786218 0.278724 0.059268
O O8 0.067118 0.114129 0.289617
O O9 0.985355 0.085049 0.852731
O O10 0.350333 0.883258 0.864782
O O11 0.192808 0.051554 0.662978
O O12 0.500000 0.000000 0.000000
O O13 0.385455 0.640171 0.774136
O O14 0.500000 0.500000 0.000000
O O15 0.715324 0.362935 0.650052
O O16 0.112900 0.810887 0.576474
#
# Coordination Sequence:
#
# PCOD9105890 Si02
#       8
#     2   1   2   2   2   2   2   2
#     4  10  21  41  64  89 123 170 208 262 308 378
#     4  12  20  32  58 104 120 142 208 272 304 348
#     4  10  22  36  62  95 121 159 209 265 304 368
#     4  12  25  39  61  94 129 160 209 262 320 377
#     4  10  22  43  64  88 131 171 207 256 323 380
#     4  10  20  39  66  93 121 159 222 259 308 367
#     4  10  21  41  64  86 127 167 209 252 314 374
#     4  10  22  43  68  89 120 176 216 252 316 386
#
# _framework density 23.016202
#
# number of rings (size 3 to 8) (size 9 to 14) (size 15 to 20)
#    0.000    1.600    2.667    2.000    3.733    0.000 
#    4.800    2.000    0.000    0.000    0.000    0.000 
#    0.000    0.000    0.000    0.000    0.000    0.000 
#
# Total GULP energy -83604.730479 kJ/mol
# GULP energy per Si atom -5573.648699 kJ/mol
# Density = 2.296382 g / cm^3
# Si number density = 23.016202 Si / 1000 Ang^3
#
#
#
# Elastic Constant Matrix: (Units=GPa)
#
#
# Indices 1 2 3 4 5 6 
#
# 1 29.9583 15.5674 5.6641 -1.9474 -2.1552 13.2272
# 2 15.5674 117.0978 49.1924 7.8230 5.1589 18.4292
# 3 5.6641 49.1924 94.8193 11.2912 -13.9569 7.9517
# 4 -1.9474 7.8230 11.2912 28.4923 11.6642 0.4591
# 5 -2.1552 5.1589 -13.9569 11.6642 28.2529 9.0228
# 6 13.2272 18.4292 7.9517 0.4591 9.0228 33.1288
#
#
#
# Elastic Compliance Matrix: (Units=1/GPa)
#
#
# Indices 1 2 3 4 5 6 
#
# 1 0.044677 -0.004851 0.003719 -0.002224 0.013318 -0.019629
# 2 -0.004851 0.012686 -0.007333 0.001793 -0.006537 -0.001605
# 3 0.003719 -0.007333 0.018893 -0.012610 0.018319 -0.006755
# 4 -0.002224 0.001793 -0.012610 0.052284 -0.031776 0.010847
# 5 0.013318 -0.006537 0.018319 -0.031776 0.067439 -0.024005
# 6 -0.019629 -0.001605 -0.006755 0.010847 -0.024005 0.046924
#
#
# Mechanical properties :
#
#
# Convention : Reuss Voigt Hill
#
# Bulk Modulus (GPa) = 16.85568 42.52477 29.69023
# Shear Modulus (GPa) = 17.88217 29.40490 23.64354
#
# Velocity S-wave (km/s) = 2.79039 3.57819 3.20856
# Velocity P-wave (km/s) = 4.20963 5.96552 5.16277
#
# Compressibility (1/GPa) = 0.05932717
#
# Stress axis : x y z
#
# Youngs Moduli (GPa) = 22.38278 78.82686 52.92913
#
# Poissons Ratio (x) = 0.38238 -0.19685
# Poissons Ratio (y) = 0.10858 0.38812
# Poissons Ratio (z) = -0.08324 0.57803
#
# Static dielectric constant tensor:
#      x y z
#    x 1.910680 0.025350 -0.002060 
#    y 0.025350 1.902280 0.011070 
#    z -0.002060 0.011070 1.859540 
# 
# From -- ./inp_files/206468.got.cif
#   From: 2010.05.17/outbox.cif.g08.bks.cpg/sg2_104_cif.got.tgz:206468.got - 2010.06.03 11:33:40.
