data_PCOD9105159
_publ_section_title
;
Structure prediction by ZEFSAII (Michael W. Deem and Ramdas Pophale) SiO2 
 PCOD9105159
Probable space group: P -1
;
_chemical_formula_sum "Si O2"
_cell_formula_units_Z 16
_cell_length_a 9.752660
_cell_length_b 16.014462
_cell_length_c 8.546563
_cell_angle_alpha 98.646418
_cell_angle_beta 110.291289
_cell_angle_gamma 36.620244
_cell_volume 727.018127
_symmetry_space_group_name_H-M "P -1"
_symmetry_group_IT_number 2
_symmetry_cell_setting 'triclinic'
loop_
_space_group_symop_operation_xyz
x,y,z
-x,-y,-z
loop_
_atom_site_type_symbol
_atom_site_label
_atom_site_fract_x
_atom_site_fract_y
_atom_site_fract_z
Si Si1 0.176482 0.212151 0.856662
Si Si2 0.616684 0.166888 0.362456
Si Si3 0.050803 0.969638 0.261640
Si Si4 0.211378 0.728562 0.122206
Si Si5 0.551233 0.451364 0.327227
Si Si6 0.985606 0.818965 0.729115
Si Si7 0.560714 0.926699 0.747722
Si Si8 0.165572 0.482573 0.174250
O O1 0.981958 0.227888 0.823642
O O2 0.036398 0.360832 0.784169
O O3 0.384143 0.082998 0.784600
O O4 0.298173 0.170753 0.064890
O O5 0.792151 0.128306 0.548472
O O6 0.592657 0.080788 0.373028
O O7 0.348272 0.335617 0.299326
O O8 0.761298 0.100418 0.235105
O O9 0.146852 0.857299 0.143986
O O10 0.093143 0.046830 0.260121
O O11 0.478451 0.569343 0.235036
O O12 0.152646 0.726807 0.924324
O O13 0.500000 0.500000 0.500000
O O14 0.833265 0.289190 0.370989
O O15 0.369580 0.459835 0.195963
O O16 0.750539 0.869933 0.677718
O O17 0.000000 0.500000 0.000000
#
# Coordination Sequence:
#
# PCOD9105159 Si02
#       8
#     2   2   2   2   2   2   2   2
#     4   9  19  35  63  95 123 174 213 268 322 399
#     4  11  22  39  65  93 135 177 228 268 332 405
#     4  11  23  40  64  97 133 178 224 279 331 396
#     4  10  21  40  65  95 133 169 225 275 328 398
#     4  11  24  43  69 100 135 178 226 277 345 409
#     4  11  24  41  67  98 132 176 223 281 335 393
#     4  10  20  39  63  93 132 167 222 268 331 394
#     4  11  21  38  67 100 127 170 228 275 323 398
#
# _framework density 22.007701999999998
#
# number of rings (size 3 to 8) (size 9 to 14) (size 15 to 20)
#    0.000    1.500    3.750    1.500    1.750    0.500 
#    2.250    0.000    0.000    2.250    0.000    0.000 
#    0.000    0.000    0.000    0.000    0.000    0.000 
#
# Total GULP energy -89306.495875 kJ/mol
# GULP energy per Si atom -5581.655992 kJ/mol
# Density = 2.195761 g / cm^3
# Si number density = 22.007702 Si / 1000 Ang^3
#
#
#
# Elastic Constant Matrix: (Units=GPa)
#
#
# Indices 1 2 3 4 5 6 
#
# 1 67.2992 -1.1233 10.9801 15.6372 12.4945 -4.4114
# 2 -1.1233 99.8340 30.0925 4.5880 5.1837 4.7029
# 3 10.9801 30.0925 57.3466 -4.5837 3.4848 -2.4042
# 4 15.6372 4.5880 -4.5837 31.8022 -0.4868 -1.7485
# 5 12.4945 5.1837 3.4848 -0.4868 20.9299 -1.8414
# 6 -4.4114 4.7029 -2.4042 -1.7485 -1.8414 28.4341
#
#
#
# Elastic Compliance Matrix: (Units=1/GPa)
#
#
# Indices 1 2 3 4 5 6 
#
# 1 0.020965 0.003146 -0.005813 -0.011753 -0.012538 0.000706
# 2 0.003146 0.012919 -0.007626 -0.004731 -0.004169 -0.002854
# 3 -0.005813 -0.007626 0.023155 0.007485 0.001933 0.002903
# 4 -0.011753 -0.004731 0.007485 0.039247 0.008077 0.002528
# 5 -0.012538 -0.004169 0.001933 0.008077 0.056431 0.003059
# 6 0.000706 -0.002854 0.002903 0.002528 0.003059 0.036350
#
#
# Mechanical properties :
#
#
# Convention : Reuss Voigt Hill
#
# Bulk Modulus (GPa) = 27.43264 33.81984 30.62624
# Shear Modulus (GPa) = 22.54246 28.53527 25.53886
#
# Velocity S-wave (km/s) = 3.20394 3.60474 3.41024
# Velocity P-wave (km/s) = 5.11655 5.72068 5.42703
#
# Compressibility (1/GPa) = 0.03645293
#
# Stress axis : x y z
#
# Youngs Moduli (GPa) = 47.69906 77.40521 43.18717
#
# Poissons Ratio (x) = -0.24351 0.25104
# Poissons Ratio (y) = -0.15006 0.32935
# Poissons Ratio (z) = 0.27727 0.59029
#
# Static dielectric constant tensor:
#      x y z
#    x 1.811530 0.002030 0.013770 
#    y 0.002030 1.827400 -0.038390 
#    z 0.013770 -0.038390 1.867590 
# 
# From -- ./inp_files/207875.got.cif
#   From: 2010.05.17/outbox.cif.g08.bks.cpg/sg2_104_cif.got.tgz:207875.got - 2010.06.03 11:33:40.
