data_PCOD9105375
_publ_section_title
;
Structure prediction by ZEFSAII (Michael W. Deem and Ramdas Pophale) SiO2 
 PCOD9105375
Probable space group: P -1
;
_chemical_formula_sum "Si O2"
_cell_formula_units_Z 16
_cell_length_a 5.181264
_cell_length_b 12.108485
_cell_length_c 13.587794
_cell_angle_alpha 63.636672
_cell_angle_beta 95.840736
_cell_angle_gamma 78.134249
_cell_volume 729.135917
_symmetry_space_group_name_H-M "P -1"
_symmetry_group_IT_number 2
_symmetry_cell_setting 'triclinic'
loop_
_space_group_symop_operation_xyz
x,y,z
-x,-y,-z
loop_
_atom_site_type_symbol
_atom_site_label
_atom_site_fract_x
_atom_site_fract_y
_atom_site_fract_z
Si Si1 0.953243 0.441044 0.290587
Si Si2 0.747929 0.769097 0.478047
Si Si3 0.008758 0.297529 0.875529
Si Si4 0.649531 0.896330 0.900865
Si Si5 0.580722 0.938258 0.652250
Si Si6 0.862284 0.193902 0.379289
Si Si7 0.699209 0.563551 0.424482
Si Si8 0.416987 0.843243 0.103153
O O1 0.023653 0.552018 0.187717
O O2 0.827645 0.336414 0.277811
O O3 0.736024 0.518000 0.331846
O O4 0.217899 0.347104 0.394250
O O5 0.665140 0.709768 0.398599
O O6 0.043553 0.790872 0.509079
O O7 0.550745 0.910104 0.423554
O O8 0.107856 0.227817 0.010627
O O9 0.749412 0.257645 0.846981
O O10 0.262701 0.222364 0.846544
O O11 0.596476 0.904749 0.781187
O O12 0.696794 0.029082 0.888681
O O13 0.409968 0.883337 0.970786
O O14 0.382697 0.863117 0.626785
O O15 0.872127 0.895028 0.629158
O O16 0.500000 0.500000 0.500000
O O17 0.000000 0.500000 0.500000
#
# Coordination Sequence:
#
# PCOD9105375 Si02
#       8
#     2   2   2   2   2   2   2   2
#     4   9  23  42  66  93 131 165 207 254 325 378
#     4   9  23  43  65  92 125 164 212 264 311 375
#     4  10  20  39  64  92 125 164 198 256 324 379
#     4   9  23  38  65  93 126 159 215 258 316 365
#     4  12  24  42  65  93 121 173 214 265 300 372
#     4  10  26  41  65  87 129 172 214 253 311 371
#     4  10  22  39  63  94 124 158 201 262 311 373
#     4   9  21  37  65  92 129 161 200 265 318 374
#
# _framework density 21.943784000000001
#
# number of rings (size 3 to 8) (size 9 to 14) (size 15 to 20)
#    1.500    0.750    0.000    1.125    5.250    5.000 
#    0.000    1.250    0.000    0.000    0.000    0.000 
#    0.000    0.000    0.000    0.000    0.000    0.000 
#
# Total GULP energy -89088.894003 kJ/mol
# GULP energy per Si atom -5568.055875 kJ/mol
# Density = 2.189384 g / cm^3
# Si number density = 21.943784 Si / 1000 Ang^3
#
#
#
# Elastic Constant Matrix: (Units=GPa)
#
#
# Indices 1 2 3 4 5 6 
#
# 1 110.6263 33.0433 22.3677 -3.4805 -6.4848 10.6222
# 2 33.0433 139.9040 48.8228 -25.0803 -2.8014 14.8081
# 3 22.3677 48.8228 69.4799 -12.0327 5.1745 2.5416
# 4 -3.4805 -25.0803 -12.0327 43.3442 -0.0865 -1.7345
# 5 -6.4848 -2.8014 5.1745 -0.0865 15.8347 -5.0835
# 6 10.6222 14.8081 2.5416 -1.7345 -5.0835 23.8665
#
#
#
# Elastic Compliance Matrix: (Units=1/GPa)
#
#
# Indices 1 2 3 4 5 6 
#
# 1 0.010466 -0.001247 -0.002830 -0.000770 0.004098 -0.002766
# 2 -0.001247 0.011074 -0.006615 0.004281 0.002074 -0.004859
# 3 -0.002830 -0.006615 0.020854 0.001774 -0.008677 0.001424
# 4 -0.000770 0.004281 0.001774 0.025952 -0.000208 -0.000661
# 5 0.004098 0.002074 -0.008677 -0.000208 0.072267 0.013191
# 6 -0.002766 -0.004859 0.001424 -0.000661 0.013191 0.048755
#
#
# Mechanical properties :
#
#
# Convention : Reuss Voigt Hill
#
# Bulk Modulus (GPa) = 47.60135 58.71976 53.16055
# Shear Modulus (GPa) = 22.96151 30.99417 26.97784
#
# Velocity S-wave (km/s) = 3.23829 3.76232 3.51009
# Velocity P-wave (km/s) = 5.97675 6.75948 6.38013
#
# Compressibility (1/GPa) = 0.02100781
#
# Stress axis : x y z
#
# Youngs Moduli (GPa) = 95.54913 90.29975 47.95330
#
# Poissons Ratio (x) = 0.11264 0.13571
# Poissons Ratio (y) = 0.11919 0.31723
# Poissons Ratio (z) = 0.27040 0.59738
#
# Static dielectric constant tensor:
#      x y z
#    x 1.813490 -0.000110 0.007430 
#    y -0.000110 1.851300 0.015080 
#    z 0.007430 0.015080 1.897590 
# 
# From -- ./inp_files/482140.got.cif
#   From: 2010.05.17/outbox.cif.g08.bks.cpg/sg2_242_cif.got.tgz:482140.got - 2010.06.03 11:33:40.
