data_PCOD9105391
_publ_section_title
;
Structure prediction by ZEFSAII (Michael W. Deem and Ramdas Pophale) SiO2 
 PCOD9105391
Probable space group: P -1
;
_chemical_formula_sum "Si O2"
_cell_formula_units_Z 14
_cell_length_a 11.964533
_cell_length_b 9.959087
_cell_length_c 11.621001
_cell_angle_alpha 90.446194
_cell_angle_beta 112.086128
_cell_angle_gamma 142.288868
_cell_volume 661.311592
_symmetry_space_group_name_H-M "P -1"
_symmetry_group_IT_number 2
_symmetry_cell_setting 'triclinic'
loop_
_space_group_symop_operation_xyz
x,y,z
-x,-y,-z
loop_
_atom_site_type_symbol
_atom_site_label
_atom_site_fract_x
_atom_site_fract_y
_atom_site_fract_z
Si Si1 0.084111 0.946065 0.881488
Si Si2 0.536004 0.807424 0.228131
Si Si3 0.507170 0.160426 0.036123
Si Si4 0.345875 0.360406 0.144147
Si Si5 0.524773 0.246202 0.289907
Si Si6 0.318026 0.800187 0.324935
Si Si7 0.954830 0.648540 0.634632
O O1 0.875637 0.774411 0.887389
O O2 0.969153 0.801116 0.714483
O O3 0.248102 0.972366 0.960754
O O4 0.266163 0.239470 0.983941
O O5 0.552263 0.662843 0.246647
O O6 0.398539 0.756310 0.271847
O O7 0.417272 0.702721 0.054684
O O8 0.791106 0.117976 0.322669
O O9 0.628175 0.305865 0.204624
O O10 0.500000 0.000000 0.000000
O O11 0.404933 0.277329 0.230202
O O12 0.739919 0.452056 0.462806
O O13 0.337899 0.955031 0.258341
O O14 0.093525 0.525434 0.301716
O O15 0.500000 0.000000 0.500000
#
# Coordination Sequence:
#
# PCOD9105391 Si02
#       7
#     2   2   2   2   2   2   2
#     4   9  20  39  62  90 125 165 210 250 327 370
#     4  11  22  41  69  89 134 166 211 264 323 376
#     4  10  20  39  64  93 122 165 211 262 307 374
#     4  10  21  41  65  93 126 173 208 265 316 380
#     4  10  22  39  65  94 132 162 222 259 311 387
#     4  10  21  41  63  92 130 169 206 266 321 369
#     4  10  22  40  67  95 123 174 209 261 325 374
#
# _framework density 21.170051000000001
#
# number of rings (size 3 to 8) (size 9 to 14) (size 15 to 20)
#    0.000    2.000    2.857    0.000    0.000    8.571 
#    0.000   15.714   12.571    0.000    0.000    0.000 
#    0.000    0.000    0.000    0.000    0.000    0.000 
#
# Total GULP energy -77935.213714 kJ/mol
# GULP energy per Si atom -5566.800980 kJ/mol
# Density = 2.112187 g / cm^3
# Si number density = 21.170051 Si / 1000 Ang^3
#
#
#
# Elastic Constant Matrix: (Units=GPa)
#
#
# Indices 1 2 3 4 5 6 
#
# 1 110.7890 38.0375 30.3607 -3.0085 -19.2934 -19.1966
# 2 38.0375 113.5373 23.3943 11.7529 -0.4424 -18.0891
# 3 30.3607 23.3943 115.2398 2.7094 -27.3857 -6.9474
# 4 -3.0085 11.7529 2.7094 31.1591 3.2810 0.1874
# 5 -19.2934 -0.4424 -27.3857 3.2810 10.6928 4.7184
# 6 -19.1966 -18.0891 -6.9474 0.1874 4.7184 36.5896
#
#
#
# Elastic Compliance Matrix: (Units=1/GPa)
#
#
# Indices 1 2 3 4 5 6 
#
# 1 0.021805 -0.009826 0.015086 -0.003821 0.079069 -0.000730
# 2 -0.009826 0.015620 -0.012579 -0.000285 -0.052265 0.006920
# 3 0.015086 -0.012579 0.038364 -0.010969 0.131835 -0.007964
# 4 -0.003821 -0.000285 -0.010969 0.037759 -0.047327 0.001681
# 5 0.079069 -0.052265 0.131835 -0.047327 0.602419 -0.036765
# 6 -0.000730 0.006920 -0.007964 0.001681 -0.036765 0.033588
#
#
# Mechanical properties :
#
#
# Convention : Reuss Voigt Hill
#
# Bulk Modulus (GPa) = 16.35302 58.12790 37.24046
# Shear Modulus (GPa) = 6.37287 32.20655 19.28971
#
# Velocity S-wave (km/s) = 1.73691 3.90465 3.02185
# Velocity P-wave (km/s) = 3.42985 6.91705 5.45937
#
# Compressibility (1/GPa) = 0.06115079
#
# Stress axis : x y z
#
# Youngs Moduli (GPa) = 45.86119 64.02127 26.06632
#
# Poissons Ratio (x) = 0.62909 -0.39324
# Poissons Ratio (y) = 0.45064 0.32788
# Poissons Ratio (z) = -0.69187 0.80530
#
# Static dielectric constant tensor:
#      x y z
#    x 1.748350 -0.019200 0.003320 
#    y -0.019200 1.879400 -0.019920 
#    z 0.003320 -0.019920 1.845280 
# 
# From -- ./inp_files/417423.got.cif
#   From: 2010.05.17/outbox.cif.g08.bks.cpg/sg2_209_cif.got.tgz:417423.got - 2010.06.03 11:33:40.
