data_PCOD9105265
_publ_section_title
;
Structure prediction by ZEFSAII (Michael W. Deem and Ramdas Pophale) SiO2 
 PCOD9105265
Probable space group: P -1
;
_chemical_formula_sum "Si O2"
_cell_formula_units_Z 16
_cell_length_a 9.780408
_cell_length_b 9.019087
_cell_length_c 16.527811
_cell_angle_alpha 86.468818
_cell_angle_beta 121.869231
_cell_angle_gamma 53.475428
_cell_volume 830.515024
_symmetry_space_group_name_H-M "P -1"
_symmetry_group_IT_number 2
_symmetry_cell_setting 'triclinic'
loop_
_space_group_symop_operation_xyz
x,y,z
-x,-y,-z
loop_
_atom_site_type_symbol
_atom_site_label
_atom_site_fract_x
_atom_site_fract_y
_atom_site_fract_z
Si Si1 0.248097 0.294982 0.128061
Si Si2 0.958859 0.105267 0.743248
Si Si3 0.224606 0.425639 0.527040
Si Si4 0.373417 0.067765 0.872336
Si Si5 0.664332 0.548331 0.719129
Si Si6 0.825920 0.187707 0.507564
Si Si7 0.041630 0.449683 0.298240
Si Si8 0.771214 0.933355 0.729001
O O1 0.356484 0.372061 0.200186
O O2 0.210735 0.189904 0.185681
O O3 0.434495 0.105576 0.128529
O O4 0.000000 0.500000 0.000000
O O5 0.760553 0.323027 0.730048
O O6 0.891945 0.136084 0.625407
O O7 0.188283 0.055492 0.819252
O O8 0.955619 0.944239 0.785569
O O9 0.210078 0.612583 0.530231
O O10 0.166088 0.432988 0.415495
O O11 0.000000 0.500000 0.500000
O O12 0.493829 0.179059 0.633335
O O13 0.236166 0.313705 0.794460
O O14 0.500000 0.000000 0.000000
O O15 0.419810 0.732385 0.587601
O O16 0.867849 0.515813 0.749597
O O17 0.000000 0.000000 0.500000
O O18 0.144052 0.217999 0.318694
#
# Coordination Sequence:
#
# PCOD9105265 Si02
#       8
#     2   2   2   2   2   2   2   2
#     4  11  24  46  69  93 127 171 218 266 331 393
#     4  11  22  42  64  96 130 170 217 269 319 381
#     4  12  24  38  59  95 138 172 217 262 325 388
#     4  11  22  44  70  93 124 174 218 266 324 393
#     4  10  20  39  64  87 122 172 212 258 321 382
#     4  12  24  37  61  95 137 174 213 261 329 384
#     4  10  22  39  61  88 128 171 211 261 326 380
#     4  11  24  40  66  96 129 168 223 269 321 383
#
# _framework density 19.265153999999999
#
# number of rings (size 3 to 8) (size 9 to 14) (size 15 to 20)
#    0.000    1.000    3.750    5.250    5.250    0.000 
#    0.000    5.000    0.000    0.000    0.000    0.000 
#    0.000    0.000    0.000    0.000    0.000    0.000 
#
# Total GULP energy -89112.468823 kJ/mol
# GULP energy per Si atom -5569.529301 kJ/mol
# Density = 1.922131 g / cm^3
# Si number density = 19.265154 Si / 1000 Ang^3
#
#
#
# Elastic Constant Matrix: (Units=GPa)
#
#
# Indices 1 2 3 4 5 6 
#
# 1 63.1215 49.7025 25.7667 -5.9080 6.0127 -3.1949
# 2 49.7025 173.2524 55.6415 6.0672 -1.8875 -4.8188
# 3 25.7667 55.6415 123.8739 5.8531 8.1081 1.0356
# 4 -5.9080 6.0672 5.8531 37.9599 1.7709 1.4525
# 5 6.0127 -1.8875 8.1081 1.7709 26.1842 -1.4574
# 6 -3.1949 -4.8188 1.0356 1.4525 -1.4574 31.1293
#
#
#
# Elastic Compliance Matrix: (Units=1/GPa)
#
#
# Indices 1 2 3 4 5 6 
#
# 1 0.022350 -0.006025 -0.001838 0.004935 -0.005279 0.000945
# 2 -0.006025 0.008491 -0.002669 -0.002063 0.003019 0.001022
# 3 -0.001838 -0.002669 0.009904 -0.001217 -0.002811 -0.001006
# 4 0.004935 -0.002063 -0.001217 0.027808 -0.002853 -0.001203
# 5 -0.005279 0.003019 -0.002811 -0.002853 0.040799 0.002062
# 6 0.000945 0.001022 -0.001006 -0.001203 0.002062 0.032566
#
#
# Mechanical properties :
#
#
# Convention : Reuss Voigt Hill
#
# Bulk Modulus (GPa) = 50.81459 69.16324 59.98892
# Shear Modulus (GPa) = 29.49096 34.33048 31.91072
#
# Velocity S-wave (km/s) = 3.91678 4.22595 4.07430
# Velocity P-wave (km/s) = 6.84752 7.73241 7.30338
#
# Compressibility (1/GPa) = 0.01967939
#
# Stress axis : x y z
#
# Youngs Moduli (GPa) = 44.74312 117.76600 100.96928
#
# Poissons Ratio (x) = 0.70959 0.18558
# Poissons Ratio (y) = 0.26960 0.26953
# Poissons Ratio (z) = 0.08224 0.31437
#
# Static dielectric constant tensor:
#      x y z
#    x 1.783570 -0.045910 -0.125670 
#    y -0.045910 1.816860 0.017050 
#    z -0.125670 0.017050 1.803470 
# 
# From -- ./inp_files/225679.got.cif
#   From: 2010.05.17/outbox.cif.g08.bks.cpg/sg2_113_cif.got.tgz:225679.got - 2010.06.03 11:33:40.
