data_PCOD9105064
_publ_section_title
;
Structure prediction by ZEFSAII (Michael W. Deem and Ramdas Pophale) SiO2 
 PCOD9105064
Probable space group: P -1
;
_chemical_formula_sum "Si O2"
_cell_formula_units_Z 14
_cell_length_a 16.304532
_cell_length_b 14.630349
_cell_length_c 12.321611
_cell_angle_alpha 152.496891
_cell_angle_beta 46.672032
_cell_angle_gamma 149.290130
_cell_volume 655.763568
_symmetry_space_group_name_H-M "P -1"
_symmetry_group_IT_number 2
_symmetry_cell_setting 'triclinic'
loop_
_space_group_symop_operation_xyz
x,y,z
-x,-y,-z
loop_
_atom_site_type_symbol
_atom_site_label
_atom_site_fract_x
_atom_site_fract_y
_atom_site_fract_z
Si Si1 0.183289 0.532969 0.952317
Si Si2 0.036666 0.820466 0.787062
Si Si3 0.227012 0.813691 0.747079
Si Si4 0.633181 0.808334 0.267714
Si Si5 0.405214 0.810241 0.233080
Si Si6 0.905840 0.498508 0.240245
Si Si7 0.173349 0.178923 0.742684
O O1 0.184890 0.567548 0.859556
O O2 0.155125 0.267527 0.737020
O O3 0.354019 0.801420 0.146715
O O4 0.040767 0.498353 0.091668
O O5 0.118168 0.866322 0.876147
O O6 0.872695 0.479508 0.543674
O O7 0.186923 0.964795 0.718303
O O8 0.000000 0.000000 0.000000
O O9 0.211280 0.729481 0.796654
O O10 0.420114 0.077947 0.812855
O O11 0.677291 0.779860 0.317543
O O12 0.575495 0.958710 0.480841
O O13 0.500000 0.500000 0.000000
O O14 0.244378 0.461181 0.045787
O O15 0.006547 0.827252 0.534735
#
# Coordination Sequence:
#
# PCOD9105064 Si02
#       7
#     2   2   2   2   2   2   2
#     4   9  22  38  69  88 126 163 217 258 310 381
#     4  11  25  41  61  91 127 168 207 260 315 370
#     4  11  24  40  62  93 130 159 210 263 311 373
#     4  12  23  40  66  91 126 171 210 254 314 384
#     4  10  23  41  62  96 129 161 210 260 314 374
#     4  11  20  42  66  93 120 170 212 260 316 368
#     4  10  20  39  63  90 122 163 211 254 306 375
#
# _framework density 21.349157999999999
#
# number of rings (size 3 to 8) (size 9 to 14) (size 15 to 20)
#    0.857    0.571    2.857    2.143    2.000    4.000 
#    0.000    0.000    0.000    2.571    0.000    0.000 
#    0.000    0.000    0.000    0.000    0.000    0.000 
#
# Total GULP energy -78035.705366 kJ/mol
# GULP energy per Si atom -5573.978955 kJ/mol
# Density = 2.130057 g / cm^3
# Si number density = 21.349158 Si / 1000 Ang^3
#
#
#
# Elastic Constant Matrix: (Units=GPa)
#
#
# Indices 1 2 3 4 5 6 
#
# 1 136.3168 30.7071 15.8672 2.0388 -8.5146 -15.9870
# 2 30.7071 72.5397 23.6275 6.0902 2.0807 -7.2041
# 3 15.8672 23.6275 85.9500 12.7233 -10.3278 -0.7293
# 4 2.0388 6.0902 12.7233 16.6428 0.9290 2.1770
# 5 -8.5146 2.0807 -10.3278 0.9290 43.5869 2.5858
# 6 -15.9870 -7.2041 -0.7293 2.1770 2.5858 35.4731
#
#
#
# Elastic Compliance Matrix: (Units=1/GPa)
#
#
# Indices 1 2 3 4 5 6 
#
# 1 0.008573 -0.003206 -0.000493 0.000010 0.001527 0.003090
# 2 -0.003206 0.016961 -0.003900 -0.002995 -0.002432 0.002280
# 3 -0.000493 -0.003900 0.014723 -0.009931 0.003813 -0.000380
# 4 0.000010 -0.002995 -0.009931 0.069595 -0.003405 -0.004830
# 5 0.001527 -0.002432 0.003813 -0.003405 0.024410 -0.001297
# 6 0.003090 0.002280 -0.000380 -0.004830 -0.001297 0.030429
#
#
# Mechanical properties :
#
#
# Convention : Reuss Voigt Hill
#
# Bulk Modulus (GPa) = 39.90762 48.35667 44.13214
# Shear Modulus (GPa) = 26.56144 34.11421 30.33782
#
# Velocity S-wave (km/s) = 3.53107 4.00173 3.77375
# Velocity P-wave (km/s) = 5.94626 6.63712 6.30117
#
# Compressibility (1/GPa) = 0.02505787
#
# Stress axis : x y z
#
# Youngs Moduli (GPa) = 116.64239 58.95942 67.92178
#
# Poissons Ratio (x) = 0.18904 0.03349
# Poissons Ratio (y) = 0.37399 0.26490
# Poissons Ratio (z) = 0.05751 0.22995
#
# Static dielectric constant tensor:
#      x y z
#    x 1.835840 -0.048250 -0.005470 
#    y -0.048250 1.763130 -0.010250 
#    z -0.005470 -0.010250 1.797320 
# 
# From -- ./inp_files/465964.got.cif
#   From: 2010.05.17/outbox.cif.g08.bks.cpg/sg2_233_cif.got.tgz:465964.got - 2010.06.03 11:33:40.
