data_PCOD9105981
_publ_section_title
;
Structure prediction by ZEFSAII (Michael W. Deem and Ramdas Pophale) SiO2 
 PCOD9105981
Probable space group: P -1
;
_chemical_formula_sum "Si O2"
_cell_formula_units_Z 16
_cell_length_a 7.163546
_cell_length_b 14.865824
_cell_length_c 18.079080
_cell_angle_alpha 145.374179
_cell_angle_beta 124.193822
_cell_angle_gamma 39.871888
_cell_volume 688.413632
_symmetry_space_group_name_H-M "P -1"
_symmetry_group_IT_number 2
_symmetry_cell_setting 'triclinic'
loop_
_space_group_symop_operation_xyz
x,y,z
-x,-y,-z
loop_
_atom_site_type_symbol
_atom_site_label
_atom_site_fract_x
_atom_site_fract_y
_atom_site_fract_z
Si Si1 0.133041 0.106657 0.273722
Si Si2 0.639959 0.744836 0.387458
Si Si3 0.997526 0.827613 0.120933
Si Si4 0.200389 0.667193 0.904069
Si Si5 0.831516 0.432469 0.877669
Si Si6 0.309098 0.108197 0.161383
Si Si7 0.791827 0.474603 0.543756
Si Si8 0.703768 0.887014 0.346527
O O1 0.145212 0.089017 0.177151
O O2 0.942951 0.347162 0.415565
O O3 0.467554 0.980408 0.291151
O O4 0.015155 0.003474 0.218875
O O5 0.705427 0.531906 0.253897
O O6 0.607214 0.818446 0.346342
O O7 0.942773 0.685650 0.447289
O O8 0.365725 0.914183 0.494176
O O9 0.135293 0.725677 0.162300
O O10 0.658859 0.923767 0.109629
O O11 0.171849 0.659019 0.980134
O O12 0.490402 0.638980 0.934645
O O13 0.873636 0.851106 0.925251
O O14 0.987380 0.305903 0.750985
O O15 0.000000 0.500000 0.000000
O O16 0.281432 0.308284 0.312834
O O17 0.500000 0.500000 0.500000
#
# Coordination Sequence:
#
# PCOD9105981 Si02
#       8
#     2   2   2   2   2   2   2   2
#     4  11  22  41  68  98 133 174 224 274 325 398
#     4   9  21  40  64  94 134 169 217 278 331 382
#     4  12  24  44  70  94 135 179 221 269 337 392
#     4  11  25  43  63  97 137 172 218 282 324 390
#     4  12  25  44  69  99 131 177 227 271 334 397
#     4  11  24  44  66 100 132 177 222 269 333 394
#     4  10  20  39  66  97 134 174 214 270 334 391
#     4  10  20  40  66  96 130 170 220 277 324 395
#
# _framework density 23.241841000000001
#
# number of rings (size 3 to 8) (size 9 to 14) (size 15 to 20)
#    0.000    1.250    2.500    3.375    0.000    2.000 
#    2.250    0.000    0.000    0.000    0.000    0.000 
#    0.000    0.000    0.000    0.000    0.000    0.000 
#
# Total GULP energy -89372.410974 kJ/mol
# GULP energy per Si atom -5585.775686 kJ/mol
# Density = 2.318894 g / cm^3
# Si number density = 23.241841 Si / 1000 Ang^3
#
#
#
# Elastic Constant Matrix: (Units=GPa)
#
#
# Indices 1 2 3 4 5 6 
#
# 1 79.3720 15.4373 36.2324 2.1786 -4.7046 -8.9238
# 2 15.4373 54.9662 12.5775 2.9625 -9.8081 -17.0719
# 3 36.2324 12.5775 110.7459 6.5499 -12.3578 -8.9450
# 4 2.1786 2.9625 6.5499 33.3854 0.4016 -9.5427
# 5 -4.7046 -9.8081 -12.3578 0.4016 45.4996 0.4816
# 6 -8.9238 -17.0719 -8.9450 -9.5427 0.4816 40.3992
#
#
#
# Elastic Compliance Matrix: (Units=1/GPa)
#
#
# Indices 1 2 3 4 5 6 
#
# 1 0.015415 -0.002959 -0.004675 0.000535 -0.000332 0.001250
# 2 -0.002959 0.022639 -0.000440 0.000776 0.004353 0.008947
# 3 -0.004675 -0.000440 0.011041 -0.001618 0.002426 0.000815
# 4 0.000535 0.000776 -0.001618 0.032388 -0.000585 0.007745
# 5 -0.000332 0.004353 0.002426 -0.000585 0.023526 0.001885
# 6 0.001250 0.008947 0.000815 0.007745 0.001885 0.030797
#
#
# Mechanical properties :
#
#
# Convention : Reuss Voigt Hill
#
# Bulk Modulus (GPa) = 30.35319 41.50874 35.93097
# Shear Modulus (GPa) = 30.68674 35.91264 33.29969
#
# Velocity S-wave (km/s) = 3.63757 3.93513 3.78927
# Velocity P-wave (km/s) = 5.54352 6.20848 5.88540
#
# Compressibility (1/GPa) = 0.03294546
#
# Stress axis : x y z
#
# Youngs Moduli (GPa) = 64.87349 44.17231 90.56829
#
# Poissons Ratio (x) = 0.13073 0.42339
# Poissons Ratio (y) = 0.19199 0.03988
# Poissons Ratio (z) = 0.30327 0.01945
#
# Static dielectric constant tensor:
#      x y z
#    x 1.883810 0.006380 0.052810 
#    y 0.006380 1.875870 0.035570 
#    z 0.052810 0.035570 1.909050 
# 
# From -- ./inp_files/550122.got.cif
#   From: 2010.05.17/outbox.cif.g08.bks.cpg/sg2_276_cif.got.tgz:550122.got - 2010.06.03 11:33:40.
