data_PCOD9105428
_publ_section_title
;
Structure prediction by ZEFSAII (Michael W. Deem and Ramdas Pophale) SiO2 
 PCOD9105428
Probable space group: P -1
;
_chemical_formula_sum "Si O2"
_cell_formula_units_Z 16
_cell_length_a 20.245780
_cell_length_b 5.218292
_cell_length_c 7.995895
_cell_angle_alpha 116.506736
_cell_angle_beta 98.728999
_cell_angle_gamma 55.159085
_cell_volume 614.286578
_symmetry_space_group_name_H-M "P -1"
_symmetry_group_IT_number 2
_symmetry_cell_setting 'triclinic'
loop_
_space_group_symop_operation_xyz
x,y,z
-x,-y,-z
loop_
_atom_site_type_symbol
_atom_site_label
_atom_site_fract_x
_atom_site_fract_y
_atom_site_fract_z
Si Si1 0.479851 0.902758 0.781435
Si Si2 0.269902 0.308217 0.333990
Si Si3 0.159496 0.260340 0.701146
Si Si4 0.937250 0.033913 0.355010
Si Si5 0.292168 0.340641 0.740016
Si Si6 0.066279 0.744590 0.083034
Si Si7 0.796768 0.147424 0.830807
Si Si8 0.449663 0.748206 0.210128
O O1 0.516558 0.500895 0.692497
O O2 0.384787 0.139038 0.774487
O O3 0.530073 0.970327 0.693074
O O4 0.500000 0.000000 0.000000
O O5 0.206919 0.190342 0.277654
O O6 0.354273 0.944408 0.212526
O O7 0.282890 0.404402 0.554388
O O8 0.254344 0.578173 0.260213
O O9 0.125618 0.025789 0.599103
O O10 0.252692 0.120621 0.681126
O O11 0.110416 0.606596 0.664847
O O12 0.133537 0.385665 0.918433
O O13 0.008163 0.719209 0.179139
O O14 0.000000 0.000000 0.500000
O O15 0.238916 0.659297 0.945617
O O16 0.115599 0.918540 0.188043
O O17 0.000000 0.000000 0.000000
O O18 0.500000 0.500000 0.000000
#
# Coordination Sequence:
#
# PCOD9105428 Si02
#       8
#     2   2   2   2   2   2   2   2
#     4  10  21  40  67  95 134 181 227 281 351 409
#     4  12  27  44  73 107 138 188 238 287 364 423
#     4  10  24  42  62  95 133 171 223 275 341 403
#     4  11  23  39  67  95 131 173 219 277 333 404
#     4  11  27  46  74 104 147 184 238 298 351 426
#     4   9  22  43  67  95 131 182 228 277 349 411
#     4  11  26  47  71 102 147 186 232 299 355 419
#     4  10  20  39  64  94 134 170 229 278 339 413
#
# _framework density 26.046479000000001
#
# number of rings (size 3 to 8) (size 9 to 14) (size 15 to 20)
#    0.000    1.500    0.000    4.500    3.500   12.000 
#    0.000    0.000    0.000    0.000    0.000    0.000 
#    0.000    0.000    0.000    0.000    0.000    0.000 
#
# Total GULP energy -89407.978768 kJ/mol
# GULP energy per Si atom -5587.998673 kJ/mol
# Density = 2.598720 g / cm^3
# Si number density = 26.046479 Si / 1000 Ang^3
#
#
#
# Elastic Constant Matrix: (Units=GPa)
#
#
# Indices 1 2 3 4 5 6 
#
# 1 154.2070 45.7346 10.3412 -12.3835 19.1247 -3.3680
# 2 45.7346 103.4757 19.2552 -24.2607 11.5525 20.9868
# 3 10.3412 19.2552 130.4466 -16.3873 4.3059 3.3656
# 4 -12.3835 -24.2607 -16.3873 24.8753 -12.4494 2.4905
# 5 19.1247 11.5525 4.3059 -12.4494 40.8114 2.8744
# 6 -3.3680 20.9868 3.3656 2.4905 2.8744 64.7665
#
#
#
# Elastic Compliance Matrix: (Units=1/GPa)
#
#
# Indices 1 2 3 4 5 6 
#
# 1 0.007970 -0.003939 -0.000226 -0.001867 -0.003301 0.001921
# 2 -0.003939 0.015997 -0.000030 0.015465 0.002468 -0.006091
# 3 -0.000226 -0.000030 0.008429 0.006044 0.001119 -0.000722
# 4 -0.001867 0.015465 0.006044 0.067805 0.017163 -0.008791
# 5 -0.003301 0.002468 0.001119 0.017163 0.030683 -0.003051
# 6 0.001921 -0.006091 -0.000722 -0.008791 -0.003051 0.018025
#
#
# Mechanical properties :
#
#
# Convention : Reuss Voigt Hill
#
# Bulk Modulus (GPa) = 41.65829 59.86570 50.76200
# Shear Modulus (GPa) = 30.24780 46.94385 38.59582
#
# Velocity S-wave (km/s) = 3.41148 4.24997 3.85360
# Velocity P-wave (km/s) = 5.61660 6.86419 6.27149
#
# Compressibility (1/GPa) = 0.02400483
#
# Stress axis : x y z
#
# Youngs Moduli (GPa) = 125.47680 62.51271 118.63469
#
# Poissons Ratio (x) = 0.24626 0.02675
# Poissons Ratio (y) = 0.49430 0.00361
# Poissons Ratio (z) = 0.02830 0.00190
#
# Static dielectric constant tensor:
#      x y z
#    x 1.995460 0.002930 0.036080 
#    y 0.002930 2.018330 0.034980 
#    z 0.036080 0.034980 2.017360 
# 
# From -- ./inp_files/339937.got.cif
#   From: 2010.05.17/outbox.cif.g08.bks.cpg/sg2_170_cif.got.tgz:339937.got - 2010.06.03 11:33:40.
