data_PCOD9105338
_publ_section_title
;
Structure prediction by ZEFSAII (Michael W. Deem and Ramdas Pophale) SiO2 
 PCOD9105338
Probable space group: P -1
;
_chemical_formula_sum "Si O2"
_cell_formula_units_Z 16
_cell_length_a 13.923989
_cell_length_b 11.607044
_cell_length_c 5.530708
_cell_angle_alpha 93.910517
_cell_angle_beta 80.285713
_cell_angle_gamma 48.714507
_cell_volume 642.294558
_symmetry_space_group_name_H-M "P -1"
_symmetry_group_IT_number 2
_symmetry_cell_setting 'triclinic'
loop_
_space_group_symop_operation_xyz
x,y,z
-x,-y,-z
loop_
_atom_site_type_symbol
_atom_site_label
_atom_site_fract_x
_atom_site_fract_y
_atom_site_fract_z
Si Si1 0.278862 0.182851 0.142150
Si Si2 0.379084 0.598124 0.751261
Si Si3 0.931152 0.925540 0.546378
Si Si4 0.988079 0.385561 0.345995
Si Si5 0.501089 0.889609 0.250760
Si Si6 0.701801 0.622156 0.496827
Si Si7 0.563496 0.613632 0.927417
Si Si8 0.858700 0.051762 0.101528
O O1 0.266439 0.319879 0.281719
O O2 0.132074 0.265140 0.135591
O O3 0.350545 0.055603 0.313825
O O4 0.392372 0.099059 0.877173
O O5 0.500000 0.500000 0.500000
O O6 0.435750 0.638928 0.938476
O O7 0.245500 0.765909 0.751068
O O8 0.359473 0.495256 0.886736
O O9 0.012428 0.739494 0.532611
O O10 0.864653 0.963603 0.317045
O O11 0.000000 0.000000 0.500000
O O12 0.838790 0.014266 0.837583
O O13 0.845178 0.503391 0.287064
O O14 0.000000 0.500000 0.500000
O O15 0.572841 0.776714 0.436550
O O16 0.507697 0.782971 0.037179
O O17 0.656995 0.542665 0.642464
O O18 0.000000 0.000000 0.000000
#
# Coordination Sequence:
#
# PCOD9105338 Si02
#       8
#     2   2   2   2   2   2   2   2
#     4   9  21  40  60  92 132 173 230 292 354 434
#     4  11  25  42  66  98 137 184 237 303 370 447
#     4  10  24  46  70 107 144 198 242 305 372 451
#     4  10  23  44  67 103 147 183 247 305 376 439
#     4  10  20  39  64  90 128 178 230 288 357 433
#     4  10  21  40  64  94 128 183 225 293 361 440
#     4  10  24  38  64  93 132 171 230 292 365 434
#     4  10  25  45  74 102 145 192 247 304 373 446
#
# _framework density 24.910688
#
# number of rings (size 3 to 8) (size 9 to 14) (size 15 to 20)
#    0.000    2.000    0.000    1.125    8.750    4.500 
#    9.000    0.000    0.000    0.000    0.000    0.000 
#    0.000    0.000    0.000    0.000    0.000    0.000 
#
# Total GULP energy -89076.442128 kJ/mol
# GULP energy per Si atom -5567.277633 kJ/mol
# Density = 2.485399 g / cm^3
# Si number density = 24.910688 Si / 1000 Ang^3
#
#
#
# Elastic Constant Matrix: (Units=GPa)
#
#
# Indices 1 2 3 4 5 6 
#
# 1 76.7719 25.2482 3.2059 13.5522 -12.4830 3.3927
# 2 25.2482 120.3186 31.9684 4.0617 -15.4084 2.7011
# 3 3.2059 31.9684 99.0773 -13.9490 1.8681 -7.1024
# 4 13.5522 4.0617 -13.9490 41.8708 -1.3241 -3.5450
# 5 -12.4830 -15.4084 1.8681 -1.3241 24.2390 7.9431
# 6 3.3927 2.7011 -7.1024 -3.5450 7.9431 44.1056
#
#
#
# Elastic Compliance Matrix: (Units=1/GPa)
#
#
# Indices 1 2 3 4 5 6 
#
# 1 0.016048 -0.001815 -0.001069 -0.005391 0.007934 -0.003157
# 2 -0.001815 0.010756 -0.003976 -0.001777 0.006949 -0.002554
# 3 -0.001069 -0.003976 0.012474 0.005038 -0.004954 0.003631
# 4 -0.005391 -0.001777 0.005038 0.027711 -0.004195 0.004318
# 5 0.007934 0.006949 -0.004954 -0.004195 0.053798 -0.011859
# 6 -0.003157 -0.002554 0.003631 0.004318 -0.011859 0.026140
#
#
# Mechanical properties :
#
#
# Convention : Reuss Voigt Hill
#
# Bulk Modulus (GPa) = 39.12559 46.33477 42.73018
# Shear Modulus (GPa) = 29.55699 37.75943 33.65821
#
# Velocity S-wave (km/s) = 3.44832 3.89754 3.67979
# Velocity P-wave (km/s) = 5.62095 6.23660 5.93676
#
# Compressibility (1/GPa) = 0.02555872
#
# Stress axis : x y z
#
# Youngs Moduli (GPa) = 62.31224 92.97384 80.16928
#
# Poissons Ratio (x) = 0.16873 0.08567
# Poissons Ratio (y) = 0.11309 0.31875
# Poissons Ratio (z) = 0.06659 0.36966
#
# Static dielectric constant tensor:
#      x y z
#    x 2.113670 0.081300 0.032320 
#    y 0.081300 2.086980 -0.004610 
#    z 0.032320 -0.004610 2.050790 
# 
# From -- ./inp_files/94921.got.cif
#   From: 2010.05.17/outbox.cif.g08.bks.cpg/sg2_48_cif.got.tgz:94921.got - 2010.06.03 11:33:40.
