data_PCOD9105437
_publ_section_title
;
Structure prediction by ZEFSAII (Michael W. Deem and Ramdas Pophale) SiO2 
 PCOD9105437
Probable space group: P -1
;
_chemical_formula_sum "Si O2"
_cell_formula_units_Z 16
_cell_length_a 24.777344
_cell_length_b 5.293921
_cell_length_c 12.868456
_cell_angle_alpha 77.720717
_cell_angle_beta 155.510308
_cell_angle_gamma 102.299568
_cell_volume 682.905095
_symmetry_space_group_name_H-M "P -1"
_symmetry_group_IT_number 2
_symmetry_cell_setting 'triclinic'
loop_
_space_group_symop_operation_xyz
x,y,z
-x,-y,-z
loop_
_atom_site_type_symbol
_atom_site_label
_atom_site_fract_x
_atom_site_fract_y
_atom_site_fract_z
Si Si1 0.392086 0.034004 0.720564
Si Si2 0.219193 0.362078 0.854176
Si Si3 0.872277 0.869952 0.063492
Si Si4 0.036677 0.400303 0.341273
Si Si5 0.557201 0.761277 0.888387
Si Si6 0.405235 0.714112 0.273879
Si Si7 0.633133 0.138221 0.591297
Si Si8 0.710853 0.526392 0.365850
O O1 0.485618 0.010984 0.786364
O O2 0.306610 0.764839 0.598468
O O3 0.310842 0.270536 0.597273
O O4 0.500000 0.000000 0.000000
O O5 0.177896 0.230528 0.901931
O O6 0.099359 0.419742 0.565323
O O7 0.313993 0.202750 0.959649
O O8 0.311584 0.608451 0.028346
O O9 0.939267 0.633397 0.145756
O O10 0.970480 0.116730 0.232820
O O11 0.751806 0.974166 0.776629
O O12 0.152548 0.436075 0.457637
O O13 0.435220 0.646485 0.615805
O O14 0.603809 0.589394 0.081947
O O15 0.500000 0.500000 0.500000
O O16 0.320044 0.761246 0.222999
O O17 0.506179 0.951547 0.408277
#
# Coordination Sequence:
#
# PCOD9105437 Si02
#       8
#     2   2   2   2   2   2   2   2
#     4  10  20  39  64  95 126 151 192 265 335 375
#     4  11  22  39  63  92 128 163 211 255 307 370
#     4  12  24  42  60  88 131 172 214 251 294 361
#     4  11  26  42  65  88 120 176 221 254 296 361
#     4  10  21  36  61  97 118 156 199 251 323 388
#     4  11  20  39  57  85 129 170 201 256 315 363
#     4  11  23  36  59  89 127 168 210 252 313 375
#     4  10  22  42  64  91 125 155 204 268 318 362
#
# _framework density 23.429317999999999
#
# number of rings (size 3 to 8) (size 9 to 14) (size 15 to 20)
#    0.000    1.250    2.500    4.500    0.000    8.000 
#    0.000    0.000    0.000    4.500    0.000    0.000 
#    0.000    0.000    0.000    0.000    0.000    0.000 
#
# Total GULP energy -89326.951058 kJ/mol
# GULP energy per Si atom -5582.934441 kJ/mol
# Density = 2.337599 g / cm^3
# Si number density = 23.429318 Si / 1000 Ang^3
#
#
#
# Elastic Constant Matrix: (Units=GPa)
#
#
# Indices 1 2 3 4 5 6 
#
# 1 124.5585 39.5993 8.5401 -1.7877 33.6933 -8.3797
# 2 39.5993 134.0346 24.3931 3.8907 23.5926 -10.3289
# 3 8.5401 24.3931 83.5840 -9.6989 12.7927 2.0491
# 4 -1.7877 3.8907 -9.6989 44.9534 -5.9928 7.2861
# 5 33.6933 23.5926 12.7927 -5.9928 33.5297 -0.1326
# 6 -8.3797 -10.3289 2.0491 7.2861 -0.1326 30.6213
#
#
#
# Elastic Compliance Matrix: (Units=1/GPa)
#
#
# Indices 1 2 3 4 5 6 
#
# 1 0.011615 -0.001322 0.000700 -0.001244 -0.011219 0.002933
# 2 -0.001322 0.009484 -0.002268 -0.002601 -0.004930 0.003587
# 3 0.000700 -0.002268 0.013530 0.003002 -0.003742 -0.002209
# 4 -0.001244 -0.002601 0.003002 0.025115 0.006394 -0.007367
# 5 -0.011219 -0.004930 -0.003742 0.006394 0.047115 -0.005800
# 6 0.002933 0.003587 -0.002209 -0.007367 -0.005800 0.036545
#
#
# Mechanical properties :
#
#
# Convention : Reuss Voigt Hill
#
# Bulk Modulus (GPa) = 34.66391 54.13799 44.40095
# Shear Modulus (GPa) = 31.48630 39.79720 35.64175
#
# Velocity S-wave (km/s) = 3.66988 4.12589 3.90455
# Velocity P-wave (km/s) = 5.72578 6.77158 6.27052
#
# Compressibility (1/GPa) = 0.02884845
#
# Stress axis : x y z
#
# Youngs Moduli (GPa) = 86.09610 105.44366 73.91206
#
# Poissons Ratio (x) = 0.13940 -0.05174
# Poissons Ratio (y) = 0.11382 0.16762
# Poissons Ratio (z) = -0.06026 0.23913
#
# Static dielectric constant tensor:
#      x y z
#    x 2.136400 -0.013460 -0.103320 
#    y -0.013460 1.981040 -0.036750 
#    z -0.103320 -0.036750 1.924840 
# 
# From -- ./inp_files/543581.got.cif
#   From: 2010.05.17/outbox.cif.g08.bks.cpg/sg2_272_cif.got.tgz:543581.got - 2010.06.03 11:33:40.
