data_PCOD9105957
_publ_section_title
;
Structure prediction by ZEFSAII (Michael W. Deem and Ramdas Pophale) SiO2 
 PCOD9105957
Probable space group: P -1
;
_chemical_formula_sum "Si O2"
_cell_formula_units_Z 14
_cell_length_a 4.842176
_cell_length_b 11.379488
_cell_length_c 11.263201
_cell_angle_alpha 67.299942
_cell_angle_beta 95.076995
_cell_angle_gamma 67.693556
_cell_volume 509.230793
_symmetry_space_group_name_H-M "P -1"
_symmetry_group_IT_number 2
_symmetry_cell_setting 'triclinic'
loop_
_space_group_symop_operation_xyz
x,y,z
-x,-y,-z
loop_
_atom_site_type_symbol
_atom_site_label
_atom_site_fract_x
_atom_site_fract_y
_atom_site_fract_z
Si Si1 0.280024 0.395233 0.968043
Si Si2 0.208458 0.111084 0.020251
Si Si3 0.799919 0.256073 0.741795
Si Si4 0.688668 0.937312 0.692191
Si Si5 0.648846 0.256224 0.245314
Si Si6 0.898001 0.532997 0.691029
Si Si7 0.730151 0.765190 0.409894
O O1 0.246714 0.253484 0.991441
O O2 0.202127 0.477835 0.808480
O O3 0.584919 0.340938 0.083111
O O4 0.000000 0.500000 0.000000
O O5 0.908250 0.166204 0.902325
O O6 0.803737 0.947540 0.827018
O O7 0.500000 0.000000 0.000000
O O8 0.828269 0.402386 0.702926
O O9 0.474949 0.274695 0.674167
O O10 0.054305 0.184055 0.675810
O O11 0.457038 0.867816 0.724372
O O12 0.990534 0.824147 0.680087
O O13 0.509536 0.098309 0.577546
O O14 0.406183 0.362916 0.286936
O O15 0.921197 0.626856 0.548650
#
# Coordination Sequence:
#
# PCOD9105957 Si02
#       7
#     2   2   2   2   2   2   2
#     4   8  18  40  64  93 126 166 215 269 322 380
#     4  10  20  39  66  96 126 168 216 269 327 378
#     4  11  25  43  65  97 132 170 222 268 323 386
#     4  11  24  41  66 100 131 166 214 272 330 385
#     4  10  23  44  68  96 129 168 220 272 323 387
#     4  10  23  44  68  93 131 178 217 264 326 391
#     4  12  25  42  65  96 136 172 215 267 323 393
#
# _framework density 27.492443999999999
#
# number of rings (size 3 to 8) (size 9 to 14) (size 15 to 20)
#    0.000    1.714    1.429    1.714    2.000    7.429 
#    0.000   27.143    0.000    0.000    0.000    0.000 
#    0.000    0.000    0.000    0.000    0.000    0.000 
#
# Total GULP energy -78604.171502 kJ/mol
# GULP energy per Si atom -5614.583679 kJ/mol
# Density = 2.742987 g / cm^3
# Si number density = 27.492444 Si / 1000 Ang^3
#
#
#
# Elastic Constant Matrix: (Units=GPa)
#
#
# Indices 1 2 3 4 5 6 
#
# 1 118.0006 12.5564 30.5746 -0.6161 8.4713 3.3832
# 2 12.5564 156.2206 6.5529 -11.3400 4.4299 -6.7917
# 3 30.5746 6.5529 153.2528 -23.4881 9.4591 9.1377
# 4 -0.6161 -11.3400 -23.4881 41.9996 -0.8060 -2.9011
# 5 8.4713 4.4299 9.4591 -0.8060 31.9320 0.4389
# 6 3.3832 -6.7917 9.1377 -2.9011 0.4389 33.8403
#
#
#
# Elastic Compliance Matrix: (Units=1/GPa)
#
#
# Indices 1 2 3 4 5 6 
#
# 1 0.009167 -0.000721 -0.001826 -0.001160 -0.001811 -0.000644
# 2 -0.000721 0.006685 0.000109 0.001949 -0.000741 0.001561
# 3 -0.001826 0.000109 0.007720 0.004184 -0.001691 -0.001499
# 4 -0.001160 0.001949 0.004184 0.026764 -0.000549 0.001679
# 5 -0.001811 -0.000741 -0.001691 -0.000549 0.032387 0.000022
# 6 -0.000644 0.001561 -0.001499 0.001679 0.000022 0.030477
#
#
# Mechanical properties :
#
#
# Convention : Reuss Voigt Hill
#
# Bulk Modulus (GPa) = 53.48494 58.53800 56.01147
# Shear Modulus (GPa) = 40.22329 46.74039 43.48184
#
# Velocity S-wave (km/s) = 3.82916 4.12772 3.98124
# Velocity P-wave (km/s) = 6.24872 6.63747 6.44603
#
# Compressibility (1/GPa) = 0.01869685
#
# Stress axis : x y z
#
# Youngs Moduli (GPa) = 109.08999 149.59022 129.53766
#
# Poissons Ratio (x) = 0.10787 0.23649
# Poissons Ratio (y) = 0.07866 -0.01417
# Poissons Ratio (z) = 0.19916 -0.01637
#
# Static dielectric constant tensor:
#      x y z
#    x 2.012950 0.001150 0.003860 
#    y 0.001150 2.193230 0.027970 
#    z 0.003860 0.027970 2.144000 
# 
# From -- ./inp_files/364347.got.cif
#   From: 2010.05.17/outbox.cif.g08.bks.cpg/sg2_183_cif.got.tgz:364347.got - 2010.06.03 11:33:40.
