data_PCOD9105147
_publ_section_title
;
Structure prediction by ZEFSAII (Michael W. Deem and Ramdas Pophale) SiO2 
 PCOD9105147
Probable space group: P -1
;
_chemical_formula_sum "Si O2"
_cell_formula_units_Z 16
_cell_length_a 8.782358
_cell_length_b 6.930814
_cell_length_c 19.525942
_cell_angle_alpha 44.566484
_cell_angle_beta 61.971503
_cell_angle_gamma 49.950526
_cell_volume 638.294310
_symmetry_space_group_name_H-M "P -1"
_symmetry_group_IT_number 2
_symmetry_cell_setting 'triclinic'
loop_
_space_group_symop_operation_xyz
x,y,z
-x,-y,-z
loop_
_atom_site_type_symbol
_atom_site_label
_atom_site_fract_x
_atom_site_fract_y
_atom_site_fract_z
Si Si1 0.531607 0.282820 0.861957
Si Si2 0.042455 0.144306 0.093510
Si Si3 0.244296 0.645661 0.403161
Si Si4 0.585375 0.724923 0.905389
Si Si5 0.725950 0.044680 0.192892
Si Si6 0.636134 0.378928 0.321186
Si Si7 0.891478 0.675867 0.389075
Si Si8 0.037666 0.288988 0.214147
O O1 0.358645 0.588221 0.856738
O O2 0.526785 0.439240 0.750140
O O3 0.735124 0.130201 0.898225
O O4 0.525483 0.972272 0.918334
O O5 0.022813 0.137791 0.182670
O O6 0.905070 0.028261 0.115307
O O7 0.000000 0.500000 0.000000
O O8 0.484192 0.463608 0.394374
O O9 0.169526 0.574293 0.507814
O O10 0.117831 0.562983 0.394050
O O11 0.161156 0.014704 0.312164
O O12 0.460828 0.923396 0.815519
O O13 0.816402 0.582244 0.873671
O O14 0.500000 0.500000 0.000000
O O15 0.820031 0.787749 0.298195
O O16 0.813456 0.464163 0.247733
O O17 0.755987 0.003024 0.377474
#
# Coordination Sequence:
#
# PCOD9105147 Si02
#       8
#     2   2   2   2   2   2   2   2
#     4  10  21  41  62  84 120 167 187 257 322 343
#     4  11  20  35  60  85 115 158 208 250 303 367
#     4  10  16  33  60  89 122 157 201 244 313 366
#     4  11  24  41  62  87 123 165 210 257 308 366
#     4  11  21  42  61  92 125 152 212 257 297 371
#     4  10  16  34  61  81 120 160 195 241 309 367
#     4   9  19  30  59  98 114 155 208 247 295 378
#     4  10  20  38  56  85 122 163 196 254 312 357
#
# _framework density 25.066807000000001
#
# number of rings (size 3 to 8) (size 9 to 14) (size 15 to 20)
#    0.000    1.750    6.250    1.875    0.000    2.000 
#    2.250    1.250    0.000    0.750    0.000    5.250 
#    0.000    0.000    0.000    0.000    0.000    0.000 
#
# Total GULP energy -89190.485852 kJ/mol
# GULP energy per Si atom -5574.405366 kJ/mol
# Density = 2.500975 g / cm^3
# Si number density = 25.066807 Si / 1000 Ang^3
#
#
#
# Elastic Constant Matrix: (Units=GPa)
#
#
# Indices 1 2 3 4 5 6 
#
# 1 113.5325 27.7455 28.4277 20.8893 -9.7830 -37.3942
# 2 27.7455 95.4676 17.0160 3.6670 -13.1071 -29.6754
# 3 28.4277 17.0160 133.4525 7.2214 -11.7061 -25.1210
# 4 20.8893 3.6670 7.2214 29.5974 -12.8703 -5.5876
# 5 -9.7830 -13.1071 -11.7061 -12.8703 40.5880 7.6126
# 6 -37.3942 -29.6754 -25.1210 -5.5876 7.6126 43.6596
#
#
#
# Elastic Compliance Matrix: (Units=1/GPa)
#
#
# Indices 1 2 3 4 5 6 
#
# 1 0.013924 -0.000615 -0.000627 -0.008343 -0.001612 0.010360
# 2 -0.000615 0.013647 0.000185 0.001723 0.003263 0.008507
# 3 -0.000627 0.000185 0.008540 -0.000210 0.001515 0.004212
# 4 -0.008343 0.001723 -0.000210 0.044737 0.013171 -0.002667
# 5 -0.001612 0.003263 0.001515 0.013171 0.030270 -0.001883
# 6 0.010360 0.008507 0.004212 -0.002667 -0.001883 0.039970
#
#
# Mechanical properties :
#
#
# Convention : Reuss Voigt Hill
#
# Bulk Modulus (GPa) = 29.41528 54.31455 41.86492
# Shear Modulus (GPa) = 30.38873 40.71988 35.55431
#
# Velocity S-wave (km/s) = 3.48560 4.03482 3.77023
# Velocity P-wave (km/s) = 5.28767 6.58949 5.97415
#
# Compressibility (1/GPa) = 0.03399593
#
# Stress axis : x y z
#
# Youngs Moduli (GPa) = 71.81869 73.27816 117.09090
#
# Poissons Ratio (x) = 0.04510 0.07346
# Poissons Ratio (y) = 0.04420 -0.02170
# Poissons Ratio (z) = 0.04506 -0.01358
#
# Static dielectric constant tensor:
#      x y z
#    x 2.073050 0.034250 -0.015740 
#    y 0.034250 2.070450 0.003550 
#    z -0.015740 0.003550 2.011180 
# 
# From -- ./inp_files/606332.got.cif
#   From: 2010.05.17/outbox.cif.g08.bks.cpg/sg2_304_cif.got.tgz:606332.got - 2010.06.03 11:33:40.
