data_PCOD9105133
_publ_section_title
;
Structure prediction by ZEFSAII (Michael W. Deem and Ramdas Pophale) SiO2 
 PCOD9105133
Probable space group: P -1
;
_chemical_formula_sum "Si O2"
_cell_formula_units_Z 16
_cell_length_a 16.936152
_cell_length_b 5.276239
_cell_length_c 10.488658
_cell_angle_alpha 119.562531
_cell_angle_beta 72.948905
_cell_angle_gamma 94.816982
_cell_volume 777.329626
_symmetry_space_group_name_H-M "P -1"
_symmetry_group_IT_number 2
_symmetry_cell_setting 'triclinic'
loop_
_space_group_symop_operation_xyz
x,y,z
-x,-y,-z
loop_
_atom_site_type_symbol
_atom_site_label
_atom_site_fract_x
_atom_site_fract_y
_atom_site_fract_z
Si Si1 0.618443 0.409731 0.030190
Si Si2 0.035004 0.378763 0.587477
Si Si3 0.519338 0.220970 0.662100
Si Si4 0.268750 0.403760 0.202525
Si Si5 0.789023 0.164139 0.985735
Si Si6 0.951249 0.311090 0.080751
Si Si7 0.595828 0.853256 0.759043
Si Si8 0.138507 0.865740 0.337659
O O1 0.560341 0.665467 0.185806
O O2 0.657369 0.505115 0.901116
O O3 0.696834 0.320288 0.062341
O O4 0.574203 0.114674 0.939411
O O5 0.052425 0.578084 0.746145
O O6 0.000000 0.500000 0.500000
O O7 0.955170 0.224832 0.639552
O O8 0.120697 0.192609 0.473126
O O9 0.553879 0.540648 0.693560
O O10 0.500000 0.000000 0.500000
O O11 0.580209 0.021563 0.675664
O O12 0.310631 0.239443 0.262882
O O13 0.203668 0.664985 0.337884
O O14 0.221476 0.180436 0.081335
O O15 0.826493 0.175637 0.829537
O O16 0.857491 0.283537 0.072030
O O17 0.000000 0.500000 0.000000
O O18 0.000000 0.000000 0.000000
#
# Coordination Sequence:
#
# PCOD9105133 Si02
#       8
#     2   2   2   2   2   2   2   2
#     4  10  23  42  73  97 130 178 233 274 331 412
#     4  11  23  39  65  96 130 180 225 285 337 404
#     4  12  26  44  68 103 140 176 217 283 343 400
#     4  10  21  40  70  99 126 174 228 277 330 396
#     4  10  22  41  65  95 132 172 224 284 335 403
#     4  12  25  43  67  96 134 180 228 276 342 408
#     4  11  23  44  71  98 131 178 230 265 330 416
#     4  10  20  39  63  92 131 167 226 274 337 392
#
# _framework density 20.583290000000002
#
# number of rings (size 3 to 8) (size 9 to 14) (size 15 to 20)
#    0.000    1.250    2.500    3.375    7.000    0.000 
#    2.250    0.000    0.000    0.000    0.000    0.000 
#    0.000    0.000    0.000    0.000    0.000    0.000 
#
# Total GULP energy -89123.371733 kJ/mol
# GULP energy per Si atom -5570.210733 kJ/mol
# Density = 2.053644 g / cm^3
# Si number density = 20.583290 Si / 1000 Ang^3
#
#
#
# Elastic Constant Matrix: (Units=GPa)
#
#
# Indices 1 2 3 4 5 6 
#
# 1 81.6415 37.3494 59.2777 3.7096 18.5329 -3.0550
# 2 37.3494 115.4690 44.4705 10.4813 9.0251 -7.6088
# 3 59.2777 44.4705 125.2892 25.9566 25.0614 -23.8215
# 4 3.7096 10.4813 25.9566 19.9835 -1.9898 -5.7734
# 5 18.5329 9.0251 25.0614 -1.9898 40.0067 6.9140
# 6 -3.0550 -7.6088 -23.8215 -5.7734 6.9140 45.3456
#
#
#
# Elastic Compliance Matrix: (Units=1/GPa)
#
#
# Indices 1 2 3 4 5 6 
#
# 1 0.022605 -0.003832 -0.012832 0.013265 -0.000193 -0.004143
# 2 -0.003832 0.010695 -0.001188 -0.003218 -0.000144 0.000525
# 3 -0.012832 -0.001188 0.024460 -0.027033 -0.012218 0.010207
# 4 0.013265 -0.003218 -0.027033 0.084411 0.016689 -0.005645
# 5 -0.000193 -0.000144 -0.012218 0.016689 0.035280 -0.009710
# 6 -0.004143 0.000525 0.010207 -0.005645 -0.009710 0.027985
#
#
# Mechanical properties :
#
#
# Convention : Reuss Voigt Hill
#
# Bulk Modulus (GPa) = 45.33937 67.17723 56.25830
# Shear Modulus (GPa) = 20.12140 33.15395 26.63768
#
# Velocity S-wave (km/s) = 3.12999 4.01773 3.60132
# Velocity P-wave (km/s) = 5.92769 7.36414 6.68461
#
# Compressibility (1/GPa) = 0.02205589
#
# Stress axis : x y z
#
# Youngs Moduli (GPa) = 44.23866 93.49978 40.88367
#
# Poissons Ratio (x) = 0.35826 0.52462
# Poissons Ratio (y) = 0.16951 0.04857
# Poissons Ratio (z) = 0.56768 0.11108
#
# Static dielectric constant tensor:
#      x y z
#    x 1.751960 0.041210 -0.001900 
#    y 0.041210 1.880570 -0.066200 
#    z -0.001900 -0.066200 1.513530 
# 
# From -- ./inp_files/323007.got.cif
#   From: 2010.05.17/outbox.cif.g08.bks.cpg/sg2_162_cif.got.tgz:323007.got - 2010.06.03 11:33:40.
