data_PCOD9105280
_publ_section_title
;
Structure prediction by ZEFSAII (Michael W. Deem and Ramdas Pophale) SiO2 
 PCOD9105280
Probable space group: P -1
;
_chemical_formula_sum "Si O2"
_cell_formula_units_Z 14
_cell_length_a 6.432844
_cell_length_b 23.402254
_cell_length_c 5.227040
_cell_angle_alpha 120.636493
_cell_angle_beta 84.876662
_cell_angle_gamma 94.880579
_cell_volume 673.633584
_symmetry_space_group_name_H-M "P -1"
_symmetry_group_IT_number 2
_symmetry_cell_setting 'triclinic'
loop_
_space_group_symop_operation_xyz
x,y,z
-x,-y,-z
loop_
_atom_site_type_symbol
_atom_site_label
_atom_site_fract_x
_atom_site_fract_y
_atom_site_fract_z
Si Si1 0.294093 0.030736 0.679664
Si Si2 0.231987 0.304957 0.408976
Si Si3 0.869480 0.391944 0.761350
Si Si4 0.021923 0.906459 0.479226
Si Si5 0.103665 0.153745 0.144463
Si Si6 0.815171 0.513662 0.748638
Si Si7 0.455596 0.366827 0.031242
O O1 0.182465 0.054325 0.485767
O O2 0.500000 0.000000 0.500000
O O3 0.173829 0.967880 0.679496
O O4 0.278666 0.097785 0.995720
O O5 0.199754 0.225786 0.236134
O O6 0.373862 0.330887 0.215719
O O7 0.998773 0.334415 0.486567
O O8 0.341751 0.329727 0.717413
O O9 0.746464 0.441833 0.705956
O O10 0.702471 0.369001 0.943381
O O11 0.060916 0.439272 0.953362
O O12 0.997399 0.853001 0.581831
O O13 0.056429 0.870994 0.120145
O O14 0.629958 0.558362 0.776232
O O15 0.000000 0.500000 0.500000
#
# Coordination Sequence:
#
# PCOD9105280 Si02
#       7
#     2   2   2   2   2   2   2
#     4   9  20  37  62  89 115 146 197 247 287 340
#     4  11  24  42  58  87 127 162 197 248 292 363
#     4  10  23  40  60  91 118 160 199 253 300 354
#     4   9  20  38  59  85 115 151 190 243 295 335
#     4  10  20  41  58  81 125 154 190 242 292 347
#     4  10  20  39  64  88 119 153 203 254 303 342
#     4  11  24  40  63  88 123 157 207 244 299 357
#
# _framework density 20.782813000000001
#
# number of rings (size 3 to 8) (size 9 to 14) (size 15 to 20)
#    0.857    1.143    1.429    1.714    2.000    1.143 
#    5.143    0.000    0.000    0.000    0.000    0.000 
#    0.000    0.000    0.000    0.000    0.000    0.000 
#
# Total GULP energy -77955.935371 kJ/mol
# GULP energy per Si atom -5568.281098 kJ/mol
# Density = 2.073551 g / cm^3
# Si number density = 20.782813 Si / 1000 Ang^3
#
#
#
# Elastic Constant Matrix: (Units=GPa)
#
#
# Indices 1 2 3 4 5 6 
#
# 1 30.8788 -11.2656 -23.7617 -4.3596 -10.7592 27.0351
# 2 -11.2656 43.0237 -36.6665 -30.1360 12.3036 68.0250
# 3 -23.7617 -36.6665 8.3035 -23.0484 11.3677 46.8183
# 4 -4.3596 -30.1360 -23.0484 37.5929 11.0075 8.9188
# 5 -10.7592 12.3036 11.3677 11.0075 18.8978 -14.8066
# 6 27.0351 68.0250 46.8183 8.9188 -14.8066 -16.6932
#
#
#
# Elastic Compliance Matrix: (Units=1/GPa)
#
#
# Indices 1 2 3 4 5 6 
#
# 1 0.039980 -0.007397 0.000767 -0.010959 0.034048 0.000700
# 2 -0.007397 0.008476 -0.007056 0.000996 -0.002052 0.005124
# 3 0.000767 -0.007056 0.015778 -0.000256 0.005132 0.012052
# 4 -0.010959 0.000996 -0.000256 0.027052 -0.013248 0.011798
# 5 0.034048 -0.002052 0.005132 -0.013248 0.071183 -0.009041
# 6 0.000700 0.005124 0.012052 0.011798 -0.009041 0.010233
#
#
# Mechanical properties :
#
#
# Convention : Reuss Voigt Hill
#
# Bulk Modulus (GPa) = 27.12862 -6.79796 10.16533
# Shear Modulus (GPa) = 23.54482 18.21949 20.88216
#
# Velocity S-wave (km/s) = 3.36951 2.96406 3.17327
# Velocity P-wave (km/s) = 5.31223 2.90450 4.28112
#
# Compressibility (1/GPa) = 0.03686144
#
# Stress axis : x y z
#
# Youngs Moduli (GPa) = 25.01265 117.97813 63.38052
#
# Poissons Ratio (x) = 0.87271 -0.04860
# Poissons Ratio (y) = 0.18502 0.44719
# Poissons Ratio (z) = -0.01918 0.83241
#
# Static dielectric constant tensor:
#      x y z
#    x 1.747560 -0.039930 0.011140 
#    y -0.039930 1.733720 -0.029710 
#    z 0.011140 -0.029710 1.811040 
# 
# From -- ./inp_files/11269.got.cif
#   From: 2010.05.17/outbox.cif.g08.bks.cpg/sg2_6_cif.got.tgz:11269.got - 2010.06.03 11:33:40.
