data_PCOD9105709
_publ_section_title
;
Structure prediction by ZEFSAII (Michael W. Deem and Ramdas Pophale) SiO2 
 PCOD9105709
Probable space group: P -1
;
_chemical_formula_sum "Si O2"
_cell_formula_units_Z 16
_cell_length_a 16.949823
_cell_length_b 12.885003
_cell_length_c 7.749741
_cell_angle_alpha 77.511330
_cell_angle_beta 44.114722
_cell_angle_gamma 43.596852
_cell_volume 629.161150
_symmetry_space_group_name_H-M "P -1"
_symmetry_group_IT_number 2
_symmetry_cell_setting 'triclinic'
loop_
_space_group_symop_operation_xyz
x,y,z
-x,-y,-z
loop_
_atom_site_type_symbol
_atom_site_label
_atom_site_fract_x
_atom_site_fract_y
_atom_site_fract_z
Si Si1 0.813939 0.971036 0.029896
Si Si2 0.943350 0.002864 0.307266
Si Si3 0.685720 0.339267 0.401707
Si Si4 0.636359 0.600088 0.514965
Si Si5 0.199369 0.430566 0.090324
Si Si6 0.853902 0.603071 0.359600
Si Si7 0.358091 0.014417 0.374713
Si Si8 0.919131 0.808826 0.584362
O O1 0.874406 0.831854 0.848533
O O2 0.965869 0.952420 0.809603
O O3 0.765535 0.957735 0.297066
O O4 0.601263 0.185460 0.214019
O O5 0.717905 0.204191 0.504637
O O6 0.941367 0.918730 0.489753
O O7 0.105831 0.824841 0.980814
O O8 0.500000 0.500000 0.500000
O O9 0.668289 0.449819 0.521346
O O10 0.741234 0.557598 0.187046
O O11 0.730156 0.592310 0.527027
O O12 0.402985 0.208690 0.913169
O O13 0.011980 0.499105 0.305462
O O14 0.116060 0.589144 0.286670
O O15 0.687638 0.829195 0.550952
O O16 0.000000 0.500000 0.000000
O O17 0.257780 0.079315 0.319773
#
# Coordination Sequence:
#
# PCOD9105709 Si02
#       8
#     2   2   2   2   2   2   2   2
#     4  11  24  41  66  99 130 171 220 272 315 394
#     4  11  23  37  64  92 129 179 210 264 331 382
#     4  11  21  38  65  98 129 167 223 266 318 391
#     4  10  20  39  65  95 131 168 212 272 317 378
#     4   9  20  39  64  91 128 171 211 269 319 386
#     4   9  20  37  67  98 129 166 219 272 315 391
#     4  10  22  44  67  97 129 177 215 261 341 376
#     4  11  23  43  64  96 137 168 218 272 322 383
#
# _framework density 25.430688
#
# number of rings (size 3 to 8) (size 9 to 14) (size 15 to 20)
#    0.000    1.750    2.500    1.875    5.250    4.500 
#    2.250    3.125    0.000    9.750    0.000    0.000 
#    0.000    0.000    0.000    0.000    0.000    0.000 
#
# Total GULP energy -89621.994227 kJ/mol
# GULP energy per Si atom -5601.374639 kJ/mol
# Density = 2.537281 g / cm^3
# Si number density = 25.430688 Si / 1000 Ang^3
#
#
#
# Elastic Constant Matrix: (Units=GPa)
#
#
# Indices 1 2 3 4 5 6 
#
# 1 164.3828 70.6932 55.7796 26.6537 9.6358 7.6410
# 2 70.6932 136.2658 65.9516 39.2233 -5.4651 2.8311
# 3 55.7796 65.9516 80.2173 32.8501 7.3613 -4.5183
# 4 26.6537 39.2233 32.8501 56.3046 -4.6527 1.3525
# 5 9.6358 -5.4651 7.3613 -4.6527 37.2250 9.9258
# 6 7.6410 2.8311 -4.5183 1.3525 9.9258 42.1731
#
#
#
# Elastic Compliance Matrix: (Units=1/GPa)
#
#
# Indices 1 2 3 4 5 6 
#
# 1 0.008680 -0.002708 -0.003674 -0.000174 -0.001564 -0.001411
# 2 -0.002708 0.014325 -0.009367 -0.002757 0.004995 -0.002562
# 3 -0.003674 -0.009367 0.027407 -0.008599 -0.008664 0.006546
# 4 -0.000174 -0.002757 -0.008599 0.025279 0.005233 -0.002747
# 5 -0.001564 0.004995 -0.008664 0.005233 0.032729 -0.008851
# 6 -0.001411 -0.002562 0.006546 -0.002747 -0.008851 0.027012
#
#
# Mechanical properties :
#
#
# Convention : Reuss Voigt Hill
#
# Bulk Modulus (GPa) = 52.87297 85.07940 68.97619
# Shear Modulus (GPa) = 28.86233 39.70331 34.28282
#
# Velocity S-wave (km/s) = 3.37254 3.95553 3.67562
# Velocity P-wave (km/s) = 6.00013 7.37494 6.72277
#
# Compressibility (1/GPa) = 0.01891325
#
# Stress axis : x y z
#
# Youngs Moduli (GPa) = 115.20479 69.80975 36.48644
#
# Poissons Ratio (x) = 0.18907 0.13404
# Poissons Ratio (y) = 0.31202 0.34178
# Poissons Ratio (z) = 0.42323 0.65394
#
# Static dielectric constant tensor:
#      x y z
#    x 2.047060 -0.029180 -0.005560 
#    y -0.029180 2.020440 -0.055010 
#    z -0.005560 -0.055010 2.024400 
# 
# From -- ./inp_files/333201.got.cif
#   From: 2010.05.17/outbox.cif.g08.bks.cpg/sg2_167_cif.got.tgz:333201.got - 2010.06.03 11:33:40.
