data_PCOD9105027
_publ_section_title
;
Structure prediction by ZEFSAII (Michael W. Deem and Ramdas Pophale) SiO2 
 PCOD9105027
Probable space group: P -1
;
_chemical_formula_sum "Si O2"
_cell_formula_units_Z 16
_cell_length_a 12.974639
_cell_length_b 7.514481
_cell_length_c 21.177117
_cell_angle_alpha 72.741734
_cell_angle_beta 22.985506
_cell_angle_gamma 66.097711
_cell_volume 720.077522
_symmetry_space_group_name_H-M "P -1"
_symmetry_group_IT_number 2
_symmetry_cell_setting 'triclinic'
loop_
_space_group_symop_operation_xyz
x,y,z
-x,-y,-z
loop_
_atom_site_type_symbol
_atom_site_label
_atom_site_fract_x
_atom_site_fract_y
_atom_site_fract_z
Si Si1 0.452828 0.562710 0.415203
Si Si2 0.776575 0.237123 0.926859
Si Si3 0.140228 0.448829 0.250601
Si Si4 0.077958 0.300486 0.873342
Si Si5 0.586866 0.527297 0.194104
Si Si6 0.443717 0.900673 0.727809
Si Si7 0.050971 0.671632 0.411035
Si Si8 0.316256 0.894582 0.651536
O O1 0.650229 0.677124 0.317054
O O2 0.508784 0.569079 0.307051
O O3 0.582751 0.339609 0.392604
O O4 0.118549 0.627746 0.606060
O O5 0.832966 0.406600 0.835130
O O6 0.875487 0.268746 0.937515
O O7 0.444996 0.278348 0.105990
O O8 0.989159 0.020525 0.809291
O O9 0.073484 0.588066 0.336247
O O10 0.222986 0.106673 0.856065
O O11 0.893990 0.495806 0.995860
O O12 0.589085 0.300907 0.208270
O O13 0.342971 0.676880 0.272698
O O14 0.376496 0.905851 0.690865
O O15 0.773102 0.867204 0.554266
O O16 0.000000 0.500000 0.500000
O O17 0.500000 0.000000 0.500000
#
# Coordination Sequence:
#
# PCOD9105027 Si02
#       8
#     2   2   2   2   2   2   2   2
#     4  11  22  36  58  82 116 145 178 233 285 321
#     4  10  22  34  61  82 106 147 189 225 263 333
#     4  11  19  37  57  83 108 143 192 222 267 334
#     4  11  22  36  53  89 115 140 180 238 283 315
#     4  10  19  36  58  79 108 154 188 220 271 336
#     4   9  19  32  55  83 105 147 190 223 266 328
#     4  10  16  33  60  78 101 145 194 219 262 319
#     4  10  17  36  56  80 107 147 186 219 268 335
#
# _framework density 22.219828
#
# number of rings (size 3 to 8) (size 9 to 14) (size 15 to 20)
#    0.000    1.750    6.250    0.750    0.000    0.500 
#    0.000    1.875    0.000    1.500    0.000    0.000 
#    0.000    0.000    0.000    0.000    0.000    0.000 
#
# Total GULP energy -89285.556573 kJ/mol
# GULP energy per Si atom -5580.347286 kJ/mol
# Density = 2.216926 g / cm^3
# Si number density = 22.219828 Si / 1000 Ang^3
#
#
#
# Elastic Constant Matrix: (Units=GPa)
#
#
# Indices 1 2 3 4 5 6 
#
# 1 37.5999 8.4246 23.1337 6.2577 -6.0633 -22.9902
# 2 8.4246 42.8331 20.2420 3.4935 -18.8074 -8.5846
# 3 23.1337 20.2420 160.7582 16.7973 -41.9293 -16.5240
# 4 6.2577 3.4935 16.7973 38.7811 -13.7798 -8.2640
# 5 -6.0633 -18.8074 -41.9293 -13.7798 44.5679 3.3366
# 6 -22.9902 -8.5846 -16.5240 -8.2640 3.3366 21.3200
#
#
#
# Elastic Compliance Matrix: (Units=1/GPa)
#
#
# Indices 1 2 3 4 5 6 
#
# 1 0.082795 0.005887 -0.002116 0.009493 0.007769 0.092475
# 2 0.005887 0.031967 0.000444 0.005401 0.014932 0.019320
# 3 -0.002116 0.000444 0.008931 0.000057 0.008051 0.003581
# 4 0.009493 0.005401 0.000057 0.033014 0.012083 0.023361
# 5 0.007769 0.014932 0.008051 0.012083 0.039676 0.019105
# 6 0.092475 0.019320 0.003581 0.023361 0.019105 0.163244
#
#
# Mechanical properties :
#
#
# Convention : Reuss Voigt Hill
#
# Bulk Modulus (GPa) = 7.56878 38.31018 22.93948
# Shear Modulus (GPa) = 12.65060 33.55987 23.10523
#
# Velocity S-wave (km/s) = 2.38867 3.89055 3.22817
# Velocity P-wave (km/s) = 3.31984 6.12051 4.92352
#
# Compressibility (1/GPa) = 0.13212173
#
# Stress axis : x y z
#
# Youngs Moduli (GPa) = 12.07807 31.28245 111.96618
#
# Poissons Ratio (x) = -0.18415 0.23691
# Poissons Ratio (y) = -0.07110 -0.04969
# Poissons Ratio (z) = 0.02556 -0.01388
#
# Static dielectric constant tensor:
#      x y z
#    x 1.857200 0.035980 -0.021700 
#    y 0.035980 1.845920 0.002450 
#    z -0.021700 0.002450 1.963920 
# 
# From -- ./inp_files/269462.got.cif
#   From: 2010.05.17/outbox.cif.g08.bks.cpg/sg2_135_cif.got.tgz:269462.got - 2010.06.03 11:33:40.
