data_PCOD9105323
_publ_section_title
;
Structure prediction by ZEFSAII (Michael W. Deem and Ramdas Pophale) SiO2 
 PCOD9105323
Probable space group: P -1
;
_chemical_formula_sum "Si O2"
_cell_formula_units_Z 16
_cell_length_a 13.420380
_cell_length_b 8.230292
_cell_length_c 14.172943
_cell_angle_alpha 129.947266
_cell_angle_beta 134.696814
_cell_angle_gamma 72.766437
_cell_volume 817.705152
_symmetry_space_group_name_H-M "P -1"
_symmetry_group_IT_number 2
_symmetry_cell_setting 'triclinic'
loop_
_space_group_symop_operation_xyz
x,y,z
-x,-y,-z
loop_
_atom_site_type_symbol
_atom_site_label
_atom_site_fract_x
_atom_site_fract_y
_atom_site_fract_z
Si Si1 0.065522 0.140101 0.823657
Si Si2 0.051110 0.878841 0.902396
Si Si3 0.428227 0.679701 0.475172
Si Si4 0.546136 0.690737 0.027513
Si Si5 0.144030 0.966520 0.631967
Si Si6 0.602863 0.988160 0.852206
Si Si7 0.120370 0.615163 0.337645
Si Si8 0.387491 0.429842 0.177816
O O1 0.962144 0.253159 0.737312
O O2 0.007355 0.998556 0.825352
O O3 0.112646 0.965504 0.721573
O O4 0.211316 0.340439 0.016150
O O5 0.977649 0.620066 0.777543
O O6 0.226332 0.923105 0.027480
O O7 0.000000 0.000000 0.000000
O O8 0.500000 0.500000 0.500000
O O9 0.507589 0.913792 0.665364
O O10 0.260634 0.600839 0.367556
O O11 0.434112 0.649804 0.354805
O O12 0.713817 0.828206 0.208345
O O13 0.448743 0.851177 0.050813
O O14 0.500000 0.500000 0.000000
O O15 0.539785 0.583556 0.879753
O O16 0.172208 0.761166 0.520577
O O17 0.000000 0.000000 0.500000
O O18 0.578917 0.763689 0.810919
#
# Coordination Sequence:
#
# PCOD9105323 Si02
#       8
#     2   2   2   2   2   2   2   2
#     4   9  21  40  61  94 124 157 213 252 306 376
#     4  11  24  40  63  93 122 162 214 257 300 374
#     4  10  20  39  64  90 120 160 203 253 314 368
#     4  11  22  38  62  90 123 160 206 254 299 370
#     4   9  20  39  62  90 123 161 203 254 309 371
#     4  10  21  40  62  88 124 159 202 252 316 363
#     4  11  21  40  70  86 124 170 200 257 317 357
#     4   9  20  38  62  86 124 159 201 254 305 369
#
# _framework density 19.566955
#
# number of rings (size 3 to 8) (size 9 to 14) (size 15 to 20)
#    0.000    2.000    1.250    2.625    5.250    2.500 
#    0.000    8.125    0.000    0.000    0.000    0.000 
#    0.000    0.000    0.000    0.000    0.000    0.000 
#
# Total GULP energy -89153.647255 kJ/mol
# GULP energy per Si atom -5572.102953 kJ/mol
# Density = 1.952242 g / cm^3
# Si number density = 19.566955 Si / 1000 Ang^3
#
#
#
# Elastic Constant Matrix: (Units=GPa)
#
#
# Indices 1 2 3 4 5 6 
#
# 1 158.2724 48.8868 59.1932 0.0911 -17.2437 16.1113
# 2 48.8868 72.9048 29.6015 0.3228 2.7361 17.3574
# 3 59.1932 29.6015 71.9357 -4.0354 -23.4539 22.5374
# 4 0.0911 0.3228 -4.0354 22.1385 -0.3473 7.3236
# 5 -17.2437 2.7361 -23.4539 -0.3473 31.2663 -5.3947
# 6 16.1113 17.3574 22.5374 7.3236 -5.3947 29.7144
#
#
#
# Elastic Compliance Matrix: (Units=1/GPa)
#
#
# Indices 1 2 3 4 5 6 
#
# 1 0.010346 -0.004822 -0.007456 -0.002536 0.001144 0.003695
# 2 -0.004822 0.021474 -0.005697 0.001059 -0.010130 -0.007708
# 3 -0.007456 -0.005697 0.035718 0.013350 0.019984 -0.019382
# 4 -0.002536 0.001059 0.013350 0.054940 0.005348 -0.021939
# 5 0.001144 -0.010130 0.019984 0.005348 0.048130 -0.002440
# 6 0.003695 -0.007708 -0.019382 -0.021939 -0.002440 0.055818
#
#
# Mechanical properties :
#
#
# Convention : Reuss Voigt Hill
#
# Bulk Modulus (GPa) = 31.65789 64.27509 47.96649
# Shear Modulus (GPa) = 18.32140 27.65260 22.98700
#
# Velocity S-wave (km/s) = 3.06329 3.76337 3.43123
# Velocity P-wave (km/s) = 5.35967 7.19750 6.34548
#
# Compressibility (1/GPa) = 0.03158771
#
# Stress axis : x y z
#
# Youngs Moduli (GPa) = 96.65544 46.56859 27.99726
#
# Poissons Ratio (x) = 0.22453 0.20875
# Poissons Ratio (y) = 0.46603 0.15951
# Poissons Ratio (z) = 0.72066 0.26532
#
# Static dielectric constant tensor:
#      x y z
#    x 1.680750 -0.023110 -0.063210 
#    y -0.023110 1.685970 0.003400 
#    z -0.063210 0.003400 1.765500 
# 
# From -- ./inp_files/268362.got.cif
#   From: 2010.05.17/outbox.cif.g08.bks.cpg/sg2_135_cif.got.tgz:268362.got - 2010.06.03 11:33:40.
