data_PCOD9105059
_publ_section_title
;
Structure prediction by ZEFSAII (Michael W. Deem and Ramdas Pophale) SiO2 
 PCOD9105059
Probable space group: P -1
;
_chemical_formula_sum "Si O2"
_cell_formula_units_Z 16
_cell_length_a 16.073492
_cell_length_b 29.138631
_cell_length_c 19.476460
_cell_angle_alpha 164.079341
_cell_angle_beta 25.865189
_cell_angle_gamma 160.740330
_cell_volume 822.123495
_symmetry_space_group_name_H-M "P -1"
_symmetry_group_IT_number 2
_symmetry_cell_setting 'triclinic'
loop_
_space_group_symop_operation_xyz
x,y,z
-x,-y,-z
loop_
_atom_site_type_symbol
_atom_site_label
_atom_site_fract_x
_atom_site_fract_y
_atom_site_fract_z
Si Si1 0.472595 0.670193 0.078459
Si Si2 0.734550 0.770506 0.840499
Si Si3 0.562336 0.389299 0.524460
Si Si4 0.780284 0.434216 0.018050
Si Si5 0.944988 0.986100 0.860398
Si Si6 0.500367 0.310083 0.751410
Si Si7 0.052897 0.610290 0.545433
Si Si8 0.914051 0.897675 0.598080
O O1 0.426881 0.660582 0.179532
O O2 0.494662 0.487131 0.775223
O O3 0.277186 0.643042 0.130645
O O4 0.761712 0.898604 0.180736
O O5 0.669831 0.562922 0.630369
O O6 0.493923 0.747745 0.004693
O O7 0.770432 0.785373 0.753987
O O8 0.000000 0.000000 0.000000
O O9 0.309163 0.143515 0.338691
O O10 0.800945 0.422142 0.418897
O O11 0.845076 0.666979 0.303006
O O12 0.000000 0.500000 0.000000
O O13 0.877608 0.915870 0.731035
O O14 0.928870 0.176670 0.159485
O O15 0.697815 0.319714 0.573847
O O16 0.500000 0.500000 0.000000
O O17 0.208257 0.089933 0.641454
O O18 0.000000 0.500000 0.500000
#
# Coordination Sequence:
#
# PCOD9105059 Si02
#       8
#     2   2   2   2   2   2   2   2
#     4   8  17  37  56  79 114 153 189 230 284 340
#     4  10  16  33  60  79 112 158 194 223 283 338
#     4   9  19  37  59  83 118 149 189 241 281 335
#     4  10  21  35  55  86 127 150 184 243 286 338
#     4  10  18  36  60  82 112 156 198 230 277 349
#     4  11  22  40  63  84 111 153 196 238 292 350
#     4  11  22  38  61  86 110 149 198 242 284 347
#     4   9  21  39  57  86 118 153 188 238 291 333
#
# _framework density 19.461797000000001
#
# number of rings (size 3 to 8) (size 9 to 14) (size 15 to 20)
#    0.000    2.500    3.750    2.250    1.750    2.000 
#    4.500    9.375    0.000    0.000    0.000    0.000 
#    0.000    0.000    0.000    0.000    0.000    0.000 
#
# Total GULP energy -89070.832039 kJ/mol
# GULP energy per Si atom -5566.927002 kJ/mol
# Density = 1.941750 g / cm^3
# Si number density = 19.461797 Si / 1000 Ang^3
#
#
#
# Elastic Constant Matrix: (Units=GPa)
#
#
# Indices 1 2 3 4 5 6 
#
# 1 129.7881 90.2197 21.4779 2.1225 11.3689 11.7774
# 2 90.2197 146.1477 27.1876 3.5839 18.0987 1.9067
# 3 21.4779 27.1876 32.2267 5.8057 10.7597 -2.2678
# 4 2.1225 3.5839 5.8057 16.5369 6.8074 13.4806
# 5 11.3689 18.0987 10.7597 6.8074 28.3373 2.7753
# 6 11.7774 1.9067 -2.2678 13.4806 2.7753 41.2842
#
#
#
# Elastic Compliance Matrix: (Units=1/GPa)
#
#
# Indices 1 2 3 4 5 6 
#
# 1 0.014659 -0.008332 -0.004381 0.006396 0.000168 -0.006138
# 2 -0.008332 0.013191 -0.004169 -0.000408 -0.003588 0.001913
# 3 -0.004381 -0.004169 0.044710 -0.019364 -0.008964 0.010824
# 4 0.006396 -0.000408 -0.019364 0.101610 -0.015937 -0.034977
# 5 0.000168 -0.003588 -0.008964 -0.015937 0.044566 0.001833
# 6 -0.006138 0.001913 0.010824 -0.034977 0.001833 0.037777
#
#
# Mechanical properties :
#
#
# Convention : Reuss Voigt Hill
#
# Bulk Modulus (GPa) = 25.77577 65.10364 45.43970
# Shear Modulus (GPa) = 16.49018 28.51685 22.50352
#
# Velocity S-wave (km/s) = 2.91402 3.83204 3.40412
# Velocity P-wave (km/s) = 4.95934 7.28725 6.23294
#
# Compressibility (1/GPa) = 0.03879613
#
# Stress axis : x y z
#
# Youngs Moduli (GPa) = 68.21548 75.80939 22.36615
#
# Poissons Ratio (x) = 0.63166 0.09799
# Poissons Ratio (y) = 0.56838 0.09325
# Poissons Ratio (z) = 0.29886 0.31605
#
# Static dielectric constant tensor:
#      x y z
#    x 1.788770 0.073160 0.003860 
#    y 0.073160 1.755250 -0.024740 
#    z 0.003860 -0.024740 1.701020 
# 
# From -- ./inp_files/574485.got.cif
#   From: 2010.05.17/outbox.cif.g08.bks.cpg/sg2_288_cif.got.tgz:574485.got - 2010.06.03 11:33:40.
