data_PCOD9105906
_publ_section_title
;
Structure prediction by ZEFSAII (Michael W. Deem and Ramdas Pophale) SiO2 
 PCOD9105906
Probable space group: P -1
;
_chemical_formula_sum "Si O2"
_cell_formula_units_Z 10
_cell_length_a 5.356979
_cell_length_b 12.073670
_cell_length_c 7.466219
_cell_angle_alpha 63.557181
_cell_angle_beta 58.465812
_cell_angle_gamma 73.631795
_cell_volume 367.773177
_symmetry_space_group_name_H-M "P -1"
_symmetry_group_IT_number 2
_symmetry_cell_setting 'triclinic'
loop_
_space_group_symop_operation_xyz
x,y,z
-x,-y,-z
loop_
_atom_site_type_symbol
_atom_site_label
_atom_site_fract_x
_atom_site_fract_y
_atom_site_fract_z
Si Si1 0.828383 0.238414 0.673543
Si Si2 0.675524 0.368277 0.001238
Si Si3 0.311736 0.899462 0.741597
Si Si4 0.848451 0.483867 0.374864
Si Si5 0.282274 0.098845 0.870102
O O1 0.664676 0.316369 0.840373
O O2 0.923940 0.338381 0.418531
O O3 0.586419 0.160087 0.730252
O O4 0.101629 0.170218 0.724094
O O5 0.007215 0.412052 0.872134
O O6 0.500000 0.500000 0.000000
O O7 0.599403 0.244571 0.222999
O O8 0.500000 0.000000 0.500000
O O9 0.346732 0.956740 0.887114
O O10 0.952906 0.900237 0.878214
O O11 0.500000 0.500000 0.500000
O O12 0.000000 0.500000 0.500000
#
# Coordination Sequence:
#
# PCOD9105906 Si02
#       5
#     2   2   2   2   2
#     4  10  21  44  72  96 134 179 230 277 347 404
#     4  10  23  42  67 105 142 175 229 292 345 412
#     4  10  23  44  70  99 139 180 232 279 347 405
#     4  10  20  39  66  93 131 178 223 270 338 408
#     4  10  23  45  71  99 135 181 231 285 332 414
#
# _framework density 27.190671999999999
#
# number of rings (size 3 to 8) (size 9 to 14) (size 15 to 20)
#    0.000    2.000    0.000    3.600    2.800    7.200 
#    7.200   17.000    0.000    0.000    0.000    0.000 
#    0.000    0.000    0.000    0.000    0.000    0.000 
#
# Total GULP energy -55765.614358 kJ/mol
# GULP energy per Si atom -5576.561436 kJ/mol
# Density = 2.712878 g / cm^3
# Si number density = 27.190672 Si / 1000 Ang^3
#
#
#
# Elastic Constant Matrix: (Units=GPa)
#
#
# Indices 1 2 3 4 5 6 
#
# 1 137.0225 55.7813 45.4511 -26.3641 -41.1072 -20.1338
# 2 55.7813 203.5784 74.1777 -37.6650 -22.8954 -11.0171
# 3 45.4511 74.1777 201.4890 -58.6419 -24.2951 -23.0316
# 4 -26.3641 -37.6650 -58.6419 65.6849 8.6183 -1.8770
# 5 -41.1072 -22.8954 -24.2951 8.6183 47.3784 1.8403
# 6 -20.1338 -11.0171 -23.0316 -1.8770 1.8403 43.2172
#
#
#
# Elastic Compliance Matrix: (Units=1/GPa)
#
#
# Indices 1 2 3 4 5 6 
#
# 1 0.011846 -0.001534 0.000536 0.003320 0.009007 0.005174
# 2 -0.001534 0.006219 -0.001360 0.001654 0.000669 0.000189
# 3 0.000536 -0.001360 0.008002 0.006364 0.002586 0.004334
# 4 0.003320 0.001654 0.006364 0.023036 0.002510 0.006254
# 5 0.009007 0.000669 0.002586 0.002510 0.029936 0.004579
# 6 0.005174 0.000189 0.004334 0.006254 0.004579 0.027984
#
#
# Mechanical properties :
#
#
# Convention : Reuss Voigt Hill
#
# Bulk Modulus (GPa) = 46.83402 99.21224 73.02313
# Shear Modulus (GPa) = 42.06766 55.70143 48.88454
#
# Velocity S-wave (km/s) = 3.93763 4.53100 4.24470
# Velocity P-wave (km/s) = 6.15914 7.99626 7.13705
#
# Compressibility (1/GPa) = 0.02135200
#
# Stress axis : x y z
#
# Youngs Moduli (GPa) = 84.41885 160.78501 124.96678
#
# Poissons Ratio (x) = 0.24665 -0.06701
# Poissons Ratio (y) = 0.12950 0.16994
# Poissons Ratio (z) = -0.04527 0.21865
#
# Static dielectric constant tensor:
#      x y z
#    x 2.276150 -0.060770 0.129200 
#    y -0.060770 2.259040 -0.036340 
#    z 0.129200 -0.036340 2.424320 
# 
# From -- ./inp_files/40383.got.cif
#   From: 2010.05.17/outbox.cif.g08.bks.cpg/sg2_21_cif.got.tgz:40383.got - 2010.06.03 11:33:40.
