data_PCOD9105940
_publ_section_title
;
Structure prediction by ZEFSAII (Michael W. Deem and Ramdas Pophale) SiO2 
 PCOD9105940
Probable space group: P -1
;
_chemical_formula_sum "Si O2"
_cell_formula_units_Z 16
_cell_length_a 20.221466
_cell_length_b 12.184124
_cell_length_c 11.377255
_cell_angle_alpha 50.541041
_cell_angle_beta 141.427348
_cell_angle_gamma 157.471479
_cell_volume 624.065192
_symmetry_space_group_name_H-M "P -1"
_symmetry_group_IT_number 2
_symmetry_cell_setting 'triclinic'
loop_
_space_group_symop_operation_xyz
x,y,z
-x,-y,-z
loop_
_atom_site_type_symbol
_atom_site_label
_atom_site_fract_x
_atom_site_fract_y
_atom_site_fract_z
Si Si1 0.003556 0.405926 0.245991
Si Si2 0.686208 0.334552 0.693350
Si Si3 0.634614 0.712345 0.390947
Si Si4 0.661457 0.346150 0.293545
Si Si5 0.521300 0.393771 0.257703
Si Si6 0.518255 0.872854 0.045102
Si Si7 0.039323 0.766873 0.073183
Si Si8 0.866974 0.966261 0.768539
O O1 0.085072 0.436098 0.217583
O O2 0.107311 0.433645 0.474148
O O3 0.107683 0.686477 0.199753
O O4 0.742344 0.127062 0.100097
O O5 0.577382 0.332698 0.469729
O O6 0.514338 0.995938 0.690871
O O7 0.794090 0.506723 0.850867
O O8 0.661027 0.691411 0.306480
O O9 0.843080 0.927272 0.622001
O O10 0.402627 0.357201 0.350814
O O11 0.560677 0.788914 0.243816
O O12 0.586302 0.400935 0.218717
O O13 0.675899 0.379869 0.150937
O O14 0.250275 0.106231 0.081148
O O15 0.500000 0.000000 0.000000
O O16 0.035506 0.782135 0.197742
O O17 0.000000 0.000000 0.000000
#
# Coordination Sequence:
#
# PCOD9105940 Si02
#       8
#     2   2   2   2   2   2   2   2
#     4  11  22  39  63  98 128 167 215 266 320 380
#     4  11  19  37  68 104 129 153 220 275 330 370
#     4  10  25  45  60  94 130 169 220 263 319 388
#     4  11  22  40  67  98 130 169 213 270 329 379
#     4  10  20  39  66  95 127 159 213 279 321 371
#     4  12  29  43  61  90 139 183 213 260 318 392
#     4  11  19  32  65  97 123 160 207 269 323 372
#     4  10  23  41  68  89 122 169 221 269 319 372
#
# _framework density 25.638347
#
# number of rings (size 3 to 8) (size 9 to 14) (size 15 to 20)
#    0.000    1.250    3.750    2.625    3.500    3.000 
#    0.000    2.500    0.000    0.000    0.000    0.000 
#    0.000    0.000    0.000    0.000    0.000    0.000 
#
# Total GULP energy -89458.736451 kJ/mol
# GULP energy per Si atom -5591.171028 kJ/mol
# Density = 2.557999 g / cm^3
# Si number density = 25.638347 Si / 1000 Ang^3
#
#
#
# Elastic Constant Matrix: (Units=GPa)
#
#
# Indices 1 2 3 4 5 6 
#
# 1 120.3864 28.8986 51.3468 2.7014 -1.4516 -25.1975
# 2 28.8986 51.7668 24.3270 8.0715 -5.6872 -16.0300
# 3 51.3468 24.3270 121.6254 12.4007 -25.4550 -14.5584
# 4 2.7014 8.0715 12.4007 34.6460 -5.6298 -1.6350
# 5 -1.4516 -5.6872 -25.4550 -5.6298 36.5985 10.2860
# 6 -25.1975 -16.0300 -14.5584 -1.6350 10.2860 41.3000
#
#
#
# Elastic Compliance Matrix: (Units=1/GPa)
#
#
# Indices 1 2 3 4 5 6 
#
# 1 0.012394 -0.003519 -0.004997 0.001104 -0.004967 0.005715
# 2 -0.003519 0.025123 -0.002376 -0.004487 -0.000463 0.006704
# 3 -0.004997 -0.002376 0.012575 -0.002288 0.008303 -0.001697
# 4 0.001104 -0.004487 -0.002288 0.031051 0.002917 -0.001372
# 5 -0.004967 -0.000463 0.008303 0.002917 0.035834 -0.009092
# 6 0.005715 0.006704 -0.001697 -0.001372 -0.009092 0.031914
#
#
# Mechanical properties :
#
#
# Convention : Reuss Voigt Hill
#
# Bulk Modulus (GPa) = 35.32521 55.88036 45.60279
# Shear Modulus (GPa) = 27.76070 35.12265 31.44168
#
# Velocity S-wave (km/s) = 3.29413 3.70527 3.50573
# Velocity P-wave (km/s) = 5.31757 6.33627 5.84914
#
# Compressibility (1/GPa) = 0.02830839
#
# Stress axis : x y z
#
# Youngs Moduli (GPa) = 80.68439 39.80360 79.52463
#
# Poissons Ratio (x) = 0.14007 0.39735
# Poissons Ratio (y) = 0.28392 0.18898
# Poissons Ratio (z) = 0.40314 0.09459
#
# Static dielectric constant tensor:
#      x y z
#    x 2.085720 0.049200 -0.031900 
#    y 0.049200 2.148580 0.028690 
#    z -0.031900 0.028690 2.022930 
# 
# From -- ./inp_files/471184.got.cif
#   From: 2010.05.17/outbox.cif.g08.bks.cpg/sg2_236_cif.got.tgz:471184.got - 2010.06.03 11:33:40.
