data_PCOD9105886
_publ_section_title
;
Structure prediction by ZEFSAII (Michael W. Deem and Ramdas Pophale) SiO2 
 PCOD9105886
Probable space group: P -1
;
_chemical_formula_sum "Si O2"
_cell_formula_units_Z 16
_cell_length_a 13.582105
_cell_length_b 5.933444
_cell_length_c 8.980339
_cell_angle_alpha 117.110260
_cell_angle_beta 111.219181
_cell_angle_gamma 67.621635
_cell_volume 579.863937
_symmetry_space_group_name_H-M "P -1"
_symmetry_group_IT_number 2
_symmetry_cell_setting 'triclinic'
loop_
_space_group_symop_operation_xyz
x,y,z
-x,-y,-z
loop_
_atom_site_type_symbol
_atom_site_label
_atom_site_fract_x
_atom_site_fract_y
_atom_site_fract_z
Si Si1 0.831284 0.816193 0.198779
Si Si2 0.294233 0.557863 0.147955
Si Si3 0.946827 0.424604 0.596187
Si Si4 0.277189 0.553714 0.472553
Si Si5 0.060194 0.215634 0.034303
Si Si6 0.329136 0.220620 0.649172
Si Si7 0.618199 0.300395 0.031270
Si Si8 0.465586 0.798175 0.755559
O O1 0.753495 0.886398 0.323966
O O2 0.951629 0.757600 0.317350
O O3 0.783866 0.580026 0.030373
O O4 0.851138 0.936720 0.084878
O O5 0.247801 0.627363 0.306923
O O6 0.411974 0.361292 0.195759
O O7 0.325395 0.765279 0.116001
O O8 0.840248 0.323969 0.475289
O O9 0.904315 0.669657 0.759420
O O10 0.000000 0.500000 0.500000
O O11 0.306525 0.261684 0.475692
O O12 0.391608 0.626235 0.588069
O O13 0.000000 0.500000 0.000000
O O14 0.000000 0.000000 0.000000
O O15 0.320936 0.511976 0.791393
O O16 0.447209 0.040695 0.706748
O O17 0.594559 0.111864 0.090181
O O18 0.500000 0.500000 0.000000
#
# Coordination Sequence:
#
# PCOD9105886 Si02
#       8
#     2   2   2   2   2   2   2   2
#     4  10  21  41  65  97 128 177 229 289 355 426
#     4  10  20  39  66  92 133 172 224 285 344 419
#     4  11  22  43  71  97 138 184 233 301 365 434
#     4  11  22  41  63  93 135 174 228 280 352 426
#     4  10  23  46  72 102 144 186 242 304 365 437
#     4  10  21  39  60  91 131 168 228 273 342 422
#     4   8  18  36  60  85 120 165 216 271 328 393
#     4  10  22  40  63  94 131 179 223 281 347 421
#
# _framework density 27.592676999999998
#
# number of rings (size 3 to 8) (size 9 to 14) (size 15 to 20)
#    0.000    2.000    2.500    0.375    0.000    6.000 
#    9.000    5.625    0.000    0.000    0.000    0.000 
#    0.000    0.000    0.000    0.000    0.000    0.000 
#
# Total GULP energy -89164.201725 kJ/mol
# GULP energy per Si atom -5572.762608 kJ/mol
# Density = 2.752988 g / cm^3
# Si number density = 27.592677 Si / 1000 Ang^3
#
#
#
# Elastic Constant Matrix: (Units=GPa)
#
#
# Indices 1 2 3 4 5 6 
#
# 1 137.1954 34.5646 30.0496 -0.2656 8.4367 23.4985
# 2 34.5646 103.2664 40.5015 -24.1872 8.6006 6.6902
# 3 30.0496 40.5015 114.1974 -25.4535 -1.2522 3.4423
# 4 -0.2656 -24.1872 -25.4535 45.5395 5.5877 6.7604
# 5 8.4367 8.6006 -1.2522 5.5877 69.8254 -14.0338
# 6 23.4985 6.6902 3.4423 6.7604 -14.0338 50.3398
#
#
#
# Elastic Compliance Matrix: (Units=1/GPa)
#
#
# Indices 1 2 3 4 5 6 
#
# 1 0.009030 -0.002250 -0.001772 -0.001342 -0.001552 -0.004047
# 2 -0.002250 0.013245 -0.002716 0.006079 -0.002293 -0.001980
# 3 -0.001772 -0.002716 0.011270 0.004825 0.000337 -0.000136
# 4 -0.001342 0.006079 0.004825 0.029182 -0.003947 -0.005531
# 5 -0.001552 -0.002293 0.000337 -0.003947 0.016337 0.006091
# 6 -0.004047 -0.001980 -0.000136 -0.005531 0.006091 0.024467
#
#
# Mechanical properties :
#
#
# Convention : Reuss Voigt Hill
#
# Bulk Modulus (GPa) = 49.83066 62.76560 56.29813
# Shear Modulus (GPa) = 40.42130 49.77719 45.09924
#
# Velocity S-wave (km/s) = 3.83159 4.25196 4.04724
# Velocity P-wave (km/s) = 6.13786 6.84851 6.50290
#
# Compressibility (1/GPa) = 0.02006797
#
# Stress axis : x y z
#
# Youngs Moduli (GPa) = 110.74225 75.49985 88.73458
#
# Poissons Ratio (x) = 0.16989 0.15725
# Poissons Ratio (y) = 0.24920 0.24100
# Poissons Ratio (z) = 0.19625 0.20505
#
# Static dielectric constant tensor:
#      x y z
#    x 2.239900 -0.040660 -0.024350 
#    y -0.040660 2.285650 0.090120 
#    z -0.024350 0.090120 2.316920 
# 
# From -- ./inp_files/289062.got.cif
#   From: 2010.05.17/outbox.cif.g08.bks.cpg/sg2_145_cif.got.tgz:289062.got - 2010.06.03 11:33:40.
