data_PCOD9105402
_publ_section_title
;
Structure prediction by ZEFSAII (Michael W. Deem and Ramdas Pophale) SiO2 
 PCOD9105402
Probable space group: P -1
;
_chemical_formula_sum "Si O2"
_cell_formula_units_Z 14
_cell_length_a 8.152721
_cell_length_b 9.459935
_cell_length_c 9.617381
_cell_angle_alpha 136.478494
_cell_angle_beta 106.877098
_cell_angle_gamma 82.023349
_cell_volume 485.872208
_symmetry_space_group_name_H-M "P -1"
_symmetry_group_IT_number 2
_symmetry_cell_setting 'triclinic'
loop_
_space_group_symop_operation_xyz
x,y,z
-x,-y,-z
loop_
_atom_site_type_symbol
_atom_site_label
_atom_site_fract_x
_atom_site_fract_y
_atom_site_fract_z
Si Si1 0.464618 0.141193 0.301407
Si Si2 0.708056 0.289877 0.030082
Si Si3 0.575768 0.445689 0.763493
Si Si4 0.953852 0.219409 0.283034
Si Si5 0.257277 0.928084 0.481492
Si Si6 0.919100 0.684229 0.317900
Si Si7 0.207317 0.223944 0.096571
O O1 0.469045 0.356288 0.537756
O O2 0.651004 0.074735 0.344640
O O3 0.398072 0.171307 0.151861
O O4 0.332029 0.950506 0.187253
O O5 0.536718 0.404810 0.077191
O O6 0.842158 0.452987 0.098547
O O7 0.790940 0.278979 0.198069
O O8 0.624007 0.226116 0.677764
O O9 0.749925 0.581863 0.853175
O O10 0.001276 0.322923 0.513742
O O11 0.112553 0.261729 0.245187
O O12 0.912644 0.974177 0.128033
O O13 0.068578 0.802914 0.347833
O O14 0.230907 0.160891 0.602319
#
# Coordination Sequence:
#
# PCOD9105402 Si02
#       7
#     2   2   2   2   2   2   2
#     4   9  22  39  62  94 124 157 210 257 300 371
#     4  11  23  38  68  97 118 164 208 254 324 353
#     4  10  22  39  64  94 124 161 203 260 307 366
#     4  10  23  37  63  99 123 159 210 257 306 384
#     4   9  24  42  63  86 127 170 207 248 308 364
#     4  11  22  42  64  87 128 169 203 255 305 374
#     4  10  20  39  64  93 129 160 200 263 321 348
#
# _framework density 28.814160999999999
#
# number of rings (size 3 to 8) (size 9 to 14) (size 15 to 20)
#    0.857    1.143    0.000    2.571    4.000    2.286 
#    0.000    0.714    3.143    0.000    0.000    0.000 
#    0.000    0.000    0.000    0.000    0.000    0.000 
#
# Total GULP energy -78380.708432 kJ/mol
# GULP energy per Si atom -5598.622031 kJ/mol
# Density = 2.874858 g / cm^3
# Si number density = 28.814161 Si / 1000 Ang^3
#
#
#
# Elastic Constant Matrix: (Units=GPa)
#
#
# Indices 1 2 3 4 5 6 
#
# 1 123.6820 21.9680 22.0691 6.2425 9.9559 -15.6582
# 2 21.9680 146.1475 27.0823 18.2334 8.1439 -17.4624
# 3 22.0691 27.0823 132.2512 29.5453 27.3212 3.5006
# 4 6.2425 18.2334 29.5453 56.6272 7.8017 -0.4823
# 5 9.9559 8.1439 27.3212 7.8017 42.9839 13.1328
# 6 -15.6582 -17.4624 3.5006 -0.4823 13.1328 40.9944
#
#
#
# Elastic Compliance Matrix: (Units=1/GPa)
#
#
# Indices 1 2 3 4 5 6 
#
# 1 0.009098 -0.000548 -0.000985 0.000091 -0.002672 0.004183
# 2 -0.000548 0.007839 -0.000890 -0.001747 -0.001606 0.003700
# 3 -0.000985 -0.000890 0.009875 -0.004048 -0.005146 0.000002
# 4 0.000091 -0.001747 -0.004048 0.020446 -0.000876 0.000158
# 5 -0.002672 -0.001606 -0.005146 -0.000876 0.031046 -0.011222
# 6 0.004183 0.003700 0.000002 0.000158 -0.011222 0.031164
#
#
# Mechanical properties :
#
#
# Convention : Reuss Voigt Hill
#
# Bulk Modulus (GPa) = 45.52164 60.47993 53.00079
# Shear Modulus (GPa) = 41.10584 50.18518 45.64551
#
# Velocity S-wave (km/s) = 3.78111 4.17788 3.98444
# Velocity P-wave (km/s) = 5.90721 6.65643 6.29298
#
# Compressibility (1/GPa) = 0.02196757
#
# Stress axis : x y z
#
# Youngs Moduli (GPa) = 109.90958 127.56513 101.26103
#
# Poissons Ratio (x) = 0.06987 0.09976
# Poissons Ratio (y) = 0.06020 0.09010
# Poissons Ratio (z) = 0.10828 0.11351
#
# Static dielectric constant tensor:
#      x y z
#    x 2.257800 -0.007270 -0.024100 
#    y -0.007270 2.264460 -0.092550 
#    z -0.024100 -0.092550 2.222210 
# 
# From -- ./inp_files/380704.got.cif
#   From: 2010.05.17/outbox.cif.g08.bks.cpg/sg2_191_cif.got.tgz:380704.got - 2010.06.03 11:33:40.
