data_PCOD9105990
_publ_section_title
;
Structure prediction by ZEFSAII (Michael W. Deem and Ramdas Pophale) SiO2 
 PCOD9105990
Probable space group: P -1
;
_chemical_formula_sum "Si O2"
_cell_formula_units_Z 13
_cell_length_a 8.899356
_cell_length_b 8.378747
_cell_length_c 12.189712
_cell_angle_alpha 84.837518
_cell_angle_beta 40.491436
_cell_angle_gamma 107.307719
_cell_volume 484.652038
_symmetry_space_group_name_H-M "P -1"
_symmetry_group_IT_number 2
_symmetry_cell_setting 'triclinic'
loop_
_space_group_symop_operation_xyz
x,y,z
-x,-y,-z
loop_
_atom_site_type_symbol
_atom_site_label
_atom_site_fract_x
_atom_site_fract_y
_atom_site_fract_z
Si Si1 0.000000 0.000000 0.000000
Si Si2 0.584873 0.674196 0.858692
Si Si3 0.979145 0.676220 0.461207
Si Si4 0.969410 0.321901 0.827224
Si Si5 0.612520 0.259146 0.369235
Si Si6 0.054731 0.909751 0.746136
Si Si7 0.436270 0.993727 0.787975
O O1 0.062970 0.147792 0.063481
O O2 0.650655 0.876155 0.228425
O O3 0.726805 0.662310 0.669698
O O4 0.829756 0.854590 0.781259
O O5 0.500000 0.500000 0.000000
O O6 0.315264 0.682808 0.000513
O O7 0.973358 0.672417 0.333066
O O8 0.000000 0.500000 0.500000
O O9 0.272772 0.877086 0.321133
O O10 0.222339 0.511970 0.732867
O O11 0.864493 0.125468 0.967432
O O12 0.788273 0.200588 0.350613
O O13 0.587613 0.161425 0.271970
O O14 0.291525 0.136315 0.587996
#
# Coordination Sequence:
#
# PCOD9105990 Si02
#       7
#     1   2   2   2   2   2   2
#     4  10  24  38  74  90 130 178 232 272 352 406
#     4  12  23  42  71 103 135 186 231 273 344 412
#     4  12  25  43  72 102 141 184 230 278 340 412
#     4  12  26  44  72 103 142 175 235 288 335 406
#     4  10  21  42  68  93 138 177 221 282 344 394
#     4  10  20  39  66  98 129 180 229 274 333 414
#     4  11  25  47  67 101 138 181 224 292 348 401
#
# _framework density 26.823367000000001
#
# number of rings (size 3 to 8) (size 9 to 14) (size 15 to 20)
#    0.000    0.923    4.615    1.846    4.308    0.615 
#    2.769    0.769    0.000    0.000    0.000    0.000 
#    0.000    0.000    0.000    0.000    0.000    0.000 
#
# Total GULP energy -72624.754469 kJ/mol
# GULP energy per Si atom -5586.519575 kJ/mol
# Density = 2.676232 g / cm^3
# Si number density = 26.823367 Si / 1000 Ang^3
#
#
#
# Elastic Constant Matrix: (Units=GPa)
#
#
# Indices 1 2 3 4 5 6 
#
# 1 95.3909 49.4367 57.4467 14.0069 1.2884 -7.3303
# 2 49.4367 130.8670 75.8695 -13.6169 4.2790 27.4652
# 3 57.4467 75.8695 193.5411 25.2917 22.1269 23.3456
# 4 14.0069 -13.6169 25.2917 69.5225 9.7375 2.5550
# 5 1.2884 4.2790 22.1269 9.7375 45.6258 6.3248
# 6 -7.3303 27.4652 23.3456 2.5550 6.3248 45.7110
#
#
#
# Elastic Compliance Matrix: (Units=1/GPa)
#
#
# Indices 1 2 3 4 5 6 
#
# 1 0.017197 -0.007066 -0.002963 -0.004273 0.001338 0.008570
# 2 -0.007066 0.014696 -0.003436 0.005806 0.000440 -0.008594
# 3 -0.002963 -0.003436 0.008310 -0.002633 -0.002768 -0.002125
# 4 -0.004273 0.005806 -0.002633 0.017813 -0.002466 -0.003483
# 5 0.001338 0.000440 -0.002768 -0.002466 0.023958 -0.001813
# 6 0.008570 -0.008594 -0.002125 -0.003483 -0.001813 0.029945
#
#
# Mechanical properties :
#
#
# Convention : Reuss Voigt Hill
#
# Bulk Modulus (GPa) = 75.33685 87.25607 81.29646
# Shear Modulus (GPa) = 34.89811 47.97494 41.43652
#
# Velocity S-wave (km/s) = 3.61090 4.23371 3.93465
# Velocity P-wave (km/s) = 6.74774 7.51662 7.14254
#
# Compressibility (1/GPa) = 0.01327372
#
# Stress axis : x y z
#
# Youngs Moduli (GPa) = 58.14829 68.04633 120.33490
#
# Poissons Ratio (x) = 0.48080 0.35655
# Poissons Ratio (y) = 0.41086 0.41348
# Poissons Ratio (z) = 0.17229 0.23381
#
# Static dielectric constant tensor:
#      x y z
#    x 0.893880 0.353200 -0.326550 
#    y 0.353200 2.043300 0.114570 
#    z -0.326550 0.114570 2.055590 
# 
# From -- ./inp_files/188356.got.cif
#   From: 2010.05.17/outbox.cif.g08.bks.cpg/sg2_95_cif.got.tgz:188356.got - 2010.06.03 11:33:40.
