data_PCOD9105438
_publ_section_title
;
Structure prediction by ZEFSAII (Michael W. Deem and Ramdas Pophale) SiO2 
 PCOD9105438
Probable space group: P -1
;
_chemical_formula_sum "Si O2"
_cell_formula_units_Z 16
_cell_length_a 5.786663
_cell_length_b 11.642795
_cell_length_c 19.630390
_cell_angle_alpha 142.149704
_cell_angle_beta 122.629921
_cell_angle_gamma 57.044269
_cell_volume 665.314470
_symmetry_space_group_name_H-M "P -1"
_symmetry_group_IT_number 2
_symmetry_cell_setting 'triclinic'
loop_
_space_group_symop_operation_xyz
x,y,z
-x,-y,-z
loop_
_atom_site_type_symbol
_atom_site_label
_atom_site_fract_x
_atom_site_fract_y
_atom_site_fract_z
Si Si1 0.712491 0.698968 0.687682
Si Si2 0.083082 0.566696 0.803023
Si Si3 0.388256 0.737926 0.281338
Si Si4 0.792032 0.205030 0.575210
Si Si5 0.908161 0.727417 0.105789
Si Si6 0.375853 0.088477 0.365284
Si Si7 0.689899 0.294835 0.961489
Si Si8 0.876305 0.352317 0.455801
O O1 0.709367 0.847309 0.694675
O O2 0.821274 0.481501 0.574448
O O3 0.386407 0.702024 0.648714
O O4 0.905083 0.714972 0.789887
O O5 0.403816 0.471028 0.786713
O O6 0.120373 0.659824 0.924924
O O7 0.926986 0.388207 0.694204
O O8 0.384616 0.806706 0.389871
O O9 0.070584 0.747852 0.211090
O O10 0.497461 0.869861 0.303937
O O11 0.586950 0.216749 0.483535
O O12 0.000000 0.000000 0.500000
O O13 0.569809 0.796060 0.094097
O O14 0.000000 0.500000 0.000000
O O15 0.085461 0.799657 0.106258
O O16 0.108120 0.156464 0.404083
O O17 0.500000 0.500000 0.000000
O O18 0.000000 0.500000 0.500000
#
# Coordination Sequence:
#
# PCOD9105438 Si02
#       8
#     2   2   2   2   2   2   2   2
#     4  10  22  38  61  83 122 172 214 250 307 385
#     4  12  23  38  65  96 121 166 217 264 325 389
#     4  12  25  38  65  94 126 167 213 269 329 385
#     4  12  25  36  58  94 133 165 209 261 316 382
#     4  10  20  40  64  94 126 163 213 276 340 388
#     4  11  24  40  57  88 132 171 204 257 316 381
#     4  10  20  39  64  95 126 159 213 283 333 380
#     4   9  18  37  57  79 117 171 212 246 294 366
#
# _framework density 24.048780000000001
#
# number of rings (size 3 to 8) (size 9 to 14) (size 15 to 20)
#    0.000    1.250    3.750    4.875    3.500    1.000 
#    0.000    0.000    0.000    1.500    0.000    0.000 
#    0.000    0.000    0.000    0.000    0.000    0.000 
#
# Total GULP energy -89298.819394 kJ/mol
# GULP energy per Si atom -5581.176212 kJ/mol
# Density = 2.399404 g / cm^3
# Si number density = 24.048780 Si / 1000 Ang^3
#
#
#
# Elastic Constant Matrix: (Units=GPa)
#
#
# Indices 1 2 3 4 5 6 
#
# 1 109.3058 18.8186 21.0672 -5.8095 3.6656 1.2525
# 2 18.8186 74.2197 32.5337 -28.0951 0.3752 11.4183
# 3 21.0672 32.5337 89.8102 -36.2851 13.9932 7.0004
# 4 -5.8095 -28.0951 -36.2851 45.8521 -1.4741 1.6031
# 5 3.6656 0.3752 13.9932 -1.4741 43.6381 0.2280
# 6 1.2525 11.4183 7.0004 1.6031 0.2280 38.7902
#
#
#
# Elastic Compliance Matrix: (Units=1/GPa)
#
#
# Indices 1 2 3 4 5 6 
#
# 1 0.009901 -0.002423 -0.002355 -0.002130 -0.000132 0.000908
# 2 -0.002423 0.019853 -0.002138 0.010404 0.001100 -0.005816
# 3 -0.002355 -0.002138 0.018931 0.013313 -0.005388 -0.003230
# 4 -0.002130 0.010404 0.013313 0.038602 -0.002839 -0.006975
# 5 -0.000132 0.001100 -0.005388 -0.002839 0.024546 0.000626
# 6 0.000908 -0.005816 -0.003230 -0.006975 0.000626 0.028330
#
#
# Mechanical properties :
#
#
# Convention : Reuss Voigt Hill
#
# Bulk Modulus (GPa) = 28.69275 46.46387 37.57831
# Shear Modulus (GPa) = 30.19092 39.05050 34.62071
#
# Velocity S-wave (km/s) = 3.54701 4.03402 3.79833
# Velocity P-wave (km/s) = 5.36023 6.40783 5.90730
#
# Compressibility (1/GPa) = 0.03485201
#
# Stress axis : x y z
#
# Youngs Moduli (GPa) = 101.00370 50.37105 52.82236
#
# Poissons Ratio (x) = 0.12206 0.12442
# Poissons Ratio (y) = 0.24475 0.11292
# Poissons Ratio (z) = 0.23791 0.10768
#
# Static dielectric constant tensor:
#      x y z
#    x 2.062370 0.008640 0.006390 
#    y 0.008640 1.933700 0.002020 
#    z 0.006390 0.002020 1.979250 
# 
# From -- ./inp_files/549262.got.cif
#   From: 2010.05.17/outbox.cif.g08.bks.cpg/sg2_275_cif.got.tgz:549262.got - 2010.06.03 11:33:40.
