data_PCOD9105484
_publ_section_title
;
Structure prediction by ZEFSAII (Michael W. Deem and Ramdas Pophale) SiO2 
 PCOD9105484
Probable space group: P -1
;
_chemical_formula_sum "Si O2"
_cell_formula_units_Z 13
_cell_length_a 17.369350
_cell_length_b 8.487592
_cell_length_c 6.669988
_cell_angle_alpha 57.633043
_cell_angle_beta 51.464196
_cell_angle_gamma 45.360557
_cell_volume 538.817397
_symmetry_space_group_name_H-M "P -1"
_symmetry_group_IT_number 2
_symmetry_cell_setting 'triclinic'
loop_
_space_group_symop_operation_xyz
x,y,z
-x,-y,-z
loop_
_atom_site_type_symbol
_atom_site_label
_atom_site_fract_x
_atom_site_fract_y
_atom_site_fract_z
Si Si1 0.889135 0.882526 0.430935
Si Si2 0.301405 0.294775 0.724049
Si Si3 0.435698 0.382844 0.760490
Si Si4 0.351038 0.871538 0.141485
Si Si5 0.268978 0.600612 0.231301
Si Si6 0.044379 0.536563 0.111126
Si Si7 0.000000 0.000000 0.500000
O O1 0.937623 0.661503 0.642198
O O2 0.946626 0.777887 0.196069
O O3 0.748310 0.021425 0.594480
O O4 0.936086 0.012070 0.381788
O O5 0.403187 0.288569 0.690423
O O6 0.293695 0.378045 0.454634
O O7 0.174103 0.481675 0.901017
O O8 0.316638 0.059617 0.900642
O O9 0.500000 0.500000 0.500000
O O10 0.525864 0.208752 0.899712
O O11 0.316221 0.549575 0.964453
O O12 0.342417 0.679392 0.182595
O O13 0.130984 0.795778 0.338187
O O14 0.000000 0.500000 0.000000
#
# Coordination Sequence:
#
# PCOD9105484 Si02
#       7
#     2   2   2   2   2   2   1
#     4   9  20  39  62  94 142 168 223 284 332 413
#     4  11  24  43  70 100 131 182 229 281 348 402
#     4  12  25  47  69  96 141 184 227 286 340 408
#     4  10  23  45  66 100 136 180 229 279 347 408
#     4  11  24  46  68  99 142 172 230 288 339 415
#     4  10  20  39  64  97 134 178 223 278 343 403
#     4  10  20  42  70 102 134 182 220 288 356 400
#
# _framework density 24.126909000000001
#
# number of rings (size 3 to 8) (size 9 to 14) (size 15 to 20)
#    0.000    1.538    1.538    2.769    0.000    3.077 
#   13.846    4.615    0.000    0.000    0.000    0.000 
#    0.000    0.000    0.000    0.000    0.000    0.000 
#
# Total GULP energy -72505.538615 kJ/mol
# GULP energy per Si atom -5577.349124 kJ/mol
# Density = 2.407200 g / cm^3
# Si number density = 24.126909 Si / 1000 Ang^3
#
#
#
# Elastic Constant Matrix: (Units=GPa)
#
#
# Indices 1 2 3 4 5 6 
#
# 1 84.9432 6.3936 -2.3616 12.7221 -15.1193 -16.2925
# 2 6.3936 55.0137 31.1282 3.5494 3.9987 -10.1697
# 3 -2.3616 31.1282 110.1644 -4.5172 -5.7731 -0.3829
# 4 12.7221 3.5494 -4.5172 41.4695 7.8192 -1.1270
# 5 -15.1193 3.9987 -5.7731 7.8192 16.3305 5.4484
# 6 -16.2925 -10.1697 -0.3829 -1.1270 5.4484 29.2975
#
#
#
# Elastic Compliance Matrix: (Units=1/GPa)
#
#
# Indices 1 2 3 4 5 6 
#
# 1 0.018024 -0.003369 0.002089 -0.008834 0.020929 0.004649
# 2 -0.003369 0.026260 -0.008269 0.001275 -0.016503 0.010252
# 3 0.002089 -0.008269 0.011926 -0.000524 0.009543 -0.003348
# 4 -0.008834 0.001275 -0.000524 0.031220 -0.024022 0.001192
# 5 0.020929 -0.016503 0.009543 -0.024022 0.104294 -0.014284
# 6 0.004649 0.010252 -0.003348 0.001192 -0.014284 0.042935
#
#
# Mechanical properties :
#
#
# Convention : Reuss Voigt Hill
#
# Bulk Modulus (GPa) = 26.94525 35.60464 31.27495
# Shear Modulus (GPa) = 18.78799 31.75024 25.26912
#
# Velocity S-wave (km/s) = 2.79357 3.63156 3.23978
# Velocity P-wave (km/s) = 4.64734 5.68978 5.19478
#
# Compressibility (1/GPa) = 0.03711230
#
# Stress axis : x y z
#
# Youngs Moduli (GPa) = 55.48092 38.08052 83.85307
#
# Poissons Ratio (x) = 0.12828 -0.17516
# Poissons Ratio (y) = 0.18689 0.69340
# Poissons Ratio (z) = -0.11590 0.31490
#
# Static dielectric constant tensor:
#      x y z
#    x 1.926900 0.092740 0.026910 
#    y 0.092740 2.187990 0.044200 
#    z 0.026910 0.044200 1.982870 
# 
# From -- ./inp_files/89485.got.cif
#   From: 2010.05.17/outbox.cif.g08.bks.cpg/sg2_45_cif.got.tgz:89485.got - 2010.06.03 11:33:40.
