data_PCOD9105794
_publ_section_title
;
Structure prediction by ZEFSAII (Michael W. Deem and Ramdas Pophale) SiO2 
 PCOD9105794
Probable space group: P -1
;
_chemical_formula_sum "Si O2"
_cell_formula_units_Z 16
_cell_length_a 6.774823
_cell_length_b 23.496846
_cell_length_c 14.340607
_cell_angle_alpha 160.743499
_cell_angle_beta 94.226828
_cell_angle_gamma 88.921752
_cell_volume 741.830095
_symmetry_space_group_name_H-M "P -1"
_symmetry_group_IT_number 2
_symmetry_cell_setting 'triclinic'
loop_
_space_group_symop_operation_xyz
x,y,z
-x,-y,-z
loop_
_atom_site_type_symbol
_atom_site_label
_atom_site_fract_x
_atom_site_fract_y
_atom_site_fract_z
Si Si1 0.053541 0.652374 0.512993
Si Si2 0.423140 0.679094 0.291289
Si Si3 0.920698 0.332741 0.877375
Si Si4 0.880589 0.589289 0.712686
Si Si5 0.161605 0.878884 0.287371
Si Si6 0.231895 0.089194 0.447574
Si Si7 0.325044 0.896150 0.774600
Si Si8 0.855943 0.843199 0.957856
O O1 0.199563 0.559936 0.444972
O O2 0.149768 0.824386 0.728091
O O3 0.895975 0.715594 0.677054
O O4 0.973709 0.512097 0.213615
O O5 0.205223 0.656242 0.202111
O O6 0.584303 0.829235 0.482862
O O7 0.399707 0.727764 0.472302
O O8 0.500000 0.500000 0.000000
O O9 0.777033 0.202444 0.740575
O O10 0.113377 0.242641 0.718873
O O11 0.764010 0.720088 0.850981
O O12 0.000000 0.500000 0.500000
O O13 0.039749 0.716372 0.976193
O O14 0.298530 0.988723 0.385546
O O15 0.000000 0.000000 0.500000
O O16 0.065116 0.953080 0.175015
O O17 0.500000 0.000000 0.000000
O O18 0.263365 0.014181 0.870549
#
# Coordination Sequence:
#
# PCOD9105794 Si02
#       8
#     2   2   2   2   2   2   2   2
#     4  10  21  38  65  87 120 160 196 248 307 355
#     4  12  27  39  59  88 125 159 206 247 288 369
#     4  10  21  40  62  91 120 157 198 244 307 355
#     4   8  16  33  59  90 111 149 201 238 297 363
#     4   8  16  32  61  88 114 148 196 243 291 361
#     4  10  20  40  63  88 119 159 197 247 306 347
#     4  12  26  41  58  89 123 158 210 249 292 361
#     4  10  20  39  66  87 118 159 201 248 303 357
#
# _framework density 21.568279
#
# number of rings (size 3 to 8) (size 9 to 14) (size 15 to 20)
#    0.000    2.000    1.250    1.875    3.500    1.500 
#    0.000    0.625    2.750    0.000    0.000    0.000 
#    0.000    0.000    0.000    0.000    0.000    0.000 
#
# Total GULP energy -89188.388125 kJ/mol
# GULP energy per Si atom -5574.274258 kJ/mol
# Density = 2.151919 g / cm^3
# Si number density = 21.568279 Si / 1000 Ang^3
#
#
#
# Elastic Constant Matrix: (Units=GPa)
#
#
# Indices 1 2 3 4 5 6 
#
# 1 22.6970 9.4755 2.5362 0.8453 4.6208 -0.2985
# 2 9.4755 71.0700 8.3857 4.9364 3.6207 -4.2519
# 3 2.5362 8.3857 100.4298 -24.4294 -6.0074 -11.3992
# 4 0.8453 4.9364 -24.4294 52.0412 0.1921 -2.1581
# 5 4.6208 3.6207 -6.0074 0.1921 19.0463 -4.0625
# 6 -0.2985 -4.2519 -11.3992 -2.1581 -4.0625 21.3416
#
#
#
# Elastic Compliance Matrix: (Units=1/GPa)
#
#
# Indices 1 2 3 4 5 6 
#
# 1 0.049288 -0.005809 -0.002349 -0.001482 -0.012486 -0.004250
# 2 -0.005809 0.015346 -0.001533 -0.002007 -0.001620 0.001646
# 3 -0.002349 -0.001533 0.013163 0.006697 0.006793 0.008663
# 4 -0.001482 -0.002007 0.006697 0.022817 0.003949 0.006215
# 5 -0.012486 -0.001620 0.006793 0.003949 0.061181 0.015177
# 6 -0.004250 0.001646 0.008663 0.006215 0.015177 0.055270
#
#
# Mechanical properties :
#
#
# Convention : Reuss Voigt Hill
#
# Bulk Modulus (GPa) = 17.11915 26.11016 21.61465
# Shear Modulus (GPa) = 19.53738 30.07244 24.80491
#
# Velocity S-wave (km/s) = 3.01298 3.73807 3.39494
# Velocity P-wave (km/s) = 4.47867 5.54644 5.04091
#
# Compressibility (1/GPa) = 0.05841413
#
# Stress axis : x y z
#
# Youngs Moduli (GPa) = 20.28900 65.16170 75.96971
#
# Poissons Ratio (x) = 0.37854 0.17849
# Poissons Ratio (y) = 0.11787 0.11645
# Poissons Ratio (z) = 0.04767 0.09988
#
# Static dielectric constant tensor:
#      x y z
#    x 1.751020 -0.005890 0.018240 
#    y -0.005890 1.865140 0.014940 
#    z 0.018240 0.014940 1.976010 
# 
# From -- ./inp_files/434223.got.cif
#   From: 2010.05.17/outbox.cif.g08.bks.cpg/sg2_218_cif.got.tgz:434223.got - 2010.06.03 11:33:40.
