data_PCOD9105459
_publ_section_title
;
Structure prediction by ZEFSAII (Michael W. Deem and Ramdas Pophale) SiO2 
 PCOD9105459
Probable space group: P -1
;
_chemical_formula_sum "Si O2"
_cell_formula_units_Z 14
_cell_length_a 5.035370
_cell_length_b 5.409938
_cell_length_c 24.563934
_cell_angle_alpha 112.588388
_cell_angle_beta 121.107966
_cell_angle_gamma 91.743813
_cell_volume 506.313707
_symmetry_space_group_name_H-M "P -1"
_symmetry_group_IT_number 2
_symmetry_cell_setting 'triclinic'
loop_
_space_group_symop_operation_xyz
x,y,z
-x,-y,-z
loop_
_atom_site_type_symbol
_atom_site_label
_atom_site_fract_x
_atom_site_fract_y
_atom_site_fract_z
Si Si1 0.252865 0.831730 0.668084
Si Si2 0.323867 0.884446 0.114193
Si Si3 0.784614 0.353918 0.032225
Si Si4 0.267347 0.658783 0.385663
Si Si5 0.084628 0.781030 0.850408
Si Si6 0.113482 0.808708 0.274518
Si Si7 0.154465 0.173298 0.477246
O O1 0.080641 0.559552 0.661583
O O2 0.091293 0.752249 0.584268
O O3 0.635917 0.941957 0.710223
O O4 0.137315 0.073686 0.707724
O O5 0.132260 0.592864 0.096935
O O6 0.704403 0.997345 0.152057
O O7 0.181478 0.820439 0.032383
O O8 0.223989 0.124295 0.156223
O O9 0.725839 0.201728 0.070794
O O10 0.500000 0.500000 0.000000
O O11 0.337564 0.706383 0.333896
O O12 0.536306 0.589543 0.446624
O O13 0.268922 0.958215 0.433585
O O14 0.037403 0.470211 0.798419
O O15 0.000000 0.000000 0.500000
#
# Coordination Sequence:
#
# PCOD9105459 Si02
#       7
#     2   2   2   2   2   2   2
#     4  11  24  42  66  91 130 171 213 266 320 370
#     4  11  25  43  69 100 129 170 214 271 328 381
#     4  11  25  43  70 103 131 163 224 270 322 396
#     4  10  23  40  64  92 130 165 213 268 323 375
#     4  12  26  43  69  93 137 175 213 269 329 379
#     4  11  26  44  61  95 128 172 220 256 310 398
#     4  10  20  39  64  96 125 161 218 268 316 384
#
# _framework density 27.650843999999999
#
# number of rings (size 3 to 8) (size 9 to 14) (size 15 to 20)
#    0.000    1.143    2.857    2.143    6.000    2.857 
#    0.000    0.000    0.000    0.000    0.000    0.000 
#    0.000    0.000    0.000    0.000    0.000    0.000 
#
# Total GULP energy -78428.459736 kJ/mol
# GULP energy per Si atom -5602.032838 kJ/mol
# Density = 2.758791 g / cm^3
# Si number density = 27.650844 Si / 1000 Ang^3
#
#
#
# Elastic Constant Matrix: (Units=GPa)
#
#
# Indices 1 2 3 4 5 6 
#
# 1 151.2920 24.5777 28.0244 10.3788 -13.2040 9.7535
# 2 24.5777 66.9278 13.3204 6.1765 -7.5956 21.3952
# 3 28.0244 13.3204 114.0467 -11.9848 -9.1162 -2.0987
# 4 10.3788 6.1765 -11.9848 31.1047 11.2167 -0.6337
# 5 -13.2040 -7.5956 -9.1162 11.2167 39.2216 15.9792
# 6 9.7535 21.3952 -2.0987 -0.6337 15.9792 52.2755
#
#
#
# Elastic Compliance Matrix: (Units=1/GPa)
#
#
# Indices 1 2 3 4 5 6 
#
# 1 0.008052 -0.000614 -0.002122 -0.005145 0.004729 -0.002844
# 2 -0.000614 0.021835 -0.002731 -0.009465 0.011171 -0.012461
# 3 -0.002122 -0.002731 0.010136 0.005760 -0.001537 0.002460
# 4 -0.005145 -0.009465 0.005760 0.045413 -0.019991 0.011727
# 5 0.004729 0.011171 -0.001537 -0.019991 0.042215 -0.018662
# 6 -0.002844 -0.012461 0.002460 0.011727 -0.018662 0.030706
#
#
# Mechanical properties :
#
#
# Convention : Reuss Voigt Hill
#
# Bulk Modulus (GPa) = 34.37513 51.56795 42.97154
# Shear Modulus (GPa) = 27.93514 42.27661 35.10588
#
# Velocity S-wave (km/s) = 3.18194 3.91441 3.56703
# Velocity P-wave (km/s) = 5.09495 6.25463 5.70433
#
# Compressibility (1/GPa) = 0.02909080
#
# Stress axis : x y z
#
# Youngs Moduli (GPa) = 124.20032 45.79765 98.65434
#
# Poissons Ratio (x) = 0.02811 0.20933
# Poissons Ratio (y) = 0.07623 0.26938
# Poissons Ratio (z) = 0.26354 0.12505
#
# Static dielectric constant tensor:
#      x y z
#    x 2.205740 -0.059030 0.149300 
#    y -0.059030 2.141030 -0.039680 
#    z 0.149300 -0.039680 2.198990 
# 
# From -- ./inp_files/10266.got.cif
#   From: 2010.05.17/outbox.cif.g08.bks.cpg/sg2_6_cif.got.tgz:10266.got - 2010.06.03 11:33:40.
