data_PCOD9105966
_publ_section_title
;
Structure prediction by ZEFSAII (Michael W. Deem and Ramdas Pophale) SiO2 
 PCOD9105966
Probable space group: P -1
;
_chemical_formula_sum "Si O2"
_cell_formula_units_Z 14
_cell_length_a 20.459768
_cell_length_b 5.643322
_cell_length_c 6.950008
_cell_angle_alpha 100.227358
_cell_angle_beta 121.142939
_cell_angle_gamma 113.686470
_cell_volume 547.693684
_symmetry_space_group_name_H-M "P -1"
_symmetry_group_IT_number 2
_symmetry_cell_setting 'triclinic'
loop_
_space_group_symop_operation_xyz
x,y,z
-x,-y,-z
loop_
_atom_site_type_symbol
_atom_site_label
_atom_site_fract_x
_atom_site_fract_y
_atom_site_fract_z
Si Si1 0.637594 0.286256 0.404343
Si Si2 0.108127 0.744936 0.254461
Si Si3 0.146470 0.326148 0.318420
Si Si4 0.807374 0.200899 0.027482
Si Si5 0.532403 0.322408 0.910547
Si Si6 0.388851 0.344833 0.286897
Si Si7 0.095712 0.123929 0.779916
O O1 0.745462 0.443863 0.547694
O O2 0.585622 0.236374 0.117247
O O3 0.635110 0.518031 0.560873
O O4 0.567018 0.970040 0.356137
O O5 0.171940 0.819044 0.171149
O O6 0.124023 0.550684 0.393749
O O7 0.000000 0.500000 0.000000
O O8 0.130024 0.060865 0.385304
O O9 0.088384 0.161818 0.007486
O O10 0.839628 0.535974 0.144145
O O11 0.861639 0.070097 0.189072
O O12 0.697614 0.996642 0.887686
O O13 0.500000 0.500000 0.000000
O O14 0.608758 0.528070 0.898259
O O15 0.500000 0.500000 0.500000
O O16 0.000000 0.000000 0.500000
#
# Coordination Sequence:
#
# PCOD9105966 Si02
#       7
#     2   2   2   2   2   2   2
#     4  11  24  47  70 102 147 195 243 312 356 452
#     4  10  20  39  66  96 132 175 242 289 359 432
#     4  10  22  39  71  93 136 186 239 293 372 428
#     4  10  23  41  66 102 136 186 246 293 364 443
#     4  11  26  43  69 107 145 184 257 299 367 435
#     4  12  24  44  79 104 147 205 243 303 378 443
#     4  10  20  39  67  93 137 177 239 303 357 425
#
# _framework density 25.561734999999999
#
# number of rings (size 3 to 8) (size 9 to 14) (size 15 to 20)
#    0.000    1.429    4.286    1.286    6.000    1.143 
#    0.000    8.571    0.000    0.000    0.000    0.000 
#    0.000    0.000    0.000    0.000    0.000    0.000 
#
# Total GULP energy -78256.188545 kJ/mol
# GULP energy per Si atom -5589.727753 kJ/mol
# Density = 2.550356 g / cm^3
# Si number density = 25.561735 Si / 1000 Ang^3
#
#
#
# Elastic Constant Matrix: (Units=GPa)
#
#
# Indices 1 2 3 4 5 6 
#
# 1 71.6626 38.9204 19.3471 3.5788 24.0989 -9.3794
# 2 38.9204 204.9458 44.2345 23.8273 11.3693 -15.6558
# 3 19.3471 44.2345 79.4802 6.6171 14.4343 -0.1736
# 4 3.5788 23.8273 6.6171 58.5329 1.4217 3.9808
# 5 24.0989 11.3693 14.4343 1.4217 31.3693 -1.5656
# 6 -9.3794 -15.6558 -0.1736 3.9808 -1.5656 62.5188
#
#
#
# Elastic Compliance Matrix: (Units=1/GPa)
#
#
# Indices 1 2 3 4 5 6 
#
# 1 0.020867 -0.002834 -0.000879 0.000191 -0.014505 0.002043
# 2 -0.002834 0.006322 -0.002894 -0.002197 0.001384 0.001324
# 3 -0.000879 -0.002894 0.015411 -0.000316 -0.005399 -0.000929
# 4 0.000191 -0.002197 -0.000316 0.018120 -0.000110 -0.001679
# 5 -0.014505 0.001384 -0.005399 -0.000110 0.044974 -0.000711
# 6 0.002043 0.001324 -0.000929 -0.001679 -0.000711 0.016720
#
#
# Mechanical properties :
#
#
# Convention : Reuss Voigt Hill
#
# Bulk Modulus (GPa) = 34.03091 62.34362 48.18726
# Shear Modulus (GPa) = 34.38231 47.38998 40.88614
#
# Velocity S-wave (km/s) = 3.67150 4.31041 4.00372
# Velocity P-wave (km/s) = 5.59601 7.01536 6.34549
#
# Compressibility (1/GPa) = 0.02938505
#
# Stress axis : x y z
#
# Youngs Moduli (GPa) = 47.92313 158.17600 64.88777
#
# Poissons Ratio (x) = 0.44834 0.05704
# Poissons Ratio (y) = 0.13584 0.18779
# Poissons Ratio (z) = 0.04213 0.45777
#
# Static dielectric constant tensor:
#      x y z
#    x 1.994210 0.004500 -0.018910 
#    y 0.004500 2.068360 -0.159170 
#    z -0.018910 -0.159170 2.003610 
# 
# From -- ./inp_files/350413.got.cif
#   From: 2010.05.17/outbox.cif.g08.bks.cpg/sg2_176_cif.got.tgz:350413.got - 2010.06.03 11:33:40.
