data_PCOD9105142
_publ_section_title
;
Structure prediction by ZEFSAII (Michael W. Deem and Ramdas Pophale) SiO2 
 PCOD9105142
Probable space group: P -1
;
_chemical_formula_sum "Si O2"
_cell_formula_units_Z 14
_cell_length_a 7.085104
_cell_length_b 13.377360
_cell_length_c 15.570396
_cell_angle_alpha 56.097736
_cell_angle_beta 82.605442
_cell_angle_gamma 42.636620
_cell_volume 718.045372
_symmetry_space_group_name_H-M "P -1"
_symmetry_group_IT_number 2
_symmetry_cell_setting 'triclinic'
loop_
_space_group_symop_operation_xyz
x,y,z
-x,-y,-z
loop_
_atom_site_type_symbol
_atom_site_label
_atom_site_fract_x
_atom_site_fract_y
_atom_site_fract_z
Si Si1 0.762147 0.945038 0.253721
Si Si2 0.431999 0.577715 0.830641
Si Si3 0.727392 0.918999 0.657939
Si Si4 0.218797 0.545226 0.302455
Si Si5 0.353046 0.378431 0.040867
Si Si6 0.754685 0.317580 0.505551
Si Si7 0.174248 0.300746 0.391207
O O1 0.982356 0.753285 0.269354
O O2 0.973882 0.878451 0.356032
O O3 0.483578 0.003126 0.283358
O O4 0.603940 0.141894 0.126217
O O5 0.655453 0.461784 0.789548
O O6 0.575364 0.595554 0.883992
O O7 0.070595 0.799334 0.717780
O O8 0.395312 0.464800 0.929295
O O9 0.789685 0.761992 0.678304
O O10 0.511564 0.104576 0.514786
O O11 0.536259 0.358386 0.431726
O O12 0.071367 0.490346 0.316998
O O13 0.000000 0.500000 0.000000
O O14 0.500000 0.500000 0.500000
O O15 0.925623 0.337661 0.433950
#
# Coordination Sequence:
#
# PCOD9105142 Si02
#       7
#     2   2   2   2   2   2   2
#     4  10  22  41  62  92 129 162 201 257 314 359
#     4  11  24  41  67  91 116 166 218 251 309 365
#     4  10  20  39  63  93 125 164 208 245 306 376
#     4  11  23  39  64  96 127 163 200 250 318 375
#     4  11  24  45  67  86 121 163 214 271 300 356
#     4   9  20  37  58  95 129 158 198 242 307 380
#     4  10  21  37  61  94 134 162 197 254 304 370
#
# _framework density 19.497375000000002
#
# number of rings (size 3 to 8) (size 9 to 14) (size 15 to 20)
#    0.000    1.714    2.857    0.857    2.000    6.286 
#    2.571    0.714    0.000    0.000    0.000    0.000 
#    0.000    0.000    0.000    0.000    0.000    0.000 
#
# Total GULP energy -78155.839225 kJ/mol
# GULP energy per Si atom -5582.559945 kJ/mol
# Density = 1.945300 g / cm^3
# Si number density = 19.497375 Si / 1000 Ang^3
#
#
#
# Elastic Constant Matrix: (Units=GPa)
#
#
# Indices 1 2 3 4 5 6 
#
# 1 92.9483 55.1838 21.9529 -6.7929 15.7765 9.8006
# 2 55.1838 128.7218 36.1817 8.3128 0.9453 -3.1436
# 3 21.9529 36.1817 36.3223 -4.1030 13.1957 3.6596
# 4 -6.7929 8.3128 -4.1030 31.6732 1.8108 -2.1428
# 5 15.7765 0.9453 13.1957 1.8108 18.9385 -3.9340
# 6 9.8006 -3.1436 3.6596 -2.1428 -3.9340 31.5061
#
#
#
# Elastic Compliance Matrix: (Units=1/GPa)
#
#
# Indices 1 2 3 4 5 6 
#
# 1 0.025681 -0.017189 0.018506 0.013527 -0.037979 -0.015675
# 2 -0.017189 0.025727 -0.033675 -0.016089 0.041338 0.015893
# 3 0.018506 -0.033675 0.085205 0.026644 -0.081333 -0.027357
# 4 0.013527 -0.016089 0.026644 0.043467 -0.035339 -0.010364
# 5 -0.037979 0.041338 -0.081333 -0.035339 0.151119 0.041852
# 6 -0.015675 0.015893 -0.027357 -0.010364 0.041852 0.045900
#
#
# Mechanical properties :
#
#
# Convention : Reuss Voigt Hill
#
# Bulk Modulus (GPa) = 13.90885 53.84767 33.87826
# Shear Modulus (GPa) = 10.73470 26.06849 18.40160
#
# Velocity S-wave (km/s) = 2.34897 3.66050 3.07546
# Velocity P-wave (km/s) = 3.80868 6.74860 5.47949
#
# Compressibility (1/GPa) = 0.07189669
#
# Stress axis : x y z
#
# Youngs Moduli (GPa) = 38.94002 38.87043 11.73643
#
# Poissons Ratio (x) = 0.66812 -0.21719
# Poissons Ratio (y) = 0.66932 0.39522
# Poissons Ratio (z) = -0.72061 1.30895
#
# Static dielectric constant tensor:
#      x y z
#    x 1.686260 0.023610 0.033530 
#    y 0.023610 1.861950 0.096450 
#    z 0.033530 0.096450 1.749120 
# 
# From -- ./inp_files/61090.got.cif
#   From: 2010.05.17/outbox.cif.g08.bks.cpg/sg2_31_cif.got.tgz:61090.got - 2010.06.03 11:33:40.
