data_PCOD9105371
_publ_section_title
;
Structure prediction by ZEFSAII (Michael W. Deem and Ramdas Pophale) SiO2 
 PCOD9105371
Probable space group: P -1
;
_chemical_formula_sum "Si O2"
_cell_formula_units_Z 16
_cell_length_a 16.359517
_cell_length_b 15.282016
_cell_length_c 8.990363
_cell_angle_alpha 139.859701
_cell_angle_beta 135.304662
_cell_angle_gamma 29.620461
_cell_volume 708.559756
_symmetry_space_group_name_H-M "P -1"
_symmetry_group_IT_number 2
_symmetry_cell_setting 'triclinic'
loop_
_space_group_symop_operation_xyz
x,y,z
-x,-y,-z
loop_
_atom_site_type_symbol
_atom_site_label
_atom_site_fract_x
_atom_site_fract_y
_atom_site_fract_z
Si Si1 0.225816 0.207453 0.823943
Si Si2 0.342884 0.486101 0.432437
Si Si3 0.940088 0.193616 0.993085
Si Si4 0.596576 0.777936 0.347187
Si Si5 0.153239 0.521107 0.966765
Si Si6 0.462041 0.467673 0.071291
Si Si7 0.412425 0.166025 0.264694
Si Si8 0.011944 0.821362 0.619314
O O1 0.117226 0.425270 0.905058
O O2 0.136635 0.141937 0.592644
O O3 0.407334 0.056495 0.780716
O O4 0.277948 0.187256 0.034904
O O5 0.449210 0.526086 0.672662
O O6 0.442769 0.269008 0.330243
O O7 0.180593 0.626037 0.510160
O O8 0.273848 0.516865 0.217916
O O9 0.737913 0.356927 0.945026
O O10 0.980285 0.269100 0.014203
O O11 0.992941 0.190401 0.223859
O O12 0.002952 0.988161 0.784931
O O13 0.748433 0.632216 0.241361
O O14 0.652717 0.727442 0.524805
O O15 0.500000 0.000000 0.500000
O O16 0.487040 0.733563 0.124350
O O17 0.500000 0.500000 0.000000
#
# Coordination Sequence:
#
# PCOD9105371 Si02
#       8
#     2   2   2   2   2   2   2   2
#     4  10  22  39  66  90 123 166 205 253 313 363
#     4  11  22  40  67  91 126 164 212 251 311 365
#     4  10  23  40  62  92 126 157 213 258 306 367
#     4  11  21  36  61  95 126 150 203 258 310 359
#     4  10  23  41  60  93 129 159 204 265 306 367
#     4  11  20  39  68  90 118 166 203 257 304 369
#     4  10  20  39  64  92 124 157 209 254 304 376
#     4  11  23  41  64  89 125 171 210 249 303 383
#
# _framework density 22.581018
#
# number of rings (size 3 to 8) (size 9 to 14) (size 15 to 20)
#    0.000    1.500    3.750    1.500    0.000    5.000 
#    2.250    1.250    0.000    0.000    0.000    0.000 
#    0.000    0.000    0.000    0.000    0.000    0.000 
#
# Total GULP energy -89373.591177 kJ/mol
# GULP energy per Si atom -5585.849449 kJ/mol
# Density = 2.252962 g / cm^3
# Si number density = 22.581018 Si / 1000 Ang^3
#
#
#
# Elastic Constant Matrix: (Units=GPa)
#
#
# Indices 1 2 3 4 5 6 
#
# 1 30.2293 9.5186 8.6132 3.6915 -2.8613 6.2077
# 2 9.5186 88.2691 23.7297 14.1875 3.8529 22.2082
# 3 8.6132 23.7297 165.6710 -3.7366 -5.6055 1.4192
# 4 3.6915 14.1875 -3.7366 29.2559 3.8530 6.9311
# 5 -2.8613 3.8529 -5.6055 3.8530 20.1844 -2.1518
# 6 6.2077 22.2082 1.4192 6.9311 -2.1518 34.5580
#
#
#
# Elastic Compliance Matrix: (Units=1/GPa)
#
#
# Indices 1 2 3 4 5 6 
#
# 1 0.035909 -0.002174 -0.001418 -0.003419 0.005340 -0.003977
# 2 -0.002174 0.015281 -0.002242 -0.004881 -0.003833 -0.008597
# 3 -0.001418 -0.002242 0.006519 0.001561 0.001871 0.001231
# 4 -0.003419 -0.004881 0.001561 0.039208 -0.007096 -0.004619
# 5 0.005340 -0.003833 0.001871 -0.007096 0.053565 0.006185
# 6 -0.003977 -0.008597 0.001231 -0.004619 0.006185 0.036437
#
#
# Mechanical properties :
#
#
# Convention : Reuss Voigt Hill
#
# Bulk Modulus (GPa) = 21.71985 40.87693 31.29839
# Shear Modulus (GPa) = 23.37180 32.95352 28.16266
#
# Velocity S-wave (km/s) = 3.22066 3.82428 3.53538
# Velocity P-wave (km/s) = 4.84456 6.13529 5.52773
#
# Compressibility (1/GPa) = 0.04604084
#
# Stress axis : x y z
#
# Youngs Moduli (GPa) = 27.84844 65.44102 153.40192
#
# Poissons Ratio (x) = 0.14228 0.21750
# Poissons Ratio (y) = 0.06055 0.34390
# Poissons Ratio (z) = 0.03948 0.14671
#
# Static dielectric constant tensor:
#      x y z
#    x 1.897670 0.052030 0.010650 
#    y 0.052030 1.852630 0.009730 
#    z 0.010650 0.009730 1.829330 
# 
# From -- ./inp_files/206890.got.cif
#   From: 2010.05.17/outbox.cif.g08.bks.cpg/sg2_104_cif.got.tgz:206890.got - 2010.06.03 11:33:40.
