data_PCOD9105451
_publ_section_title
;
Structure prediction by ZEFSAII (Michael W. Deem and Ramdas Pophale) SiO2 
 PCOD9105451
Probable space group: P -1
;
_chemical_formula_sum "Si O2"
_cell_formula_units_Z 14
_cell_length_a 20.941121
_cell_length_b 22.915714
_cell_length_c 11.775761
_cell_angle_alpha 29.594807
_cell_angle_beta 19.524816
_cell_angle_gamma 18.116144
_cell_volume 568.238276
_symmetry_space_group_name_H-M "P -1"
_symmetry_group_IT_number 2
_symmetry_cell_setting 'triclinic'
loop_
_space_group_symop_operation_xyz
x,y,z
-x,-y,-z
loop_
_atom_site_type_symbol
_atom_site_label
_atom_site_fract_x
_atom_site_fract_y
_atom_site_fract_z
Si Si1 0.051475 0.929162 0.873002
Si Si2 0.683932 0.654082 0.891811
Si Si3 0.137700 0.827921 0.637064
Si Si4 0.000799 0.319306 0.036894
Si Si5 0.748867 0.618644 0.320945
Si Si6 0.379725 0.670660 0.170874
Si Si7 0.027863 0.686688 0.360497
O O1 0.073636 0.883396 0.780202
O O2 0.399088 0.781734 0.584552
O O3 0.936426 0.866062 0.233539
O O4 0.832434 0.152105 0.861943
O O5 0.740257 0.758581 0.659585
O O6 0.511108 0.658221 0.273158
O O7 0.005921 0.428941 0.750785
O O8 0.518049 0.698637 0.980748
O O9 0.997462 0.780456 0.897529
O O10 0.000000 0.000000 0.500000
O O11 0.808418 0.329590 0.434913
O O12 0.220212 0.279018 0.828111
O O13 0.857988 0.449654 0.495659
O O14 0.000000 0.500000 0.000000
O O15 0.670115 0.464286 0.973373
#
# Coordination Sequence:
#
# PCOD9105451 Si02
#       7
#     2   2   2   2   2   2   2
#     4  12  24  42  71  99 140 177 221 281 333 399
#     4  10  20  39  64  95 133 180 218 270 330 391
#     4  11  20  41  65 101 134 166 223 274 323 391
#     4  10  21  41  69  96 131 177 226 274 326 396
#     4  11  25  47  70  96 129 182 231 274 339 403
#     4  11  22  40  65 102 135 174 222 276 344 390
#     4  11  24  43  65  96 139 177 221 278 338 402
#
# _framework density 24.637551999999999
#
# number of rings (size 3 to 8) (size 9 to 14) (size 15 to 20)
#    0.000    1.143    2.857    6.857    0.000    2.857 
#    5.143    0.000    0.000    0.000    0.000    0.000 
#    0.000    0.000    0.000    0.000    0.000    0.000 
#
# Total GULP energy -78089.916822 kJ/mol
# GULP energy per Si atom -5577.851202 kJ/mol
# Density = 2.458148 g / cm^3
# Si number density = 24.637552 Si / 1000 Ang^3
#
#
#
# Elastic Constant Matrix: (Units=GPa)
#
#
# Indices 1 2 3 4 5 6 
#
# 1 127.5702 37.4607 38.5268 2.6706 -25.9546 -12.3940
# 2 37.4607 139.3570 29.7454 -16.9366 -10.3688 -15.0006
# 3 38.5268 29.7454 120.8042 -20.6888 -25.0044 -17.8769
# 4 2.6706 -16.9366 -20.6888 16.4102 8.9262 8.8755
# 5 -25.9546 -10.3688 -25.0044 8.9262 49.2547 -1.2829
# 6 -12.3940 -15.0006 -17.8769 8.8755 -1.2829 35.1155
#
#
#
# Elastic Compliance Matrix: (Units=1/GPa)
#
#
# Indices 1 2 3 4 5 6 
#
# 1 0.012339 -0.003480 -0.003718 -0.017192 0.007143 0.005582
# 2 -0.003480 0.009303 0.000454 0.011733 -0.001773 -0.000054
# 3 -0.003718 0.000454 0.012531 0.015068 0.001807 0.001519
# 4 -0.017192 0.011733 0.015068 0.119589 -0.021248 -0.024387
# 5 0.007143 -0.001773 0.001807 -0.021248 0.028698 0.009102
# 6 0.005582 -0.000054 0.001519 -0.024387 0.009102 0.037694
#
#
# Mechanical properties :
#
#
# Convention : Reuss Voigt Hill
#
# Bulk Modulus (GPa) = 48.34700 66.57749 57.46224
# Shear Modulus (GPa) = 20.78676 38.95598 29.87137
#
# Velocity S-wave (km/s) = 2.90781 3.98070 3.48578
# Velocity P-wave (km/s) = 5.56234 6.94330 6.29083
#
# Compressibility (1/GPa) = 0.02068381
#
# Stress axis : x y z
#
# Youngs Moduli (GPa) = 81.04305 107.49471 79.80209
#
# Poissons Ratio (x) = 0.37412 0.29670
# Poissons Ratio (y) = 0.28206 -0.03622
# Poissons Ratio (z) = 0.30132 -0.04879
#
# Static dielectric constant tensor:
#      x y z
#    x 1.949640 0.071590 0.075110 
#    y 0.071590 1.932970 -0.048710 
#    z 0.075110 -0.048710 1.921330 
# 
# From -- ./inp_files/402941.got.cif
#   From: 2010.05.17/outbox.cif.g08.bks.cpg/sg2_202_cif.got.tgz:402941.got - 2010.06.03 11:33:40.
