data_PCOD9105381
_publ_section_title
;
Structure prediction by ZEFSAII (Michael W. Deem and Ramdas Pophale) SiO2 
 PCOD9105381
Probable space group: P -1
;
_chemical_formula_sum "Si O2"
_cell_formula_units_Z 16
_cell_length_a 19.330255
_cell_length_b 9.750008
_cell_length_c 13.154869
_cell_angle_alpha 145.101108
_cell_angle_beta 28.763275
_cell_angle_gamma 130.501587
_cell_volume 660.455277
_symmetry_space_group_name_H-M "P -1"
_symmetry_group_IT_number 2
_symmetry_cell_setting 'triclinic'
loop_
_space_group_symop_operation_xyz
x,y,z
-x,-y,-z
loop_
_atom_site_type_symbol
_atom_site_label
_atom_site_fract_x
_atom_site_fract_y
_atom_site_fract_z
Si Si1 0.794741 0.224959 0.563265
Si Si2 0.762563 0.230729 0.370630
Si Si3 0.017251 0.500462 0.205285
Si Si4 0.586659 0.449076 0.249703
Si Si5 0.771388 0.685953 0.006469
Si Si6 0.888651 0.746615 0.248082
Si Si7 0.221502 0.059217 0.280869
Si Si8 0.472542 0.299977 0.101513
O O1 0.802990 0.185506 0.409351
O O2 0.914344 0.011405 0.338821
O O3 0.785317 0.501214 0.781457
O O4 0.634914 0.190683 0.782196
O O5 0.888395 0.365157 0.254275
O O6 0.606116 0.428070 0.675256
O O7 0.757452 0.969847 0.171209
O O8 0.928829 0.787374 0.485540
O O9 0.077562 0.417155 0.187132
O O10 0.149836 0.374383 0.879896
O O11 0.500000 0.500000 0.500000
O O12 0.640406 0.648812 0.229863
O O13 0.492461 0.332661 0.217185
O O14 0.737825 0.234348 0.945193
O O15 0.787711 0.838024 0.530362
O O16 0.000000 0.500000 0.000000
O O17 0.365789 0.134271 0.099281
#
# Coordination Sequence:
#
# PCOD9105381 Si02
#       8
#     2   2   2   2   2   2   2   2
#     4  11  23  41  65  98 126 178 218 265 334 379
#     4  11  24  45  65  93 130 180 223 265 325 381
#     4  10  23  42  65  95 127 174 221 270 325 387
#     4  11  25  40  64 102 129 169 214 271 342 387
#     4  11  24  42  67  94 135 169 217 278 314 397
#     4  10  20  39  64  92 127 170 216 264 322 386
#     4  10  21  42  65  93 130 168 221 267 331 399
#     4  10  23  42  66  93 129 172 221 269 322 395
#
# _framework density 24.225712999999999
#
# number of rings (size 3 to 8) (size 9 to 14) (size 15 to 20)
#    0.000    1.500    3.750    1.125    3.500    3.000 
#    4.500    0.000    0.000    0.000    0.000    0.000 
#    0.000    0.000    0.000    0.000    0.000    0.000 
#
# Total GULP energy -89264.034558 kJ/mol
# GULP energy per Si atom -5579.002160 kJ/mol
# Density = 2.417057 g / cm^3
# Si number density = 24.225713 Si / 1000 Ang^3
#
#
#
# Elastic Constant Matrix: (Units=GPa)
#
#
# Indices 1 2 3 4 5 6 
#
# 1 43.2284 0.5314 4.6324 2.4369 -0.7869 -6.9592
# 2 0.5314 72.9188 34.2576 25.0325 1.0766 -5.0024
# 3 4.6324 34.2576 90.8528 7.7860 -0.0161 -4.2076
# 4 2.4369 25.0325 7.7860 45.4656 -6.9762 -3.9214
# 5 -0.7869 1.0766 -0.0161 -6.9762 42.5301 9.1820
# 6 -6.9592 -5.0024 -4.2076 -3.9214 9.1820 30.9729
#
#
#
# Elastic Compliance Matrix: (Units=1/GPa)
#
#
# Indices 1 2 3 4 5 6 
#
# 1 0.024230 0.001382 -0.001368 -0.001502 -0.001043 0.005600
# 2 0.001382 0.020751 -0.006890 -0.010545 -0.002706 0.002193
# 3 -0.001368 -0.006890 0.013559 0.001639 0.000307 0.000538
# 4 -0.001502 -0.010545 0.001639 0.028370 0.004819 0.000345
# 5 -0.001043 -0.002706 0.000307 0.004819 0.026022 -0.007734
# 6 0.005600 0.002193 0.000538 0.000345 -0.007734 0.036308
#
#
# Mechanical properties :
#
#
# Convention : Reuss Voigt Hill
#
# Bulk Modulus (GPa) = 22.32836 31.76030 27.04433
# Shear Modulus (GPa) = 28.10186 34.96563 31.53375
#
# Velocity S-wave (km/s) = 3.40957 3.80324 3.61177
# Velocity P-wave (km/s) = 4.97364 5.69427 5.34611
#
# Compressibility (1/GPa) = 0.04478609
#
# Stress axis : x y z
#
# Youngs Moduli (GPa) = 41.27141 48.18933 73.75030
#
# Poissons Ratio (x) = -0.06658 0.10092
# Poissons Ratio (y) = -0.05702 0.50816
# Poissons Ratio (z) = 0.05648 0.33204
#
# Static dielectric constant tensor:
#      x y z
#    x 1.916900 -0.002200 0.005920 
#    y -0.002200 2.048310 -0.051000 
#    z 0.005920 -0.051000 1.970660 
# 
# From -- ./inp_files/541160.got.cif
#   From: 2010.05.17/outbox.cif.g08.bks.cpg/sg2_271_cif.got.tgz:541160.got - 2010.06.03 11:33:40.
