data_PCOD9105300
_publ_section_title
;
Structure prediction by ZEFSAII (Michael W. Deem and Ramdas Pophale) SiO2 
 PCOD9105300
Probable space group: P -1
;
_chemical_formula_sum "Si O2"
_cell_formula_units_Z 16
_cell_length_a 13.482170
_cell_length_b 9.522441
_cell_length_c 14.108034
_cell_angle_alpha 115.656327
_cell_angle_beta 116.402065
_cell_angle_gamma 28.132297
_cell_volume 761.351591
_symmetry_space_group_name_H-M "P -1"
_symmetry_group_IT_number 2
_symmetry_cell_setting 'triclinic'
loop_
_space_group_symop_operation_xyz
x,y,z
-x,-y,-z
loop_
_atom_site_type_symbol
_atom_site_label
_atom_site_fract_x
_atom_site_fract_y
_atom_site_fract_z
Si Si1 0.109377 0.423214 0.401270
Si Si2 0.461663 0.910179 0.105286
Si Si3 0.108880 0.627085 0.767138
Si Si4 0.859111 0.975977 0.958827
Si Si5 0.711443 0.007756 0.494136
Si Si6 0.220499 0.775895 0.302317
Si Si7 0.296179 0.551347 0.076618
Si Si8 0.665763 0.666522 0.697368
O O1 0.226925 0.349207 0.338629
O O2 0.950325 0.472604 0.323143
O O3 0.268768 0.153314 0.465691
O O4 0.949189 0.737869 0.472896
O O5 0.644903 0.651544 0.185599
O O6 0.273671 0.011876 0.063185
O O7 0.384862 0.172478 0.182527
O O8 0.567101 0.749987 0.000737
O O9 0.981226 0.794029 0.859969
O O10 0.999197 0.882657 0.726489
O O11 0.717594 0.296366 0.965489
O O12 0.051850 0.788711 0.055196
O O13 0.662645 0.228315 0.590648
O O14 0.543178 0.157749 0.388076
O O15 0.354361 0.562740 0.203307
O O16 0.189107 0.655686 0.311267
#
# Coordination Sequence:
#
# PCOD9105300 Si02
#       8
#     2   2   2   2   2   2   2   2
#     4  10  20  39  64  89 114 152 206 245 292 347
#     4  11  20  34  67  91 116 154 210 242 286 353
#     4   9  18  38  61  84 120 156 193 247 291 344
#     4   9  17  35  60  89 113 155 206 248 277 345
#     4  10  22  42  63  85 119 161 197 247 295 352
#     4  10  23  41  58  86 131 159 190 245 304 352
#     4   9  20  37  57  86 126 159 192 242 301 343
#     4  12  23  38  63  95 120 152 199 249 299 354
#
# _framework density 21.015256000000001
#
# number of rings (size 3 to 8) (size 9 to 14) (size 15 to 20)
#    0.000    2.000    2.500    1.875    0.000    1.000 
#    0.000    5.625    0.000    0.000    0.000    0.000 
#    0.000    0.000    0.000    0.000    0.000    0.000 
#
# Total GULP energy -89267.289375 kJ/mol
# GULP energy per Si atom -5579.205586 kJ/mol
# Density = 2.096742 g / cm^3
# Si number density = 21.015256 Si / 1000 Ang^3
#
#
#
# Elastic Constant Matrix: (Units=GPa)
#
#
# Indices 1 2 3 4 5 6 
#
# 1 58.7830 29.6018 21.3293 10.1857 17.1266 8.2347
# 2 29.6018 50.0792 18.4980 17.0336 8.3874 12.0843
# 3 21.3293 18.4980 113.4954 30.4907 26.0595 2.7185
# 4 10.1857 17.0336 30.4907 26.1355 0.0438 5.1063
# 5 17.1266 8.3874 26.0595 0.0438 32.6220 -1.2299
# 6 8.2347 12.0843 2.7185 5.1063 -1.2299 20.1366
#
#
#
# Elastic Compliance Matrix: (Units=1/GPa)
#
#
# Indices 1 2 3 4 5 6 
#
# 1 0.027663 -0.013005 0.000051 -0.001603 -0.011362 -0.003802
# 2 -0.013005 0.037689 0.003841 -0.021472 -0.006384 -0.012763
# 3 0.000051 0.003841 0.018041 -0.023600 -0.015384 0.000283
# 4 -0.001603 -0.021472 -0.023600 0.080809 0.025022 -0.002236
# 5 -0.011362 -0.006384 -0.015384 0.025022 0.050792 0.007311
# 6 -0.003802 -0.012763 0.000283 -0.002236 0.007311 0.059850
#
#
# Mechanical properties :
#
#
# Convention : Reuss Voigt Hill
#
# Bulk Modulus (GPa) = 15.34488 40.13508 27.73998
# Shear Modulus (GPa) = 15.88358 25.97405 20.92881
#
# Velocity S-wave (km/s) = 2.75219 3.51944 3.15919
# Velocity P-wave (km/s) = 4.17337 5.97116 5.15130
#
# Compressibility (1/GPa) = 0.06516830
#
# Stress axis : x y z
#
# Youngs Moduli (GPa) = 36.14992 26.53308 55.42928
#
# Poissons Ratio (x) = 0.34505 -0.00285
# Poissons Ratio (y) = 0.47012 -0.21292
# Poissons Ratio (z) = -0.00186 -0.10192
#
# Static dielectric constant tensor:
#      x y z
#    x 1.722940 0.031150 0.011490 
#    y 0.031150 1.789940 0.013190 
#    z 0.011490 0.013190 1.826000 
# 
# From -- ./inp_files/216029.got.cif
#   From: 2010.05.17/outbox.cif.g08.bks.cpg/sg2_109_cif.got.tgz:216029.got - 2010.06.03 11:33:40.
