data_PCOD9105088
_publ_section_title
;
Structure prediction by ZEFSAII (Michael W. Deem and Ramdas Pophale) SiO2 
 PCOD9105088
Probable space group: P -1
;
_chemical_formula_sum "Si O2"
_cell_formula_units_Z 16
_cell_length_a 11.778972
_cell_length_b 9.144470
_cell_length_c 14.954454
_cell_angle_alpha 124.599171
_cell_angle_beta 75.849194
_cell_angle_gamma 142.476983
_cell_volume 736.352984
_symmetry_space_group_name_H-M "P -1"
_symmetry_group_IT_number 2
_symmetry_cell_setting 'triclinic'
loop_
_space_group_symop_operation_xyz
x,y,z
-x,-y,-z
loop_
_atom_site_type_symbol
_atom_site_label
_atom_site_fract_x
_atom_site_fract_y
_atom_site_fract_z
Si Si1 0.311213 0.750722 0.817087
Si Si2 0.298170 0.637047 0.148145
Si Si3 0.989050 0.194996 0.548213
Si Si4 0.742742 0.411840 0.519306
Si Si5 0.525411 0.272348 0.681232
Si Si6 0.620308 0.881962 0.621613
Si Si7 0.099695 0.754421 0.996676
Si Si8 0.520706 0.648048 0.758773
O O1 0.164586 0.520217 0.682262
O O2 0.197090 0.743129 0.901221
O O3 0.375857 0.637115 0.802953
O O4 0.522152 0.104251 0.867951
O O5 0.380742 0.604521 0.194775
O O6 0.077845 0.342629 0.043804
O O7 0.288794 0.813536 0.263548
O O8 0.041258 0.300572 0.471506
O O9 0.000000 0.000000 0.500000
O O10 0.777080 0.991529 0.561264
O O11 0.705556 0.434743 0.634493
O O12 0.592591 0.347618 0.465923
O O13 0.645848 0.094587 0.420376
O O14 0.439084 0.353837 0.696363
O O15 0.581285 0.737447 0.673324
O O16 0.000000 0.500000 0.000000
O O17 0.276537 0.077655 0.126014
#
# Coordination Sequence:
#
# PCOD9105088 Si02
#       8
#     2   2   2   2   2   2   2   2
#     4  11  22  41  64  93 125 159 208 261 309 366
#     4  10  21  42  65  83 127 170 198 252 311 376
#     4  12  22  34  65  97 119 158 217 260 303 360
#     4  10  22  43  64  84 130 176 201 249 317 372
#     4  10  22  41  64  89 131 172 201 246 324 378
#     4  10  20  39  63  91 120 159 212 260 301 359
#     4  12  22  40  71  93 116 162 213 263 312 358
#     4  11  22  38  67  98 123 161 210 267 308 364
#
# _framework density 21.728708999999998
#
# number of rings (size 3 to 8) (size 9 to 14) (size 15 to 20)
#    0.000    1.250    7.500    1.125    1.750    1.500 
#    0.000    7.500   16.500    0.000    0.000    0.000 
#    0.000    0.000    0.000    0.000    0.000    0.000 
#
# Total GULP energy -89466.541380 kJ/mol
# GULP energy per Si atom -5591.658836 kJ/mol
# Density = 2.167925 g / cm^3
# Si number density = 21.728709 Si / 1000 Ang^3
#
#
#
# Elastic Constant Matrix: (Units=GPa)
#
#
# Indices 1 2 3 4 5 6 
#
# 1 87.7455 56.6661 15.7671 -8.4757 8.4011 2.2352
# 2 56.6661 107.2701 23.8588 -18.0629 -20.0838 9.4476
# 3 15.7671 23.8588 47.6447 1.6171 8.5664 9.3897
# 4 -8.4757 -18.0629 1.6171 30.0455 6.3812 -0.8469
# 5 8.4011 -20.0838 8.5664 6.3812 28.2989 -2.7413
# 6 2.2352 9.4476 9.3897 -0.8469 -2.7413 45.3413
#
#
#
# Elastic Compliance Matrix: (Units=1/GPa)
#
#
# Indices 1 2 3 4 5 6 
#
# 1 0.023974 -0.017577 0.004586 0.000427 -0.021050 0.000266
# 2 -0.017577 0.027834 -0.013196 0.006648 0.027427 -0.000418
# 3 0.004586 -0.013196 0.030748 -0.004283 -0.019563 -0.005107
# 4 0.000427 0.006648 -0.004283 0.038210 -0.002725 0.000030
# 5 -0.021050 0.027427 -0.019563 -0.002725 0.067920 0.003430
# 6 0.000266 -0.000418 -0.005107 0.000030 0.003430 0.023394
#
#
# Mechanical properties :
#
#
# Convention : Reuss Voigt Hill
#
# Bulk Modulus (GPa) = 33.13208 48.36050 40.74629
# Shear Modulus (GPa) = 18.21397 30.49504 24.35451
#
# Velocity S-wave (km/s) = 2.89839 3.75032 3.35153
# Velocity P-wave (km/s) = 5.14607 6.40765 5.81120
#
# Compressibility (1/GPa) = 0.03018223
#
# Stress axis : x y z
#
# Youngs Moduli (GPa) = 41.71245 35.92766 32.52211
#
# Poissons Ratio (x) = 0.63150 -0.14915
# Poissons Ratio (y) = 0.73318 0.42916
# Poissons Ratio (z) = -0.19130 0.47410
#
# Static dielectric constant tensor:
#      x y z
#    x 1.813750 0.009620 0.030520 
#    y 0.009620 1.802970 0.007480 
#    z 0.030520 0.007480 1.812490 
# 
# From -- ./inp_files/514605.got.cif
#   From: 2010.05.17/outbox.cif.g08.bks.cpg/sg2_258_cif.got.tgz:514605.got - 2010.06.03 11:33:40.
