data_PCOD9106633
_publ_section_title
;
Structure prediction by ZEFSAII (Michael W. Deem and Ramdas Pophale) SiO2 
 PCOD9106633
Probable space group: P -1
;
_chemical_formula_sum "Si O2"
_cell_formula_units_Z 16
_cell_length_a 14.019837
_cell_length_b 12.968656
_cell_length_c 14.177605
_cell_angle_alpha 33.881302
_cell_angle_beta 137.000431
_cell_angle_gamma 149.263586
_cell_volume 733.018142
_symmetry_space_group_name_H-M "P -1"
_symmetry_group_IT_number 2
_symmetry_cell_setting 'triclinic'
loop_
_space_group_symop_operation_xyz
x,y,z
-x,-y,-z
loop_
_atom_site_type_symbol
_atom_site_label
_atom_site_fract_x
_atom_site_fract_y
_atom_site_fract_z
Si Si1 0.163522 0.822018 0.142348
Si Si2 0.821466 0.593614 0.520464
Si Si3 0.210636 0.401349 0.860256
Si Si4 0.124804 0.360617 0.258957
Si Si5 0.501095 0.431926 0.661089
Si Si6 0.229956 0.888016 0.927578
Si Si7 0.960303 0.253560 0.625013
Si Si8 0.384998 0.178444 0.206036
O O1 0.226401 0.664595 0.312020
O O2 0.944903 0.641769 0.152270
O O3 0.295266 0.039661 0.146672
O O4 0.191789 0.915452 0.986267
O O5 0.888887 0.701734 0.592974
O O6 0.638588 0.554429 0.396723
O O7 0.968999 0.733436 0.436892
O O8 0.394504 0.665169 0.751969
O O9 0.080116 0.237431 0.799864
O O10 0.317761 0.332819 0.045452
O O11 0.280531 0.380002 0.301645
O O12 0.928361 0.174669 0.208331
O O13 0.198301 0.638690 0.094485
O O14 0.500000 0.500000 0.500000
O O15 0.417406 0.152461 0.826963
O O16 0.000000 0.500000 0.500000
O O17 0.740790 0.031563 0.647795
#
# Coordination Sequence:
#
# PCOD9106633 Si02
#       8
#     2   2   2   2   2   2   2   2
#     4  10  20  40  59  86 119 160 197 241 296 349
#     4  10  21  38  59  87 122 160 192 237 300 350
#     4  10  22  39  60  87 119 154 206 242 292 347
#     4   9  21  43  61  88 118 153 204 244 287 353
#     4  10  22  38  60  87 123 149 195 247 296 345
#     4  10  21  38  69  86 115 158 197 243 298 348
#     4  11  20  39  62  85 125 159 191 241 297 348
#     4  10  22  39  61  85 121 155 201 251 284 350
#
# _framework density 21.827563000000001
#
# number of rings (size 3 to 8) (size 9 to 14) (size 15 to 20)
#    0.000    2.000    2.500    1.875    3.500    3.500 
#    2.250   10.000    0.000    0.000    0.000    0.000 
#    0.000    0.000    0.000    0.000    0.000    0.000 
#
# Total GULP energy -89237.402817 kJ/mol
# GULP energy per Si atom -5577.337676 kJ/mol
# Density = 2.177788 g / cm^3
# Si number density = 21.827563 Si / 1000 Ang^3
#
#
#
# Elastic Constant Matrix: (Units=GPa)
#
#
# Indices 1 2 3 4 5 6 
#
# 1 85.0252 43.1473 22.6525 2.1723 -19.8685 13.7865
# 2 43.1473 76.9568 -5.5702 1.3146 -12.4889 34.7790
# 3 22.6525 -5.5702 65.2501 -6.5312 -10.2233 7.3606
# 4 2.1723 1.3146 -6.5312 31.3267 6.9558 -3.8914
# 5 -19.8685 -12.4889 -10.2233 6.9558 39.9897 -4.4469
# 6 13.7865 34.7790 7.3606 -3.8914 -4.4469 24.7708
#
#
#
# Elastic Compliance Matrix: (Units=1/GPa)
#
#
# Indices 1 2 3 4 5 6 
#
# 1 0.026579 -0.029956 -0.014894 -0.000507 0.003721 0.032280
# 2 -0.029956 0.082044 0.029782 -0.010332 0.008193 -0.107521
# 3 -0.014894 0.029782 0.028369 -0.000452 0.004652 -0.041191
# 4 -0.000507 -0.010332 -0.000452 0.036416 -0.007788 0.019246
# 5 0.003721 0.008193 0.004652 -0.007788 0.030773 -0.010656
# 6 0.032280 -0.107521 -0.041191 0.019246 -0.010656 0.186718
#
#
# Mechanical properties :
#
#
# Convention : Reuss Voigt Hill
#
# Bulk Modulus (GPa) = 9.35839 38.63238 23.99539
# Shear Modulus (GPa) = 10.94923 30.35096 20.65010
#
# Velocity S-wave (km/s) = 2.24213 3.73297 3.07914
# Velocity P-wave (km/s) = 3.31656 6.02639 4.86400
#
# Compressibility (1/GPa) = 0.10685593
#
# Stress axis : x y z
#
# Youngs Moduli (GPa) = 37.62335 12.18864 35.24986
#
# Poissons Ratio (x) = 0.36512 0.52501
# Poissons Ratio (y) = 1.12705 -1.04982
# Poissons Ratio (z) = 0.56036 -0.36300
#
# Static dielectric constant tensor:
#      x y z
#    x 1.798230 0.001520 0.027230 
#    y 0.001520 1.770810 -0.042080 
#    z 0.027230 -0.042080 1.890900 
# 
# From -- ./inp_files/270386.got.cif
#   From: 2010.05.17/outbox.cif.g08.bks.cpg/sg2_136_cif.got.tgz:270386.got - 2010.06.03 11:33:40.
