data_PCOD9106551
_publ_section_title
;
Structure prediction by ZEFSAII (Michael W. Deem and Ramdas Pophale) SiO2 
 PCOD9106551
Probable space group: P -1
;
_chemical_formula_sum "Si O2"
_cell_formula_units_Z 14
_cell_length_a 5.004908
_cell_length_b 9.148768
_cell_length_c 15.390632
_cell_angle_alpha 110.683381
_cell_angle_beta 65.272002
_cell_angle_gamma 111.966975
_cell_volume 577.211001
_symmetry_space_group_name_H-M "P -1"
_symmetry_group_IT_number 2
_symmetry_cell_setting 'triclinic'
loop_
_space_group_symop_operation_xyz
x,y,z
-x,-y,-z
loop_
_atom_site_type_symbol
_atom_site_label
_atom_site_fract_x
_atom_site_fract_y
_atom_site_fract_z
Si Si1 0.628866 0.062037 0.846176
Si Si2 0.767075 0.535967 0.199485
Si Si3 0.561113 0.347111 0.342840
Si Si4 0.984142 0.153474 0.166654
Si Si5 0.556108 0.362086 0.026297
Si Si6 0.689796 0.264827 0.718713
Si Si7 0.921731 0.630906 0.472680
O O1 0.284921 0.950704 0.879984
O O2 0.662312 0.108846 0.749464
O O3 0.858461 0.964161 0.827384
O O4 0.663911 0.226002 0.930072
O O5 0.516303 0.408162 0.265214
O O6 0.784630 0.444763 0.089325
O O7 0.067842 0.596777 0.229410
O O8 0.240378 0.271640 0.098332
O O9 0.701959 0.515364 0.409117
O O10 0.259693 0.270066 0.423128
O O11 0.805089 0.245486 0.275128
O O12 0.625554 0.685296 0.230957
O O13 0.500000 0.500000 0.000000
O O14 0.811514 0.266393 0.603921
O O15 0.000000 0.500000 0.500000
#
# Coordination Sequence:
#
# PCOD9106551 Si02
#       7
#     2   2   2   2   2   2   2
#     4  12  28  49  70 101 156 197 230 289 363 438
#     4  11  22  41  69 107 142 172 243 308 346 394
#     4  10  23  41  69 104 142 184 230 300 360 417
#     4  12  28  50  68 103 153 195 229 286 375 436
#     4  12  26  47  78 110 136 189 255 303 341 417
#     4  11  23  43  69 106 144 185 234 296 359 415
#     4  10  20  39  74 109 135 173 246 308 350 404
#
# _framework density 24.254563000000001
#
# number of rings (size 3 to 8) (size 9 to 14) (size 15 to 20)
#    0.000    0.857    2.857    4.286    2.000    2.857 
#    0.000    1.429    0.000    0.000    0.000    0.000 
#    0.000    0.000    0.000    0.000    0.000    0.000 
#
# Total GULP energy -78389.865097 kJ/mol
# GULP energy per Si atom -5599.276078 kJ/mol
# Density = 2.419936 g / cm^3
# Si number density = 24.254563 Si / 1000 Ang^3
#
#
#
# Elastic Constant Matrix: (Units=GPa)
#
#
# Indices 1 2 3 4 5 6 
#
# 1 73.3054 33.4916 19.6302 -1.7900 -5.8773 -20.5725
# 2 33.4916 141.5117 67.9374 -0.9925 -21.9069 -32.9368
# 3 19.6302 67.9374 165.6902 -20.2014 -27.4677 -14.0274
# 4 -1.7900 -0.9925 -20.2014 36.3206 -5.8401 -6.3210
# 5 -5.8773 -21.9069 -27.4677 -5.8401 41.2644 2.1735
# 6 -20.5725 -32.9368 -14.0274 -6.3210 2.1735 48.5671
#
#
#
# Elastic Compliance Matrix: (Units=1/GPa)
#
#
# Indices 1 2 3 4 5 6 
#
# 1 0.016428 -0.002389 -0.000127 0.001782 0.000950 0.005491
# 2 -0.002389 0.010883 -0.003277 -0.000255 0.002943 0.005257
# 3 -0.000127 -0.003277 0.009019 0.005881 0.005032 0.000869
# 4 0.001782 -0.000255 0.005881 0.033324 0.008421 0.006241
# 5 0.000950 0.002943 0.005032 0.008421 0.030284 0.003592
# 6 0.005491 0.005257 0.000869 0.006241 0.003592 0.027383
#
#
# Mechanical properties :
#
#
# Convention : Reuss Voigt Hill
#
# Bulk Modulus (GPa) = 40.41723 69.18062 54.79892
# Shear Modulus (GPa) = 33.97761 42.52698 38.25230
#
# Velocity S-wave (km/s) = 3.74689 4.19186 3.97560
# Velocity P-wave (km/s) = 5.95137 7.21204 6.61182
#
# Compressibility (1/GPa) = 0.02474192
#
# Stress axis : x y z
#
# Youngs Moduli (GPa) = 60.87202 91.88878 110.87762
#
# Poissons Ratio (x) = 0.21957 0.01408
# Poissons Ratio (y) = 0.14545 0.36339
# Poissons Ratio (z) = 0.00773 0.30115
#
# Static dielectric constant tensor:
#      x y z
#    x 1.968620 0.055880 -0.038400 
#    y 0.055880 1.945880 -0.063680 
#    z -0.038400 -0.063680 2.046080 
# 
# From -- ./inp_files/480612.got.cif
#   From: 2010.05.17/outbox.cif.g08.bks.cpg/sg2_241_cif.got.tgz:480612.got - 2010.06.03 11:33:40.
