data_PCOD9106392
_publ_section_title
;
Structure prediction by ZEFSAII (Michael W. Deem and Ramdas Pophale) SiO2 
 PCOD9106392
Probable space group: P -1
;
_chemical_formula_sum "Si O2"
_cell_formula_units_Z 16
_cell_length_a 15.341383
_cell_length_b 8.547419
_cell_length_c 8.281046
_cell_angle_alpha 130.809608
_cell_angle_beta 96.675660
_cell_angle_gamma 60.128136
_cell_volume 675.501902
_symmetry_space_group_name_H-M "P -1"
_symmetry_group_IT_number 2
_symmetry_cell_setting 'triclinic'
loop_
_space_group_symop_operation_xyz
x,y,z
-x,-y,-z
loop_
_atom_site_type_symbol
_atom_site_label
_atom_site_fract_x
_atom_site_fract_y
_atom_site_fract_z
Si Si1 0.199450 0.299353 0.135441
Si Si2 0.566150 0.550654 0.369906
Si Si3 0.441722 0.882804 0.833553
Si Si4 0.875849 0.844233 0.654226
Si Si5 0.255883 0.567750 0.893720
Si Si6 0.921705 0.200515 0.245629
Si Si7 0.238911 0.720916 0.519280
Si Si8 0.192856 0.216191 0.741574
O O1 0.162522 0.232340 0.246393
O O2 0.216644 0.523109 0.308694
O O3 0.135052 0.329930 0.979167
O O4 0.317252 0.059699 0.959963
O O5 0.477947 0.812093 0.607469
O O6 0.523213 0.374706 0.242960
O O7 0.626698 0.528038 0.204613
O O8 0.660916 0.428674 0.441848
O O9 0.500000 0.000000 0.000000
O O10 0.864999 0.738586 0.411640
O O11 0.000100 0.738266 0.618050
O O12 0.805342 0.152834 0.852828
O O13 0.183417 0.608599 0.748750
O O14 0.256680 0.348688 0.836478
O O15 0.874200 0.102076 0.294875
O O16 0.000000 0.000000 0.000000
O O17 0.252676 0.915387 0.558642
#
# Coordination Sequence:
#
# PCOD9106392 Si02
#       8
#     2   2   2   2   2   2   2   2
#     4  12  24  44  68  97 134 173 221 272 330 387
#     4  10  20  39  69  97 127 171 220 265 330 389
#     4  11  21  37  71 100 123 171 221 271 329 390
#     4  11  23  44  69  94 131 176 220 271 329 381
#     4  10  21  41  65  96 133 171 219 270 321 390
#     4   9  20  41  69  97 129 175 226 268 320 388
#     4  11  22  41  64  96 136 174 213 269 329 386
#     4  12  25  40  66  97 137 175 216 268 326 393
#
# _framework density 23.686091000000001
#
# number of rings (size 3 to 8) (size 9 to 14) (size 15 to 20)
#    0.000    1.250    3.750    3.750    0.000    2.500 
#    0.000    8.125    0.000    3.000    0.000    0.000 
#    0.000    0.000    0.000    0.000    0.000    0.000 
#
# Total GULP energy -89177.121693 kJ/mol
# GULP energy per Si atom -5573.570106 kJ/mol
# Density = 2.363218 g / cm^3
# Si number density = 23.686091 Si / 1000 Ang^3
#
#
#
# Elastic Constant Matrix: (Units=GPa)
#
#
# Indices 1 2 3 4 5 6 
#
# 1 121.3461 31.1210 49.2810 2.5166 1.1534 15.0773
# 2 31.1210 69.6169 42.1787 2.6164 10.6438 26.7045
# 3 49.2810 42.1787 115.0847 3.8099 23.7772 16.3692
# 4 2.5166 2.6164 3.8099 44.1383 -4.2617 13.6028
# 5 1.1534 10.6438 23.7772 -4.2617 56.9277 13.1774
# 6 15.0773 26.7045 16.3692 13.6028 13.1774 27.4642
#
#
#
# Elastic Compliance Matrix: (Units=1/GPa)
#
#
# Indices 1 2 3 4 5 6 
#
# 1 0.010716 -0.000992 -0.004229 0.001486 0.002893 -0.004522
# 2 -0.000992 0.030414 -0.007669 0.009220 0.005563 -0.031694
# 3 -0.004229 -0.007669 0.013782 -0.002817 -0.005774 0.005730
# 4 0.001486 0.009220 -0.002817 0.031590 0.008195 -0.027680
# 5 0.002893 0.005563 -0.005774 0.008195 0.023911 -0.019087
# 6 -0.004522 -0.031694 0.005730 -0.027680 -0.019087 0.089163
#
#
# Mechanical properties :
#
#
# Convention : Reuss Voigt Hill
#
# Bulk Modulus (GPa) = 34.32491 61.24547 47.78519
# Shear Modulus (GPa) = 21.27055 37.93715 29.60385
#
# Velocity S-wave (km/s) = 2.99995 4.00642 3.53914
# Velocity P-wave (km/s) = 5.15001 6.87860 6.07609
#
# Compressibility (1/GPa) = 0.02913336
#
# Stress axis : x y z
#
# Youngs Moduli (GPa) = 93.31599 32.87913 72.55813
#
# Poissons Ratio (x) = 0.03261 0.30685
# Poissons Ratio (y) = 0.09256 0.55643
# Poissons Ratio (z) = 0.39463 0.25214
#
# Static dielectric constant tensor:
#      x y z
#    x 1.899550 0.021210 0.020660 
#    y 0.021210 1.989980 -0.035390 
#    z 0.020660 -0.035390 1.998620 
# 
# From -- ./inp_files/296792.got.cif
#   From: 2010.05.17/outbox.cif.g08.bks.cpg/sg2_149_cif.got.tgz:296792.got - 2010.06.03 11:33:40.
