data_PCOD9106230
_publ_section_title
;
Structure prediction by ZEFSAII (Michael W. Deem and Ramdas Pophale) SiO2 
 PCOD9106230
Probable space group: P -1
;
_chemical_formula_sum "Si O2"
_cell_formula_units_Z 16
_cell_length_a 9.223187
_cell_length_b 8.557266
_cell_length_c 9.946230
_cell_angle_alpha 83.495373
_cell_angle_beta 87.555154
_cell_angle_gamma 58.880748
_cell_volume 667.598301
_symmetry_space_group_name_H-M "P -1"
_symmetry_group_IT_number 2
_symmetry_cell_setting 'triclinic'
loop_
_space_group_symop_operation_xyz
x,y,z
-x,-y,-z
loop_
_atom_site_type_symbol
_atom_site_label
_atom_site_fract_x
_atom_site_fract_y
_atom_site_fract_z
Si Si1 0.424748 0.375603 0.118158
Si Si2 0.085923 0.019900 0.627219
Si Si3 0.517500 0.147285 0.400261
Si Si4 0.763385 0.249443 0.757652
Si Si5 0.417787 0.345321 0.643189
Si Si6 0.357928 0.175606 0.910490
Si Si7 0.778765 0.336162 0.174941
Si Si8 0.088340 0.105575 0.047609
O O1 0.448495 0.227098 0.246521
O O2 0.297587 0.579384 0.157453
O O3 0.361669 0.335373 0.984113
O O4 0.611581 0.353188 0.109998
O O5 0.278333 0.957962 0.598350
O O6 0.118093 0.866386 0.747354
O O7 0.000000 0.000000 0.500000
O O8 0.937010 0.204480 0.683314
O O9 0.412937 0.322520 0.487112
O O10 0.500000 0.000000 0.500000
O O11 0.604353 0.311523 0.661265
O O12 0.785857 0.060973 0.840542
O O13 0.285702 0.532212 0.705614
O O14 0.396044 0.202320 0.753154
O O15 0.196839 0.152690 0.937396
O O16 0.500000 0.000000 0.000000
O O17 0.940180 0.305170 0.086778
O O18 0.000000 0.000000 0.000000
#
# Coordination Sequence:
#
# PCOD9106230 Si02
#       8
#     2   2   2   2   2   2   2   2
#     4  10  24  43  71  98 129 173 226 269 328 391
#     4  10  20  39  68  89 128 174 225 261 330 393
#     4  11  24  42  66  95 135 175 220 274 329 385
#     4  10  22  41  68  98 128 173 222 276 323 394
#     4  11  23  40  68  97 132 174 222 271 326 389
#     4  12  24  42  70  99 132 174 220 269 333 392
#     4   9  23  39  62  98 128 170 220 277 323 390
#     4  11  24  43  67  92 136 174 218 267 334 390
#
# _framework density 23.96651
#
# number of rings (size 3 to 8) (size 9 to 14) (size 15 to 20)
#    0.000    1.500    2.500    1.500    3.500    5.000 
#    2.250    0.625    0.000    0.000    0.000    0.000 
#    0.000    0.000    0.000    0.000    0.000    0.000 
#
# Total GULP energy -89245.971035 kJ/mol
# GULP energy per Si atom -5577.873190 kJ/mol
# Density = 2.391196 g / cm^3
# Si number density = 23.966510 Si / 1000 Ang^3
#
#
#
# Elastic Constant Matrix: (Units=GPa)
#
#
# Indices 1 2 3 4 5 6 
#
# 1 66.4266 12.8872 24.7533 2.2292 -22.6223 -11.5995
# 2 12.8872 107.0427 8.2627 15.8416 -11.7118 -22.3205
# 3 24.7533 8.2627 106.3646 13.0315 -9.7076 -6.5485
# 4 2.2292 15.8416 13.0315 28.2218 4.2353 -8.8879
# 5 -22.6223 -11.7118 -9.7076 4.2353 39.1680 3.7425
# 6 -11.5995 -22.3205 -6.5485 -8.8879 3.7425 41.4624
#
#
#
# Elastic Compliance Matrix: (Units=1/GPa)
#
#
# Indices 1 2 3 4 5 6 
#
# 1 0.020793 -0.000160 -0.003569 -0.000201 0.010701 0.004158
# 2 -0.000160 0.011555 0.000468 -0.005762 0.003654 0.004684
# 3 -0.003569 0.000468 0.010961 -0.005342 0.001400 -0.000287
# 4 -0.000201 -0.005762 -0.005342 0.044418 -0.008567 0.006293
# 5 0.010701 0.003654 0.001400 -0.008567 0.034052 0.000272
# 6 0.004158 0.004684 -0.000287 0.006293 0.000272 0.029082
#
#
# Mechanical properties :
#
#
# Convention : Reuss Voigt Hill
#
# Bulk Modulus (GPa) = 27.18580 41.29336 34.23958
# Shear Modulus (GPa) = 29.47338 37.36582 33.41960
#
# Velocity S-wave (km/s) = 3.51062 3.95281 3.73826
# Velocity P-wave (km/s) = 5.27261 6.17251 5.74023
#
# Compressibility (1/GPa) = 0.03678391
#
# Stress axis : x y z
#
# Youngs Moduli (GPa) = 48.09426 86.54591 91.23658
#
# Poissons Ratio (x) = 0.01386 0.32564
# Poissons Ratio (y) = 0.00770 -0.04266
# Poissons Ratio (z) = 0.17166 -0.04046
#
# Static dielectric constant tensor:
#      x y z
#    x 2.182000 -0.188940 -0.412310 
#    y -0.188940 2.294290 0.329520 
#    z -0.412310 0.329520 2.617690 
# 
# From -- ./inp_files/378686.got.cif
#   From: 2010.05.17/outbox.cif.g08.bks.cpg/sg2_190_cif.got.tgz:378686.got - 2010.06.03 11:33:40.
