data_PCOD9106938
_publ_section_title
;
Structure prediction by ZEFSAII (Michael W. Deem and Ramdas Pophale) SiO2 
 PCOD9106938
Probable space group: P -1
;
_chemical_formula_sum "Si O2"
_cell_formula_units_Z 16
_cell_length_a 9.222616
_cell_length_b 9.037217
_cell_length_c 11.159443
_cell_angle_alpha 124.515864
_cell_angle_beta 117.880804
_cell_angle_gamma 56.263147
_cell_volume 621.239485
_symmetry_space_group_name_H-M "P -1"
_symmetry_group_IT_number 2
_symmetry_cell_setting 'triclinic'
loop_
_space_group_symop_operation_xyz
x,y,z
-x,-y,-z
loop_
_atom_site_type_symbol
_atom_site_label
_atom_site_fract_x
_atom_site_fract_y
_atom_site_fract_z
Si Si1 0.802126 0.728807 0.649444
Si Si2 0.646728 0.623672 0.739100
Si Si3 0.819989 0.194702 0.998331
Si Si4 0.050799 0.702756 0.534552
Si Si5 0.473030 0.181219 0.985467
Si Si6 0.292762 0.799384 0.525457
Si Si7 0.629587 0.135748 0.674724
Si Si8 0.737338 0.640463 0.242183
O O1 0.785367 0.707087 0.775073
O O2 0.970439 0.746110 0.656218
O O3 0.802794 0.522913 0.507618
O O4 0.645697 0.926462 0.636369
O O5 0.614169 0.642260 0.874559
O O6 0.464821 0.745359 0.651738
O O7 0.703592 0.401896 0.621902
O O8 0.763762 0.189689 0.835641
O O9 0.659469 0.172002 0.002022
O O10 0.801561 0.414280 0.123016
O O11 0.000000 0.000000 0.000000
O O12 0.899259 0.679081 0.381632
O O13 0.126954 0.851676 0.576916
O O14 0.340432 0.220873 0.840165
O O15 0.500000 0.000000 0.000000
O O16 0.305499 0.902766 0.455049
O O17 0.432843 0.294578 0.703870
#
# Coordination Sequence:
#
# PCOD9106938 Si02
#       8
#     2   2   2   2   2   2   2   2
#     4  10  22  40  64  89 125 165 206 256 309 374
#     4  10  20  40  62  88 122 164 208 247 307 370
#     4  11  24  42  65  92 126 169 209 257 314 373
#     4  10  23  42  62  94 127 164 207 256 317 363
#     4  11  24  41  65  94 126 166 209 255 308 375
#     4  10  22  37  63  91 122 160 204 262 305 359
#     4  11  22  40  63  93 123 163 212 253 311 371
#     4  11  23  42  66  91 129 168 208 256 309 381
#
# _framework density 25.754963
#
# number of rings (size 3 to 8) (size 9 to 14) (size 15 to 20)
#    0.000    1.500    0.000    6.000    0.000   10.500 
#    0.000    3.750    0.000    0.000    0.000    0.000 
#    0.000    0.000    0.000    0.000    0.000    0.000 
#
# Total GULP energy -89525.530698 kJ/mol
# GULP energy per Si atom -5595.345669 kJ/mol
# Density = 2.569634 g / cm^3
# Si number density = 25.754963 Si / 1000 Ang^3
#
#
#
# Elastic Constant Matrix: (Units=GPa)
#
#
# Indices 1 2 3 4 5 6 
#
# 1 107.0022 31.0586 25.0317 -10.4242 -11.7676 -1.1172
# 2 31.0586 143.5156 32.6876 -4.4358 7.7251 0.8742
# 3 25.0317 32.6876 91.7854 -10.4266 -14.3161 -6.3536
# 4 -10.4242 -4.4358 -10.4266 55.1730 -0.3791 -6.6763
# 5 -11.7676 7.7251 -14.3161 -0.3791 40.1457 -2.3264
# 6 -1.1172 0.8742 -6.3536 -6.6763 -2.3264 41.9232
#
#
#
# Elastic Compliance Matrix: (Units=1/GPa)
#
#
# Indices 1 2 3 4 5 6 
#
# 1 0.010819 -0.002122 -0.001483 0.001681 0.003098 0.000547
# 2 -0.002122 0.008285 -0.003009 -0.000440 -0.003348 -0.000941
# 3 -0.001483 -0.003009 0.013649 0.002428 0.005195 0.002767
# 4 0.001681 -0.000440 0.002428 0.019314 0.001834 0.003599
# 5 0.003098 -0.003348 0.005195 0.001834 0.028495 0.002813
# 6 0.000547 -0.000941 0.002767 0.003599 0.002813 0.025036
#
#
# Mechanical properties :
#
#
# Convention : Reuss Voigt Hill
#
# Bulk Modulus (GPa) = 51.21761 57.76210 54.48986
# Shear Modulus (GPa) = 39.89413 44.35006 42.12210
#
# Velocity S-wave (km/s) = 3.93999 4.15420 4.04851
# Velocity P-wave (km/s) = 6.37398 6.74434 6.56178
#
# Compressibility (1/GPa) = 0.01952453
#
# Stress axis : x y z
#
# Youngs Moduli (GPa) = 92.43418 120.70340 73.26776
#
# Poissons Ratio (x) = 0.25610 0.10864
# Poissons Ratio (y) = 0.19612 0.22048
# Poissons Ratio (z) = 0.13706 0.36322
#
# Static dielectric constant tensor:
#      x y z
#    x 2.107110 -0.016050 -0.013850 
#    y -0.016050 2.110960 0.011380 
#    z -0.013850 0.011380 2.099030 
# 
# From -- ./inp_files/242556.got.cif
#   From: 2010.05.17/outbox.cif.g08.bks.cpg/sg2_122_cif.got.tgz:242556.got - 2010.06.03 11:33:40.
