data_PCOD9106008
_publ_section_title
;
Structure prediction by ZEFSAII (Michael W. Deem and Ramdas Pophale) SiO2 
 PCOD9106008
Probable space group: P -1
;
_chemical_formula_sum "Si O2"
_cell_formula_units_Z 16
_cell_length_a 8.005699
_cell_length_b 13.869576
_cell_length_c 9.172302
_cell_angle_alpha 49.906093
_cell_angle_beta 101.096008
_cell_angle_gamma 70.607729
_cell_volume 607.338178
_symmetry_space_group_name_H-M "P -1"
_symmetry_group_IT_number 2
_symmetry_cell_setting 'triclinic'
loop_
_space_group_symop_operation_xyz
x,y,z
-x,-y,-z
loop_
_atom_site_type_symbol
_atom_site_label
_atom_site_fract_x
_atom_site_fract_y
_atom_site_fract_z
Si Si1 0.673257 0.787575 0.358876
Si Si2 0.411813 0.919375 0.475409
Si Si3 0.289285 0.658423 0.385624
Si Si4 0.897845 0.275110 0.405971
Si Si5 0.086890 0.843811 0.785413
Si Si6 0.307343 0.372157 0.991729
Si Si7 0.580138 0.194457 0.945192
Si Si8 0.104284 0.586707 0.203946
O O1 0.502845 0.886004 0.361347
O O2 0.562561 0.842195 0.128473
O O3 0.760643 0.603221 0.574546
O O4 0.871700 0.790393 0.423538
O O5 0.500000 0.000000 0.500000
O O6 0.156499 0.037484 0.318859
O O7 0.523904 0.752464 0.741062
O O8 0.500000 0.500000 0.500000
O O9 0.255475 0.693515 0.516085
O O10 0.299339 0.788252 0.182599
O O11 0.101823 0.651275 0.300639
O O12 0.801418 0.449173 0.158166
O O13 0.905554 0.181221 0.360562
O O14 0.228736 0.895900 0.817814
O O15 0.182908 0.670416 0.039894
O O16 0.408478 0.342402 0.876465
O O17 0.121308 0.353026 0.958843
#
# Coordination Sequence:
#
# PCOD9106008 Si02
#       8
#     2   2   2   2   2   2   2   2
#     4  11  22  41  72  98 128 169 222 264 332 382
#     4  12  24  45  66  93 130 179 219 274 314 387
#     4  11  20  39  65  99 141 164 207 267 337 381
#     4  11  22  40  69 105 127 172 212 270 322 398
#     4  11  25  43  65  97 137 170 219 263 331 381
#     4  11  22  40  69  97 131 167 223 268 322 383
#     4  11  25  42  65 101 133 172 210 278 322 389
#     4  10  20  39  67 100 131 166 211 274 324 395
#
# _framework density 26.344465
#
# number of rings (size 3 to 8) (size 9 to 14) (size 15 to 20)
#    0.000    1.000    5.000    1.500    0.000    6.500 
#    0.000    3.125    0.000    0.000    0.000    0.000 
#    0.000    0.000    0.000    0.000    0.000    0.000 
#
# Total GULP energy -89576.050281 kJ/mol
# GULP energy per Si atom -5598.503143 kJ/mol
# Density = 2.628450 g / cm^3
# Si number density = 26.344465 Si / 1000 Ang^3
#
#
#
# Elastic Constant Matrix: (Units=GPa)
#
#
# Indices 1 2 3 4 5 6 
#
# 1 96.1542 49.5820 48.1719 -1.3941 19.7922 5.8055
# 2 49.5820 151.4363 70.3875 31.7522 21.1696 -12.6624
# 3 48.1719 70.3875 119.3517 25.6677 26.2238 17.0666
# 4 -1.3941 31.7522 25.6677 36.4079 2.9287 -8.4692
# 5 19.7922 21.1696 26.2238 2.9287 54.6314 2.0353
# 6 5.8055 -12.6624 17.0666 -8.4692 2.0353 37.8450
#
#
#
# Elastic Compliance Matrix: (Units=1/GPa)
#
#
# Indices 1 2 3 4 5 6 
#
# 1 0.015648 -0.004021 -0.005349 0.008179 -0.002004 0.000605
# 2 -0.004021 0.011932 -0.004771 -0.005858 -0.000767 0.005491
# 3 -0.005349 -0.004771 0.018249 -0.011221 -0.003950 -0.011304
# 4 0.008179 -0.005858 -0.011221 0.043302 0.001946 0.011432
# 5 -0.002004 -0.000767 -0.003950 0.001946 0.021078 0.001134
# 6 0.000605 0.005491 -0.011304 0.011432 0.001134 0.035763
#
#
# Mechanical properties :
#
#
# Convention : Reuss Voigt Hill
#
# Bulk Modulus (GPa) = 56.99232 78.13612 67.56422
# Shear Modulus (GPa) = 27.76184 39.03024 33.39604
#
# Velocity S-wave (km/s) = 3.24975 3.85325 3.56430
# Velocity P-wave (km/s) = 5.98011 7.03708 6.53001
#
# Compressibility (1/GPa) = 0.01754622
#
# Stress axis : x y z
#
# Youngs Moduli (GPa) = 63.90538 83.80768 54.79807
#
# Poissons Ratio (x) = 0.33701 0.29314
# Poissons Ratio (y) = 0.25698 0.26142
# Poissons Ratio (z) = 0.34186 0.39982
#
# Static dielectric constant tensor:
#      x y z
#    x 2.085520 0.024480 -0.003970 
#    y 0.024480 2.012850 -0.024440 
#    z -0.003970 -0.024440 2.122690 
# 
# From -- ./inp_files/205987.got.cif
#   From: 2010.05.17/outbox.cif.g08.bks.cpg/sg2_103_cif.got.tgz:205987.got - 2010.06.03 11:33:40.
