data_PCOD9106432
_publ_section_title
;
Structure prediction by ZEFSAII (Michael W. Deem and Ramdas Pophale) SiO2 
 PCOD9106432
Probable space group: P -1
;
_chemical_formula_sum "Si O2"
_cell_formula_units_Z 14
_cell_length_a 11.809331
_cell_length_b 12.435288
_cell_length_c 6.761314
_cell_angle_alpha 45.012370
_cell_angle_beta 58.083793
_cell_angle_gamma 55.507046
_cell_volume 564.591165
_symmetry_space_group_name_H-M "P -1"
_symmetry_group_IT_number 2
_symmetry_cell_setting 'triclinic'
loop_
_space_group_symop_operation_xyz
x,y,z
-x,-y,-z
loop_
_atom_site_type_symbol
_atom_site_label
_atom_site_fract_x
_atom_site_fract_y
_atom_site_fract_z
Si Si1 0.532740 0.614360 0.652009
Si Si2 0.367458 0.791313 0.213679
Si Si3 0.337342 0.140057 0.776625
Si Si4 0.938636 0.670590 0.458528
Si Si5 0.239116 0.664994 0.157312
Si Si6 0.126223 0.188050 0.254662
Si Si7 0.860301 0.160765 0.332174
O O1 0.461858 0.654638 0.449755
O O2 0.541741 0.784640 0.489482
O O3 0.701425 0.518907 0.594927
O O4 0.500000 0.500000 0.000000
O O5 0.337865 0.736193 0.099967
O O6 0.212734 0.849193 0.380848
O O7 0.409036 0.949472 0.952929
O O8 0.203307 0.212103 0.661280
O O9 0.264483 0.176541 0.014721
O O10 0.902638 0.680966 0.714198
O O11 0.000000 0.500000 0.500000
O O12 0.072785 0.734918 0.251790
O O13 0.248372 0.700661 0.872615
O O14 0.996451 0.211721 0.188925
O O15 0.129678 0.008908 0.559158
#
# Coordination Sequence:
#
# PCOD9106432 Si02
#       7
#     2   2   2   2   2   2   2
#     4  12  26  49  69  96 144 190 238 291 345 420
#     4  11  24  45  73  99 142 186 238 286 342 423
#     4  11  25  46  71 107 138 185 235 291 353 416
#     4  12  24  42  67 109 149 178 226 294 359 425
#     4  12  23  43  71 102 139 186 232 284 360 414
#     4  10  22  40  68 105 145 176 227 286 359 418
#     4  10  20  39  70 104 135 184 227 287 349 421
#
# _framework density 24.796703999999998
#
# number of rings (size 3 to 8) (size 9 to 14) (size 15 to 20)
#    0.000    0.857    5.714    1.714    0.000    1.714 
#    7.714    0.714    0.000    0.000    0.000    0.000 
#    0.000    0.000    0.000    0.000    0.000    0.000 
#
# Total GULP energy -78030.896009 kJ/mol
# GULP energy per Si atom -5573.635429 kJ/mol
# Density = 2.474027 g / cm^3
# Si number density = 24.796704 Si / 1000 Ang^3
#
#
#
# Elastic Constant Matrix: (Units=GPa)
#
#
# Indices 1 2 3 4 5 6 
#
# 1 119.6556 27.0375 56.6604 -11.4466 23.9259 10.3434
# 2 27.0375 96.7516 37.9699 -3.0654 13.6275 17.3922
# 3 56.6604 37.9699 101.7247 -20.0424 -1.7017 15.6221
# 4 -11.4466 -3.0654 -20.0424 27.5347 -2.1046 8.4935
# 5 23.9259 13.6275 -1.7017 -2.1046 45.0679 -10.2589
# 6 10.3434 17.3922 15.6221 8.4935 -10.2589 21.7327
#
#
#
# Elastic Compliance Matrix: (Units=1/GPa)
#
#
# Indices 1 2 3 4 5 6 
#
# 1 0.014429 0.002041 -0.006693 0.003673 -0.010672 -0.010163
# 2 0.002041 0.015851 -0.003624 0.004616 -0.009774 -0.017469
# 3 -0.006693 -0.003624 0.020021 0.015610 0.003198 -0.012896
# 4 0.003673 0.004616 0.015610 0.063194 -0.010330 -0.046237
# 5 -0.010672 -0.009774 0.003198 -0.010330 0.037847 0.032505
# 6 -0.010163 -0.017469 -0.012896 -0.046237 0.032505 0.107515
#
#
# Mechanical properties :
#
#
# Convention : Reuss Voigt Hill
#
# Bulk Modulus (GPa) = 29.63147 62.38527 46.00837
# Shear Modulus (GPa) = 17.44226 31.96465 24.70346
#
# Velocity S-wave (km/s) = 2.65507 3.59426 3.15975
# Velocity P-wave (km/s) = 4.62330 6.51446 5.64859
#
# Compressibility (1/GPa) = 0.03374790
#
# Stress axis : x y z
#
# Youngs Moduli (GPa) = 69.30357 63.08687 49.94814
#
# Poissons Ratio (x) = -0.12874 0.33430
# Poissons Ratio (y) = -0.14143 0.18103
# Poissons Ratio (z) = 0.46384 0.22865
#
# Static dielectric constant tensor:
#      x y z
#    x 2.035330 -0.036450 -0.104200 
#    y -0.036450 2.126710 -0.000330 
#    z -0.104200 -0.000330 2.139300 
# 
# From -- ./inp_files/68086.got.cif
#   From: 2010.05.17/outbox.cif.g08.bks.cpg/sg2_35_cif.got.tgz:68086.got - 2010.06.03 11:33:40.
