data_PCOD9106079
_publ_section_title
;
Structure prediction by ZEFSAII (Michael W. Deem and Ramdas Pophale) SiO2 
 PCOD9106079
Probable space group: P -1
;
_chemical_formula_sum "Si O2"
_cell_formula_units_Z 15
_cell_length_a 16.548866
_cell_length_b 7.343362
_cell_length_c 4.807366
_cell_angle_alpha 73.934857
_cell_angle_beta 100.284458
_cell_angle_gamma 101.174079
_cell_volume 545.898913
_symmetry_space_group_name_H-M "P -1"
_symmetry_group_IT_number 2
_symmetry_cell_setting 'triclinic'
loop_
_space_group_symop_operation_xyz
x,y,z
-x,-y,-z
loop_
_atom_site_type_symbol
_atom_site_label
_atom_site_fract_x
_atom_site_fract_y
_atom_site_fract_z
Si Si1 0.438052 0.823159 0.675767
Si Si2 0.132132 0.478421 0.064636
Si Si3 0.638812 0.911147 0.137493
Si Si4 0.036078 0.170863 0.758717
Si Si5 0.000000 0.500000 0.500000
Si Si6 0.591509 0.663512 0.718896
Si Si7 0.203373 0.198313 0.571872
Si Si8 0.287904 0.571749 0.809435
O O1 0.496605 0.660762 0.752661
O O2 0.344654 0.724636 0.582551
O O3 0.500000 0.000000 0.500000
O O4 0.412998 0.918839 0.908612
O O5 0.174990 0.286650 0.232655
O O6 0.085329 0.531784 0.285666
O O7 0.062851 0.389402 0.827189
O O8 0.208973 0.617667 0.918842
O O9 0.597188 0.728599 0.375003
O O10 0.730781 0.944058 0.305056
O O11 0.637956 0.844953 0.849855
O O12 0.117330 0.119793 0.693172
O O13 0.977249 0.265614 0.477763
O O14 0.000000 0.000000 0.000000
O O15 0.643477 0.498767 0.909432
O O16 0.247733 0.390644 0.675716
#
# Coordination Sequence:
#
# PCOD9106079 Si02
#       8
#     2   2   2   2   1   2   2   2
#     4  10  22  41  61  95 134 171 224 286 329 393
#     4   9  19  40  60  91 128 164 224 273 335 405
#     4  10  21  40  62  93 131 171 219 278 334 391
#     4   9  20  40  64  92 130 168 214 281 340 405
#     4   8  20  40  62  92 132 160 222 280 326 414
#     4  10  20  40  65  88 127 176 224 273 332 394
#     4  10  20  39  67  92 129 182 221 276 337 422
#     4  10  20  40  61  92 126 177 225 266 341 401
#
# _framework density 27.477609999999999
#
# number of rings (size 3 to 8) (size 9 to 14) (size 15 to 20)
#    0.800    1.600    1.333    0.800    0.000    1.067 
#   12.000    7.333    0.000    0.000    0.000    0.000 
#    0.000    0.000    0.000    0.000    0.000    0.000 
#
# Total GULP energy -83560.052954 kJ/mol
# GULP energy per Si atom -5570.670197 kJ/mol
# Density = 2.741507 g / cm^3
# Si number density = 27.477610 Si / 1000 Ang^3
#
#
#
# Elastic Constant Matrix: (Units=GPa)
#
#
# Indices 1 2 3 4 5 6 
#
# 1 218.8039 48.2166 53.3038 -21.9561 -22.7264 1.8781
# 2 48.2166 112.1380 54.5071 -27.1598 -16.1676 13.0881
# 3 53.3038 54.5071 115.4983 -15.9677 -13.3199 16.6453
# 4 -21.9561 -27.1598 -15.9677 50.2426 7.1323 -9.9568
# 5 -22.7264 -16.1676 -13.3199 7.1323 53.4978 -2.8353
# 6 1.8781 13.0881 16.6453 -9.9568 -2.8353 27.6005
#
#
#
# Elastic Compliance Matrix: (Units=1/GPa)
#
#
# Indices 1 2 3 4 5 6 
#
# 1 0.005571 -0.001125 -0.001967 0.001389 0.001457 0.001992
# 2 -0.001125 0.013205 -0.004661 0.004626 0.001654 -0.001536
# 3 -0.001967 -0.004661 0.012537 -0.000549 0.000667 -0.005346
# 4 0.001389 0.004626 -0.000549 0.024313 -0.001034 0.006707
# 5 0.001457 0.001654 0.000667 -0.001034 0.020137 0.000410
# 6 0.001992 -0.001536 -0.005346 0.006707 0.000410 0.042510
#
#
# Mechanical properties :
#
#
# Convention : Reuss Voigt Hill
#
# Bulk Modulus (GPa) = 63.26355 84.27726 73.77041
# Shear Modulus (GPa) = 35.95871 45.62901 40.79386
#
# Velocity S-wave (km/s) = 3.62146 4.07945 3.85726
# Velocity P-wave (km/s) = 6.36869 7.27510 6.83693
#
# Compressibility (1/GPa) = 0.01580689
#
# Stress axis : x y z
#
# Youngs Moduli (GPa) = 179.49766 75.72813 79.76311
#
# Poissons Ratio (x) = 0.08521 0.15690
# Poissons Ratio (y) = 0.20198 0.37177
# Poissons Ratio (z) = 0.35308 0.35297
#
# Static dielectric constant tensor:
#      x y z
#    x 2.229970 -0.007140 0.062150 
#    y -0.007140 2.242310 -0.006840 
#    z 0.062150 -0.006840 2.266160 
# 
# From -- ./inp_files/51310.got.cif
#   From: 2010.05.17/outbox.cif.g08.bks.cpg/sg2_26_cif.got.tgz:51310.got - 2010.06.03 11:33:40.
