data_PCOD9106371
_publ_section_title
;
Structure prediction by ZEFSAII (Michael W. Deem and Ramdas Pophale) SiO2 
 PCOD9106371
Probable space group: P -1
;
_chemical_formula_sum "Si O2"
_cell_formula_units_Z 16
_cell_length_a 8.277771
_cell_length_b 9.923283
_cell_length_c 15.549054
_cell_angle_alpha 137.719200
_cell_angle_beta 96.293252
_cell_angle_gamma 107.174481
_cell_volume 705.967665
_symmetry_space_group_name_H-M "P -1"
_symmetry_group_IT_number 2
_symmetry_cell_setting 'triclinic'
loop_
_space_group_symop_operation_xyz
x,y,z
-x,-y,-z
loop_
_atom_site_type_symbol
_atom_site_label
_atom_site_fract_x
_atom_site_fract_y
_atom_site_fract_z
Si Si1 0.731445 0.486995 0.462751
Si Si2 0.717240 0.587343 0.825692
Si Si3 0.348187 0.079371 0.540486
Si Si4 0.847371 0.169123 0.411085
Si Si5 0.736719 0.267648 0.940005
Si Si6 0.135440 0.704056 0.224607
Si Si7 0.290911 0.198896 0.245615
Si Si8 0.629782 0.747865 0.069305
O O1 0.736594 0.294946 0.433792
O O2 0.528699 0.348332 0.333985
O O3 0.751208 0.691060 0.623007
O O4 0.923470 0.618148 0.476738
O O5 0.834516 0.461474 0.787016
O O6 0.780979 0.749529 0.821639
O O7 0.488691 0.366328 0.692202
O O8 0.720217 0.713460 0.973564
O O9 0.228094 0.959430 0.563105
O O10 0.203719 0.954931 0.392277
O O11 0.500000 0.000000 0.500000
O O12 0.791308 0.963391 0.240251
O O13 0.725986 0.248872 0.826748
O O14 0.533931 0.197841 0.936092
O O15 0.790433 0.080801 0.882337
O O16 0.912792 0.540667 0.102180
O O17 0.500000 0.500000 0.000000
#
# Coordination Sequence:
#
# PCOD9106371 Si02
#       8
#     2   2   2   2   2   2   2   2
#     4  10  24  42  68  95 134 172 224 271 330 390
#     4  11  24  41  66  97 129 174 216 266 332 389
#     4  10  20  39  69  94 128 166 220 268 319 385
#     4  11  22  43  69  99 127 178 223 271 326 390
#     4  11  24  43  67  95 132 174 217 270 330 393
#     4  10  23  41  67  97 126 171 224 264 321 396
#     4  11  25  44  66  97 135 174 219 274 331 388
#     4  12  22  43  66  93 133 171 214 271 333 391
#
# _framework density 22.663927999999999
#
# number of rings (size 3 to 8) (size 9 to 14) (size 15 to 20)
#    0.000    1.250    3.750    2.250    5.250    2.000 
#    4.500    1.250    0.000    0.000    0.000    0.000 
#    0.000    0.000    0.000    0.000    0.000    0.000 
#
# Total GULP energy -89548.215844 kJ/mol
# GULP energy per Si atom -5596.763490 kJ/mol
# Density = 2.261234 g / cm^3
# Si number density = 22.663928 Si / 1000 Ang^3
#
#
#
# Elastic Constant Matrix: (Units=GPa)
#
#
# Indices 1 2 3 4 5 6 
#
# 1 42.5326 -4.1708 1.1979 -2.1113 4.8646 1.6194
# 2 -4.1708 60.2878 -10.3192 -1.4497 -1.4093 -15.5522
# 3 1.1979 -10.3192 115.3048 -8.6340 0.2849 11.1570
# 4 -2.1113 -1.4497 -8.6340 29.5193 -0.2771 -2.5569
# 5 4.8646 -1.4093 0.2849 -0.2771 27.9975 7.5761
# 6 1.6194 -15.5522 11.1570 -2.5569 7.5761 23.6830
#
#
#
# Elastic Compliance Matrix: (Units=1/GPa)
#
#
# Indices 1 2 3 4 5 6 
#
# 1 0.024256 0.001936 -0.000049 0.001883 -0.004438 0.001259
# 2 0.001936 0.020512 0.000627 0.002541 -0.003162 0.014328
# 3 -0.000049 0.000627 0.009298 0.002407 0.001064 -0.004046
# 4 0.001883 0.002541 0.002407 0.035224 -0.001110 0.004564
# 5 -0.004438 -0.003162 0.001064 -0.001110 0.040458 -0.015336
# 6 0.001259 0.014328 -0.004046 0.004564 -0.015336 0.058852
#
#
# Mechanical properties :
#
#
# Convention : Reuss Voigt Hill
#
# Bulk Modulus (GPa) = 16.92186 21.28234 19.10210
# Shear Modulus (GPa) = 24.59801 31.66780 28.13290
#
# Velocity S-wave (km/s) = 3.29802 3.74207 3.52704
# Velocity P-wave (km/s) = 4.68884 5.29921 5.00334
#
# Compressibility (1/GPa) = 0.05909516
#
# Stress axis : x y z
#
# Youngs Moduli (GPa) = 41.22727 48.75287 107.54595
#
# Poissons Ratio (x) = -0.09439 0.00522
# Poissons Ratio (y) = -0.07982 -0.06746
# Poissons Ratio (z) = 0.00200 -0.03058
#
# Static dielectric constant tensor:
#      x y z
#    x 1.867210 -0.045250 0.024000 
#    y -0.045250 1.818410 0.012830 
#    z 0.024000 0.012830 1.856560 
# 
# From -- ./inp_files/223823.got.cif
#   From: 2010.05.17/outbox.cif.g08.bks.cpg/sg2_112_cif.got.tgz:223823.got - 2010.06.03 11:33:40.
