data_PCOD9106454
_publ_section_title
;
Structure prediction by ZEFSAII (Michael W. Deem and Ramdas Pophale) SiO2 
 PCOD9106454
Probable space group: P -1
;
_chemical_formula_sum "Si O2"
_cell_formula_units_Z 14
_cell_length_a 9.720619
_cell_length_b 28.946228
_cell_length_c 14.520946
_cell_angle_alpha 18.296898
_cell_angle_beta 31.905008
_cell_angle_gamma 27.617348
_cell_volume 593.795110
_symmetry_space_group_name_H-M "P -1"
_symmetry_group_IT_number 2
_symmetry_cell_setting 'triclinic'
loop_
_space_group_symop_operation_xyz
x,y,z
-x,-y,-z
loop_
_atom_site_type_symbol
_atom_site_label
_atom_site_fract_x
_atom_site_fract_y
_atom_site_fract_z
Si Si1 0.224462 0.904884 0.916462
Si Si2 0.504067 0.896019 0.580116
Si Si3 0.116034 0.129218 0.216344
Si Si4 0.720637 0.550032 0.832508
Si Si5 0.625690 0.559505 0.402831
Si Si6 0.603525 0.929600 0.175989
Si Si7 0.449380 0.606761 0.055984
O O1 0.421966 0.865185 0.786565
O O2 0.211683 0.075213 0.637071
O O3 0.403098 0.755994 0.167361
O O4 0.929442 0.902554 0.060077
O O5 0.234731 0.072572 0.359388
O O6 0.521198 0.750024 0.782522
O O7 0.395141 0.067909 0.106227
O O8 0.000000 0.000000 0.500000
O O9 0.850952 0.307358 0.998571
O O10 0.600528 0.752421 0.520153
O O11 0.044847 0.475974 0.743590
O O12 0.500000 0.500000 0.000000
O O13 0.713307 0.497088 0.042952
O O14 0.500000 0.500000 0.500000
O O15 0.614584 0.472118 0.668843
O O16 0.500000 0.000000 0.000000
#
# Coordination Sequence:
#
# PCOD9106454 Si02
#       7
#     2   2   2   2   2   2   2
#     4  11  25  42  71 104 140 180 236 292 349 426
#     4  10  21  43  71  98 134 181 229 292 356 406
#     4  10  20  39  70  94 130 174 229 284 349 403
#     4  12  28  46  73 104 139 192 241 285 357 431
#     4  12  25  48  71 102 151 191 229 292 359 425
#     4  12  23  44  70  98 136 179 233 294 349 410
#     4  11  24  49  72 100 145 187 233 295 359 417
#
# _framework density 23.577155999999999
#
# number of rings (size 3 to 8) (size 9 to 14) (size 15 to 20)
#    0.000    0.857    5.714    2.571    2.000    2.857 
#    5.143    0.000    0.000    0.000    0.000    0.000 
#    0.000    0.000    0.000    0.000    0.000    0.000 
#
# Total GULP energy -78305.025639 kJ/mol
# GULP energy per Si atom -5593.216117 kJ/mol
# Density = 2.352349 g / cm^3
# Si number density = 23.577156 Si / 1000 Ang^3
#
#
#
# Elastic Constant Matrix: (Units=GPa)
#
#
# Indices 1 2 3 4 5 6 
#
# 1 125.4469 38.6631 76.1427 12.6796 6.2941 -2.7186
# 2 38.6631 82.4842 66.9915 21.9341 0.4899 -1.3599
# 3 76.1427 66.9915 137.5316 26.5853 -3.1440 -13.5277
# 4 12.6796 21.9341 26.5853 29.1427 -5.6350 2.4855
# 5 6.2941 0.4899 -3.1440 -5.6350 62.1468 7.2023
# 6 -2.7186 -1.3599 -13.5277 2.4855 7.2023 30.1668
#
#
#
# Elastic Compliance Matrix: (Units=1/GPa)
#
#
# Indices 1 2 3 4 5 6 
#
# 1 0.012276 -0.000376 -0.007084 0.001323 -0.001259 -0.001896
# 2 -0.000376 0.021777 -0.009110 -0.007929 -0.001055 -0.002232
# 3 -0.007084 -0.009110 0.017670 -0.006769 0.000214 0.007381
# 4 0.001323 -0.007929 -0.006769 0.047534 0.004864 -0.008351
# 5 -0.001259 -0.001055 0.000214 0.004864 0.017209 -0.004574
# 6 -0.001896 -0.002232 0.007381 -0.008351 -0.004574 0.037968
#
#
# Mechanical properties :
#
#
# Convention : Reuss Voigt Hill
#
# Bulk Modulus (GPa) = 53.81581 78.78415 66.29998
# Shear Modulus (GPa) = 25.80417 35.20228 30.50323
#
# Velocity S-wave (km/s) = 3.31185 3.86821 3.60079
# Velocity P-wave (km/s) = 6.12367 7.31018 6.74308
#
# Compressibility (1/GPa) = 0.01858190
#
# Stress axis : x y z
#
# Youngs Moduli (GPa) = 81.46265 45.92006 56.59347
#
# Poissons Ratio (x) = 0.01727 0.40091
# Poissons Ratio (y) = 0.03064 0.51558
# Poissons Ratio (z) = 0.57708 0.41834
#
# Static dielectric constant tensor:
#      x y z
#    x 2.103070 0.238950 -0.138270 
#    y 0.238950 2.218710 -0.160660 
#    z -0.138270 -0.160660 1.998050 
# 
# From -- ./inp_files/509072.got.cif
#   From: 2010.05.17/outbox.cif.g08.bks.cpg/sg2_255_cif.got.tgz:509072.got - 2010.06.03 11:33:40.
