data_PCOD9106847
_publ_section_title
;
Structure prediction by ZEFSAII (Michael W. Deem and Ramdas Pophale) SiO2 
 PCOD9106847
Probable space group: P -1
;
_chemical_formula_sum "Si O2"
_cell_formula_units_Z 12
_cell_length_a 15.057650
_cell_length_b 7.760687
_cell_length_c 7.300083
_cell_angle_alpha 118.837054
_cell_angle_beta 118.842050
_cell_angle_gamma 102.210014
_cell_volume 533.774990
_symmetry_space_group_name_H-M "P -1"
_symmetry_group_IT_number 2
_symmetry_cell_setting 'triclinic'
loop_
_space_group_symop_operation_xyz
x,y,z
-x,-y,-z
loop_
_atom_site_type_symbol
_atom_site_label
_atom_site_fract_x
_atom_site_fract_y
_atom_site_fract_z
Si Si1 0.704343 0.077400 0.371829
Si Si2 0.507274 0.548016 0.814926
Si Si3 0.086599 0.077502 0.848547
Si Si4 0.035070 0.625320 0.402352
Si Si5 0.120163 0.882303 0.150605
Si Si6 0.652696 0.446331 0.640359
O O1 0.825428 0.269126 0.469485
O O2 0.757582 0.999202 0.546551
O O3 0.648738 0.211389 0.472501
O O4 0.606593 0.838291 0.040396
O O5 0.500000 0.500000 0.000000
O O6 0.560004 0.419918 0.691274
O O7 0.386757 0.488186 0.554307
O O8 0.208945 0.334797 0.048101
O O9 0.132933 0.990908 0.019914
O O10 0.033633 0.858323 0.540645
O O11 0.018734 0.902063 0.162031
O O12 0.936115 0.400949 0.064333
O O13 0.000000 0.500000 0.500000
#
# Coordination Sequence:
#
# PCOD9106847 Si02
#       6
#     2   2   2   2   2   2
#     4  12  23  42  64  96 127 167 210 264 316 377
#     4  11  26  48  66  93 122 170 221 266 321 375
#     4  10  20  40  61  92 127 173 200 257 315 378
#     4  10  21  37  59  95 131 164 204 249 313 381
#     4  10  22  37  62  93 134 161 209 250 313 386
#     4  11  24  44  69  91 130 163 216 272 316 369
#
# _framework density 22.481382
#
# number of rings (size 3 to 8) (size 9 to 14) (size 15 to 20)
#    0.000    1.333    3.333    2.000    0.000    2.667 
#    6.000    0.000    0.000    0.000    0.000    0.000 
#    0.000    0.000    0.000    0.000    0.000    0.000 
#
# Total GULP energy -67094.560626 kJ/mol
# GULP energy per Si atom -5591.213386 kJ/mol
# Density = 2.243021 g / cm^3
# Si number density = 22.481382 Si / 1000 Ang^3
#
#
#
# Elastic Constant Matrix: (Units=GPa)
#
#
# Indices 1 2 3 4 5 6 
#
# 1 82.0152 20.1818 27.9876 14.0960 -10.8491 -31.8302
# 2 20.1818 66.6773 13.8892 -13.8929 -10.2431 -7.0952
# 3 27.9876 13.8892 103.3951 20.1760 -2.4203 -8.3656
# 4 14.0960 -13.8929 20.1760 49.1262 5.8728 -7.8430
# 5 -10.8491 -10.2431 -2.4203 5.8728 39.0187 6.1495
# 6 -31.8302 -7.0952 -8.3656 -7.8430 6.1495 35.6366
#
#
#
# Elastic Compliance Matrix: (Units=1/GPa)
#
#
# Indices 1 2 3 4 5 6 
#
# 1 0.021842 -0.004623 -0.003116 -0.003975 0.002660 0.016523
# 2 -0.004623 0.018914 -0.002685 0.007541 0.002337 0.000263
# 3 -0.003116 -0.002685 0.011712 -0.004965 0.000169 -0.001691
# 4 -0.003975 0.007541 -0.004965 0.026677 -0.003976 0.003343
# 5 0.002660 0.002337 0.000169 -0.003976 0.028037 -0.002832
# 6 0.016523 0.000263 -0.001691 0.003343 -0.002832 0.043699
#
#
# Mechanical properties :
#
#
# Convention : Reuss Voigt Hill
#
# Bulk Modulus (GPa) = 31.62661 41.80052 36.71356
# Shear Modulus (GPa) = 27.43195 37.42489 32.42842
#
# Velocity S-wave (km/s) = 3.49694 4.08451 3.80209
# Velocity P-wave (km/s) = 5.51391 6.39359 5.96998
#
# Compressibility (1/GPa) = 0.03161895
#
# Stress axis : x y z
#
# Youngs Moduli (GPa) = 45.78430 52.86993 85.38294
#
# Poissons Ratio (x) = 0.24442 0.26609
# Poissons Ratio (y) = 0.21167 0.22924
# Poissons Ratio (z) = 0.14269 0.14195
#
# Static dielectric constant tensor:
#      x y z
#    x 1.788230 -0.001600 0.004550 
#    y -0.001600 1.863920 -0.015800 
#    z 0.004550 -0.015800 1.839450 
# 
# From -- ./inp_files/105991.got.cif
#   From: 2010.05.17/outbox.cif.g08.bks.cpg/sg2_53_cif.got.tgz:105991.got - 2010.06.03 11:33:40.
