data_PCOD9106566
_publ_section_title
;
Structure prediction by ZEFSAII (Michael W. Deem and Ramdas Pophale) SiO2 
 PCOD9106566
Probable space group: P -1
;
_chemical_formula_sum "Si O2"
_cell_formula_units_Z 16
_cell_length_a 15.905302
_cell_length_b 5.531715
_cell_length_c 11.620694
_cell_angle_alpha 80.760867
_cell_angle_beta 47.440702
_cell_angle_gamma 67.945797
_cell_volume 691.430595
_symmetry_space_group_name_H-M "P -1"
_symmetry_group_IT_number 2
_symmetry_cell_setting 'triclinic'
loop_
_space_group_symop_operation_xyz
x,y,z
-x,-y,-z
loop_
_atom_site_type_symbol
_atom_site_label
_atom_site_fract_x
_atom_site_fract_y
_atom_site_fract_z
Si Si1 0.700168 0.467814 0.025515
Si Si2 0.085003 0.599772 0.766194
Si Si3 0.495498 0.807096 0.349339
Si Si4 0.376491 0.388055 0.508433
Si Si5 0.313106 0.203408 0.211834
Si Si6 0.974113 0.187596 0.862393
Si Si7 0.073406 0.403872 0.555682
Si Si8 0.564192 0.228471 0.028528
O O1 0.609021 0.714086 0.161983
O O2 0.624801 0.279260 0.084431
O O3 0.721097 0.569096 0.871926
O O4 0.827256 0.320885 0.983230
O O5 0.230826 0.487984 0.652711
O O6 0.058640 0.624162 0.650039
O O7 0.030506 0.375006 0.863467
O O8 0.025164 0.878642 0.862502
O O9 0.411458 0.633715 0.411983
O O10 0.557695 0.698072 0.423134
O O11 0.423166 0.117767 0.412122
O O12 0.213476 0.271200 0.397273
O O13 0.448780 0.136354 0.143273
O O14 0.327849 0.951903 0.139703
O O15 0.023617 0.209907 0.685788
O O16 0.000000 0.500000 0.500000
O O17 0.500000 0.500000 0.000000
#
# Coordination Sequence:
#
# PCOD9106566 Si02
#       8
#     2   2   2   2   2   2   2   2
#     4  11  23  37  60  89 126 161 206 257 315 369
#     4  10  23  41  64  88 126 165 210 263 298 366
#     4  10  24  40  73  95 125 159 199 265 320 380
#     4  10  22  47  66  99 122 156 210 255 324 381
#     4  10  20  40  54  87 121 163 213 248 309 365
#     4  10  24  39  60  91 122 170 211 247 306 362
#     4  10  22  38  59  86 122 173 210 254 291 358
#     4   9  22  35  55  83 123 161 202 259 307 366
#
# _framework density 23.140429000000001
#
# number of rings (size 3 to 8) (size 9 to 14) (size 15 to 20)
#    0.750    1.250    1.250    0.750    7.000    4.500 
#    0.000    1.250    0.000    0.000    0.000    0.000 
#    0.000    0.000    0.000    0.000    0.000    0.000 
#
# Total GULP energy -89331.763437 kJ/mol
# GULP energy per Si atom -5583.235215 kJ/mol
# Density = 2.308776 g / cm^3
# Si number density = 23.140429 Si / 1000 Ang^3
#
#
#
# Elastic Constant Matrix: (Units=GPa)
#
#
# Indices 1 2 3 4 5 6 
#
# 1 89.7640 52.5615 53.0201 15.4297 -23.0184 26.0991
# 2 52.5615 129.6949 60.6160 30.7891 -12.1282 23.6950
# 3 53.0201 60.6160 124.8212 21.9283 -15.2118 13.3923
# 4 15.4297 30.7891 21.9283 37.8047 -4.7895 14.3853
# 5 -23.0184 -12.1282 -15.2118 -4.7895 44.7554 -0.8187
# 6 26.0991 23.6950 13.3923 14.3853 -0.8187 30.3923
#
#
#
# Elastic Compliance Matrix: (Units=1/GPa)
#
#
# Indices 1 2 3 4 5 6 
#
# 1 0.023118 -0.003884 -0.005883 0.004398 0.009014 -0.016070
# 2 -0.003884 0.012583 -0.003212 -0.005997 -0.000362 -0.002231
# 3 -0.005883 -0.003212 0.012282 -0.003570 -0.000034 0.003833
# 4 0.004398 -0.005997 -0.003570 0.037862 0.003194 -0.015363
# 5 0.009014 -0.000362 -0.000034 0.003194 0.027062 -0.008227
# 6 -0.016070 -0.002231 0.003833 -0.015363 -0.008227 0.053803
#
#
# Mechanical properties :
#
#
# Convention : Reuss Voigt Hill
#
# Bulk Modulus (GPa) = 45.40538 75.18612 60.29575
# Shear Modulus (GPa) = 24.99875 34.46266 29.73070
#
# Velocity S-wave (km/s) = 3.29037 3.86331 3.58829
# Velocity P-wave (km/s) = 5.83949 7.24307 6.57881
#
# Compressibility (1/GPa) = 0.02202382
#
# Stress axis : x y z
#
# Youngs Moduli (GPa) = 43.25660 79.47184 81.41965
#
# Poissons Ratio (x) = 0.30870 0.47901
# Poissons Ratio (y) = 0.16802 0.26152
# Poissons Ratio (z) = 0.25449 0.25526
#
# Static dielectric constant tensor:
#      x y z
#    x 1.871740 -0.008170 0.028370 
#    y -0.008170 2.027710 -0.062990 
#    z 0.028370 -0.062990 1.877350 
# 
# From -- ./inp_files/536189.got.cif
#   From: 2010.05.17/outbox.cif.g08.bks.cpg/sg2_269_cif.got.tgz:536189.got - 2010.06.03 11:33:40.
