data_PCOD9106614
_publ_section_title
;
Structure prediction by ZEFSAII (Michael W. Deem and Ramdas Pophale) SiO2 
 PCOD9106614
Probable space group: P -1
;
_chemical_formula_sum "Si O2"
_cell_formula_units_Z 16
_cell_length_a 8.888939
_cell_length_b 8.713915
_cell_length_c 14.511771
_cell_angle_alpha 76.194837
_cell_angle_beta 139.691474
_cell_angle_gamma 113.830549
_cell_volume 660.553526
_symmetry_space_group_name_H-M "P -1"
_symmetry_group_IT_number 2
_symmetry_cell_setting 'triclinic'
loop_
_space_group_symop_operation_xyz
x,y,z
-x,-y,-z
loop_
_atom_site_type_symbol
_atom_site_label
_atom_site_fract_x
_atom_site_fract_y
_atom_site_fract_z
Si Si1 0.129198 0.498034 0.781936
Si Si2 0.592354 0.932902 0.643648
Si Si3 0.592919 0.435934 0.460675
Si Si4 0.964420 0.799243 0.082914
Si Si5 0.115681 0.963464 0.467232
Si Si6 0.804344 0.586193 0.361102
Si Si7 0.831880 0.126620 0.205425
Si Si8 0.304149 0.954743 0.058580
O O1 0.850347 0.422170 0.619964
O O2 0.138249 0.377699 0.887055
O O3 0.300557 0.496420 0.773936
O O4 0.164261 0.686024 0.801714
O O5 0.561249 0.740718 0.636074
O O6 0.380654 0.947695 0.611860
O O7 0.500000 0.000000 0.500000
O O8 0.847919 0.064687 0.779377
O O9 0.500000 0.500000 0.500000
O O10 0.638204 0.566523 0.377675
O O11 0.134527 0.811120 0.069949
O O12 0.752740 0.880192 0.955862
O O13 0.945451 0.780928 0.377827
O O14 0.000000 0.000000 0.500000
O O15 0.080611 0.100237 0.361194
O O16 0.000000 0.500000 0.500000
O O17 0.793235 0.087720 0.085370
O O18 0.597690 0.001302 0.172094
#
# Coordination Sequence:
#
# PCOD9106614 Si02
#       8
#     2   2   2   2   2   2   2   2
#     4  11  23  42  66  97 133 175 223 285 337 395
#     4  12  23  40  66 100 140 176 212 275 352 408
#     4  11  25  38  61 104 141 175 215 269 349 419
#     4  11  24  44  70  95 135 180 227 279 338 401
#     4  12  23  38  69 101 134 178 220 273 343 406
#     4  10  20  40  58  93 140 173 214 264 329 417
#     4  11  25  43  71  96 134 180 232 281 329 399
#     4  10  25  47  67  94 127 186 235 276 330 397
#
# _framework density 24.222107999999999
#
# number of rings (size 3 to 8) (size 9 to 14) (size 15 to 20)
#    0.000    1.000    3.750    3.750    7.000    2.000 
#    0.000    0.000    0.000    0.000    0.000    0.000 
#    0.000    0.000    0.000    0.000    0.000    0.000 
#
# Total GULP energy -89442.305387 kJ/mol
# GULP energy per Si atom -5590.144087 kJ/mol
# Density = 2.416698 g / cm^3
# Si number density = 24.222108 Si / 1000 Ang^3
#
#
#
# Elastic Constant Matrix: (Units=GPa)
#
#
# Indices 1 2 3 4 5 6 
#
# 1 162.5391 30.1205 29.9316 -4.8738 -30.0256 -7.5815
# 2 30.1205 80.0170 10.1276 -8.8848 -6.0370 -11.6493
# 3 29.9316 10.1276 63.0683 -7.9324 -3.0204 4.2537
# 4 -4.8738 -8.8848 -7.9324 32.8868 6.1622 -11.6283
# 5 -30.0256 -6.0370 -3.0204 6.1622 44.9357 -6.9062
# 6 -7.5815 -11.6493 4.2537 -11.6283 -6.9062 33.6695
#
#
#
# Elastic Compliance Matrix: (Units=1/GPa)
#
#
# Indices 1 2 3 4 5 6 
#
# 1 0.008297 -0.001882 -0.003583 -0.000209 0.005498 0.002725
# 2 -0.001882 0.015138 -0.001237 0.005873 0.000995 0.007203
# 3 -0.003583 -0.001237 0.018214 0.002881 -0.002190 -0.002990
# 4 -0.000209 0.005873 0.002881 0.038139 -0.002183 0.014345
# 5 0.005498 0.000995 -0.002190 -0.002183 0.027242 0.006693
# 6 0.002725 0.007203 -0.002990 0.014345 0.006693 0.039511
#
#
# Mechanical properties :
#
#
# Convention : Reuss Voigt Hill
#
# Bulk Modulus (GPa) = 35.40294 49.55376 42.47835
# Shear Modulus (GPa) = 29.52292 37.99470 33.75881
#
# Velocity S-wave (km/s) = 3.49498 3.96485 3.73730
# Velocity P-wave (km/s) = 5.56185 6.43914 6.01651
#
# Compressibility (1/GPa) = 0.02824624
#
# Stress axis : x y z
#
# Youngs Moduli (GPa) = 120.52157 66.05917 54.90308
#
# Poissons Ratio (x) = 0.12429 0.19669
# Poissons Ratio (y) = 0.22676 0.06794
# Poissons Ratio (z) = 0.43177 0.08174
#
# Static dielectric constant tensor:
#      x y z
#    x 2.154410 0.063000 0.040450 
#    y 0.063000 1.979460 -0.003520 
#    z 0.040450 -0.003520 1.957050 
# 
# From -- ./inp_files/494979.got.cif
#   From: 2010.05.17/outbox.cif.g08.bks.cpg/sg2_248_cif.got.tgz:494979.got - 2010.06.03 11:33:40.
