data_PCOD9106541
_publ_section_title
;
Structure prediction by ZEFSAII (Michael W. Deem and Ramdas Pophale) SiO2 
 PCOD9106541
Probable space group: P -1
;
_chemical_formula_sum "Si O2"
_cell_formula_units_Z 12
_cell_length_a 9.103779
_cell_length_b 13.631222
_cell_length_c 16.598705
_cell_angle_alpha 25.181809
_cell_angle_beta 141.463994
_cell_angle_gamma 128.965325
_cell_volume 521.198944
_symmetry_space_group_name_H-M "P -1"
_symmetry_group_IT_number 2
_symmetry_cell_setting 'triclinic'
loop_
_space_group_symop_operation_xyz
x,y,z
-x,-y,-z
loop_
_atom_site_type_symbol
_atom_site_label
_atom_site_fract_x
_atom_site_fract_y
_atom_site_fract_z
Si Si1 0.268537 0.525303 0.114901
Si Si2 0.425240 0.270384 0.024768
Si Si3 0.591978 0.996273 0.633010
Si Si4 0.277068 0.842506 0.209849
Si Si5 0.091059 0.446152 0.486528
Si Si6 0.177228 0.900654 0.940848
O O1 0.450426 0.261240 0.408416
O O2 0.376153 0.623291 0.009978
O O3 0.000000 0.500000 0.000000
O O4 0.256100 0.711525 0.043392
O O5 0.456567 0.208538 0.178421
O O6 0.439103 0.010294 0.183935
O O7 0.154087 0.449401 0.751742
O O8 0.500000 0.000000 0.500000
O O9 0.882993 0.952991 0.788782
O O10 0.282962 0.590199 0.439518
O O11 0.288934 0.819815 0.136233
O O12 0.000000 0.000000 0.000000
O O13 0.000000 0.500000 0.500000
O O14 0.205894 0.161086 0.738596
#
# Coordination Sequence:
#
# PCOD9106541 Si02
#       6
#     2   2   2   2   2   2
#     4  12  29  47  67 106 144 186 248 292 342 422
#     4  11  24  44  74 105 139 189 238 283 366 420
#     4  12  25  49  74  96 143 194 239 292 346 419
#     4  10  20  39  73 108 136 181 235 281 361 429
#     4  11  19  39  76 103 141 180 224 285 356 426
#     4  12  23  45  73 107 143 184 230 297 355 418
#
# _framework density 23.023837
#
# number of rings (size 3 to 8) (size 9 to 14) (size 15 to 20)
#    0.000    0.667   10.000    0.000    0.000    3.333 
#    3.000    1.667    0.000    0.000    0.000    0.000 
#    0.000    0.000    0.000    0.000    0.000    0.000 
#
# Total GULP energy -67227.581209 kJ/mol
# GULP energy per Si atom -5602.298434 kJ/mol
# Density = 2.297143 g / cm^3
# Si number density = 23.023837 Si / 1000 Ang^3
#
#
#
# Elastic Constant Matrix: (Units=GPa)
#
#
# Indices 1 2 3 4 5 6 
#
# 1 110.7108 32.2952 79.4672 5.5258 -20.6445 7.5785
# 2 32.2952 93.1132 47.8009 -1.1327 -15.3743 -18.1122
# 3 79.4672 47.8009 141.7914 -14.3079 -24.7787 -18.3034
# 4 5.5258 -1.1327 -14.3079 46.9637 -8.5123 -2.7125
# 5 -20.6445 -15.3743 -24.7787 -8.5123 53.3041 -8.3733
# 6 7.5785 -18.1122 -18.3034 -2.7125 -8.3733 56.2040
#
#
#
# Elastic Compliance Matrix: (Units=1/GPa)
#
#
# Indices 1 2 3 4 5 6 
#
# 1 0.018468 -0.002243 -0.011336 -0.006271 -0.000919 -0.007344
# 2 -0.002243 0.014090 -0.002320 0.000694 0.002944 0.004559
# 3 -0.011336 -0.002320 0.016831 0.007770 0.005169 0.007407
# 4 -0.006271 0.000694 0.007770 0.025917 0.006435 0.005809
# 5 -0.000919 0.002944 0.005169 0.006435 0.023721 0.006600
# 6 -0.007344 0.004559 0.007407 0.005809 0.006600 0.023928
#
#
# Mechanical properties :
#
#
# Convention : Reuss Voigt Hill
#
# Bulk Modulus (GPa) = 56.84267 73.86022 65.35145
# Shear Modulus (GPa) = 31.13026 43.69784 37.41405
#
# Velocity S-wave (km/s) = 3.68106 4.36126 4.03552
# Velocity P-wave (km/s) = 6.54287 7.58356 7.08236
#
# Compressibility (1/GPa) = 0.01759242
#
# Stress axis : x y z
#
# Youngs Moduli (GPa) = 54.14852 70.97283 59.41248
#
# Poissons Ratio (x) = 0.15916 0.67348
# Poissons Ratio (y) = 0.12143 0.13785
# Poissons Ratio (z) = 0.61381 0.16467
#
# Static dielectric constant tensor:
#      x y z
#    x 1.821010 -0.007030 -0.009380 
#    y -0.007030 1.888830 -0.007910 
#    z -0.009380 -0.007910 1.883620 
# 
# From -- ./inp_files/197132.got.cif
#   From: 2010.05.17/outbox.cif.g08.bks.cpg/sg2_99_cif.got.tgz:197132.got - 2010.06.03 11:33:40.
