data_PCOD9106602
_publ_section_title
;
Structure prediction by ZEFSAII (Michael W. Deem and Ramdas Pophale) SiO2 
 PCOD9106602
Probable space group: P -1
;
_chemical_formula_sum "Si O2"
_cell_formula_units_Z 16
_cell_length_a 5.435052
_cell_length_b 22.071800
_cell_length_c 9.944968
_cell_angle_alpha 36.118303
_cell_angle_beta 67.896346
_cell_angle_gamma 66.981256
_cell_volume 643.208661
_symmetry_space_group_name_H-M "P -1"
_symmetry_group_IT_number 2
_symmetry_cell_setting 'triclinic'
loop_
_space_group_symop_operation_xyz
x,y,z
-x,-y,-z
loop_
_atom_site_type_symbol
_atom_site_label
_atom_site_fract_x
_atom_site_fract_y
_atom_site_fract_z
Si Si1 0.883766 0.110385 0.011255
Si Si2 0.687948 0.828160 0.695488
Si Si3 0.877663 0.458829 0.734682
Si Si4 0.271675 0.945478 0.211663
Si Si5 0.255169 0.709281 0.104481
Si Si6 0.269410 0.567193 0.626085
Si Si7 0.328385 0.045083 0.297352
Si Si8 0.915722 0.237364 0.510189
O O1 0.928443 0.188254 0.984548
O O2 0.970429 0.174591 0.751002
O O3 0.563554 0.110745 0.092715
O O4 0.964995 0.991205 0.154741
O O5 0.838479 0.887430 0.672824
O O6 0.853971 0.782584 0.613629
O O7 0.462535 0.929643 0.527788
O O8 0.535107 0.739492 0.944086
O O9 0.875589 0.339383 0.909324
O O10 0.562973 0.508729 0.712525
O O11 0.000000 0.500000 0.500000
O O12 0.053544 0.493091 0.759234
O O13 0.214351 0.010799 0.243975
O O14 0.313610 0.822802 0.403781
O O15 0.500000 0.000000 0.000000
O O16 0.300644 0.632280 0.363570
O O17 0.167903 0.646111 0.627209
#
# Coordination Sequence:
#
# PCOD9106602 Si02
#       8
#     2   2   2   2   2   2   2   2
#     4  10  20  40  58  86 121 159 214 255 302 374
#     4  10  21  40  57  85 136 162 208 257 326 382
#     4  10  20  43  70  99 123 162 217 280 322 374
#     4  12  22  34  61  89 119 166 214 258 311 365
#     4   9  20  39  63  91 120 164 205 266 325 382
#     4  10  23  42  70  96 127 163 222 271 319 384
#     4  10  21  39  58  82 124 170 208 261 298 379
#     4  11  22  39  59  92 125 170 209 263 321 383
#
# _framework density 24.875288999999999
#
# number of rings (size 3 to 8) (size 9 to 14) (size 15 to 20)
#    0.000    1.750    2.500    2.625    0.000    4.500 
#    4.500    1.250    0.000    0.000    0.000    0.000 
#    0.000    0.000    0.000    0.000    0.000    0.000 
#
# Total GULP energy -89100.421838 kJ/mol
# GULP energy per Si atom -5568.776365 kJ/mol
# Density = 2.481867 g / cm^3
# Si number density = 24.875289 Si / 1000 Ang^3
#
#
#
# Elastic Constant Matrix: (Units=GPa)
#
#
# Indices 1 2 3 4 5 6 
#
# 1 158.8173 68.1528 21.9843 13.8112 6.1362 70.8543
# 2 68.1528 270.7629 67.8840 -29.9298 -26.6292 13.2063
# 3 21.9843 67.8840 73.6714 -0.1412 -28.3655 3.2358
# 4 13.8112 -29.9298 -0.1412 64.5460 13.9180 15.9926
# 5 6.1362 -26.6292 -28.3655 13.9180 45.2401 15.9136
# 6 70.8543 13.2063 3.2358 15.9926 15.9136 82.8229
#
#
#
# Elastic Compliance Matrix: (Units=1/GPa)
#
#
# Indices 1 2 3 4 5 6 
#
# 1 0.011763 -0.002437 -0.000767 -0.001362 0.000223 -0.009425
# 2 -0.002437 0.005762 -0.004830 0.003089 -0.000562 0.000867
# 3 -0.000767 -0.004830 0.023702 -0.004731 0.014028 -0.001281
# 4 -0.001362 0.003089 -0.004731 0.018947 -0.006228 -0.001604
# 5 0.000223 -0.000562 0.014028 -0.006228 0.034599 -0.006095
# 6 -0.009425 0.000867 -0.001281 -0.001604 -0.006095 0.021529
#
#
# Mechanical properties :
#
#
# Convention : Reuss Voigt Hill
#
# Bulk Modulus (GPa) = 39.74976 91.03264 65.39120
# Shear Modulus (GPa) = 35.52223 61.53716 48.52970
#
# Velocity S-wave (km/s) = 3.78301 4.97915 4.42171
# Velocity P-wave (km/s) = 5.92417 8.35051 7.23971
#
# Compressibility (1/GPa) = 0.02515738
#
# Stress axis : x y z
#
# Youngs Moduli (GPa) = 85.01105 173.55878 42.19082
#
# Poissons Ratio (x) = 0.42305 0.03236
# Poissons Ratio (y) = 0.20721 0.20379
# Poissons Ratio (z) = 0.06521 0.83831
#
# Static dielectric constant tensor:
#      x y z
#    x 1.980360 0.108010 -0.006380 
#    y 0.108010 2.035360 0.036690 
#    z -0.006380 0.036690 1.967690 
# 
# From -- ./inp_files/119262.got.cif
#   From: 2010.05.17/outbox.cif.g08.bks.cpg/sg2_60_cif.got.tgz:119262.got - 2010.06.03 11:33:40.
