data_PCOD9106986
_publ_section_title
;
Structure prediction by ZEFSAII (Michael W. Deem and Ramdas Pophale) SiO2 
 PCOD9106986
Probable space group: P -1
;
_chemical_formula_sum "Si O2"
_cell_formula_units_Z 16
_cell_length_a 12.428531
_cell_length_b 9.167546
_cell_length_c 9.862840
_cell_angle_alpha 90.585064
_cell_angle_beta 145.488705
_cell_angle_gamma 93.942121
_cell_volume 630.723170
_symmetry_space_group_name_H-M "P -1"
_symmetry_group_IT_number 2
_symmetry_cell_setting 'triclinic'
loop_
_space_group_symop_operation_xyz
x,y,z
-x,-y,-z
loop_
_atom_site_type_symbol
_atom_site_label
_atom_site_fract_x
_atom_site_fract_y
_atom_site_fract_z
Si Si1 0.274429 0.648285 0.304687
Si Si2 0.353607 0.691039 0.868674
Si Si3 0.577776 0.086016 0.716920
Si Si4 0.267938 0.401005 0.641035
Si Si5 0.027068 0.867228 0.625722
Si Si6 0.143448 0.340750 0.034485
Si Si7 0.589169 0.786479 0.852569
Si Si8 0.813323 0.806586 0.655507
O O1 0.288181 0.771789 0.200449
O O2 0.262645 0.492634 0.214109
O O3 0.445355 0.703451 0.587221
O O4 0.078862 0.646627 0.185068
O O5 0.230515 0.554000 0.664006
O O6 0.480577 0.772791 0.881398
O O7 0.221571 0.794975 0.806312
O O8 0.506754 0.614999 0.115697
O O9 0.387737 0.138003 0.584048
O O10 0.500000 0.000000 0.500000
O O11 0.639489 0.958046 0.872470
O O12 0.143516 0.265539 0.585388
O O13 0.201699 0.361019 0.418872
O O14 0.971526 0.896923 0.725318
O O15 0.000000 0.000000 0.500000
O O16 0.225326 0.294760 0.977199
O O17 0.164549 0.208715 0.162523
#
# Coordination Sequence:
#
# PCOD9106986 Si02
#       8
#     2   2   2   2   2   2   2   2
#     4  10  23  38  60  92 127 158 206 252 308 381
#     4  11  22  44  66  93 123 172 212 258 313 359
#     4  10  20  40  62  90 128 159 200 251 313 374
#     4   9  24  41  65  95 122 166 219 257 303 373
#     4  10  23  42  63  91 130 165 209 259 308 371
#     4  11  22  40  61  98 116 164 209 246 324 364
#     4  11  23  40  64  88 129 161 199 263 306 372
#     4  10  21  41  64  92 126 160 206 258 309 367
#
# _framework density 25.367706999999999
#
# number of rings (size 3 to 8) (size 9 to 14) (size 15 to 20)
#    0.750    1.000    2.500    2.250    1.750    3.000 
#    9.000    0.000    0.000    0.000    0.000    0.000 
#    0.000    0.000    0.000    0.000    0.000    0.000 
#
# Total GULP energy -89456.517575 kJ/mol
# GULP energy per Si atom -5591.032348 kJ/mol
# Density = 2.530997 g / cm^3
# Si number density = 25.367707 Si / 1000 Ang^3
#
#
#
# Elastic Constant Matrix: (Units=GPa)
#
#
# Indices 1 2 3 4 5 6 
#
# 1 116.0862 42.0126 19.3092 10.8640 21.6984 -1.1950
# 2 42.0126 117.1011 12.9640 4.7181 18.3176 4.9726
# 3 19.3092 12.9640 50.7900 -2.8072 24.4687 -3.8538
# 4 10.8640 4.7181 -2.8072 29.4978 -2.2430 3.7920
# 5 21.6984 18.3176 24.4687 -2.2430 42.6461 -8.4694
# 6 -1.1950 4.9726 -3.8538 3.7920 -8.4694 47.4191
#
#
#
# Elastic Compliance Matrix: (Units=1/GPa)
#
#
# Indices 1 2 3 4 5 6 
#
# 1 0.011066 -0.003068 -0.002033 -0.004052 -0.003326 0.000165
# 2 -0.003068 0.010235 -0.000087 -0.000539 -0.003146 -0.001677
# 3 -0.002033 -0.000087 0.027710 0.002353 -0.014828 -0.000627
# 4 -0.004052 -0.000539 0.002353 0.036183 0.002385 -0.002322
# 5 -0.003326 -0.003146 -0.014828 0.002385 0.036181 0.005312
# 6 0.000165 -0.001677 -0.000627 -0.002322 0.005312 0.022352
#
#
# Mechanical properties :
#
#
# Convention : Reuss Voigt Hill
#
# Bulk Modulus (GPa) = 25.88372 48.06099 36.97236
# Shear Modulus (GPa) = 29.94342 37.89202 33.91772
#
# Velocity S-wave (km/s) = 3.43939 3.86905 3.66053
# Velocity P-wave (km/s) = 5.09883 6.24069 5.69843
#
# Compressibility (1/GPa) = 0.03863432
#
# Stress axis : x y z
#
# Youngs Moduli (GPa) = 90.37060 97.70171 36.08807
#
# Poissons Ratio (x) = 0.29979 0.07335
# Poissons Ratio (y) = 0.27730 0.00315
# Poissons Ratio (z) = 0.18369 0.00852
#
# Static dielectric constant tensor:
#      x y z
#    x 2.014050 0.008690 -0.045830 
#    y 0.008690 1.971340 0.008740 
#    z -0.045830 0.008740 2.075430 
# 
# From -- ./inp_files/417463.got.cif
#   From: 2010.05.17/outbox.cif.g08.bks.cpg/sg2_209_cif.got.tgz:417463.got - 2010.06.03 11:33:40.
