data_PCOD9106000
_publ_section_title
;
Structure prediction by ZEFSAII (Michael W. Deem and Ramdas Pophale) SiO2 
 PCOD9106000
Probable space group: P -1
;
_chemical_formula_sum "Si O2"
_cell_formula_units_Z 16
_cell_length_a 12.129561
_cell_length_b 17.856090
_cell_length_c 20.738047
_cell_angle_alpha 18.310708
_cell_angle_beta 29.399447
_cell_angle_gamma 38.504281
_cell_volume 663.189487
_symmetry_space_group_name_H-M "P -1"
_symmetry_group_IT_number 2
_symmetry_cell_setting 'triclinic'
loop_
_space_group_symop_operation_xyz
x,y,z
-x,-y,-z
loop_
_atom_site_type_symbol
_atom_site_label
_atom_site_fract_x
_atom_site_fract_y
_atom_site_fract_z
Si Si1 0.296741 0.288544 0.091891
Si Si2 0.900244 0.893807 0.981905
Si Si3 0.953239 0.953512 0.356913
Si Si4 0.778760 0.545608 0.440958
Si Si5 0.449147 0.088253 0.045210
Si Si6 0.824331 0.179346 0.366135
Si Si7 0.735601 0.482492 0.784129
Si Si8 0.306822 0.096595 0.703779
O O1 0.061414 0.352236 0.137207
O O2 0.220805 0.071347 0.361887
O O3 0.391933 0.174729 0.074155
O O4 0.518563 0.491221 0.843522
O O5 0.002131 0.899248 0.853825
O O6 0.657734 0.964396 0.045454
O O7 0.833675 0.634886 0.266883
O O8 0.108838 0.083281 0.762031
O O9 0.769566 0.684639 0.657920
O O10 0.874372 0.099399 0.334772
O O11 0.205627 0.925840 0.272211
O O12 0.547098 0.328509 0.752934
O O13 0.768994 0.790161 0.285481
O O14 0.998697 0.459511 0.425879
O O15 0.580993 0.247660 0.434272
O O16 0.690950 0.190941 0.060827
#
# Coordination Sequence:
#
# PCOD9106000 Si02
#       8
#     2   2   2   2   2   2   2   2
#     4   9  19  37  68  91 116 172 212 261 310 360
#     4  11  22  39  65  95 130 171 201 264 331 370
#     4  11  24  40  65  98 130 174 210 258 323 389
#     4  11  23  40  68  97 131 161 216 275 309 380
#     4  11  23  42  67  97 127 166 221 262 319 381
#     4   9  20  42  65  91 133 164 220 262 305 390
#     4  10  20  39  66  99 126 162 216 265 320 384
#     4  10  22  40  63  97 128 167 216 267 315 372
#
# _framework density 24.125834000000001
#
# number of rings (size 3 to 8) (size 9 to 14) (size 15 to 20)
#    0.000    1.750    1.250    4.125    1.750    4.000 
#    2.250    2.500    8.250    0.000    0.000    0.000 
#    0.000    0.000    0.000    0.000    0.000    0.000 
#
# Total GULP energy -89438.349014 kJ/mol
# GULP energy per Si atom -5589.896813 kJ/mol
# Density = 2.407092 g / cm^3
# Si number density = 24.125834 Si / 1000 Ang^3
#
#
#
# Elastic Constant Matrix: (Units=GPa)
#
#
# Indices 1 2 3 4 5 6 
#
# 1 116.6624 26.3296 37.9074 0.5290 -14.0445 -12.0359
# 2 26.3296 70.8803 21.7812 5.2667 0.8090 -0.4584
# 3 37.9074 21.7812 90.4047 -5.4118 -15.8397 2.5084
# 4 0.5290 5.2667 -5.4118 38.7126 -2.1300 -0.9784
# 5 -14.0445 0.8090 -15.8397 -2.1300 61.6798 9.3126
# 6 -12.0359 -0.4584 2.5084 -0.9784 9.3126 42.5121
#
#
#
# Elastic Compliance Matrix: (Units=1/GPa)
#
#
# Indices 1 2 3 4 5 6 
#
# 1 0.010891 -0.002866 -0.003780 -0.000151 0.001083 0.003035
# 2 -0.002866 0.016384 -0.003217 -0.002740 -0.001770 -0.000120
# 3 -0.003780 -0.003217 0.014231 0.002595 0.003320 -0.002612
# 4 -0.000151 -0.002740 0.002595 0.026657 0.001582 0.000041
# 5 0.001083 -0.001770 0.003320 0.001582 0.017965 -0.003807
# 6 0.003035 -0.000120 -0.002612 0.000041 -0.003807 0.025370
#
#
# Mechanical properties :
#
#
# Convention : Reuss Voigt Hill
#
# Bulk Modulus (GPa) = 45.90951 49.99820 47.95385
# Shear Modulus (GPa) = 36.10585 41.37619 38.74102
#
# Velocity S-wave (km/s) = 3.87274 4.14577 4.01158
# Velocity P-wave (km/s) = 6.25044 6.60950 6.43247
#
# Compressibility (1/GPa) = 0.02178198
#
# Stress axis : x y z
#
# Youngs Moduli (GPa) = 91.82068 61.03424 70.27053
#
# Poissons Ratio (x) = 0.17490 0.26559
# Poissons Ratio (y) = 0.26312 0.22604
# Poissons Ratio (z) = 0.34704 0.19633
#
# Static dielectric constant tensor:
#      x y z
#    x 1.936480 -0.026830 0.017010 
#    y -0.026830 1.875760 0.003350 
#    z 0.017010 0.003350 2.023560 
# 
# From -- ./inp_files/595922.got.cif
#   From: 2010.05.17/outbox.cif.g08.bks.cpg/sg2_298_cif.got.tgz:595922.got - 2010.06.03 11:33:40.
