data_PCOD9106735
_publ_section_title
;
Structure prediction by ZEFSAII (Michael W. Deem and Ramdas Pophale) SiO2 
 PCOD9106735
Probable space group: P -1
;
_chemical_formula_sum "Si O2"
_cell_formula_units_Z 16
_cell_length_a 12.669765
_cell_length_b 22.814926
_cell_length_c 9.255877
_cell_angle_alpha 37.004621
_cell_angle_beta 117.880271
_cell_angle_gamma 146.673180
_cell_volume 705.318956
_symmetry_space_group_name_H-M "P -1"
_symmetry_group_IT_number 2
_symmetry_cell_setting 'triclinic'
loop_
_space_group_symop_operation_xyz
x,y,z
-x,-y,-z
loop_
_atom_site_type_symbol
_atom_site_label
_atom_site_fract_x
_atom_site_fract_y
_atom_site_fract_z
Si Si1 0.846167 0.351895 0.900000
Si Si2 0.766419 0.685855 0.703717
Si Si3 0.912761 0.120341 0.207991
Si Si4 0.509118 0.213188 0.173621
Si Si5 0.231934 0.779548 0.205169
Si Si6 0.827421 0.967656 0.914002
Si Si7 0.734570 0.459359 0.095423
Si Si8 0.329977 0.159782 0.633766
O O1 0.751614 0.264835 0.850323
O O2 0.045981 0.581668 0.570527
O O3 0.996882 0.364603 0.023031
O O4 0.632984 0.223801 0.126588
O O5 0.663712 0.721150 0.557071
O O6 0.859263 0.735827 0.827753
O O7 0.621958 0.487626 0.960509
O O8 0.991743 0.835496 0.444155
O O9 0.689171 0.960047 0.494155
O O10 0.874870 0.009366 0.282384
O O11 0.903232 0.214707 0.930712
O O12 0.381188 0.198208 0.010777
O O13 0.711948 0.399174 0.042009
O O14 0.500000 0.000000 0.000000
O O15 0.721313 0.928525 0.073864
O O16 0.000000 0.000000 0.000000
O O17 0.569275 0.295073 0.438876
#
# Coordination Sequence:
#
# PCOD9106735 Si02
#       8
#     2   2   2   2   2   2   2   2
#     4  11  25  43  64  93 140 168 213 272 316 382
#     4  10  20  40  60  92 120 161 210 261 316 379
#     4  10  21  40  62  92 121 162 217 256 316 389
#     4  10  23  40  64  89 128 174 210 264 325 376
#     4  11  24  41  64  97 132 167 217 263 324 381
#     4   9  21  40  60  89 123 161 211 262 317 375
#     4  11  22  41  60  91 126 166 216 261 317 385
#     4  10  21  37  65  86 125 162 204 265 321 376
#
# _framework density 22.684771999999999
#
# number of rings (size 3 to 8) (size 9 to 14) (size 15 to 20)
#    0.000    1.750    1.250    2.625    5.250    2.500 
#    2.250    2.500    0.000    0.000    0.000    0.000 
#    0.000    0.000    0.000    0.000    0.000    0.000 
#
# Total GULP energy -89221.312642 kJ/mol
# GULP energy per Si atom -5576.332040 kJ/mol
# Density = 2.263314 g / cm^3
# Si number density = 22.684772 Si / 1000 Ang^3
#
#
#
# Elastic Constant Matrix: (Units=GPa)
#
#
# Indices 1 2 3 4 5 6 
#
# 1 75.2795 22.3604 21.7491 12.5754 -13.3947 -6.6055
# 2 22.3604 94.2347 23.4872 13.1311 -13.5068 -6.3064
# 3 21.7491 23.4872 61.6787 16.6529 -1.4302 -10.5928
# 4 12.5754 13.1311 16.6529 28.8568 -6.1698 1.2557
# 5 -13.3947 -13.5068 -1.4302 -6.1698 33.9401 10.5523
# 6 -6.6055 -6.3064 -10.5928 1.2557 10.5523 39.8800
#
#
#
# Elastic Compliance Matrix: (Units=1/GPa)
#
#
# Indices 1 2 3 4 5 6 
#
# 1 0.016399 -0.001707 -0.004236 -0.002843 0.005076 0.000068
# 2 -0.001707 0.012767 -0.003631 -0.002121 0.003931 -0.000202
# 3 -0.004236 -0.003631 0.023270 -0.011605 -0.006412 0.006967
# 4 -0.002843 -0.002121 -0.011605 0.045627 0.008167 -0.007486
# 5 0.005076 0.003931 -0.006412 0.008167 0.037484 -0.010416
# 6 0.000068 -0.000202 0.006967 -0.007486 -0.010416 0.029897
#
#
# Mechanical properties :
#
#
# Convention : Reuss Voigt Hill
#
# Bulk Modulus (GPa) = 30.03929 40.70960 35.37444
# Shear Modulus (GPa) = 25.55089 31.44180 28.49634
#
# Velocity S-wave (km/s) = 3.35975 3.72698 3.54812
# Velocity P-wave (km/s) = 5.32178 6.04196 5.69327
#
# Compressibility (1/GPa) = 0.03328974
#
# Stress axis : x y z
#
# Youngs Moduli (GPa) = 60.98060 78.32478 42.97319
#
# Poissons Ratio (x) = 0.13372 0.18201
# Poissons Ratio (y) = 0.10411 0.15601
# Poissons Ratio (z) = 0.25829 0.28436
#
# Static dielectric constant tensor:
#      x y z
#    x 1.856840 0.032910 0.002400 
#    y 0.032910 1.849820 -0.055350 
#    z 0.002400 -0.055350 1.953210 
# 
# From -- ./inp_files/282761.got.cif
#   From: 2010.05.17/outbox.cif.g08.bks.cpg/sg2_142_cif.got.tgz:282761.got - 2010.06.03 11:33:40.
