data_PCOD9106750
_publ_section_title
;
Structure prediction by ZEFSAII (Michael W. Deem and Ramdas Pophale) SiO2 
 PCOD9106750
Probable space group: P -1
;
_chemical_formula_sum "Si O2"
_cell_formula_units_Z 15
_cell_length_a 14.161416
_cell_length_b 14.235318
_cell_length_c 13.505917
_cell_angle_alpha 42.883631
_cell_angle_beta 158.984202
_cell_angle_gamma 139.496695
_cell_volume 631.095024
_symmetry_space_group_name_H-M "P -1"
_symmetry_group_IT_number 2
_symmetry_cell_setting 'triclinic'
loop_
_space_group_symop_operation_xyz
x,y,z
-x,-y,-z
loop_
_atom_site_type_symbol
_atom_site_label
_atom_site_fract_x
_atom_site_fract_y
_atom_site_fract_z
Si Si1 0.987022 0.430681 0.677679
Si Si2 0.182105 0.815053 0.136970
Si Si3 0.843473 0.717862 0.338327
Si Si4 0.573764 0.697728 0.878686
Si Si5 0.606321 0.819358 0.208667
Si Si6 0.202944 0.989006 0.381176
Si Si7 0.880881 0.152705 0.174607
Si Si8 0.000000 0.000000 0.000000
O O1 0.892183 0.327921 0.760461
O O2 0.982474 0.591652 0.572674
O O3 0.269252 0.406632 0.937153
O O4 0.747329 0.371696 0.406738
O O5 0.506405 0.901325 0.390925
O O6 0.092389 0.789553 0.955073
O O7 0.021317 0.925724 0.936512
O O8 0.652926 0.711540 0.060792
O O9 0.665968 0.716870 0.262989
O O10 0.080271 0.874683 0.435394
O O11 0.714029 0.855506 0.847236
O O12 0.822140 0.830346 0.500884
O O13 0.699692 0.981741 0.127703
O O14 0.298913 0.779248 0.982066
O O15 0.180011 0.913765 0.311309
#
# Coordination Sequence:
#
# PCOD9106750 Si02
#       8
#     2   2   2   2   2   2   2   1
#     4  12  25  45  65  96 140 172 211 261 334 383
#     4  12  22  43  64  96 125 172 211 268 319 384
#     4  11  26  43  67  98 132 176 216 266 319 401
#     4  11  25  42  66  97 134 176 213 265 317 386
#     4  10  22  40  63  95 124 165 215 270 325 371
#     4  11  24  38  65  93 131 164 225 253 319 374
#     4  10  22  39  65  92 127 161 216 278 318 375
#     4  10  20  40  60  96 124 166 214 268 296 374
#
# _framework density 23.768211999999998
#
# number of rings (size 3 to 8) (size 9 to 14) (size 15 to 20)
#    0.000    1.067    4.000    1.600    3.733    8.533 
#    0.000    1.333    0.000    0.000    0.000    0.000 
#    0.000    0.000    0.000    0.000    0.000    0.000 
#
# Total GULP energy -83904.644178 kJ/mol
# GULP energy per Si atom -5593.642945 kJ/mol
# Density = 2.371411 g / cm^3
# Si number density = 23.768212 Si / 1000 Ang^3
#
#
#
# Elastic Constant Matrix: (Units=GPa)
#
#
# Indices 1 2 3 4 5 6 
#
# 1 106.9094 26.0678 25.0555 -18.4771 -8.5189 0.6075
# 2 26.0678 63.4720 19.4513 -16.7398 9.7307 16.4302
# 3 25.0555 19.4513 80.9952 -17.1772 12.6627 7.5251
# 4 -18.4771 -16.7398 -17.1772 32.6202 -1.4644 4.1877
# 5 -8.5189 9.7307 12.6627 -1.4644 44.5305 -10.8729
# 6 0.6075 16.4302 7.5251 4.1877 -10.8729 30.0604
#
#
#
# Elastic Compliance Matrix: (Units=1/GPa)
#
#
# Indices 1 2 3 4 5 6 
#
# 1 0.012414 -0.006131 -0.003592 0.001498 0.006264 0.006056
# 2 -0.006131 0.029995 0.002395 0.015648 -0.013761 -0.024027
# 3 -0.003592 0.002395 0.016954 0.008999 -0.008095 -0.009663
# 4 0.001498 0.015648 0.008999 0.046510 -0.009203 -0.020644
# 5 0.006264 -0.013761 -0.008095 -0.009203 0.034304 0.023111
# 6 0.006056 -0.024027 -0.009663 -0.020644 0.023111 0.059931
#
#
# Mechanical properties :
#
#
# Convention : Reuss Voigt Hill
#
# Bulk Modulus (GPa) = 22.36727 43.61396 32.99062
# Shear Modulus (GPa) = 21.77075 33.49570 27.63322
#
# Velocity S-wave (km/s) = 3.02977 3.75809 3.41341
# Velocity P-wave (km/s) = 4.65514 6.10086 5.42636
#
# Compressibility (1/GPa) = 0.04470818
#
# Stress axis : x y z
#
# Youngs Moduli (GPa) = 80.55425 33.33897 58.98223
#
# Poissons Ratio (x) = 0.20439 0.21188
# Poissons Ratio (y) = 0.49384 -0.14128
# Poissons Ratio (z) = 0.28937 -0.07986
#
# Static dielectric constant tensor:
#      x y z
#    x 5.496110 -1.485680 0.099170 
#    y -1.485680 2.545070 -0.031780 
#    z 0.099170 -0.031780 1.931300 
# 
# From -- ./inp_files/534301.got.cif
#   From: 2010.05.17/outbox.cif.g08.bks.cpg/sg2_268_cif.got.tgz:534301.got - 2010.06.03 11:33:40.
