data_PCOD9106127
_publ_section_title
;
Structure prediction by ZEFSAII (Michael W. Deem and Ramdas Pophale) SiO2 
 PCOD9106127
Probable space group: P -1
;
_chemical_formula_sum "Si O2"
_cell_formula_units_Z 14
_cell_length_a 17.118336
_cell_length_b 9.471726
_cell_length_c 13.800055
_cell_angle_alpha 24.421022
_cell_angle_beta 51.691511
_cell_angle_gamma 46.927424
_cell_volume 675.752099
_symmetry_space_group_name_H-M "P -1"
_symmetry_group_IT_number 2
_symmetry_cell_setting 'triclinic'
loop_
_space_group_symop_operation_xyz
x,y,z
-x,-y,-z
loop_
_atom_site_type_symbol
_atom_site_label
_atom_site_fract_x
_atom_site_fract_y
_atom_site_fract_z
Si Si1 0.293849 0.890956 0.665953
Si Si2 0.932508 0.401858 0.258452
Si Si3 0.393805 0.374029 0.359164
Si Si4 0.749648 0.300101 0.554843
Si Si5 0.124411 0.556829 0.950559
Si Si6 0.451059 0.416703 0.992207
Si Si7 0.608536 0.270063 0.507316
O O1 0.368118 0.660953 0.664107
O O2 0.304123 0.292204 0.413722
O O3 0.185492 0.816246 0.780038
O O4 0.350823 0.722376 0.827475
O O5 0.830716 0.511542 0.339327
O O6 0.012844 0.620953 0.052012
O O7 0.898618 0.382008 0.184883
O O8 0.000000 0.000000 0.500000
O O9 0.343624 0.479383 0.437373
O O10 0.500000 0.000000 0.500000
O O11 0.444474 0.673581 0.101146
O O12 0.702301 0.271196 0.504592
O O13 0.806115 0.880171 0.813059
O O14 0.402944 0.117481 0.240817
O O15 0.500000 0.500000 0.000000
O O16 0.500000 0.500000 0.500000
#
# Coordination Sequence:
#
# PCOD9106127 Si02
#       7
#     2   2   2   2   2   2   2
#     4  11  22  40  58  89 122 164 206 252 309 369
#     4   9  20  39  67  94 122 150 203 269 322 363
#     4  10  23  40  57  86 134 170 201 244 302 370
#     4  11  22  39  62  94 124 163 208 257 308 362
#     4  10  20  39  67  95 117 157 212 260 312 369
#     4  11  23  39  55  81 125 170 204 246 304 353
#     4  12  24  35  60  89 122 164 212 255 295 365
#
# _framework density 20.717656000000002
#
# number of rings (size 3 to 8) (size 9 to 14) (size 15 to 20)
#    0.000    1.429    4.286    1.714    4.000    1.143 
#    0.000    0.714    0.000    7.714    0.000    0.000 
#    0.000    0.000    0.000    0.000    0.000    0.000 
#
# Total GULP energy -77934.517331 kJ/mol
# GULP energy per Si atom -5566.751238 kJ/mol
# Density = 2.067050 g / cm^3
# Si number density = 20.717656 Si / 1000 Ang^3
#
#
#
# Elastic Constant Matrix: (Units=GPa)
#
#
# Indices 1 2 3 4 5 6 
#
# 1 114.7684 11.4333 28.8017 10.2831 -19.5998 1.7758
# 2 11.4333 59.4696 10.6248 27.5650 -4.0109 1.6320
# 3 28.8017 10.6248 54.3924 25.1674 -13.1065 -10.5305
# 4 10.2831 27.5650 25.1674 32.8340 -9.0771 -7.6619
# 5 -19.5998 -4.0109 -13.1065 -9.0771 57.9409 10.2270
# 6 1.7758 1.6320 -10.5305 -7.6619 10.2270 24.1501
#
#
#
# Elastic Compliance Matrix: (Units=1/GPa)
#
#
# Indices 1 2 3 4 5 6 
#
# 1 0.011014 -0.002402 -0.007227 0.004101 0.003251 -0.003875
# 2 -0.002402 0.032643 0.009918 -0.036495 -0.000419 -0.009105
# 3 -0.007227 0.009918 0.036536 -0.032724 0.000459 0.005216
# 4 0.004101 -0.036495 -0.032724 0.089163 0.002778 0.015007
# 5 0.003251 -0.000419 0.000459 0.002778 0.020227 -0.007695
# 6 -0.003875 -0.009105 0.005216 0.015007 -0.007695 0.052602
#
#
# Mechanical properties :
#
#
# Convention : Reuss Voigt Hill
#
# Bulk Modulus (GPa) = 12.38080 36.70554 24.54317
# Shear Modulus (GPa) = 18.61984 34.83638 26.72811
#
# Velocity S-wave (km/s) = 3.00116 4.10504 3.59571
# Velocity P-wave (km/s) = 4.24243 6.34223 5.39547
#
# Compressibility (1/GPa) = 0.08077025
#
# Stress axis : x y z
#
# Youngs Moduli (GPa) = 90.79469 30.63486 27.36994
#
# Poissons Ratio (x) = 0.07357 0.19781
# Poissons Ratio (y) = 0.21806 -0.27145
# Poissons Ratio (z) = 0.65620 -0.30383
#
# Static dielectric constant tensor:
#      x y z
#    x 1.357560 -0.788340 0.500480 
#    y -0.788340 0.393160 0.914300 
#    z 0.500480 0.914300 1.206290 
# 
# From -- ./inp_files/93050.got.cif
#   From: 2010.05.17/outbox.cif.g08.bks.cpg/sg2_47_cif.got.tgz:93050.got - 2010.06.03 11:33:40.
