data_PCOD9106853
_publ_section_title
;
Structure prediction by ZEFSAII (Michael W. Deem and Ramdas Pophale) SiO2 
 PCOD9106853
Probable space group: P -1
;
_chemical_formula_sum "Si O2"
_cell_formula_units_Z 13
_cell_length_a 12.380971
_cell_length_b 9.839585
_cell_length_c 13.312284
_cell_angle_alpha 42.837962
_cell_angle_beta 137.916122
_cell_angle_gamma 103.683207
_cell_volume 545.175696
_symmetry_space_group_name_H-M "P -1"
_symmetry_group_IT_number 2
_symmetry_cell_setting 'triclinic'
loop_
_space_group_symop_operation_xyz
x,y,z
-x,-y,-z
loop_
_atom_site_type_symbol
_atom_site_label
_atom_site_fract_x
_atom_site_fract_y
_atom_site_fract_z
Si Si1 0.849195 0.225994 0.418349
Si Si2 0.436713 0.282944 0.920876
Si Si3 0.098519 0.207190 0.418960
Si Si4 0.642203 0.334904 0.511781
Si Si5 0.992182 0.277309 0.889539
Si Si6 0.500000 0.500000 0.500000
Si Si7 0.170204 0.121285 0.868006
O O1 0.626960 0.520355 0.137680
O O2 0.921442 0.260837 0.343389
O O3 0.010737 0.157037 0.657014
O O4 0.864965 0.975601 0.548364
O O5 0.420360 0.447479 0.727777
O O6 0.262559 0.250733 0.818027
O O7 0.673563 0.990817 0.255496
O O8 0.034223 0.489205 0.204128
O O9 0.448821 0.412135 0.401517
O O10 0.760903 0.348426 0.685033
O O11 0.822620 0.022567 0.774563
O O12 0.055952 0.248989 0.830064
O O13 0.629894 0.191901 0.804481
#
# Coordination Sequence:
#
# PCOD9106853 Si02
#       7
#     2   2   2   2   2   1   2
#     4  11  23  41  62  96 129 171 205 268 311 385
#     4  12  22  41  68  98 119 173 215 266 298 390
#     4  11  24  39  65  92 135 164 214 254 330 364
#     4  10  21  36  64  90 129 155 223 253 318 356
#     4  10  20  40  61  93 122 173 199 268 309 383
#     4  10  22  36  60 100 124 162 204 276 302 378
#     4  11  21  40  70  92 131 158 224 255 320 365
#
# _framework density 23.845526
#
# number of rings (size 3 to 8) (size 9 to 14) (size 15 to 20)
#    0.000    1.231    3.077    3.692    0.000    1.846 
#    0.000    0.769    3.385    3.692    0.000    0.000 
#    0.000    0.000    0.000    0.000    0.000    0.000 
#
# Total GULP energy -72538.385359 kJ/mol
# GULP energy per Si atom -5579.875797 kJ/mol
# Density = 2.379125 g / cm^3
# Si number density = 23.845526 Si / 1000 Ang^3
#
#
#
# Elastic Constant Matrix: (Units=GPa)
#
#
# Indices 1 2 3 4 5 6 
#
# 1 73.5363 4.6978 23.9740 -11.8831 -1.2922 -12.5246
# 2 4.6978 115.4565 28.3245 -38.3432 -11.1498 11.1875
# 3 23.9740 28.3245 121.1025 -39.6576 -15.0288 6.1321
# 4 -11.8831 -38.3432 -39.6576 43.8581 -3.0780 -1.3239
# 5 -1.2922 -11.1498 -15.0288 -3.0780 34.9216 -13.5361
# 6 -12.5246 11.1875 6.1321 -1.3239 -13.5361 24.3046
#
#
#
# Elastic Compliance Matrix: (Units=1/GPa)
#
#
# Indices 1 2 3 4 5 6 
#
# 1 0.017031 0.000324 -0.002334 0.003480 0.004695 0.012021
# 2 0.000324 0.013688 0.002291 0.014429 0.005539 -0.002841
# 3 -0.002334 0.002291 0.013897 0.014449 0.007614 -0.000736
# 4 0.003480 0.014429 0.014449 0.050715 0.016837 0.003645
# 5 0.004695 0.005539 0.007614 0.016837 0.044507 0.023654
# 6 0.012021 -0.002841 -0.000736 0.003645 0.023654 0.062204
#
#
# Mechanical properties :
#
#
# Convention : Reuss Voigt Hill
#
# Bulk Modulus (GPa) = 22.13463 47.12088 34.62775
# Shear Modulus (GPa) = 23.09031 37.49013 30.29022
#
# Velocity S-wave (km/s) = 3.11517 3.96941 3.56795
# Velocity P-wave (km/s) = 4.71612 6.38843 5.61488
#
# Compressibility (1/GPa) = 0.04517808
#
# Stress axis : x y z
#
# Youngs Moduli (GPa) = 58.71640 73.05566 71.95540
#
# Poissons Ratio (x) = -0.02366 0.16793
# Poissons Ratio (y) = -0.01901 -0.16482
# Poissons Ratio (z) = 0.13703 -0.16735
#
# Static dielectric constant tensor:
#      x y z
#    x 2.230280 -0.065820 0.157100 
#    y -0.065820 1.947950 0.001680 
#    z 0.157100 0.001680 1.982380 
# 
# From -- ./inp_files/245741.got.cif
#   From: 2010.05.17/outbox.cif.g08.bks.cpg/sg2_123_cif.got.tgz:245741.got - 2010.06.03 11:33:40.
