data_PCOD9106819
_publ_section_title
;
Structure prediction by ZEFSAII (Michael W. Deem and Ramdas Pophale) SiO2 
 PCOD9106819
Probable space group: P -1
;
_chemical_formula_sum "Si O2"
_cell_formula_units_Z 16
_cell_length_a 6.568027
_cell_length_b 16.043416
_cell_length_c 9.088470
_cell_angle_alpha 83.555409
_cell_angle_beta 104.969176
_cell_angle_gamma 62.908426
_cell_volume 793.708826
_symmetry_space_group_name_H-M "P -1"
_symmetry_group_IT_number 2
_symmetry_cell_setting 'triclinic'
loop_
_space_group_symop_operation_xyz
x,y,z
-x,-y,-z
loop_
_atom_site_type_symbol
_atom_site_label
_atom_site_fract_x
_atom_site_fract_y
_atom_site_fract_z
Si Si1 0.340060 0.468414 0.296925
Si Si2 0.319210 0.642873 0.863089
Si Si3 0.440527 0.397383 0.650896
Si Si4 0.040999 0.998774 0.332187
Si Si5 0.706758 0.170179 0.812346
Si Si6 0.529732 0.088701 0.046085
Si Si7 0.920378 0.848198 0.867727
Si Si8 0.180648 0.479861 0.873889
O O1 0.582218 0.385309 0.277978
O O2 0.340323 0.426259 0.463238
O O3 0.373649 0.561696 0.298081
O O4 0.094075 0.496017 0.157017
O O5 0.221252 0.569908 0.899552
O O6 0.113321 0.749778 0.842665
O O7 0.572618 0.612713 0.999819
O O8 0.573874 0.283237 0.727136
O O9 0.224059 0.456196 0.713251
O O10 0.149083 0.065227 0.278318
O O11 0.778684 0.046495 0.192922
O O12 0.206873 0.894295 0.306495
O O13 0.000000 0.000000 0.500000
O O14 0.542307 0.145200 0.893661
O O15 0.940962 0.140778 0.966400
O O16 0.310726 0.151706 0.105378
O O17 0.500000 0.000000 0.000000
#
# Coordination Sequence:
#
# PCOD9106819 Si02
#       8
#     2   2   2   2   2   2   2   2
#     4  10  22  40  65  86 133 168 204 266 325 371
#     4  10  22  38  60  95 125 158 212 265 308 376
#     4  10  22  40  60  95 125 166 214 258 317 382
#     4  11  25  42  66  96 135 161 204 278 324 371
#     4  11  22  42  66  93 129 166 216 263 312 386
#     4  11  21  44  69  91 122 177 216 257 317 386
#     4  11  22  43  66  91 129 169 217 256 314 390
#     4  10  20  40  61  89 125 163 210 260 313 376
#
# _framework density 20.158526999999999
#
# number of rings (size 3 to 8) (size 9 to 14) (size 15 to 20)
#    0.000    1.500    3.750    1.500    1.750    3.500 
#    0.000    0.000    0.000    0.000    0.000    0.000 
#    0.000    0.000    0.000    0.000    0.000    0.000 
#
# Total GULP energy -89309.412506 kJ/mol
# GULP energy per Si atom -5581.838282 kJ/mol
# Density = 2.011265 g / cm^3
# Si number density = 20.158527 Si / 1000 Ang^3
#
#
#
# Elastic Constant Matrix: (Units=GPa)
#
#
# Indices 1 2 3 4 5 6 
#
# 1 93.9648 33.4163 26.6188 -8.3958 -8.1310 -13.8972
# 2 33.4163 123.0786 52.6791 -0.7191 -17.0331 -14.0437
# 3 26.6188 52.6791 101.3777 5.2901 -20.1864 3.1718
# 4 -8.3958 -0.7191 5.2901 21.1989 -0.8720 -8.2452
# 5 -8.1310 -17.0331 -20.1864 -0.8720 33.2179 3.5551
# 6 -13.8972 -14.0437 3.1718 -8.2452 3.5551 22.2176
#
#
#
# Elastic Compliance Matrix: (Units=1/GPa)
#
#
# Indices 1 2 3 4 5 6 
#
# 1 0.015695 -0.000214 -0.005378 0.013595 -0.000852 0.015631
# 2 -0.000214 0.012612 -0.006940 0.006409 0.001186 0.011018
# 3 -0.005378 -0.006940 0.017468 -0.012691 0.007129 -0.016095
# 4 0.013595 0.006409 -0.012691 0.071999 -0.003668 0.041673
# 5 -0.000852 0.001186 0.007129 -0.003668 0.035581 -0.007856
# 6 0.015631 0.011018 -0.016095 0.041673 -0.007856 0.080771
#
#
# Mechanical properties :
#
#
# Convention : Reuss Voigt Hill
#
# Bulk Modulus (GPa) = 48.28574 60.42773 54.35674
# Shear Modulus (GPa) = 18.79031 29.04069 23.91550
#
# Velocity S-wave (km/s) = 3.05639 3.79966 3.44811
# Velocity P-wave (km/s) = 6.03824 7.02077 6.54796
#
# Compressibility (1/GPa) = 0.02071005
#
# Stress axis : x y z
#
# Youngs Moduli (GPa) = 63.71568 79.28658 57.24727
#
# Poissons Ratio (x) = 0.01700 0.30786
# Poissons Ratio (y) = 0.01366 0.39732
# Poissons Ratio (z) = 0.34264 0.55029
#
# Static dielectric constant tensor:
#      x y z
#    x 1.741090 0.007390 -0.020820 
#    y 0.007390 1.701520 0.025650 
#    z -0.020820 0.025650 1.743490 
# 
# From -- ./inp_files/135166.got.cif
#   From: 2010.05.17/outbox.cif.g08.bks.cpg/sg2_68_cif.got.tgz:135166.got - 2010.06.03 11:33:40.
