data_PCOD9106356
_publ_section_title
;
Structure prediction by ZEFSAII (Michael W. Deem and Ramdas Pophale) SiO2 
 PCOD9106356
Probable space group: P -1
;
_chemical_formula_sum "Si O2"
_cell_formula_units_Z 16
_cell_length_a 22.521089
_cell_length_b 5.246548
_cell_length_c 8.768184
_cell_angle_alpha 94.909768
_cell_angle_beta 41.350225
_cell_angle_gamma 100.690878
_cell_volume 670.280788
_symmetry_space_group_name_H-M "P -1"
_symmetry_group_IT_number 2
_symmetry_cell_setting 'triclinic'
loop_
_space_group_symop_operation_xyz
x,y,z
-x,-y,-z
loop_
_atom_site_type_symbol
_atom_site_label
_atom_site_fract_x
_atom_site_fract_y
_atom_site_fract_z
Si Si1 0.127795 0.878850 0.274649
Si Si2 0.023727 0.130137 0.224817
Si Si3 0.232034 0.339745 0.305481
Si Si4 0.399824 0.557747 0.158901
Si Si5 0.586564 0.497030 0.545206
Si Si6 0.459352 0.934395 0.806603
Si Si7 0.077725 0.325391 0.828525
Si Si8 0.707098 0.314174 0.070885
O O1 0.074959 0.007824 0.253129
O O2 0.185896 0.084570 0.290778
O O3 0.048295 0.728557 0.535052
O O4 0.205985 0.770693 0.025017
O O5 0.093604 0.277515 0.973991
O O6 0.965927 0.917268 0.209972
O O7 0.335042 0.352657 0.167157
O O8 0.171017 0.421342 0.563386
O O9 0.243362 0.558054 0.167704
O O10 0.357971 0.513234 0.404966
O O11 0.500000 0.500000 0.000000
O O12 0.415399 0.834456 0.053175
O O13 0.527373 0.723222 0.648579
O O14 0.658123 0.504991 0.272286
O O15 0.517872 0.217782 0.678016
O O16 0.378430 0.891396 0.837263
O O17 0.000000 0.500000 0.000000
#
# Coordination Sequence:
#
# PCOD9106356 Si02
#       8
#     2   2   2   2   2   2   2   2
#     4  10  22  40  63  90 135 166 214 267 335 397
#     4   9  21  41  62  98 125 169 209 268 332 403
#     4  10  23  40  59  94 123 174 215 270 325 400
#     4   9  21  41  62  89 131 170 223 272 330 390
#     4  11  23  41  64  97 127 179 223 281 335 393
#     4  10  23  41  66  91 133 174 227 276 339 393
#     4  10  20  39  69  90 129 163 213 266 334 394
#     4  11  24  37  63  91 129 165 222 269 329 401
#
# _framework density 23.870591000000001
#
# number of rings (size 3 to 8) (size 9 to 14) (size 15 to 20)
#    0.000    2.000    0.000    1.875    7.000    3.000 
#    4.500    5.000    0.000    0.000    0.000    0.000 
#    0.000    0.000    0.000    0.000    0.000    0.000 
#
# Total GULP energy -89157.936822 kJ/mol
# GULP energy per Si atom -5572.371051 kJ/mol
# Density = 2.381626 g / cm^3
# Si number density = 23.870591 Si / 1000 Ang^3
#
#
#
# Elastic Constant Matrix: (Units=GPa)
#
#
# Indices 1 2 3 4 5 6 
#
# 1 85.2589 2.4586 44.5175 -1.5238 -2.0381 -6.2513
# 2 2.4586 57.5267 21.5296 2.8711 3.0882 -1.4885
# 3 44.5175 21.5296 122.1111 7.1971 13.5708 -15.2185
# 4 -1.5238 2.8711 7.1971 27.8713 -6.8536 -0.2619
# 5 -2.0381 3.0882 13.5708 -6.8536 28.4182 2.4182
# 6 -6.2513 -1.4885 -15.2185 -0.2619 2.4182 28.1955
#
#
#
# Elastic Compliance Matrix: (Units=1/GPa)
#
#
# Indices 1 2 3 4 5 6 
#
# 1 0.015321 0.001374 -0.006672 0.003659 0.005064 -0.000532
# 2 0.001374 0.018798 -0.003821 -0.000952 -0.000285 -0.000750
# 3 -0.006672 -0.003821 0.013293 -0.005370 -0.008230 0.006150
# 4 0.003659 -0.000952 -0.005370 0.040733 0.012998 -0.002874
# 5 0.005064 -0.000285 -0.008230 0.012998 0.043237 -0.006922
# 6 -0.000532 -0.000750 0.006150 -0.002874 -0.006922 0.039195
#
#
# Mechanical properties :
#
#
# Convention : Reuss Voigt Hill
#
# Bulk Modulus (GPa) = 34.27790 44.65645 39.46718
# Shear Modulus (GPa) = 25.18388 29.98973 27.58681
#
# Velocity S-wave (km/s) = 3.25163 3.54834 3.40322
# Velocity P-wave (km/s) = 5.33746 5.96121 5.65794
#
# Compressibility (1/GPa) = 0.02917331
#
# Stress axis : x y z
#
# Youngs Moduli (GPa) = 65.27087 53.19738 75.22753
#
# Poissons Ratio (x) = -0.07310 0.50196
# Poissons Ratio (y) = -0.08969 0.28744
# Poissons Ratio (z) = 0.43552 0.20326
#
# Static dielectric constant tensor:
#      x y z
#    x 2.080580 -0.007240 -0.010020 
#    y -0.007240 2.062860 0.032670 
#    z -0.010020 0.032670 2.070640 
# 
# From -- ./inp_files/340385.got.cif
#   From: 2010.05.17/outbox.cif.g08.bks.cpg/sg2_171_cif.got.tgz:340385.got - 2010.06.03 11:33:40.
