data_PCOD9106777
_publ_section_title
;
Structure prediction by ZEFSAII (Michael W. Deem and Ramdas Pophale) SiO2 
 PCOD9106777
Probable space group: P -1
;
_chemical_formula_sum "Si O2"
_cell_formula_units_Z 16
_cell_length_a 13.880793
_cell_length_b 9.154750
_cell_length_c 7.644348
_cell_angle_alpha 128.811436
_cell_angle_beta 97.508057
_cell_angle_gamma 68.356055
_cell_volume 696.757268
_symmetry_space_group_name_H-M "P -1"
_symmetry_group_IT_number 2
_symmetry_cell_setting 'triclinic'
loop_
_space_group_symop_operation_xyz
x,y,z
-x,-y,-z
loop_
_atom_site_type_symbol
_atom_site_label
_atom_site_fract_x
_atom_site_fract_y
_atom_site_fract_z
Si Si1 0.794975 0.833396 0.974081
Si Si2 0.081518 0.673859 0.033516
Si Si3 0.430279 0.879512 0.961580
Si Si4 0.058994 0.560248 0.326651
Si Si5 0.335041 0.956586 0.378528
Si Si6 0.896006 0.929087 0.760015
Si Si7 0.276820 0.332184 0.857745
Si Si8 0.564513 0.484775 0.823321
O O1 0.830984 0.613216 0.717623
O O2 0.862381 0.932284 0.955762
O O3 0.680444 0.002845 0.065201
O O4 0.797977 0.755982 0.115009
O O5 0.078337 0.672434 0.243686
O O6 0.062946 0.895289 0.135836
O O7 0.197055 0.527550 0.890327
O O8 0.003886 0.574618 0.864336
O O9 0.402901 0.915511 0.187659
O O10 0.485291 0.636303 0.779254
O O11 0.500000 0.000000 0.000000
O O12 0.985119 0.718826 0.563893
O O13 0.374845 0.756451 0.359421
O O14 0.212998 0.020010 0.337444
O O15 0.344379 0.149633 0.617669
O O16 0.350097 0.411659 0.050639
O O17 0.500000 0.500000 0.000000
#
# Coordination Sequence:
#
# PCOD9106777 Si02
#       8
#     2   2   2   2   2   2   2   2
#     4  10  23  38  60  86 127 156 192 249 300 344
#     4  10  21  36  64  89 121 153 198 250 285 353
#     4  10  20  40  61  86 119 159 193 246 297 341
#     4  10  21  39  60  90 120 158 197 238 302 353
#     4  10  22  37  66  91 114 157 203 236 296 362
#     4  11  20  39  62  92 118 157 198 241 297 358
#     4  11  20  41  61  89 122 156 194 249 295 353
#     4  10  21  38  64  86 117 156 203 245 289 347
#
# _framework density 22.963519999999999
#
# number of rings (size 3 to 8) (size 9 to 14) (size 15 to 20)
#    0.000    1.750    3.750    0.750    0.000    2.500 
#    0.000    3.125    0.000    0.000    0.000    0.000 
#    0.000    0.000    0.000    0.000    0.000    0.000 
#
# Total GULP energy -89231.128005 kJ/mol
# GULP energy per Si atom -5576.945500 kJ/mol
# Density = 2.291125 g / cm^3
# Si number density = 22.963520 Si / 1000 Ang^3
#
#
#
# Elastic Constant Matrix: (Units=GPa)
#
#
# Indices 1 2 3 4 5 6 
#
# 1 69.2263 26.4285 14.1312 8.2294 -6.1879 -4.6914
# 2 26.4285 111.0564 10.2081 25.6915 -3.1166 -7.5463
# 3 14.1312 10.2081 66.7755 12.1584 -12.4754 -5.4189
# 4 8.2294 25.6915 12.1584 25.0860 -0.7437 -17.9986
# 5 -6.1879 -3.1166 -12.4754 -0.7437 18.1052 10.8589
# 6 -4.6914 -7.5463 -5.4189 -17.9986 10.8589 45.0718
#
#
#
# Elastic Compliance Matrix: (Units=1/GPa)
#
#
# Indices 1 2 3 4 5 6 
#
# 1 0.016633 -0.003413 -0.002089 -0.001201 0.003917 -0.000515
# 2 -0.003413 0.013648 0.002706 -0.018868 0.006358 -0.006811
# 3 -0.002089 0.002706 0.021160 -0.018327 0.019055 -0.009130
# 4 -0.001201 -0.018868 -0.018327 0.098050 -0.037933 0.042806
# 5 0.003917 0.006358 0.019055 -0.037933 0.088913 -0.032806
# 6 -0.000515 -0.006811 -0.009130 0.042806 -0.032806 0.044893
#
#
# Mechanical properties :
#
#
# Convention : Reuss Voigt Hill
#
# Bulk Modulus (GPa) = 21.81079 38.73265 30.27172
# Shear Modulus (GPa) = 16.43799 30.73865 23.58832
#
# Velocity S-wave (km/s) = 2.67840 3.66264 3.20849
# Velocity P-wave (km/s) = 4.36850 5.89832 5.19009
#
# Compressibility (1/GPa) = 0.04584887
#
# Stress axis : x y z
#
# Youngs Moduli (GPa) = 60.12133 73.26847 47.25883
#
# Poissons Ratio (x) = 0.25009 0.09874
# Poissons Ratio (y) = 0.20521 -0.12790
# Poissons Ratio (z) = 0.12562 -0.19829
#
# Static dielectric constant tensor:
#      x y z
#    x 1.938420 -0.069130 -0.044090 
#    y -0.069130 1.917260 0.006070 
#    z -0.044090 0.006070 1.875820 
# 
# From -- ./inp_files/143456.got.cif
#   From: 2010.05.17/outbox.cif.g08.bks.cpg/sg2_72_cif.got.tgz:143456.got - 2010.06.03 11:33:40.
