data_PCOD9106213
_publ_section_title
;
Structure prediction by ZEFSAII (Michael W. Deem and Ramdas Pophale) SiO2 
 PCOD9106213
Probable space group: P -1
;
_chemical_formula_sum "Si O2"
_cell_formula_units_Z 16
_cell_length_a 7.891461
_cell_length_b 17.303518
_cell_length_c 10.460298
_cell_angle_alpha 138.845878
_cell_angle_beta 124.461788
_cell_angle_gamma 43.997969
_cell_volume 652.024792
_symmetry_space_group_name_H-M "P -1"
_symmetry_group_IT_number 2
_symmetry_cell_setting 'triclinic'
loop_
_space_group_symop_operation_xyz
x,y,z
-x,-y,-z
loop_
_atom_site_type_symbol
_atom_site_label
_atom_site_fract_x
_atom_site_fract_y
_atom_site_fract_z
Si Si1 0.699884 0.226051 0.889406
Si Si2 0.204690 0.587087 0.003630
Si Si3 0.904081 0.591202 0.444706
Si Si4 0.062668 0.092030 0.410835
Si Si5 0.420320 0.846505 0.658837
Si Si6 0.521146 0.916890 0.059432
Si Si7 0.018431 0.816407 0.784869
Si Si8 0.768810 0.731494 0.181697
O O1 0.836535 0.278041 0.923555
O O2 0.402542 0.314746 0.883858
O O3 0.800357 0.216414 0.063280
O O4 0.776251 0.070480 0.692388
O O5 0.044963 0.630279 0.119937
O O6 0.500000 0.500000 0.000000
O O7 0.094822 0.510395 0.785001
O O8 0.630069 0.723237 0.512047
O O9 0.000000 0.500000 0.500000
O O10 0.042657 0.670892 0.580188
O O11 0.813395 0.162677 0.469947
O O12 0.959002 0.119543 0.256462
O O13 0.209609 0.165270 0.584984
O O14 0.333409 0.005328 0.788703
O O15 0.528937 0.833682 0.833062
O O16 0.613196 0.820788 0.102716
O O17 0.250096 0.057665 0.128863
#
# Coordination Sequence:
#
# PCOD9106213 Si02
#       8
#     2   2   2   2   2   2   2   2
#     4  12  25  47  75 103 142 181 230 300 352 413
#     4  12  29  50  71  98 145 195 235 284 342 415
#     4  11  23  45  68  98 136 188 244 279 330 417
#     4  12  24  43  68 109 140 175 228 293 368 415
#     4  10  21  37  70  97 138 178 232 288 349 406
#     4  10  20  39  68 106 136 177 223 292 357 414
#     4  11  23  43  71 103 145 175 224 302 348 406
#     4  12  27  44  70 106 142 185 233 283 358 421
#
# _framework density 24.538943
#
# number of rings (size 3 to 8) (size 9 to 14) (size 15 to 20)
#    0.000    0.750    3.750    3.750    3.500    3.500 
#    2.250    1.250    0.000    0.000    0.000    0.000 
#    0.000    0.000    0.000    0.000    0.000    0.000 
#
# Total GULP energy -89421.685579 kJ/mol
# GULP energy per Si atom -5588.855349 kJ/mol
# Density = 2.448309 g / cm^3
# Si number density = 24.538943 Si / 1000 Ang^3
#
#
#
# Elastic Constant Matrix: (Units=GPa)
#
#
# Indices 1 2 3 4 5 6 
#
# 1 63.6023 8.4252 1.1889 2.7399 4.5722 -23.0446
# 2 8.4252 64.6213 -6.2470 12.9661 1.2836 -5.9302
# 3 1.1889 -6.2470 103.3461 7.2411 11.0429 -9.2256
# 4 2.7399 12.9661 7.2411 26.5020 -2.1771 -0.5402
# 5 4.5722 1.2836 11.0429 -2.1771 32.6465 -6.9985
# 6 -23.0446 -5.9302 -9.2256 -0.5402 -6.9985 38.1413
#
#
#
# Elastic Compliance Matrix: (Units=1/GPa)
#
#
# Indices 1 2 3 4 5 6 
#
# 1 0.020406 -0.001100 0.000975 -0.001639 -0.000626 0.012256
# 2 -0.001100 0.017919 0.002097 -0.009296 -0.001399 0.002240
# 3 0.000975 0.002097 0.010719 -0.004288 -0.003531 0.002799
# 4 -0.001639 -0.009296 -0.004288 0.043954 0.004544 -0.002017
# 5 -0.000626 -0.001399 -0.003531 0.004544 0.033283 0.004721
# 6 0.012256 0.002240 0.002799 -0.002017 0.004721 0.035486
#
#
# Mechanical properties :
#
#
# Convention : Reuss Voigt Hill
#
# Bulk Modulus (GPa) = 18.87247 26.47819 22.67533
# Shear Modulus (GPa) = 28.49171 34.67147 31.58159
#
# Velocity S-wave (km/s) = 3.41116 3.76296 3.59137
# Velocity P-wave (km/s) = 4.81894 5.44917 5.14372
#
# Compressibility (1/GPa) = 0.05298722
#
# Stress axis : x y z
#
# Youngs Moduli (GPa) = 49.00407 55.80542 93.28911
#
# Poissons Ratio (x) = 0.06140 -0.09092
# Poissons Ratio (y) = 0.05392 -0.19559
# Poissons Ratio (z) = -0.04776 -0.11700
#
# Static dielectric constant tensor:
#      x y z
#    x 2.064720 -0.022350 -0.002430 
#    y -0.022350 2.006820 0.005400 
#    z -0.002430 0.005400 1.943080 
# 
# From -- ./inp_files/187768.got.cif
#   From: 2010.05.17/outbox.cif.g08.bks.cpg/sg2_94_cif.got.tgz:187768.got - 2010.06.03 11:33:40.
