data_PCOD9106161
_publ_section_title
;
Structure prediction by ZEFSAII (Michael W. Deem and Ramdas Pophale) SiO2 
 PCOD9106161
Probable space group: P -1
;
_chemical_formula_sum "Si O2"
_cell_formula_units_Z 8
_cell_length_a 10.730116
_cell_length_b 13.516680
_cell_length_c 7.332240
_cell_angle_alpha 117.642258
_cell_angle_beta 85.612816
_cell_angle_gamma 148.118377
_cell_volume 365.504869
_symmetry_space_group_name_H-M "P -1"
_symmetry_group_IT_number 2
_symmetry_cell_setting 'triclinic'
loop_
_space_group_symop_operation_xyz
x,y,z
-x,-y,-z
loop_
_atom_site_type_symbol
_atom_site_label
_atom_site_fract_x
_atom_site_fract_y
_atom_site_fract_z
Si Si1 0.685740 0.931857 0.699418
Si Si2 0.447485 0.764904 0.992435
Si Si3 0.797512 0.280807 0.501822
Si Si4 0.564204 0.427404 0.868543
O O1 0.547976 0.812208 0.816955
O O2 0.478103 0.855045 0.549005
O O3 0.630958 0.773067 0.458458
O O4 0.056263 0.270189 0.955642
O O5 0.066933 0.478273 0.790209
O O6 0.522494 0.728642 0.092940
O O7 0.635579 0.032822 0.246236
O O8 0.000000 0.500000 0.500000
O O9 0.500000 0.500000 0.000000
#
# Coordination Sequence:
#
# PCOD9106161 Si02
#       4
#     2   2   2   2
#     4  11  23  42  65  90 127 162 199 261 312 356
#     4  11  23  41  66  94 126 160 199 257 315 365
#     4  10  20  39  67  97 123 154 201 253 319 380
#     4  12  27  42  61  92 124 168 220 245 289 372
#
# _framework density 21.887533000000001
#
# number of rings (size 3 to 8) (size 9 to 14) (size 15 to 20)
#    0.000    1.000    0.000    9.750    0.000    8.000 
#    0.000    0.000    0.000    0.000    0.000    0.000 
#    0.000    0.000    0.000    0.000    0.000    0.000 
#
# Total GULP energy -44804.170702 kJ/mol
# GULP energy per Si atom -5600.521338 kJ/mol
# Density = 2.183772 g / cm^3
# Si number density = 21.887533 Si / 1000 Ang^3
#
#
#
# Elastic Constant Matrix: (Units=GPa)
#
#
# Indices 1 2 3 4 5 6 
#
# 1 47.7335 17.8261 -6.0882 -12.8777 -19.5836 -4.3310
# 2 17.8261 98.4166 26.8987 -14.2655 -8.4179 1.6111
# 3 -6.0882 26.8987 129.2025 -5.1577 -20.8489 -5.9105
# 4 -12.8777 -14.2655 -5.1577 28.9559 12.5001 2.7593
# 5 -19.5836 -8.4179 -20.8489 12.5001 42.1089 4.1347
# 6 -4.3310 1.6111 -5.9105 2.7593 4.1347 15.0157
#
#
#
# Elastic Compliance Matrix: (Units=1/GPa)
#
#
# Indices 1 2 3 4 5 6 
#
# 1 0.031445 -0.005259 0.005355 0.005712 0.013853 0.006878
# 2 -0.005259 0.012555 -0.003281 0.004777 -0.002553 -0.004330
# 3 0.005355 -0.003281 0.009890 -0.000685 0.006530 0.004117
# 4 0.005712 0.004777 -0.000685 0.043745 -0.009259 -0.004623
# 5 0.013853 -0.002553 0.006530 -0.009259 0.035791 -0.001314
# 6 0.006878 -0.004330 0.004117 -0.004623 -0.001314 0.071877
#
#
# Mechanical properties :
#
#
# Convention : Reuss Voigt Hill
#
# Bulk Modulus (GPa) = 21.04389 39.18063 30.11226
# Shear Modulus (GPa) = 21.97667 32.99716 27.48692
#
# Velocity S-wave (km/s) = 3.17215 3.88697 3.54761
# Velocity P-wave (km/s) = 4.80126 6.17126 5.52886
#
# Compressibility (1/GPa) = 0.04751972
#
# Stress axis : x y z
#
# Youngs Moduli (GPa) = 31.80140 79.64880 101.11292
#
# Poissons Ratio (x) = 0.41886 -0.54143
# Poissons Ratio (y) = 0.16724 0.33176
# Poissons Ratio (z) = -0.17029 0.26133
#
# Static dielectric constant tensor:
#      x y z
#    x 1.805030 0.014400 0.027060 
#    y 0.014400 1.812200 -0.023020 
#    z 0.027060 -0.023020 1.777330 
# 
# From -- ./inp_files/214.got.cif
#   From: 2010.05.17/outbox.cif.g08.bks.cpg/sg2_1_cif.got.tgz:214.got - 2010.06.03 11:33:40.
