data_PCOD9106546
_publ_section_title
;
Structure prediction by ZEFSAII (Michael W. Deem and Ramdas Pophale) SiO2 
 PCOD9106546
Probable space group: P -1
;
_chemical_formula_sum "Si O2"
_cell_formula_units_Z 12
_cell_length_a 7.894680
_cell_length_b 8.453373
_cell_length_c 10.358508
_cell_angle_alpha 88.679087
_cell_angle_beta 106.449215
_cell_angle_gamma 123.411506
_cell_volume 545.753836
_symmetry_space_group_name_H-M "P -1"
_symmetry_group_IT_number 2
_symmetry_cell_setting 'triclinic'
loop_
_space_group_symop_operation_xyz
x,y,z
-x,-y,-z
loop_
_atom_site_type_symbol
_atom_site_label
_atom_site_fract_x
_atom_site_fract_y
_atom_site_fract_z
Si Si1 0.682949 0.028228 0.633592
Si Si2 0.185889 0.602053 0.929857
Si Si3 0.757103 0.692010 0.949233
Si Si4 0.273971 0.959648 0.063805
Si Si5 0.078115 0.442278 0.640661
Si Si6 0.448758 0.391341 0.355985
O O1 0.642778 0.046359 0.775639
O O2 0.910555 0.216778 0.637785
O O3 0.500000 0.000000 0.500000
O O4 0.667943 0.832064 0.630024
O O5 0.086671 0.554136 0.767564
O O6 0.298702 0.487675 0.971499
O O7 0.309500 0.828101 0.979624
O O8 0.000000 0.500000 0.000000
O O9 0.694899 0.611660 0.790533
O O10 0.669745 0.826597 0.951763
O O11 0.013789 0.836786 0.018097
O O12 0.319450 0.514221 0.661148
O O13 0.000000 0.500000 0.500000
O O14 0.500000 0.500000 0.500000
#
# Coordination Sequence:
#
# PCOD9106546 Si02
#       6
#     2   2   2   2   2   2
#     4  11  22  43  69  97 141 177 226 287 339 411
#     4  10  20  39  73  94 133 186 221 281 354 399
#     4   9  19  38  63  95 136 171 227 283 329 411
#     4   9  19  37  67  97 128 183 222 280 342 400
#     4  12  25  44  70 106 137 180 236 279 347 429
#     4  11  27  42  69 103 139 183 226 289 355 401
#
# _framework density 21.987936000000001
#
# number of rings (size 3 to 8) (size 9 to 14) (size 15 to 20)
#    0.000    1.667    5.000    0.000    7.000    1.333 
#    0.000    5.000    0.000    0.000    0.000    0.000 
#    0.000    0.000    0.000    0.000    0.000    0.000 
#
# Total GULP energy -66975.965029 kJ/mol
# GULP energy per Si atom -5581.330419 kJ/mol
# Density = 2.193789 g / cm^3
# Si number density = 21.987936 Si / 1000 Ang^3
#
#
#
# Elastic Constant Matrix: (Units=GPa)
#
#
# Indices 1 2 3 4 5 6 
#
# 1 69.4265 32.4385 25.6123 3.6204 -4.3183 -8.8953
# 2 32.4385 209.2619 50.3431 6.9649 -11.2538 -1.5609
# 3 25.6123 50.3431 194.7605 21.6766 4.4746 -15.3808
# 4 3.6204 6.9649 21.6766 39.0872 -10.7185 0.0585
# 5 -4.3183 -11.2538 4.4746 -10.7185 39.8847 2.1992
# 6 -8.8953 -1.5609 -15.3808 0.0585 2.1992 41.1000
#
#
#
# Elastic Compliance Matrix: (Units=1/GPa)
#
#
# Indices 1 2 3 4 5 6 
#
# 1 0.016349 -0.002113 -0.001398 -0.000049 0.001159 0.002873
# 2 -0.002113 0.005483 -0.001282 0.000372 0.001607 -0.000815
# 3 -0.001398 -0.001282 0.006293 -0.003780 -0.002353 0.002135
# 4 -0.000049 0.000372 -0.003780 0.030005 0.008693 -0.001919
# 5 0.001159 0.001607 -0.002353 0.008693 0.028367 -0.002099
# 6 0.002873 -0.000815 0.002135 -0.001919 -0.002099 0.025836
#
#
# Mechanical properties :
#
#
# Convention : Reuss Voigt Hill
#
# Bulk Modulus (GPa) = 53.93917 76.69296 65.31606
# Shear Modulus (GPa) = 39.03232 48.35135 43.69184
#
# Velocity S-wave (km/s) = 4.21785 4.69443 4.46251
# Velocity P-wave (km/s) = 6.95017 8.02115 7.50479
#
# Compressibility (1/GPa) = 0.01853940
#
# Stress axis : x y z
#
# Youngs Moduli (GPa) = 61.16428 182.39631 158.90147
#
# Poissons Ratio (x) = 0.38533 0.22219
# Poissons Ratio (y) = 0.12921 0.20371
# Poissons Ratio (z) = 0.08553 0.23383
#
# Static dielectric constant tensor:
#      x y z
#    x 1.851090 -0.007610 0.017090 
#    y -0.007610 1.851460 -0.012050 
#    z 0.017090 -0.012050 1.839520 
# 
# From -- ./inp_files/158230.got.cif
#   From: 2010.05.17/outbox.cif.g08.bks.cpg/sg2_80_cif.got.tgz:158230.got - 2010.06.03 11:33:40.
