data_PCOD9106241
_publ_section_title
;
Structure prediction by ZEFSAII (Michael W. Deem and Ramdas Pophale) SiO2 
 PCOD9106241
Probable space group: P -1
;
_chemical_formula_sum "Si O2"
_cell_formula_units_Z 16
_cell_length_a 9.008152
_cell_length_b 10.591036
_cell_length_c 13.081220
_cell_angle_alpha 44.910683
_cell_angle_beta 95.611426
_cell_angle_gamma 118.678486
_cell_volume 711.533162
_symmetry_space_group_name_H-M "P -1"
_symmetry_group_IT_number 2
_symmetry_cell_setting 'triclinic'
loop_
_space_group_symop_operation_xyz
x,y,z
-x,-y,-z
loop_
_atom_site_type_symbol
_atom_site_label
_atom_site_fract_x
_atom_site_fract_y
_atom_site_fract_z
Si Si1 0.241767 0.456973 0.553143
Si Si2 0.500685 0.108772 0.135754
Si Si3 0.004475 0.586540 0.110305
Si Si4 0.411197 0.776484 0.682417
Si Si5 0.128397 0.695891 0.273071
Si Si6 0.980238 0.766354 0.804240
Si Si7 0.351674 0.146347 0.661393
Si Si8 0.411002 0.442613 0.140763
O O1 0.174640 0.525450 0.410321
O O2 0.279942 0.275877 0.636814
O O3 0.444147 0.673836 0.471830
O O4 0.072665 0.378949 0.661533
O O5 0.546055 0.165282 0.227021
O O6 0.287028 0.922804 0.207440
O O7 0.611787 0.003843 0.179787
O O8 0.555863 0.329302 0.955878
O O9 0.131916 0.711353 0.143145
O O10 0.058045 0.451995 0.124260
O O11 0.804996 0.390758 0.250972
O O12 0.978447 0.730203 0.946784
O O13 0.493517 0.640891 0.738666
O O14 0.500000 0.000000 0.500000
O O15 0.803814 0.756180 0.768518
O O16 0.183499 0.977700 0.671744
O O17 0.500000 0.500000 0.000000
#
# Coordination Sequence:
#
# PCOD9106241 Si02
#       8
#     2   2   2   2   2   2   2   2
#     4   9  22  41  62  95 139 174 212 268 337 398
#     4  10  20  43  66  93 135 177 216 268 332 390
#     4  11  23  41  65 101 127 170 229 271 326 392
#     4  11  24  40  67 100 135 170 219 276 328 394
#     4  10  23  40  68  95 137 174 216 272 332 395
#     4  11  21  42  68  90 131 175 220 281 320 390
#     4  10  20  39  68  92 127 180 217 260 335 386
#     4  10  21  42  67  95 128 173 222 267 328 392
#
# _framework density 22.486656
#
# number of rings (size 3 to 8) (size 9 to 14) (size 15 to 20)
#    0.000    1.750    3.750    0.750    8.750    0.000 
#    2.250   10.625    0.000    0.000    0.000    0.000 
#    0.000    0.000    0.000    0.000    0.000    0.000 
#
# Total GULP energy -89312.994907 kJ/mol
# GULP energy per Si atom -5582.062182 kJ/mol
# Density = 2.243548 g / cm^3
# Si number density = 22.486656 Si / 1000 Ang^3
#
#
#
# Elastic Constant Matrix: (Units=GPa)
#
#
# Indices 1 2 3 4 5 6 
#
# 1 135.1289 12.3753 45.9148 -14.4413 2.3121 1.1657
# 2 12.3753 70.6256 12.2960 -3.9009 -1.3780 2.1211
# 3 45.9148 12.2960 84.0670 -12.7883 16.6030 -5.6942
# 4 -14.4413 -3.9009 -12.7883 33.9944 -0.3826 1.6315
# 5 2.3121 -1.3780 16.6030 -0.3826 37.3246 -20.0844
# 6 1.1657 2.1211 -5.6942 1.6315 -20.0844 14.8923
#
#
#
# Elastic Compliance Matrix: (Units=1/GPa)
#
#
# Indices 1 2 3 4 5 6 
#
# 1 0.009376 -0.000589 -0.004941 0.002166 0.000450 -0.002169
# 2 -0.000589 0.014728 -0.001837 0.000911 -0.000470 -0.003487
# 3 -0.004941 -0.001837 0.017523 0.004701 -0.013968 -0.012004
# 4 0.002166 0.000911 0.004701 0.032893 -0.010891 -0.016794
# 5 0.000450 -0.000470 -0.013968 -0.010891 0.111682 0.146503
# 6 -0.002169 -0.003487 -0.012004 -0.016794 0.146503 0.262645
#
#
# Mechanical properties :
#
#
# Convention : Reuss Voigt Hill
#
# Bulk Modulus (GPa) = 37.18544 47.88817 42.53681
# Shear Modulus (GPa) = 10.58098 31.85797 21.21948
#
# Velocity S-wave (km/s) = 2.17156 3.76806 3.07522
# Velocity P-wave (km/s) = 4.78123 6.34614 5.61844
#
# Compressibility (1/GPa) = 0.02689224
#
# Stress axis : x y z
#
# Youngs Moduli (GPa) = 106.65990 67.89721 57.06694
#
# Poissons Ratio (x) = 0.04000 0.28196
# Poissons Ratio (y) = 0.06283 0.10486
# Poissons Ratio (z) = 0.52700 0.12476
#
# Static dielectric constant tensor:
#      x y z
#    x 1.871030 -0.025680 -0.025870 
#    y -0.025680 1.836150 -0.028380 
#    z -0.025870 -0.028380 1.872240 
# 
# From -- ./inp_files/499902.got.cif
#   From: 2010.05.17/outbox.cif.g08.bks.cpg/sg2_250_cif.got.tgz:499902.got - 2010.06.03 11:33:40.
