data_PCOD9106227
_publ_section_title
;
Structure prediction by ZEFSAII (Michael W. Deem and Ramdas Pophale) SiO2 
 PCOD9106227
Probable space group: P -1
;
_chemical_formula_sum "Si O2"
_cell_formula_units_Z 15
_cell_length_a 11.979511
_cell_length_b 11.906646
_cell_length_c 11.394526
_cell_angle_alpha 92.258397
_cell_angle_beta 64.499853
_cell_angle_gamma 38.011918
_cell_volume 661.412912
_symmetry_space_group_name_H-M "P -1"
_symmetry_group_IT_number 2
_symmetry_cell_setting 'triclinic'
loop_
_space_group_symop_operation_xyz
x,y,z
-x,-y,-z
loop_
_atom_site_type_symbol
_atom_site_label
_atom_site_fract_x
_atom_site_fract_y
_atom_site_fract_z
Si Si1 0.861994 0.186712 0.876016
Si Si2 0.326644 0.554493 0.245456
Si Si3 0.974662 0.335754 0.908290
Si Si4 0.107207 0.580168 0.793684
Si Si5 0.663899 0.359948 0.301089
Si Si6 0.134467 0.468681 0.290785
Si Si7 0.570917 0.834478 0.539154
Si Si8 0.500000 0.000000 0.000000
O O1 0.874980 0.205517 0.732626
O O2 0.822966 0.340044 0.959608
O O3 0.598313 0.325134 0.030809
O O4 0.125577 0.913786 0.798058
O O5 0.442431 0.518732 0.306657
O O6 0.200804 0.534060 0.323486
O O7 0.906536 0.463781 0.828204
O O8 0.296361 0.041506 0.746090
O O9 0.893285 0.460198 0.071855
O O10 0.820314 0.781824 0.872027
O O11 0.160192 0.669255 0.786304
O O12 0.345595 0.332663 0.594817
O O13 0.500000 0.500000 0.500000
O O14 0.850777 0.643422 0.467713
O O15 0.384640 0.180851 0.159965
O O16 0.500000 0.000000 0.500000
#
# Coordination Sequence:
#
# PCOD9106227 Si02
#       8
#     2   2   2   2   2   2   2   1
#     4  10  21  39  66  95 124 166 216 261 323 387
#     4  10  21  40  67  94 125 169 212 263 322 391
#     4  10  20  39  68  89 122 172 210 262 324 380
#     4  11  23  42  62  93 127 165 217 262 320 386
#     4  12  25  41  65  96 134 167 212 270 325 388
#     4   9  20  38  62  94 126 160 216 262 317 385
#     4   9  20  39  61  89 124 160 213 263 313 383
#     4  10  22  38  60  90 130 158 206 270 306 382
#
# _framework density 22.678723000000002
#
# number of rings (size 3 to 8) (size 9 to 14) (size 15 to 20)
#    0.000    1.867    1.333    2.000    1.867    5.333 
#    2.400    1.333    0.000    0.000    0.000    0.000 
#    0.000    0.000    0.000    0.000    0.000    0.000 
#
# Total GULP energy -83546.905751 kJ/mol
# GULP energy per Si atom -5569.793717 kJ/mol
# Density = 2.262711 g / cm^3
# Si number density = 22.678723 Si / 1000 Ang^3
#
#
#
# Elastic Constant Matrix: (Units=GPa)
#
#
# Indices 1 2 3 4 5 6 
#
# 1 130.0733 24.9870 9.4837 -20.0923 2.2951 -10.6440
# 2 24.9870 39.2530 4.0699 -8.7371 16.8808 -15.5718
# 3 9.4837 4.0699 64.3535 -1.2405 -1.4214 -7.1813
# 4 -20.0923 -8.7371 -1.2405 23.1649 -6.7850 8.7028
# 5 2.2951 16.8808 -1.4214 -6.7850 29.1129 -2.2071
# 6 -10.6440 -15.5718 -7.1813 8.7028 -2.2071 31.7388
#
#
#
# Elastic Compliance Matrix: (Units=1/GPa)
#
#
# Indices 1 2 3 4 5 6 
#
# 1 0.010293 -0.007993 -0.001020 0.008475 0.005548 -0.002638
# 2 -0.007993 0.049890 -0.000333 -0.004102 -0.027685 0.020921
# 3 -0.001020 -0.000333 0.016105 -0.001165 0.001056 0.003531
# 4 0.008475 -0.004102 -0.001165 0.058511 0.014191 -0.014491
# 5 0.005548 -0.027685 0.001056 0.014191 0.052434 -0.011728
# 6 -0.002638 0.020921 0.003531 -0.014491 -0.011728 0.044844
#
#
# Mechanical properties :
#
#
# Convention : Reuss Voigt Hill
#
# Bulk Modulus (GPa) = 17.36197 34.52901 25.94549
# Shear Modulus (GPa) = 18.52070 29.81260 24.16665
#
# Velocity S-wave (km/s) = 2.86082 3.62962 3.26791
# Velocity P-wave (km/s) = 4.31099 5.72921 5.06994
#
# Compressibility (1/GPa) = 0.05759714
#
# Stress axis : x y z
#
# Youngs Moduli (GPa) = 97.15304 20.04392 62.09061
#
# Poissons Ratio (x) = 0.16021 0.06333
# Poissons Ratio (y) = 0.77652 0.02069
# Poissons Ratio (z) = 0.09908 0.00668
#
# Static dielectric constant tensor:
#      x y z
#    x 1.739200 0.013820 -0.000340 
#    y 0.013820 2.008930 -0.074140 
#    z -0.000340 -0.074140 1.862820 
# 
# From -- ./inp_files/396478.got.cif
#   From: 2010.05.17/outbox.cif.g08.bks.cpg/sg2_199_cif.got.tgz:396478.got - 2010.06.03 11:33:40.
