data_PCOD9106539
_publ_section_title
;
Structure prediction by ZEFSAII (Michael W. Deem and Ramdas Pophale) SiO2 
 PCOD9106539
Probable space group: P -1
;
_chemical_formula_sum "Si O2"
_cell_formula_units_Z 14
_cell_length_a 12.924756
_cell_length_b 15.809021
_cell_length_c 19.137676
_cell_angle_alpha 35.146153
_cell_angle_beta 164.136475
_cell_angle_gamma 143.860559
_cell_volume 609.793641
_symmetry_space_group_name_H-M "P -1"
_symmetry_group_IT_number 2
_symmetry_cell_setting 'triclinic'
loop_
_space_group_symop_operation_xyz
x,y,z
-x,-y,-z
loop_
_atom_site_type_symbol
_atom_site_label
_atom_site_fract_x
_atom_site_fract_y
_atom_site_fract_z
Si Si1 0.116315 0.186895 0.418805
Si Si2 0.082249 0.439834 0.795387
Si Si3 0.850200 0.093544 0.901098
Si Si4 0.041631 0.506648 0.882156
Si Si5 0.212239 0.072646 0.886678
Si Si6 0.283007 0.358976 0.681813
Si Si7 0.607902 0.209068 0.861640
O O1 0.394878 0.103658 0.608042
O O2 0.270508 0.179972 0.603521
O O3 0.181995 0.361563 0.323978
O O4 0.664616 0.132908 0.156003
O O5 0.019080 0.509129 0.782909
O O6 0.024000 0.264027 0.887330
O O7 0.840185 0.508984 0.532683
O O8 0.500000 0.500000 0.000000
O O9 0.952578 0.014769 0.092700
O O10 0.000000 0.000000 0.000000
O O11 0.887412 0.345820 0.918621
O O12 0.464293 0.558745 0.148582
O O13 0.210243 0.943406 0.915104
O O14 0.024597 0.218241 0.644878
O O15 0.490931 0.266570 0.821295
#
# Coordination Sequence:
#
# PCOD9106539 Si02
#       7
#     2   2   2   2   2   2   2
#     4  10  20  39  73 102 137 184 228 287 342 412
#     4  12  27  47  72  96 140 194 229 284 352 416
#     4  11  24  43  69 101 143 187 229 279 352 412
#     4  11  22  43  71 103 139 175 242 287 341 409
#     4  10  23  42  70 106 141 179 233 293 343 413
#     4  11  25  41  71 104 134 180 235 287 347 412
#     4  11  18  38  67 103 139 174 224 292 347 400
#
# _framework density 22.958586
#
# number of rings (size 3 to 8) (size 9 to 14) (size 15 to 20)
#    0.000    1.143    4.286    3.857    4.000    2.857 
#    0.000    3.571    0.000    0.000    0.000    0.000 
#    0.000    0.000    0.000    0.000    0.000    0.000 
#
# Total GULP energy -78167.360826 kJ/mol
# GULP energy per Si atom -5583.382916 kJ/mol
# Density = 2.290633 g / cm^3
# Si number density = 22.958586 Si / 1000 Ang^3
#
#
#
# Elastic Constant Matrix: (Units=GPa)
#
#
# Indices 1 2 3 4 5 6 
#
# 1 55.1318 45.7352 19.0833 -22.0408 3.3236 15.5545
# 2 45.7352 158.3900 29.9023 -19.7386 -7.7251 26.3633
# 3 19.0833 29.9023 23.2095 -11.5993 -17.2736 1.9644
# 4 -22.0408 -19.7386 -11.5993 21.8282 6.2034 -4.5863
# 5 3.3236 -7.7251 -17.2736 6.2034 32.4815 -10.9309
# 6 15.5545 26.3633 1.9644 -4.5863 -10.9309 48.4921
#
#
#
# Elastic Compliance Matrix: (Units=1/GPa)
#
#
# Indices 1 2 3 4 5 6 
#
# 1 0.131493 0.011167 -0.194434 0.067938 -0.149975 -0.067754
# 2 0.011167 0.012395 -0.039956 0.005491 -0.025154 -0.013853
# 3 -0.194434 -0.039956 0.433968 -0.059000 0.295354 0.127507
# 4 0.067938 0.005491 -0.059000 0.100858 -0.065583 -0.027632
# 5 -0.149975 -0.025154 0.295354 -0.065583 0.242843 0.098355
# 6 -0.067754 -0.013853 0.127507 -0.027632 0.098355 0.064278
#
#
# Mechanical properties :
#
#
# Convention : Reuss Voigt Hill
#
# Bulk Modulus (GPa) = 7.60967 47.35253 27.48110
# Shear Modulus (GPa) = 3.38734 30.02773 16.70754
#
# Velocity S-wave (km/s) = 1.21598 3.62043 2.70056
# Velocity P-wave (km/s) = 2.30070 6.17629 4.66046
#
# Compressibility (1/GPa) = 0.13141166
#
# Stress axis : x y z
#
# Youngs Moduli (GPa) = 7.60497 80.67556 2.30432
#
# Poissons Ratio (x) = -0.90094 0.44804
# Poissons Ratio (y) = -0.08493 0.09207
# Poissons Ratio (z) = 1.47867 3.22344
#
# Static dielectric constant tensor:
#      x y z
#    x 1.941750 0.132560 -0.198200 
#    y 0.132560 2.539620 -1.141620 
#    z -0.198200 -1.141620 3.833950 
# 
# From -- ./inp_files/569746.got.cif
#   From: 2010.05.17/outbox.cif.g08.bks.cpg/sg2_285_cif.got.tgz:569746.got - 2010.06.03 11:33:40.
