data_PCOD9106651
_publ_section_title
;
Structure prediction by ZEFSAII (Michael W. Deem and Ramdas Pophale) SiO2 
 PCOD9106651
Probable space group: P -1
;
_chemical_formula_sum "Si O2"
_cell_formula_units_Z 14
_cell_length_a 9.655994
_cell_length_b 13.943958
_cell_length_c 5.139764
_cell_angle_alpha 91.324521
_cell_angle_beta 70.948425
_cell_angle_gamma 80.687160
_cell_volume 643.361689
_symmetry_space_group_name_H-M "P -1"
_symmetry_group_IT_number 2
_symmetry_cell_setting 'triclinic'
loop_
_space_group_symop_operation_xyz
x,y,z
-x,-y,-z
loop_
_atom_site_type_symbol
_atom_site_label
_atom_site_fract_x
_atom_site_fract_y
_atom_site_fract_z
Si Si1 0.941773 0.301607 0.683374
Si Si2 0.263558 0.498519 0.055459
Si Si3 0.517868 0.388743 0.272812
Si Si4 0.474610 0.936593 0.762220
Si Si5 0.568414 0.769628 0.361202
Si Si6 0.687541 0.193004 0.874195
Si Si7 0.130446 0.312086 0.069282
O O1 0.835332 0.407603 0.742170
O O2 0.845912 0.216339 0.696842
O O3 0.069058 0.298368 0.390959
O O4 0.010880 0.294434 0.927768
O O5 0.383386 0.441951 0.181775
O O6 0.161873 0.422166 0.026621
O O7 0.360176 0.541484 0.775440
O O8 0.457551 0.338027 0.552704
O O9 0.608044 0.293941 0.063214
O O10 0.581722 0.834236 0.612998
O O11 0.500000 0.000000 0.500000
O O12 0.323745 0.895344 0.927257
O O13 0.500000 0.000000 0.000000
O O14 0.420370 0.818006 0.301488
O O15 0.714427 0.757773 0.097258
#
# Coordination Sequence:
#
# PCOD9106651 Si02
#       7
#     2   2   2   2   2   2   2
#     4  11  27  40  62  91 136 179 219 261 317 368
#     4  10  20  40  59  91 131 176 235 270 308 351
#     4   9  20  37  61  94 125 174 223 281 308 364
#     4  11  23  41  74 108 123 149 208 275 322 385
#     4  11  23  41  71  92 132 166 216 261 332 383
#     4  10  22  43  66  97 127 170 211 262 325 387
#     4  12  25  42  60  93 132 181 216 267 313 375
#
# _framework density 21.760698999999999
#
# number of rings (size 3 to 8) (size 9 to 14) (size 15 to 20)
#    0.000    1.429    2.857    1.714    8.000    1.714 
#    2.571    0.000    0.000    5.143    0.000    0.000 
#    0.000    0.000    0.000    0.000    0.000    0.000 
#
# Total GULP energy -78177.767015 kJ/mol
# GULP energy per Si atom -5584.126215 kJ/mol
# Density = 2.171117 g / cm^3
# Si number density = 21.760699 Si / 1000 Ang^3
#
#
#
# Elastic Constant Matrix: (Units=GPa)
#
#
# Indices 1 2 3 4 5 6 
#
# 1 55.1984 26.4702 6.0185 -11.1195 -6.5990 14.8663
# 2 26.4702 104.4594 41.8746 -10.0147 -2.3191 31.9826
# 3 6.0185 41.8746 89.4376 -2.5207 -10.0883 6.0915
# 4 -11.1195 -10.0147 -2.5207 36.2982 0.5742 6.9766
# 5 -6.5990 -2.3191 -10.0883 0.5742 35.3468 -5.1761
# 6 14.8663 31.9826 6.0915 6.9766 -5.1761 22.9496
#
#
#
# Elastic Compliance Matrix: (Units=1/GPa)
#
#
# Indices 1 2 3 4 5 6 
#
# 1 0.026279 0.002012 -0.000614 0.013030 0.001232 -0.023347
# 2 0.002012 0.028665 -0.010887 0.016568 -0.007730 -0.045142
# 3 -0.000614 -0.010887 0.015877 -0.004905 0.005857 0.014168
# 4 0.013030 0.016568 -0.004905 0.044487 -0.005181 -0.044920
# 5 0.001232 -0.007730 0.005857 -0.005181 0.032300 0.017280
# 6 -0.023347 -0.045142 0.014168 -0.044920 0.017280 0.135399
#
#
# Mechanical properties :
#
#
# Convention : Reuss Voigt Hill
#
# Bulk Modulus (GPa) = 19.28902 44.20244 31.74573
# Shear Modulus (GPa) = 15.66087 30.56772 23.11429
#
# Velocity S-wave (km/s) = 2.68561 3.75203 3.26268
# Velocity P-wave (km/s) = 4.30117 6.25519 5.36784
#
# Compressibility (1/GPa) = 0.05184296
#
# Stress axis : x y z
#
# Youngs Moduli (GPa) = 38.05341 34.88527 62.98404
#
# Poissons Ratio (x) = -0.07018 0.03867
# Poissons Ratio (y) = -0.07655 0.68571
# Poissons Ratio (z) = 0.02336 0.37980
#
# Static dielectric constant tensor:
#      x y z
#    x 1.805100 0.021080 0.012740 
#    y 0.021080 1.850690 0.002550 
#    z 0.012740 0.002550 1.852920 
# 
# From -- ./inp_files/35371.got.cif
#   From: 2010.05.17/outbox.cif.g08.bks.cpg/sg2_18_cif.got.tgz:35371.got - 2010.06.03 11:33:40.
