data_PCOD9106404
_publ_section_title
;
Structure prediction by ZEFSAII (Michael W. Deem and Ramdas Pophale) SiO2 
 PCOD9106404
Probable space group: P -1
;
_chemical_formula_sum "Si O2"
_cell_formula_units_Z 16
_cell_length_a 17.654059
_cell_length_b 16.341577
_cell_length_c 11.519308
_cell_angle_alpha 138.491803
_cell_angle_beta 41.332134
_cell_angle_gamma 163.029219
_cell_volume 632.457351
_symmetry_space_group_name_H-M "P -1"
_symmetry_group_IT_number 2
_symmetry_cell_setting 'triclinic'
loop_
_space_group_symop_operation_xyz
x,y,z
-x,-y,-z
loop_
_atom_site_type_symbol
_atom_site_label
_atom_site_fract_x
_atom_site_fract_y
_atom_site_fract_z
Si Si1 0.024915 0.303342 0.757285
Si Si2 0.785959 0.749890 0.188928
Si Si3 0.752061 0.262674 0.904056
Si Si4 0.383529 0.573771 0.439480
Si Si5 0.319795 0.985764 0.751575
Si Si6 0.629618 0.062444 0.586279
Si Si7 0.760298 0.918060 0.846663
Si Si8 0.299711 0.421502 0.131745
O O1 0.229463 0.422301 0.575893
O O2 0.925515 0.313433 0.795884
O O3 0.806434 0.012019 0.764364
O O4 0.151891 0.509195 0.930257
O O5 0.644127 0.743362 0.329491
O O6 0.013067 0.958145 0.243720
O O7 0.532704 0.419038 0.161065
O O8 0.879403 0.790495 0.996975
O O9 0.746428 0.248910 0.757835
O O10 0.500000 0.000000 0.000000
O O11 0.475423 0.800981 0.546590
O O12 0.211710 0.362079 0.301375
O O13 0.434551 0.970726 0.654531
O O14 0.192297 0.822675 0.600773
O O15 0.541456 0.300768 0.791653
O O16 0.193640 0.931675 0.948810
O O17 0.500000 0.500000 0.000000
#
# Coordination Sequence:
#
# PCOD9106404 Si02
#       8
#     2   2   2   2   2   2   2   2
#     4  11  26  39  64  97 130 180 227 275 332 405
#     4  10  24  44  70  98 133 180 224 281 340 396
#     4  11  23  41  62  93 134 178 221 272 339 405
#     4  10  21  42  64  99 133 171 229 274 335 404
#     4   9  20  38  66 104 132 170 225 277 342 401
#     4  10  20  39  69  98 137 171 223 284 338 402
#     4  11  25  44  69  98 137 177 227 279 335 405
#     4   8  17  38  65  95 132 171 217 275 331 397
#
# _framework density 25.298148999999999
#
# number of rings (size 3 to 8) (size 9 to 14) (size 15 to 20)
#    0.000    2.000    1.250    0.750    7.000    3.000 
#    0.000   21.875    0.000    0.000    0.000    0.000 
#    0.000    0.000    0.000    0.000    0.000    0.000 
#
# Total GULP energy -89478.520378 kJ/mol
# GULP energy per Si atom -5592.407524 kJ/mol
# Density = 2.524057 g / cm^3
# Si number density = 25.298149 Si / 1000 Ang^3
#
#
#
# Elastic Constant Matrix: (Units=GPa)
#
#
# Indices 1 2 3 4 5 6 
#
# 1 71.0278 4.8793 26.5608 -2.9550 19.4202 -18.9073
# 2 4.8793 68.1980 59.8515 -7.0990 6.0008 -28.9112
# 3 26.5608 59.8515 265.2675 -2.4765 6.8032 -40.6241
# 4 -2.9550 -7.0990 -2.4765 25.5233 -3.9732 2.8480
# 5 19.4202 6.0008 6.8032 -3.9732 46.9127 6.2218
# 6 -18.9073 -28.9112 -40.6241 2.8480 6.2218 49.2414
#
#
#
# Elastic Compliance Matrix: (Units=1/GPa)
#
#
# Indices 1 2 3 4 5 6 
#
# 1 0.019894 0.005285 -0.001241 0.000857 -0.010110 0.010946
# 2 0.005285 0.024434 -0.003722 0.004535 -0.006223 0.013828
# 3 -0.001241 -0.003722 0.004951 -0.000862 0.000003 0.001472
# 4 0.000857 0.004535 -0.000862 0.040927 0.002713 -0.000430
# 5 -0.010110 -0.006223 0.000003 0.002713 0.028016 -0.011230
# 6 0.010946 0.013828 0.001472 -0.000430 -0.011230 0.035288
#
#
# Mechanical properties :
#
#
# Convention : Reuss Voigt Hill
#
# Bulk Modulus (GPa) = 20.03144 65.23071 42.63107
# Shear Modulus (GPa) = 29.49722 45.21559 37.35641
#
# Velocity S-wave (km/s) = 3.41835 4.23224 3.84688
# Velocity P-wave (km/s) = 4.84928 7.05147 6.05140
#
# Compressibility (1/GPa) = 0.04992153
#
# Stress axis : x y z
#
# Youngs Moduli (GPa) = 50.26729 40.92718 201.97078
#
# Poissons Ratio (x) = -0.21629 0.25059
# Poissons Ratio (y) = -0.26564 0.75182
# Poissons Ratio (z) = 0.06237 0.15235
#
# Static dielectric constant tensor:
#      x y z
#    x 1.991800 0.051490 0.022820 
#    y 0.051490 2.055380 0.038310 
#    z 0.022820 0.038310 2.049620 
# 
# From -- ./inp_files/466609.got.cif
#   From: 2010.05.17/outbox.cif.g08.bks.cpg/sg2_234_cif.got.tgz:466609.got - 2010.06.03 11:33:40.
