data_PCOD9106319
_publ_section_title
;
Structure prediction by ZEFSAII (Michael W. Deem and Ramdas Pophale) SiO2 
 PCOD9106319
Probable space group: P -1
;
_chemical_formula_sum "Si O2"
_cell_formula_units_Z 14
_cell_length_a 30.331637
_cell_length_b 29.985886
_cell_length_c 9.194514
_cell_angle_alpha 32.211885
_cell_angle_beta 33.245703
_cell_angle_gamma 9.424466
_cell_volume 729.803369
_symmetry_space_group_name_H-M "P -1"
_symmetry_group_IT_number 2
_symmetry_cell_setting 'triclinic'
loop_
_space_group_symop_operation_xyz
x,y,z
-x,-y,-z
loop_
_atom_site_type_symbol
_atom_site_label
_atom_site_fract_x
_atom_site_fract_y
_atom_site_fract_z
Si Si1 0.350455 0.581643 0.083729
Si Si2 0.829371 0.995060 0.441388
Si Si3 0.579034 0.825491 0.258789
Si Si4 0.963969 0.726931 0.578398
Si Si5 0.749966 0.224700 0.472627
Si Si6 0.324483 0.885864 0.133120
Si Si7 0.844176 0.440007 0.786859
O O1 0.086074 0.802170 0.275444
O O2 0.500000 0.500000 0.000000
O O3 0.261342 0.714654 0.815246
O O4 0.582308 0.282644 0.242694
O O5 0.924238 0.820114 0.573496
O O6 0.715049 0.087146 0.661152
O O7 0.816781 0.564990 0.208846
O O8 0.711527 0.660541 0.499465
O O9 0.316111 0.032639 0.370985
O O10 0.500000 0.000000 0.000000
O O11 0.088147 0.659662 0.288885
O O12 0.500000 0.500000 0.500000
O O13 0.753469 0.123448 0.703334
O O14 0.000000 0.000000 0.500000
O O15 0.625125 0.607671 0.020189
O O16 0.121991 0.158702 0.882631
#
# Coordination Sequence:
#
# PCOD9106319 Si02
#       7
#     2   2   2   2   2   2   2
#     4  12  26  45  61  88 125 176 222 259 330 367
#     4  12  26  41  67  87 130 169 216 267 307 390
#     4  10  20  39  68  99 124 155 204 254 310 377
#     4  10  22  39  64  98 116 166 204 257 307 371
#     4  12  28  39  61  89 121 163 219 275 316 366
#     4  12  24  41  58  89 125 162 205 258 324 361
#     4  10  22  38  63  89 120 156 203 246 312 368
#
# _framework density 19.183250000000001
#
# number of rings (size 3 to 8) (size 9 to 14) (size 15 to 20)
#    0.857    0.000    2.857    4.286    8.000    0.000 
#    0.000    0.000    0.000    5.143    0.000    0.000 
#    0.000    0.000    0.000    0.000    0.000    0.000 
#
# Total GULP energy -78142.260009 kJ/mol
# GULP energy per Si atom -5581.590001 kJ/mol
# Density = 1.913959 g / cm^3
# Si number density = 19.183250 Si / 1000 Ang^3
#
#
#
# Elastic Constant Matrix: (Units=GPa)
#
#
# Indices 1 2 3 4 5 6 
#
# 1 82.5707 29.0538 35.2947 1.6164 10.5328 6.3628
# 2 29.0538 123.6539 16.1335 -3.1195 0.7203 -1.6137
# 3 35.2947 16.1335 59.5963 -11.0024 4.7044 4.0448
# 4 1.6164 -3.1195 -11.0024 38.4444 5.6718 0.2093
# 5 10.5328 0.7203 4.7044 5.6718 21.7010 -4.0079
# 6 6.3628 -1.6137 4.0448 0.2093 -4.0079 28.2330
#
#
#
# Elastic Compliance Matrix: (Units=1/GPa)
#
#
# Indices 1 2 3 4 5 6 
#
# 1 0.018705 -0.003181 -0.009944 -0.002867 -0.006791 -0.003915
# 2 -0.003181 0.008946 -0.000689 0.000422 0.001572 0.001547
# 3 -0.009944 -0.000689 0.024654 0.007853 -0.002880 -0.001797
# 4 -0.002867 0.000422 0.007853 0.029667 -0.008424 -0.001870
# 5 -0.006791 0.001572 -0.002880 -0.008424 0.053952 0.009754
# 6 -0.003915 0.001547 -0.001797 -0.001870 0.009754 0.038047
#
#
# Mechanical properties :
#
#
# Convention : Reuss Voigt Hill
#
# Bulk Modulus (GPa) = 40.52370 47.42056 43.97213
# Shear Modulus (GPa) = 23.82948 30.03161 26.93055
#
# Velocity S-wave (km/s) = 3.52831 3.96095 3.75087
# Velocity P-wave (km/s) = 6.14565 6.75960 6.45993
#
# Compressibility (1/GPa) = 0.02467692
#
# Stress axis : x y z
#
# Youngs Moduli (GPa) = 53.46203 111.77992 40.56121
#
# Poissons Ratio (x) = 0.35561 0.40333
# Poissons Ratio (y) = 0.17008 0.02794
# Poissons Ratio (z) = 0.53162 0.07700
#
# Static dielectric constant tensor:
#      x y z
#    x 1.642550 0.014800 -0.006420 
#    y 0.014800 1.688440 -0.016020 
#    z -0.006420 -0.016020 1.693480 
# 
# From -- ./inp_files/357909.got.cif
#   From: 2010.05.17/outbox.cif.g08.bks.cpg/sg2_179_cif.got.tgz:357909.got - 2010.06.03 11:33:40.
