data_PCOD9106717
_publ_section_title
;
Structure prediction by ZEFSAII (Michael W. Deem and Ramdas Pophale) SiO2 
 PCOD9106717
Probable space group: P -1
;
_chemical_formula_sum "Si O2"
_cell_formula_units_Z 14
_cell_length_a 14.086879
_cell_length_b 19.655080
_cell_length_c 7.878092
_cell_angle_alpha 115.571223
_cell_angle_beta 107.736601
_cell_angle_gamma 19.627500
_cell_volume 622.424940
_symmetry_space_group_name_H-M "P -1"
_symmetry_group_IT_number 2
_symmetry_cell_setting 'triclinic'
loop_
_space_group_symop_operation_xyz
x,y,z
-x,-y,-z
loop_
_atom_site_type_symbol
_atom_site_label
_atom_site_fract_x
_atom_site_fract_y
_atom_site_fract_z
Si Si1 0.355264 0.284206 0.597523
Si Si2 0.252374 0.521948 0.688407
Si Si3 0.861448 0.178141 0.162205
Si Si4 0.289902 0.005720 0.174070
Si Si5 0.708150 0.408046 0.905626
Si Si6 0.162496 0.810966 0.450209
Si Si7 0.357337 0.186099 0.158482
O O1 0.390574 0.340662 0.585260
O O2 0.423024 0.172745 0.369492
O O3 0.005339 0.543526 0.746522
O O4 0.543871 0.132977 0.708837
O O5 0.489977 0.410746 0.616909
O O6 0.933168 0.762218 0.682759
O O7 0.204939 0.584654 0.924578
O O8 0.515481 0.414747 0.178714
O O9 0.893316 0.168322 0.366416
O O10 0.057568 0.104142 0.105635
O O11 0.000000 0.000000 0.000000
O O12 0.507855 0.863074 0.979625
O O13 0.944938 0.182942 0.713173
O O14 0.500000 0.500000 0.000000
O O15 0.000000 0.000000 0.500000
O O16 0.500000 0.000000 0.000000
#
# Coordination Sequence:
#
# PCOD9106717 Si02
#       7
#     2   2   2   2   2   2   2
#     4  11  26  51  76 109 143 184 242 303 375 439
#     4  11  24  45  69 105 141 192 243 291 356 425
#     4  12  24  40  63 100 141 189 237 278 347 422
#     4  12  25  46  75 108 144 188 242 298 363 428
#     4  10  20  40  60  89 139 182 228 282 331 408
#     4  11  23  39  62  93 142 190 235 289 340 412
#     4  11  26  53  79 106 144 183 239 311 375 437
#
# _framework density 22.492668999999999
#
# number of rings (size 3 to 8) (size 9 to 14) (size 15 to 20)
#    0.000    0.857    4.286    4.286    2.000    1.714 
#    2.571    0.000    0.000    0.000    0.000    0.000 
#    0.000    0.000    0.000    0.000    0.000    0.000 
#
# Total GULP energy -78099.405621 kJ/mol
# GULP energy per Si atom -5578.528973 kJ/mol
# Density = 2.244147 g / cm^3
# Si number density = 22.492669 Si / 1000 Ang^3
#
#
#
# Elastic Constant Matrix: (Units=GPa)
#
#
# Indices 1 2 3 4 5 6 
#
# 1 91.2048 26.9945 48.8143 5.7886 -4.1096 1.4638
# 2 26.9945 134.9936 44.3861 0.6274 5.0091 10.8361
# 3 48.8143 44.3861 144.8033 3.9264 16.1508 7.0310
# 4 5.7886 0.6274 3.9264 36.1846 3.2797 -3.0121
# 5 -4.1096 5.0091 16.1508 3.2797 47.4008 11.2730
# 6 1.4638 10.8361 7.0310 -3.0121 11.2730 31.9913
#
#
#
# Elastic Compliance Matrix: (Units=1/GPa)
#
#
# Indices 1 2 3 4 5 6 
#
# 1 0.014126 -0.001377 -0.004618 -0.002066 0.003203 -0.000488
# 2 -0.001377 0.008551 -0.002069 0.000067 0.000263 -0.002465
# 3 -0.004618 -0.002069 0.009475 0.000060 -0.003424 0.000042
# 4 -0.002066 0.000067 0.000060 0.028559 -0.003096 0.003838
# 5 0.003203 0.000263 -0.003424 -0.003096 0.024748 -0.008495
# 6 -0.000488 -0.002465 0.000042 0.003838 -0.008495 0.035462
#
#
# Mechanical properties :
#
#
# Convention : Reuss Voigt Hill
#
# Bulk Modulus (GPa) = 62.39577 67.93238 65.16408
# Shear Modulus (GPa) = 35.11517 39.83578 37.47548
#
# Velocity S-wave (km/s) = 3.95547 4.21296 4.08624
# Velocity P-wave (km/s) = 6.97579 7.34390 7.16221
#
# Compressibility (1/GPa) = 0.01602673
#
# Stress axis : x y z
#
# Youngs Moduli (GPa) = 70.78899 116.94560 105.54204
#
# Poissons Ratio (x) = 0.16099 0.48736
# Poissons Ratio (y) = 0.09745 0.21832
# Poissons Ratio (z) = 0.32688 0.24191
#
# Static dielectric constant tensor:
#      x y z
#    x 1.867670 -0.051580 0.012450 
#    y -0.051580 1.998780 0.078730 
#    z 0.012450 0.078730 1.917860 
# 
# From -- ./inp_files/319439.got.cif
#   From: 2010.05.17/outbox.cif.g08.bks.cpg/sg2_160_cif.got.tgz:319439.got - 2010.06.03 11:33:40.
