data_PCOD9106572
_publ_section_title
;
Structure prediction by ZEFSAII (Michael W. Deem and Ramdas Pophale) SiO2 
 PCOD9106572
Probable space group: P -1
;
_chemical_formula_sum "Si O2"
_cell_formula_units_Z 14
_cell_length_a 5.507319
_cell_length_b 21.806083
_cell_length_c 5.175452
_cell_angle_alpha 125.576793
_cell_angle_beta 81.500283
_cell_angle_gamma 88.973210
_cell_volume 495.776431
_symmetry_space_group_name_H-M "P -1"
_symmetry_group_IT_number 2
_symmetry_cell_setting 'triclinic'
loop_
_space_group_symop_operation_xyz
x,y,z
-x,-y,-z
loop_
_atom_site_type_symbol
_atom_site_label
_atom_site_fract_x
_atom_site_fract_y
_atom_site_fract_z
Si Si1 0.624919 0.378299 0.762940
Si Si2 0.275887 0.996506 0.224385
Si Si3 0.175076 0.879692 0.295527
Si Si4 0.769244 0.518002 0.271581
Si Si5 0.917914 0.659507 0.786128
Si Si6 0.719941 0.735967 0.494496
Si Si7 0.047800 0.851793 0.748243
O O1 0.427174 0.430788 0.748824
O O2 0.505713 0.303914 0.677138
O O3 0.844112 0.355385 0.470904
O O4 0.686155 0.435169 0.123101
O O5 0.341337 0.944019 0.342108
O O6 0.105170 0.075497 0.504261
O O7 0.077741 0.940820 0.011330
O O8 0.500000 0.000000 0.000000
O O9 0.230615 0.836658 0.443787
O O10 0.162828 0.821034 0.924302
O O11 0.833590 0.575188 0.624204
O O12 0.000000 0.500000 0.000000
O O13 0.743491 0.711330 0.732368
O O14 0.926487 0.698272 0.159408
O O15 0.783490 0.822512 0.689956
#
# Coordination Sequence:
#
# PCOD9106572 Si02
#       7
#     2   2   2   2   2   2   2
#     4   9  19  38  61  89 118 161 196 243 304 346
#     4   9  20  37  61  87 111 147 192 240 290 341
#     4   9  20  38  58  83 117 144 189 243 288 339
#     4   8  16  36  64  90 118 151 202 250 292 344
#     4  10  22  39  59  87 120 156 201 248 287 353
#     4  11  23  40  58  84 125 158 198 243 292 356
#     4  10  20  40  56  81 120 152 186 243 288 341
#
# _framework density 28.238533
#
# number of rings (size 3 to 8) (size 9 to 14) (size 15 to 20)
#    0.857    1.714    0.000    1.286    0.000    3.429 
#    5.143   24.286    0.000    0.000    0.000    0.000 
#    0.000    0.000    0.000    0.000    0.000    0.000 
#
# Total GULP energy -78123.865997 kJ/mol
# GULP energy per Si atom -5580.276143 kJ/mol
# Density = 2.817426 g / cm^3
# Si number density = 28.238533 Si / 1000 Ang^3
#
#
#
# Elastic Constant Matrix: (Units=GPa)
#
#
# Indices 1 2 3 4 5 6 
#
# 1 66.7478 43.2797 18.6625 15.8562 -7.3281 35.2746
# 2 43.2797 153.2554 64.1066 5.9577 2.3178 39.4742
# 3 18.6625 64.1066 122.3037 -16.2459 2.7301 9.2091
# 4 15.8562 5.9577 -16.2459 66.2873 4.9578 7.7641
# 5 -7.3281 2.3178 2.7301 4.9578 44.1051 6.1602
# 6 35.2746 39.4742 9.2091 7.7641 6.1602 62.3344
#
#
#
# Elastic Compliance Matrix: (Units=1/GPa)
#
#
# Indices 1 2 3 4 5 6 
#
# 1 0.026488 -0.003114 -0.002371 -0.005686 0.007119 -0.012663
# 2 -0.003114 0.010514 -0.004849 -0.000906 -0.000101 -0.004057
# 3 -0.002371 -0.004849 0.011415 0.003635 -0.001594 0.002430
# 4 -0.005686 -0.000906 0.003635 0.017500 -0.003285 0.001399
# 5 0.007119 -0.000101 -0.001594 -0.003285 0.025140 -0.005804
# 6 -0.012663 -0.004057 0.002430 0.001399 -0.005804 0.025818
#
#
# Mechanical properties :
#
#
# Convention : Reuss Voigt Hill
#
# Bulk Modulus (GPa) = 36.03429 66.04494 51.03961
# Shear Modulus (GPa) = 34.06206 48.96256 41.51231
#
# Velocity S-wave (km/s) = 3.47684 4.16852 3.83829
# Velocity P-wave (km/s) = 5.37646 6.82699 6.14468
#
# Compressibility (1/GPa) = 0.02775135
#
# Stress axis : x y z
#
# Youngs Moduli (GPa) = 37.75320 95.10873 87.60452
#
# Poissons Ratio (x) = 0.29614 0.20767
# Poissons Ratio (y) = 0.11755 0.42476
# Poissons Ratio (z) = 0.08949 0.46114
#
# Static dielectric constant tensor:
#      x y z
#    x 2.345600 -0.035350 0.129380 
#    y -0.035350 2.301810 -0.087400 
#    z 0.129380 -0.087400 2.284720 
# 
# From -- ./inp_files/14771.got.cif
#   From: 2010.05.17/outbox.cif.g08.bks.cpg/sg2_8_cif.got.tgz:14771.got - 2010.06.03 11:33:40.
