data_PCOD9106131
_publ_section_title
;
Structure prediction by ZEFSAII (Michael W. Deem and Ramdas Pophale) SiO2 
 PCOD9106131
Probable space group: P -1
;
_chemical_formula_sum "Si O2"
_cell_formula_units_Z 15
_cell_length_a 8.126737
_cell_length_b 14.070812
_cell_length_c 9.331098
_cell_angle_alpha 60.309445
_cell_angle_beta 76.876393
_cell_angle_gamma 42.313775
_cell_volume 606.057654
_symmetry_space_group_name_H-M "P -1"
_symmetry_group_IT_number 2
_symmetry_cell_setting 'triclinic'
loop_
_space_group_symop_operation_xyz
x,y,z
-x,-y,-z
loop_
_atom_site_type_symbol
_atom_site_label
_atom_site_fract_x
_atom_site_fract_y
_atom_site_fract_z
Si Si1 0.735211 0.797521 0.875825
Si Si2 0.532382 0.786020 0.644190
Si Si3 0.000000 0.000000 0.000000
Si Si4 0.932974 0.412126 0.774864
Si Si5 0.631353 0.335608 0.949842
Si Si6 0.012038 0.909215 0.365324
Si Si7 0.272480 0.151725 0.679543
Si Si8 0.791543 0.307839 0.253552
O O1 0.639356 0.763030 0.797316
O O2 0.928749 0.792084 0.772130
O O3 0.494336 0.980220 0.844924
O O4 0.889922 0.660434 0.068055
O O5 0.705373 0.606249 0.679870
O O6 0.600283 0.855199 0.477267
O O7 0.230108 0.933738 0.614085
O O8 0.734482 0.179772 0.969526
O O9 0.909335 0.044601 0.809077
O O10 0.815955 0.346194 0.859411
O O11 0.117260 0.315455 0.675710
O O12 0.357858 0.507341 0.830062
O O13 0.655140 0.323979 0.126726
O O14 0.915654 0.853131 0.330966
O O15 0.203673 0.767919 0.548714
#
# Coordination Sequence:
#
# PCOD9106131 Si02
#       8
#     2   2   1   2   2   2   2   2
#     4  10  20  39  67  95 126 176 210 263 325 383
#     4  11  22  40  68  98 126 174 212 261 325 397
#     4  12  26  46  64  96 128 176 220 276 322 374
#     4  11  23  40  62  99 136 161 215 271 320 377
#     4  10  25  44  66  94 131 174 216 275 314 392
#     4  11  23  43  68  93 135 171 221 268 321 389
#     4  11  20  43  64  97 130 166 214 271 321 381
#     4  10  21  45  70  92 130 174 221 261 327 386
#
# _framework density 24.750119999999999
#
# number of rings (size 3 to 8) (size 9 to 14) (size 15 to 20)
#    0.000    1.333    4.000    2.000    5.600    1.067 
#    0.000    0.000    0.000    0.000    0.000    0.000 
#    0.000    0.000    0.000    0.000    0.000    0.000 
#
# Total GULP energy -83672.744396 kJ/mol
# GULP energy per Si atom -5578.182960 kJ/mol
# Density = 2.469379 g / cm^3
# Si number density = 24.750120 Si / 1000 Ang^3
#
#
#
# Elastic Constant Matrix: (Units=GPa)
#
#
# Indices 1 2 3 4 5 6 
#
# 1 33.3114 14.7441 12.4381 -5.2716 13.0421 -8.5314
# 2 14.7441 195.6181 45.9127 -13.9587 13.7876 3.7882
# 3 12.4381 45.9127 79.6584 -23.2454 20.1957 -6.7230
# 4 -5.2716 -13.9587 -23.2454 38.6041 -8.8776 -3.7144
# 5 13.0421 13.7876 20.1957 -8.8776 27.8697 -8.9292
# 6 -8.5314 3.7882 -6.7230 -3.7144 -8.9292 15.9014
#
#
#
# Elastic Compliance Matrix: (Units=1/GPa)
#
#
# Indices 1 2 3 4 5 6 
#
# 1 0.040311 -0.002418 0.000585 0.004004 -0.011369 0.017002
# 2 -0.002418 0.006278 -0.003664 -0.001106 -0.001397 -0.005384
# 3 0.000585 -0.003664 0.019954 0.009853 -0.007270 0.007843
# 4 0.004004 -0.001106 0.009853 0.036152 0.009586 0.020405
# 5 -0.011369 -0.001397 -0.007270 0.009586 0.058651 0.026333
# 6 0.017002 -0.005384 0.007843 0.020405 0.026333 0.096161
#
#
# Mechanical properties :
#
#
# Convention : Reuss Voigt Hill
#
# Bulk Modulus (GPa) = 18.00185 50.53087 34.26636
# Shear Modulus (GPa) = 17.42055 32.17458 24.79756
#
# Velocity S-wave (km/s) = 2.65591 3.60943 3.16874
# Velocity P-wave (km/s) = 4.08587 6.15072 5.22139
#
# Compressibility (1/GPa) = 0.05554984
#
# Stress axis : x y z
#
# Youngs Moduli (GPa) = 24.80728 159.28677 50.11447
#
# Poissons Ratio (x) = 0.38513 -0.02932
# Poissons Ratio (y) = 0.05998 0.18361
# Poissons Ratio (z) = -0.01451 0.58361
#
# Static dielectric constant tensor:
#      x y z
#    x 2.092330 -0.008040 -0.089710 
#    y -0.008040 1.965670 0.022570 
#    z -0.089710 0.022570 2.033430 
# 
# From -- ./inp_files/205121.got.cif
#   From: 2010.05.17/outbox.cif.g08.bks.cpg/sg2_103_cif.got.tgz:205121.got - 2010.06.03 11:33:40.
