data_PCOD9106267
_publ_section_title
;
Structure prediction by ZEFSAII (Michael W. Deem and Ramdas Pophale) SiO2 
 PCOD9106267
Probable space group: P -1
;
_chemical_formula_sum "Si O2"
_cell_formula_units_Z 16
_cell_length_a 9.185805
_cell_length_b 14.660881
_cell_length_c 15.525679
_cell_angle_alpha 153.740376
_cell_angle_beta 87.720079
_cell_angle_gamma 74.122497
_cell_volume 660.539077
_symmetry_space_group_name_H-M "P -1"
_symmetry_group_IT_number 2
_symmetry_cell_setting 'triclinic'
loop_
_space_group_symop_operation_xyz
x,y,z
-x,-y,-z
loop_
_atom_site_type_symbol
_atom_site_label
_atom_site_fract_x
_atom_site_fract_y
_atom_site_fract_z
Si Si1 0.880037 0.534641 0.304976
Si Si2 0.678688 0.051916 0.923706
Si Si3 0.531503 0.025802 0.394229
Si Si4 0.329115 0.097313 0.906690
Si Si5 0.334134 0.629410 0.504966
Si Si6 0.621395 0.545689 0.091139
Si Si7 0.072024 0.698826 0.714434
Si Si8 0.071445 0.932889 0.200103
O O1 0.697014 0.818682 0.497297
O O2 0.843414 0.512304 0.385950
O O3 0.901767 0.291382 0.052498
O O4 0.102865 0.411232 0.189705
O O5 0.554135 0.356465 0.232729
O O6 0.498537 0.072622 0.923814
O O7 0.791344 0.027283 0.814790
O O8 0.863675 0.805991 0.773169
O O9 0.500425 0.252184 0.649613
O O10 0.634411 0.965626 0.249670
O O11 0.643587 0.732440 0.193607
O O12 0.335786 0.857213 0.737783
O O13 0.238915 0.571053 0.528475
O O14 0.167705 0.788720 0.566615
O O15 0.500000 0.500000 0.000000
O O16 0.830329 0.235479 0.855807
O O17 0.000000 0.000000 0.000000
#
# Coordination Sequence:
#
# PCOD9106267 Si02
#       8
#     2   2   2   2   2   2   2   2
#     4  10  21  42  63  88 132 169 209 259 315 370
#     4  11  23  38  63  96 125 165 219 257 306 371
#     4  10  23  41  65  91 126 170 200 256 329 365
#     4  11  23  39  63  94 125 162 216 264 301 373
#     4  10  22  41  65  88 127 174 206 255 326 361
#     4  10  20  39  68  95 122 161 209 255 312 386
#     4  11  21  42  63  92 130 173 212 260 309 373
#     4   9  19  40  61  88 128 164 204 256 316 378
#
# _framework density 24.222640999999999
#
# number of rings (size 3 to 8) (size 9 to 14) (size 15 to 20)
#    0.000    1.750    3.750    2.250    0.000    5.000 
#    0.000   12.500    0.000   14.250    0.000    0.000 
#    0.000    0.000    0.000    0.000    0.000    0.000 
#
# Total GULP energy -89604.825342 kJ/mol
# GULP energy per Si atom -5600.301584 kJ/mol
# Density = 2.416751 g / cm^3
# Si number density = 24.222641 Si / 1000 Ang^3
#
#
#
# Elastic Constant Matrix: (Units=GPa)
#
#
# Indices 1 2 3 4 5 6 
#
# 1 127.5723 28.2388 10.8989 10.8324 -4.1392 -20.8476
# 2 28.2388 130.0848 23.1647 21.3655 -8.9617 -22.7310
# 3 10.8989 23.1647 73.8120 13.4690 -20.4428 -8.6956
# 4 10.8324 21.3655 13.4690 44.0069 -9.6704 -2.5769
# 5 -4.1392 -8.9617 -20.4428 -9.6704 46.3866 -2.5544
# 6 -20.8476 -22.7310 -8.6956 -2.5769 -2.5544 39.9973
#
#
#
# Elastic Compliance Matrix: (Units=1/GPa)
#
#
# Indices 1 2 3 4 5 6 
#
# 1 0.008840 -0.000943 -0.000166 -0.001330 0.000475 0.003981
# 2 -0.000943 0.009561 -0.001528 -0.003553 0.000592 0.004419
# 3 -0.000166 -0.001528 0.016737 -0.002703 0.006664 0.002935
# 4 -0.001330 -0.003553 -0.002703 0.026270 0.003404 -0.001390
# 5 0.000475 0.000592 0.006664 0.003404 0.025575 0.003886
# 6 0.003981 0.004419 0.002935 -0.001390 0.003886 0.030384
#
#
# Mechanical properties :
#
#
# Convention : Reuss Voigt Hill
#
# Bulk Modulus (GPa) = 33.48602 50.67488 42.08045
# Shear Modulus (GPa) = 37.70848 44.02260 40.86554
#
# Velocity S-wave (km/s) = 3.94984 4.26774 4.11186
# Velocity P-wave (km/s) = 5.88693 6.72686 6.32086
#
# Compressibility (1/GPa) = 0.02986321
#
# Stress axis : x y z
#
# Youngs Moduli (GPa) = 113.11671 104.59638 59.74857
#
# Poissons Ratio (x) = 0.09861 0.00993
# Poissons Ratio (y) = 0.10664 0.09132
# Poissons Ratio (z) = 0.01880 0.15986
#
# Static dielectric constant tensor:
#      x y z
#    x 1.938230 -0.014890 0.059570 
#    y -0.014890 1.902380 0.005630 
#    z 0.059570 0.005630 1.983330 
# 
# From -- ./inp_files/505831.got.cif
#   From: 2010.05.17/outbox.cif.g08.bks.cpg/sg2_253_cif.got.tgz:505831.got - 2010.06.03 11:33:40.
