data_PCOD9106331
_publ_section_title
;
Structure prediction by ZEFSAII (Michael W. Deem and Ramdas Pophale) SiO2 
 PCOD9106331
Probable space group: P -1
;
_chemical_formula_sum "Si O2"
_cell_formula_units_Z 14
_cell_length_a 9.290448
_cell_length_b 17.273728
_cell_length_c 11.375146
_cell_angle_alpha 34.779062
_cell_angle_beta 127.160857
_cell_angle_gamma 139.912858
_cell_volume 669.063781
_symmetry_space_group_name_H-M "P -1"
_symmetry_group_IT_number 2
_symmetry_cell_setting 'triclinic'
loop_
_space_group_symop_operation_xyz
x,y,z
-x,-y,-z
loop_
_atom_site_type_symbol
_atom_site_label
_atom_site_fract_x
_atom_site_fract_y
_atom_site_fract_z
Si Si1 0.310663 0.059821 0.590416
Si Si2 0.242313 0.936639 0.451802
Si Si3 0.534761 0.642632 0.254326
Si Si4 0.840867 0.755762 0.810252
Si Si5 0.126789 0.170381 0.005004
Si Si6 0.598373 0.974319 0.962908
Si Si7 0.111500 0.407149 0.184960
O O1 0.334524 0.231180 0.370179
O O2 0.225395 0.989838 0.506571
O O3 0.092796 0.933865 0.719264
O O4 0.511113 0.047105 0.734620
O O5 0.041018 0.739700 0.609562
O O6 0.500000 0.000000 0.500000
O O7 0.191119 0.038734 0.213102
O O8 0.500000 0.500000 0.500000
O O9 0.514692 0.783676 0.128907
O O10 0.352297 0.541602 0.189178
O O11 0.765066 0.734978 0.181347
O O12 0.782738 0.720004 0.964642
O O13 0.877316 0.648933 0.871561
O O14 0.863279 0.078415 0.977785
O O15 0.500000 0.000000 0.000000
O O16 0.000000 0.500000 0.000000
#
# Coordination Sequence:
#
# PCOD9106331 Si02
#       7
#     2   2   2   2   2   2   2
#     4   9  18  34  63  97 126 163 229 270 324 393
#     4  10  20  39  69 100 129 175 233 275 332 409
#     4  12  28  45  65 100 143 182 221 291 360 395
#     4   9  19  38  66  98 126 175 219 282 336 395
#     4  11  23  44  71  98 134 179 242 282 328 420
#     4  12  24  41  73  98 135 187 234 275 332 425
#     4  11  23  40  68  98 145 174 219 288 354 404
#
# _framework density 20.924762000000001
#
# number of rings (size 3 to 8) (size 9 to 14) (size 15 to 20)
#    0.000    1.429    1.429    5.571    2.000    1.714 
#    0.000    0.714    3.143    0.000    0.000    0.000 
#    0.000    0.000    0.000    0.000    0.000    0.000 
#
# Total GULP energy -77945.644710 kJ/mol
# GULP energy per Si atom -5567.546051 kJ/mol
# Density = 2.087714 g / cm^3
# Si number density = 20.924762 Si / 1000 Ang^3
#
#
#
# Elastic Constant Matrix: (Units=GPa)
#
#
# Indices 1 2 3 4 5 6 
#
# 1 128.3342 41.1290 59.8069 -9.6488 13.3057 2.4344
# 2 41.1290 81.5594 32.1728 5.3319 14.2821 5.7875
# 3 59.8069 32.1728 119.6323 15.0361 14.9709 -5.1650
# 4 -9.6488 5.3319 15.0361 31.4155 6.6198 7.6466
# 5 13.3057 14.2821 14.9709 6.6198 43.7837 5.2931
# 6 2.4344 5.7875 -5.1650 7.6466 5.2931 44.4752
#
#
#
# Elastic Compliance Matrix: (Units=1/GPa)
#
#
# Indices 1 2 3 4 5 6 
#
# 1 0.012902 -0.004166 -0.006318 0.008528 -0.001426 -0.002194
# 2 -0.004166 0.015710 -0.001554 -0.002299 -0.002827 -0.001265
# 3 -0.006318 -0.001554 0.013351 -0.008711 -0.001274 0.003748
# 4 0.008528 -0.002299 -0.008711 0.041817 -0.004235 -0.007865
# 5 -0.001426 -0.002827 -0.001274 -0.004235 0.025514 -0.002010
# 6 -0.002194 -0.001265 0.003748 -0.007865 -0.002010 0.024796
#
#
# Mechanical properties :
#
#
# Convention : Reuss Voigt Hill
#
# Bulk Modulus (GPa) = 55.90589 66.19369 61.04979
# Shear Modulus (GPa) = 30.46376 37.02936 33.74656
#
# Velocity S-wave (km/s) = 3.81973 4.21128 4.02027
# Velocity P-wave (km/s) = 6.79922 7.43971 7.12666
#
# Compressibility (1/GPa) = 0.01788720
#
# Stress axis : x y z
#
# Youngs Moduli (GPa) = 77.50520 63.65345 74.89819
#
# Poissons Ratio (x) = 0.26520 0.47320
# Poissons Ratio (y) = 0.32291 0.11640
# Poissons Ratio (z) = 0.48967 0.09892
#
# Static dielectric constant tensor:
#      x y z
#    x 1.892720 -0.084130 -0.041800 
#    y -0.084130 1.826780 -0.042590 
#    z -0.041800 -0.042590 1.961920 
# 
# From -- ./inp_files/184530.got.cif
#   From: 2010.05.17/outbox.cif.g08.bks.cpg/sg2_93_cif.got.tgz:184530.got - 2010.06.03 11:33:40.
