data_PCOD9106246
_publ_section_title
;
Structure prediction by ZEFSAII (Michael W. Deem and Ramdas Pophale) SiO2 
 PCOD9106246
Probable space group: P -1
;
_chemical_formula_sum "Si O2"
_cell_formula_units_Z 16
_cell_length_a 10.905858
_cell_length_b 13.053652
_cell_length_c 12.255768
_cell_angle_alpha 51.868775
_cell_angle_beta 140.611340
_cell_angle_gamma 144.901418
_cell_volume 636.082015
_symmetry_space_group_name_H-M "P -1"
_symmetry_group_IT_number 2
_symmetry_cell_setting 'triclinic'
loop_
_space_group_symop_operation_xyz
x,y,z
-x,-y,-z
loop_
_atom_site_type_symbol
_atom_site_label
_atom_site_fract_x
_atom_site_fract_y
_atom_site_fract_z
Si Si1 0.095113 0.758632 0.396203
Si Si2 0.946775 0.606603 0.005694
Si Si3 0.372003 0.578232 0.289621
Si Si4 0.902255 0.886334 0.326052
Si Si5 0.593710 0.739082 0.550700
Si Si6 0.678105 0.102201 0.763942
Si Si7 0.591249 0.365742 0.268523
Si Si8 0.481261 0.234752 0.050768
O O1 0.060389 0.832495 0.428707
O O2 0.808378 0.579343 0.275955
O O3 0.237875 0.894692 0.303861
O O4 0.248033 0.696367 0.570902
O O5 0.733267 0.418916 0.046469
O O6 0.195899 0.629945 0.130552
O O7 0.068382 0.764931 0.069758
O O8 0.799989 0.585444 0.807476
O O9 0.659753 0.741898 0.332217
O O10 0.428159 0.575985 0.457524
O O11 0.763626 0.866637 0.131788
O O12 0.103115 0.084934 0.380050
O O13 0.446194 0.811815 0.388626
O O14 0.561618 0.688146 0.688391
O O15 0.492806 0.906819 0.815890
O O16 0.436073 0.283465 0.103562
#
# Coordination Sequence:
#
# PCOD9106246 Si02
#       8
#     2   2   2   2   2   2   2   2
#     4  10  21  38  63  93 125 158 204 251 309 366
#     4   9  19  41  65  90 120 160 213 251 295 362
#     4   9  20  40  64  81 125 169 200 252 303 349
#     4  11  23  39  59  94 129 160 197 256 312 360
#     4  10  21  40  63  88 124 164 207 249 298 366
#     4  10  20  39  68  93 117 162 206 252 304 365
#     4  10  21  39  65  92 119 164 207 249 300 372
#     4  11  22  38  65  98 123 156 201 256 314 361
#
# _framework density 25.153987999999998
#
# number of rings (size 3 to 8) (size 9 to 14) (size 15 to 20)
#    0.000    2.000    1.250    1.875    1.750    4.500 
#    4.500   16.250    0.000    0.000    0.000    0.000 
#    0.000    0.000    0.000    0.000    0.000    0.000 
#
# Total GULP energy -89560.252490 kJ/mol
# GULP energy per Si atom -5597.515781 kJ/mol
# Density = 2.509674 g / cm^3
# Si number density = 25.153988 Si / 1000 Ang^3
#
#
#
# Elastic Constant Matrix: (Units=GPa)
#
#
# Indices 1 2 3 4 5 6 
#
# 1 105.4045 24.9874 30.8668 5.0328 -9.1724 0.1892
# 2 24.9874 126.3082 37.0614 12.3730 -10.1090 -4.7248
# 3 30.8668 37.0614 151.4547 21.4127 -30.5520 4.8278
# 4 5.0328 12.3730 21.4127 37.6717 -6.9040 -0.7926
# 5 -9.1724 -10.1090 -30.5520 -6.9040 36.9037 1.8814
# 6 0.1892 -4.7248 4.8278 -0.7926 1.8814 27.3701
#
#
#
# Elastic Compliance Matrix: (Units=1/GPa)
#
#
# Indices 1 2 3 4 5 6 
#
# 1 0.010385 -0.001541 -0.001582 0.000178 0.000889 -0.000115
# 2 -0.001541 0.008959 -0.001630 -0.001716 0.000311 0.001774
# 3 -0.001582 -0.001630 0.009128 -0.003354 0.006212 -0.002405
# 4 0.000178 -0.001716 -0.003354 0.029425 0.002252 0.000991
# 5 0.000889 0.000311 0.006212 0.002252 0.033134 -0.003261
# 6 -0.000115 0.001774 -0.002405 0.000991 -0.003261 0.037520
#
#
# Mechanical properties :
#
#
# Convention : Reuss Voigt Hill
#
# Bulk Modulus (GPa) = 52.72122 63.22206 57.97164
# Shear Modulus (GPa) = 34.63128 39.73920 37.18524
#
# Velocity S-wave (km/s) = 3.71451 3.97903 3.84904
# Velocity P-wave (km/s) = 6.27708 6.80432 6.54601
#
# Compressibility (1/GPa) = 0.01896770
#
# Stress axis : x y z
#
# Youngs Moduli (GPa) = 96.29489 111.61363 109.55636
#
# Poissons Ratio (x) = 0.17199 0.17327
# Poissons Ratio (y) = 0.14839 0.17853
# Poissons Ratio (z) = 0.15230 0.18188
#
# Static dielectric constant tensor:
#      x y z
#    x 2.054000 -0.064760 0.038370 
#    y -0.064760 1.953380 -0.013050 
#    z 0.038370 -0.013050 2.032860 
# 
# From -- ./inp_files/238446.got.cif
#   From: 2010.05.17/outbox.cif.g08.bks.cpg/sg2_120_cif.got.tgz:238446.got - 2010.06.03 11:33:40.
