data_PCOD9106223
_publ_section_title
;
Structure prediction by ZEFSAII (Michael W. Deem and Ramdas Pophale) SiO2 
 PCOD9106223
Probable space group: P -1
;
_chemical_formula_sum "Si O2"
_cell_formula_units_Z 16
_cell_length_a 26.323738
_cell_length_b 9.094561
_cell_length_c 19.346141
_cell_angle_alpha 29.187515
_cell_angle_beta 161.275484
_cell_angle_gamma 152.386096
_cell_volume 671.095640
_symmetry_space_group_name_H-M "P -1"
_symmetry_group_IT_number 2
_symmetry_cell_setting 'triclinic'
loop_
_space_group_symop_operation_xyz
x,y,z
-x,-y,-z
loop_
_atom_site_type_symbol
_atom_site_label
_atom_site_fract_x
_atom_site_fract_y
_atom_site_fract_z
Si Si1 0.161357 0.682757 0.473612
Si Si2 0.111017 0.398410 0.741183
Si Si3 0.367433 0.653155 0.492837
Si Si4 0.988653 0.737830 0.782010
Si Si5 0.256666 0.314403 0.624934
Si Si6 0.656430 0.172435 0.841421
Si Si7 0.596530 0.419824 0.053165
Si Si8 0.586144 0.641263 0.459021
O O1 0.180232 0.475206 0.518653
O O2 0.288112 0.650296 0.710456
O O3 0.970330 0.577375 0.300186
O O4 0.249098 0.069499 0.415413
O O5 0.305963 0.578407 0.894236
O O6 0.000000 0.500000 0.500000
O O7 0.066501 0.016819 0.824248
O O8 0.164230 0.573408 0.256697
O O9 0.376328 0.576067 0.616066
O O10 0.395968 0.391883 0.585875
O O11 0.500000 0.000000 0.500000
O O12 0.896380 0.876364 0.546370
O O13 0.140086 0.671011 0.968268
O O14 0.396112 0.192548 0.887015
O O15 0.581674 0.308950 0.624617
O O16 0.576636 0.286339 0.756748
O O17 0.608478 0.785512 0.937500
#
# Coordination Sequence:
#
# PCOD9106223 Si02
#       8
#     2   2   2   2   2   2   2   2
#     4  11  20  39  66  93 117 166 211 256 291 375
#     4   9  19  39  61  87 119 160 206 250 292 369
#     4  10  22  40  59  86 130 164 191 258 317 361
#     4   9  21  41  58  88 130 155 202 254 318 358
#     4  10  21  38  59  92 125 158 200 258 310 362
#     4  10  22  39  64  93 116 166 208 256 298 376
#     4  10  20  39  68  87 124 164 210 244 313 368
#     4  11  22  39  65  89 123 157 219 249 302 370
#
# _framework density 23.841609999999999
#
# number of rings (size 3 to 8) (size 9 to 14) (size 15 to 20)
#    0.750    1.250    2.500    1.125    1.750    0.500 
#    4.500   12.500    0.000    0.000    0.000    0.000 
#    0.000    0.000    0.000    0.000    0.000    0.000 
#
# Total GULP energy -89290.591213 kJ/mol
# GULP energy per Si atom -5580.661951 kJ/mol
# Density = 2.378734 g / cm^3
# Si number density = 23.841610 Si / 1000 Ang^3
#
#
#
# Elastic Constant Matrix: (Units=GPa)
#
#
# Indices 1 2 3 4 5 6 
#
# 1 135.3078 12.9254 33.1507 21.1098 35.5579 -11.2976
# 2 12.9254 53.4339 12.9644 2.7478 6.6700 0.7173
# 3 33.1507 12.9644 98.8939 7.6236 29.0037 3.9081
# 4 21.1098 2.7478 7.6236 17.9179 18.8700 -2.4563
# 5 35.5579 6.6700 29.0037 18.8700 47.9073 -0.0342
# 6 -11.2976 0.7173 3.9081 -2.4563 -0.0342 26.8106
#
#
#
# Elastic Compliance Matrix: (Units=1/GPa)
#
#
# Indices 1 2 3 4 5 6 
#
# 1 0.010328 -0.001296 -0.001842 -0.006710 -0.003724 0.004036
# 2 -0.001296 0.019583 -0.001936 -0.000238 -0.000500 -0.000810
# 3 -0.001842 -0.001936 0.013133 0.005531 -0.008494 -0.002143
# 4 -0.006710 -0.000238 0.005531 0.103274 -0.039009 0.005784
# 5 -0.003724 -0.000500 -0.008494 -0.039009 0.044212 -0.003835
# 6 0.004036 -0.000810 -0.002143 0.005784 -0.003835 0.039858
#
#
# Mechanical properties :
#
#
# Convention : Reuss Voigt Hill
#
# Bulk Modulus (GPa) = 30.39860 45.07963 37.73912
# Shear Modulus (GPa) = 19.88054 33.76682 26.82368
#
# Velocity S-wave (km/s) = 2.89079 3.76746 3.35786
# Velocity P-wave (km/s) = 4.89082 6.15418 5.55851
#
# Compressibility (1/GPa) = 0.03289625
#
# Stress axis : x y z
#
# Youngs Moduli (GPa) = 96.82192 51.06386 76.14627
#
# Poissons Ratio (x) = 0.06616 0.14029
# Poissons Ratio (y) = 0.12544 0.14742
# Poissons Ratio (z) = 0.17838 0.09886
#
# Static dielectric constant tensor:
#      x y z
#    x 1.930220 0.044180 -0.043980 
#    y 0.044180 1.944350 0.013900 
#    z -0.043980 0.013900 1.981580 
# 
# From -- ./inp_files/602270.got.cif
#   From: 2010.05.17/outbox.cif.g08.bks.cpg/sg2_302_cif.got.tgz:602270.got - 2010.06.03 11:33:40.
