data_PCOD9106811
_publ_section_title
;
Structure prediction by ZEFSAII (Michael W. Deem and Ramdas Pophale) SiO2 
 PCOD9106811
Probable space group: P -1
;
_chemical_formula_sum "Si O2"
_cell_formula_units_Z 13
_cell_length_a 7.174534
_cell_length_b 15.229472
_cell_length_c 12.037889
_cell_angle_alpha 148.251449
_cell_angle_beta 52.253927
_cell_angle_gamma 123.890454
_cell_volume 545.097738
_symmetry_space_group_name_H-M "P -1"
_symmetry_group_IT_number 2
_symmetry_cell_setting 'triclinic'
loop_
_space_group_symop_operation_xyz
x,y,z
-x,-y,-z
loop_
_atom_site_type_symbol
_atom_site_label
_atom_site_fract_x
_atom_site_fract_y
_atom_site_fract_z
Si Si1 0.344748 0.971676 0.835200
Si Si2 0.070827 0.365607 0.048697
Si Si3 0.713020 0.506532 0.164354
Si Si4 0.877065 0.897117 0.535647
Si Si5 0.002637 0.948494 0.125725
Si Si6 0.789819 0.419405 0.564832
Si Si7 0.500000 0.500000 0.000000
O O1 0.624102 0.971962 0.730052
O O2 0.239050 0.779437 0.645601
O O3 0.225178 0.017768 0.044057
O O4 0.227226 0.073983 0.892180
O O5 0.878364 0.406292 0.073841
O O6 0.186383 0.525672 0.253476
O O7 0.326282 0.318994 0.863763
O O8 0.957421 0.231191 0.030849
O O9 0.825175 0.698767 0.327925
O O10 0.452100 0.514112 0.318339
O O11 0.655562 0.442209 0.991591
O O12 0.025253 0.933195 0.632550
O O13 0.000000 0.000000 0.500000
O O14 0.000000 0.500000 0.500000
#
# Coordination Sequence:
#
# PCOD9106811 Si02
#       7
#     2   2   2   2   2   2   1
#     4  10  23  43  63  91 129 166 211 258 309 377
#     4  11  22  38  63  95 123 163 206 256 315 367
#     4  10  23  40  63  92 123 160 207 261 303 375
#     4  11  24  42  63  92 126 167 210 255 317 377
#     4  11  23  41  64  92 129 167 206 259 316 373
#     4  10  20  40  61  89 121 159 206 253 308 359
#     4  10  22  40  62  90 126 158 208 256 308 374
#
# _framework density 23.848935000000001
#
# number of rings (size 3 to 8) (size 9 to 14) (size 15 to 20)
#    0.000    1.538    1.538    2.769    0.000    4.923 
#    2.769    0.000    0.000    0.000    0.000    0.000 
#    0.000    0.000    0.000    0.000    0.000    0.000 
#
# Total GULP energy -72447.162915 kJ/mol
# GULP energy per Si atom -5572.858686 kJ/mol
# Density = 2.379465 g / cm^3
# Si number density = 23.848935 Si / 1000 Ang^3
#
#
#
# Elastic Constant Matrix: (Units=GPa)
#
#
# Indices 1 2 3 4 5 6 
#
# 1 180.9260 70.0102 28.5359 -2.1657 -6.3127 -30.6869
# 2 70.0102 108.5849 5.1985 -1.2103 -5.0119 -4.2470
# 3 28.5359 5.1985 44.3461 2.6929 11.2201 -5.6561
# 4 -2.1657 -1.2103 2.6929 19.7369 6.2026 1.5353
# 5 -6.3127 -5.0119 11.2201 6.2026 44.2296 -7.3952
# 6 -30.6869 -4.2470 -5.6561 1.5353 -7.3952 39.1587
#
#
#
# Elastic Compliance Matrix: (Units=1/GPa)
#
#
# Indices 1 2 3 4 5 6 
#
# 1 0.009934 -0.005704 -0.005685 -0.000095 0.003396 0.006990
# 2 -0.005704 0.012668 0.001896 0.000237 -0.000378 -0.002903
# 3 -0.005685 0.001896 0.027831 -0.001767 -0.007678 -0.001611
# 4 -0.000095 0.000237 -0.001767 0.053634 -0.007706 -0.003862
# 5 0.003396 -0.000378 -0.007678 -0.007706 0.027243 0.006958
# 6 0.006990 -0.002903 -0.001611 -0.003862 0.006958 0.031933
#
#
# Mechanical properties :
#
#
# Convention : Reuss Voigt Hill
#
# Bulk Modulus (GPa) = 31.80005 60.14956 45.97480
# Shear Modulus (GPa) = 25.94584 35.96587 30.95586
#
# Velocity S-wave (km/s) = 3.30195 3.88760 3.60668
# Velocity P-wave (km/s) = 5.28205 6.73996 6.05504
#
# Compressibility (1/GPa) = 0.03144649
#
# Stress axis : x y z
#
# Youngs Moduli (GPa) = 100.66698 78.94147 35.93160
#
# Poissons Ratio (x) = 0.45024 0.20429
# Poissons Ratio (y) = 0.57416 -0.06813
# Poissons Ratio (z) = 0.57234 -0.14969
#
# Static dielectric constant tensor:
#      x y z
#    x 1.873330 -0.036630 0.081260 
#    y -0.036630 1.864830 0.098130 
#    z 0.081260 0.098130 1.851920 
# 
# From -- ./inp_files/26154.got.cif
#   From: 2010.05.17/outbox.cif.g08.bks.cpg/sg2_14_cif.got.tgz:26154.got - 2010.06.03 11:33:40.
