data_PCOD9106176
_publ_section_title
;
Structure prediction by ZEFSAII (Michael W. Deem and Ramdas Pophale) SiO2 
 PCOD9106176
Probable space group: P -1
;
_chemical_formula_sum "Si O2"
_cell_formula_units_Z 14
_cell_length_a 11.283232
_cell_length_b 16.581059
_cell_length_c 7.791370
_cell_angle_alpha 52.505739
_cell_angle_beta 41.581656
_cell_angle_gamma 34.724646
_cell_volume 551.012337
_symmetry_space_group_name_H-M "P -1"
_symmetry_group_IT_number 2
_symmetry_cell_setting 'triclinic'
loop_
_space_group_symop_operation_xyz
x,y,z
-x,-y,-z
loop_
_atom_site_type_symbol
_atom_site_label
_atom_site_fract_x
_atom_site_fract_y
_atom_site_fract_z
Si Si1 0.571768 0.165986 0.946665
Si Si2 0.399373 0.750783 0.658234
Si Si3 0.819195 0.666051 0.513366
Si Si4 0.089592 0.264111 0.312482
Si Si5 0.902142 0.943391 0.538716
Si Si6 0.873674 0.864013 0.048731
Si Si7 0.730133 0.551917 0.235600
O O1 0.434807 0.332089 0.884350
O O2 0.838348 0.100329 0.678719
O O3 0.673132 0.027201 0.127160
O O4 0.353534 0.195258 0.035885
O O5 0.549406 0.723059 0.700756
O O6 0.582501 0.629469 0.473398
O O7 0.153438 0.781184 0.913178
O O8 0.301346 0.895137 0.500837
O O9 0.885426 0.686183 0.599540
O O10 0.000000 0.500000 0.500000
O O11 0.831675 0.761666 0.257633
O O12 0.087962 0.146218 0.500540
O O13 0.834750 0.396030 0.321607
O O14 0.864939 0.892841 0.817003
O O15 0.000000 0.500000 0.000000
#
# Coordination Sequence:
#
# PCOD9106176 Si02
#       7
#     2   2   2   2   2   2   2
#     4  10  21  43  69 101 135 162 220 282 331 382
#     4  11  22  46  70  96 135 171 223 273 326 393
#     4  12  28  46  63  93 141 185 215 262 332 403
#     4  11  26  42  63 100 137 179 217 263 332 395
#     4  11  23  41  75 103 127 166 224 284 328 380
#     4  11  24  41  74 101 125 175 225 270 334 387
#     4  10  20  39  67  97 137 165 214 274 326 385
#
# _framework density 25.407779000000001
#
# number of rings (size 3 to 8) (size 9 to 14) (size 15 to 20)
#    0.000    1.143    4.286    1.714    4.000    5.714 
#    2.571    2.857    0.000    0.000    0.000    0.000 
#    0.000    0.000    0.000    0.000    0.000    0.000 
#
# Total GULP energy -78025.432977 kJ/mol
# GULP energy per Si atom -5573.245213 kJ/mol
# Density = 2.534995 g / cm^3
# Si number density = 25.407779 Si / 1000 Ang^3
#
#
#
# Elastic Constant Matrix: (Units=GPa)
#
#
# Indices 1 2 3 4 5 6 
#
# 1 99.1277 34.2952 21.2844 -2.0438 -11.0982 -6.8949
# 2 34.2952 170.8694 43.9069 22.4074 -19.3223 -15.2938
# 3 21.2844 43.9069 76.0992 -6.1390 -9.3261 -8.1429
# 4 -2.0438 22.4074 -6.1390 35.3638 -2.6957 -5.7787
# 5 -11.0982 -19.3223 -9.3261 -2.6957 30.8257 -1.2707
# 6 -6.8949 -15.2938 -8.1429 -5.7787 -1.2707 49.0777
#
#
#
# Elastic Compliance Matrix: (Units=1/GPa)
#
#
# Indices 1 2 3 4 5 6 
#
# 1 0.011452 -0.001719 -0.001604 0.001863 0.002768 0.001098
# 2 -0.001719 0.008537 -0.004448 -0.005885 0.002916 0.001063
# 3 -0.001604 -0.004448 0.017178 0.006228 0.002460 0.002035
# 4 0.001863 -0.005885 0.006228 0.033919 0.001977 0.003506
# 5 0.002768 0.002916 0.002460 0.001977 0.036300 0.002878
# 6 0.001098 0.001063 0.002035 0.003506 0.002878 0.021687
#
#
# Mechanical properties :
#
#
# Convention : Reuss Voigt Hill
#
# Bulk Modulus (GPa) = 46.24658 60.56328 53.40493
# Shear Modulus (GPa) = 32.93286 39.49408 36.21347
#
# Velocity S-wave (km/s) = 3.60415 3.94688 3.77940
# Velocity P-wave (km/s) = 5.96331 6.68272 6.33324
#
# Compressibility (1/GPa) = 0.02162322
#
# Stress axis : x y z
#
# Youngs Moduli (GPa) = 87.32121 117.13394 58.21520
#
# Poissons Ratio (x) = 0.20140 0.09337
# Poissons Ratio (y) = 0.15014 0.25897
# Poissons Ratio (z) = 0.14006 0.52107
#
# Static dielectric constant tensor:
#      x y z
#    x 2.123540 0.127930 0.108180 
#    y 0.127930 2.126220 0.061850 
#    z 0.108180 0.061850 2.238130 
# 
# From -- ./inp_files/278937.got.cif
#   From: 2010.05.17/outbox.cif.g08.bks.cpg/sg2_140_cif.got.tgz:278937.got - 2010.06.03 11:33:40.
