data_PCOD9106803
_publ_section_title
;
Structure prediction by ZEFSAII (Michael W. Deem and Ramdas Pophale) SiO2 
 PCOD9106803
Probable space group: P -1
;
_chemical_formula_sum "Si O2"
_cell_formula_units_Z 16
_cell_length_a 8.890605
_cell_length_b 22.290935
_cell_length_c 7.161329
_cell_angle_alpha 89.824250
_cell_angle_beta 103.575429
_cell_angle_gamma 35.132930
_cell_volume 744.100886
_symmetry_space_group_name_H-M "P -1"
_symmetry_group_IT_number 2
_symmetry_cell_setting 'triclinic'
loop_
_space_group_symop_operation_xyz
x,y,z
-x,-y,-z
loop_
_atom_site_type_symbol
_atom_site_label
_atom_site_fract_x
_atom_site_fract_y
_atom_site_fract_z
Si Si1 0.187932 0.255131 0.314488
Si Si2 0.204985 0.116816 0.318425
Si Si3 0.284895 0.543171 0.587498
Si Si4 0.190665 0.517054 0.914392
Si Si5 0.836411 0.132726 0.096616
Si Si6 0.741833 0.221456 0.427638
Si Si7 0.232123 0.892347 0.317872
Si Si8 0.802025 0.534606 0.685671
O O1 0.215645 0.179959 0.239513
O O2 0.489016 0.175491 0.492389
O O3 0.951893 0.333284 0.411088
O O4 0.055665 0.351135 0.147430
O O5 0.073752 0.108478 0.144764
O O6 0.975808 0.190737 0.420702
O O7 0.500000 0.000000 0.500000
O O8 0.500000 0.500000 0.500000
O O9 0.401833 0.475821 0.818058
O O10 0.126264 0.539386 0.441031
O O11 0.050565 0.501015 0.799573
O O12 0.638601 0.223429 0.203259
O O13 0.294131 0.467291 0.150417
O O14 0.695983 0.158656 0.863476
O O15 0.007224 0.019137 0.223542
O O16 0.888985 0.122299 0.593890
O O17 0.478090 0.336532 0.456283
#
# Coordination Sequence:
#
# PCOD9106803 Si02
#       8
#     2   2   2   2   2   2   2   2
#     4  10  20  40  61  88 124 162 194 255 305 348
#     4  10  20  40  62  86 124 157 191 247 309 360
#     4  10  22  38  58  85 124 162 197 248 303 358
#     4   9  23  37  62  85 124 155 209 254 291 359
#     4   9  23  35  65  90 119 155 197 248 303 360
#     4  10  21  36  63  86 121 161 195 247 306 356
#     4  11  19  41  63  91 118 153 210 246 300 361
#     4  11  20  40  60  91 117 159 210 246 302 352
#
# _framework density 21.502462999999999
#
# number of rings (size 3 to 8) (size 9 to 14) (size 15 to 20)
#    1.500    0.500    2.500    1.500    0.000    3.500 
#    0.000    1.875    0.000    0.000    0.000    0.000 
#    0.000    0.000    0.000    0.000    0.000    0.000 
#
# Total GULP energy -89139.688381 kJ/mol
# GULP energy per Si atom -5571.230524 kJ/mol
# Density = 2.145352 g / cm^3
# Si number density = 21.502463 Si / 1000 Ang^3
#
#
#
# Elastic Constant Matrix: (Units=GPa)
#
#
# Indices 1 2 3 4 5 6 
#
# 1 70.9976 14.7383 23.4140 -4.5435 -12.2109 17.9606
# 2 14.7383 52.4162 5.3917 -2.2055 -0.7225 22.1100
# 3 23.4140 5.3917 48.0779 -0.9862 -13.7661 16.9931
# 4 -4.5435 -2.2055 -0.9862 17.0730 -4.3429 -3.5748
# 5 -12.2109 -0.7225 -13.7661 -4.3429 29.5659 1.5051
# 6 17.9606 22.1100 16.9931 -3.5748 1.5051 46.5016
#
#
#
# Elastic Compliance Matrix: (Units=1/GPa)
#
#
# Indices 1 2 3 4 5 6 
#
# 1 0.018848 -0.002893 -0.005775 0.005070 0.005953 -0.003597
# 2 -0.002893 0.024565 0.003290 0.000539 0.001616 -0.011776
# 3 -0.005775 0.003290 0.030794 0.001653 0.012830 -0.010875
# 4 0.005070 0.000539 0.001653 0.063520 0.012122 0.001672
# 5 0.005953 0.001616 0.012830 0.012122 0.044496 -0.008264
# 6 -0.003597 -0.011776 -0.010875 0.001672 -0.008264 0.032863
#
#
# Mechanical properties :
#
#
# Convention : Reuss Voigt Hill
#
# Bulk Modulus (GPa) = 15.76009 28.73108 22.24559
# Shear Modulus (GPa) = 20.24347 27.15794 23.70070
#
# Velocity S-wave (km/s) = 3.07163 3.55775 3.32359
# Velocity P-wave (km/s) = 4.46377 5.50159 5.00963
#
# Compressibility (1/GPa) = 0.06345142
#
# Stress axis : x y z
#
# Youngs Moduli (GPa) = 53.05544 40.70789 32.47352
#
# Poissons Ratio (x) = 0.11777 0.18753
# Poissons Ratio (y) = 0.15349 -0.10683
# Poissons Ratio (z) = 0.30639 -0.13392
#
# Static dielectric constant tensor:
#      x y z
#    x 1.799490 0.043890 -0.007990 
#    y 0.043890 1.691250 0.020530 
#    z -0.007990 0.020530 1.778280 
# 
# From -- ./inp_files/222092.got.cif
#   From: 2010.05.17/outbox.cif.g08.bks.cpg/sg2_112_cif.got.tgz:222092.got - 2010.06.03 11:33:40.
