data_PCOD9106637
_publ_section_title
;
Structure prediction by ZEFSAII (Michael W. Deem and Ramdas Pophale) SiO2 
 PCOD9106637
Probable space group: P -1
;
_chemical_formula_sum "Si O2"
_cell_formula_units_Z 12
_cell_length_a 5.670409
_cell_length_b 14.061759
_cell_length_c 13.545352
_cell_angle_alpha 151.697581
_cell_angle_beta 58.139585
_cell_angle_gamma 114.612551
_cell_volume 431.791961
_symmetry_space_group_name_H-M "P -1"
_symmetry_group_IT_number 2
_symmetry_cell_setting 'triclinic'
loop_
_space_group_symop_operation_xyz
x,y,z
-x,-y,-z
loop_
_atom_site_type_symbol
_atom_site_label
_atom_site_fract_x
_atom_site_fract_y
_atom_site_fract_z
Si Si1 0.853732 0.353813 0.970187
Si Si2 0.723222 0.928386 0.034805
Si Si3 0.853057 0.262562 0.571252
Si Si4 0.307079 0.275458 0.943895
Si Si5 0.758851 0.616267 0.586565
Si Si6 0.626013 0.768283 0.477618
O O1 0.639174 0.231306 0.847290
O O2 0.673027 0.521693 0.235720
O O3 0.094270 0.222432 0.858599
O O4 0.000000 0.500000 0.000000
O O5 0.801906 0.790193 0.986784
O O6 0.611669 0.798138 0.853623
O O7 0.530677 0.123252 0.295300
O O8 0.000000 0.000000 0.000000
O O9 0.727040 0.482051 0.837505
O O10 0.585906 0.163052 0.501723
O O11 0.049432 0.304562 0.471645
O O12 0.063788 0.174866 0.528500
O O13 0.500000 0.500000 0.500000
O O14 0.000000 0.500000 0.500000
#
# Coordination Sequence:
#
# PCOD9106637 Si02
#       6
#     2   2   2   2   2   2
#     4  10  22  47  74  96 126 174 234 294 342 399
#     4  12  26  44  64 104 151 187 218 278 336 408
#     4  10  20  40  59  87 129 175 229 268 310 397
#     4  10  23  40  68 101 130 176 229 270 341 417
#     4  12  25  39  63  88 130 191 236 261 320 395
#     4  10  23  40  64  98 131 171 226 277 335 397
#
# _framework density 27.791162
#
# number of rings (size 3 to 8) (size 9 to 14) (size 15 to 20)
#    0.000    1.333    3.333    1.500    4.667    3.333 
#    0.000    2.500    0.000    0.000    0.000    0.000 
#    0.000    0.000    0.000    0.000    0.000    0.000 
#
# Total GULP energy -67132.995319 kJ/mol
# GULP energy per Si atom -5594.416277 kJ/mol
# Density = 2.772791 g / cm^3
# Si number density = 27.791162 Si / 1000 Ang^3
#
#
#
# Elastic Constant Matrix: (Units=GPa)
#
#
# Indices 1 2 3 4 5 6 
#
# 1 346.0554 68.0923 48.1435 17.9217 -21.3116 26.8769
# 2 68.0923 107.5300 36.0721 -12.0565 0.8045 6.9478
# 3 48.1435 36.0721 113.1046 -4.5170 -2.8189 7.1242
# 4 17.9217 -12.0565 -4.5170 36.5650 -0.4104 0.2176
# 5 -21.3116 0.8045 -2.8189 -0.4104 46.7002 24.1761
# 6 26.8769 6.9478 7.1242 0.2176 24.1761 39.4683
#
#
#
# Elastic Compliance Matrix: (Units=1/GPa)
#
#
# Indices 1 2 3 4 5 6 
#
# 1 0.004331 -0.002535 -0.000710 -0.002963 0.004645 -0.005204
# 2 -0.002535 0.012322 -0.002797 0.004927 -0.002215 0.001392
# 3 -0.000710 -0.002797 0.010192 0.000707 0.001164 -0.001581
# 4 -0.002963 0.004927 0.000707 0.030474 -0.002298 0.002263
# 5 0.004645 -0.002215 0.001164 -0.002298 0.036842 -0.025538
# 6 -0.005204 0.001392 -0.001581 0.002263 -0.025538 0.044552
#
#
# Mechanical properties :
#
#
# Convention : Reuss Voigt Hill
#
# Bulk Modulus (GPa) = 67.74159 96.81176 82.27667
# Shear Modulus (GPa) = 32.10932 52.17217 42.14074
#
# Velocity S-wave (km/s) = 3.40277 4.33747 3.89824
# Velocity P-wave (km/s) = 6.31400 7.74571 7.06621
#
# Compressibility (1/GPa) = 0.01476198
#
# Stress axis : x y z
#
# Youngs Moduli (GPa) = 230.89227 81.15258 98.11278
#
# Poissons Ratio (x) = 0.20574 0.06963
# Poissons Ratio (y) = 0.58537 0.27442
# Poissons Ratio (z) = 0.16387 0.22698
#
# Static dielectric constant tensor:
#      x y z
#    x 2.221240 -0.037060 0.017720 
#    y -0.037060 2.143490 0.025600 
#    z 0.017720 0.025600 2.267720 
# 
# From -- ./inp_files/355616.got.cif
#   From: 2010.05.17/outbox.cif.g08.bks.cpg/sg2_178_cif.got.tgz:355616.got - 2010.06.03 11:33:40.
