data_PCOD9106336
_publ_section_title
;
Structure prediction by ZEFSAII (Michael W. Deem and Ramdas Pophale) SiO2 
 PCOD9106336
Probable space group: P -1
;
_chemical_formula_sum "Si O2"
_cell_formula_units_Z 16
_cell_length_a 10.337748
_cell_length_b 7.045339
_cell_length_c 17.016256
_cell_angle_alpha 83.620152
_cell_angle_beta 32.481616
_cell_angle_gamma 97.120426
_cell_volume 603.917284
_symmetry_space_group_name_H-M "P -1"
_symmetry_group_IT_number 2
_symmetry_cell_setting 'triclinic'
loop_
_space_group_symop_operation_xyz
x,y,z
-x,-y,-z
loop_
_atom_site_type_symbol
_atom_site_label
_atom_site_fract_x
_atom_site_fract_y
_atom_site_fract_z
Si Si1 0.467682 0.226037 0.955489
Si Si2 0.428802 0.763354 0.365126
Si Si3 0.377587 0.188881 0.339528
Si Si4 0.596077 0.750198 0.445047
Si Si5 0.384195 0.657501 0.957673
Si Si6 0.957599 0.706487 0.389631
Si Si7 0.832281 0.847444 0.026031
Si Si8 0.168073 0.631412 0.784665
O O1 0.481697 0.201479 0.042429
O O2 0.745380 0.248470 0.779726
O O3 0.432290 0.444483 0.952834
O O4 0.244052 0.072729 0.019472
O O5 0.626516 0.822852 0.336510
O O6 0.195136 0.545727 0.518366
O O7 0.358071 0.961304 0.382693
O O8 0.558776 0.733182 0.218873
O O9 0.110991 0.211762 0.497211
O O10 0.599836 0.357658 0.275897
O O11 0.482058 0.238280 0.196171
O O12 0.500000 0.500000 0.500000
O O13 0.838183 0.809704 0.378709
O O14 0.341516 0.768256 0.616718
O O15 0.064513 0.577889 0.120193
O O16 0.998926 0.718773 0.920929
O O17 0.000000 0.000000 0.000000
#
# Coordination Sequence:
#
# PCOD9106336 Si02
#       8
#     2   2   2   2   2   2   2   2
#     4  10  23  44  71  97 139 192 229 294 359 416
#     4  11  23  43  69 104 144 182 236 295 351 412
#     4  11  23  40  69 108 139 187 234 290 352 418
#     4   9  20  39  68 102 136 180 230 290 348 410
#     4  10  21  40  69 102 136 185 241 286 357 421
#     4  10  22  43  69 102 140 186 235 283 355 425
#     4  11  23  44  67  99 137 182 235 288 353 419
#     4  10  20  39  69 101 138 178 238 292 339 412
#
# _framework density 26.493694000000001
#
# number of rings (size 3 to 8) (size 9 to 14) (size 15 to 20)
#    0.000    1.750    1.250    3.375    0.000    7.000 
#    0.000    3.125    0.000    0.000    0.000    0.000 
#    0.000    0.000    0.000    0.000    0.000    0.000 
#
# Total GULP energy -89618.653509 kJ/mol
# GULP energy per Si atom -5601.165844 kJ/mol
# Density = 2.643339 g / cm^3
# Si number density = 26.493694 Si / 1000 Ang^3
#
#
#
# Elastic Constant Matrix: (Units=GPa)
#
#
# Indices 1 2 3 4 5 6 
#
# 1 160.7377 36.9045 64.5925 5.5518 25.0094 19.6087
# 2 36.9045 96.1413 32.0777 -6.9644 -1.8645 1.0622
# 3 64.5925 32.0777 138.9339 11.8455 24.7353 8.5859
# 4 5.5518 -6.9644 11.8455 46.7559 -6.0056 6.3484
# 5 25.0094 -1.8645 24.7353 -6.0056 51.8669 8.5026
# 6 19.6087 1.0622 8.5859 6.3484 8.5026 29.5620
#
#
#
# Elastic Compliance Matrix: (Units=1/GPa)
#
#
# Indices 1 2 3 4 5 6 
#
# 1 0.008810 -0.002477 -0.002807 -0.000442 -0.002367 -0.004163
# 2 -0.002477 0.012507 -0.002597 0.003178 0.003194 0.000347
# 3 -0.002807 -0.002597 0.010045 -0.003241 -0.004053 0.000900
# 4 -0.000442 0.003178 -0.003241 0.024229 0.005613 -0.005697
# 5 -0.002367 0.003194 -0.004053 0.005613 0.024017 -0.005481
# 6 -0.004163 0.000347 0.000900 -0.005697 -0.005481 0.039115
#
#
# Mechanical properties :
#
#
# Convention : Reuss Voigt Hill
#
# Bulk Modulus (GPa) = 64.10878 73.66247 68.88562
# Shear Modulus (GPa) = 35.79485 43.11951 39.45718
#
# Velocity S-wave (km/s) = 3.67968 4.03865 3.86334
# Velocity P-wave (km/s) = 6.50413 7.04356 6.77921
#
# Compressibility (1/GPa) = 0.01559849
#
# Stress axis : x y z
#
# Youngs Moduli (GPa) = 113.51268 79.95541 99.55390
#
# Poissons Ratio (x) = 0.19804 0.27949
# Poissons Ratio (y) = 0.28115 0.25855
# Poissons Ratio (z) = 0.31868 0.20765
#
# Static dielectric constant tensor:
#      x y z
#    x 2.116090 0.048650 0.001670 
#    y 0.048650 2.128670 -0.009270 
#    z 0.001670 -0.009270 2.039100 
# 
# From -- ./inp_files/513008.got.cif
#   From: 2010.05.17/outbox.cif.g08.bks.cpg/sg2_257_cif.got.tgz:513008.got - 2010.06.03 11:33:40.
