data_PCOD9106346
_publ_section_title
;
Structure prediction by ZEFSAII (Michael W. Deem and Ramdas Pophale) SiO2 
 PCOD9106346
Probable space group: P -1
;
_chemical_formula_sum "Si O2"
_cell_formula_units_Z 16
_cell_length_a 16.471506
_cell_length_b 5.876616
_cell_length_c 18.935654
_cell_angle_alpha 107.637326
_cell_angle_beta 154.608886
_cell_angle_gamma 80.163750
_cell_volume 724.867410
_symmetry_space_group_name_H-M "P -1"
_symmetry_group_IT_number 2
_symmetry_cell_setting 'triclinic'
loop_
_space_group_symop_operation_xyz
x,y,z
-x,-y,-z
loop_
_atom_site_type_symbol
_atom_site_label
_atom_site_fract_x
_atom_site_fract_y
_atom_site_fract_z
Si Si1 0.596581 0.304873 0.602319
Si Si2 0.531765 0.407454 0.093463
Si Si3 0.796462 0.957850 0.114775
Si Si4 0.515187 0.855315 0.201203
Si Si5 0.875175 0.209717 0.705028
Si Si6 0.542172 0.718264 0.357685
Si Si7 0.179752 0.638992 0.476008
Si Si8 0.086495 0.652261 0.651376
O O1 0.500000 0.500000 0.500000
O O2 0.804464 0.326244 0.729524
O O3 0.586531 0.375563 0.683194
O O4 0.500000 0.000000 0.500000
O O5 0.613587 0.651992 0.226596
O O6 0.689096 0.252858 0.188546
O O7 0.500000 0.500000 0.000000
O O8 0.345548 0.263910 0.976409
O O9 0.923744 0.871494 0.146368
O O10 0.940267 0.112811 0.302532
O O11 0.655264 0.107087 0.980998
O O12 0.433210 0.773288 0.207167
O O13 0.686134 0.101005 0.368748
O O14 0.882616 0.371343 0.655575
O O15 0.699783 0.968910 0.527380
O O16 0.671281 0.534678 0.418663
O O17 0.989728 0.552357 0.367171
O O18 0.000000 0.500000 0.500000
#
# Coordination Sequence:
#
# PCOD9106346 Si02
#       8
#     2   2   2   2   2   2   2   2
#     4  10  20  39  69 107 141 170 226 289 345 412
#     4  12  26  44  62  90 130 182 223 273 343 403
#     4  12  25  44  62  95 137 175 219 275 347 408
#     4  11  25  42  65  90 135 182 219 273 343 411
#     4  10  22  38  68 100 129 174 215 281 339 403
#     4  10  20  41  67  99 130 174 220 273 344 400
#     4  11  22  42  66  95 129 167 226 281 333 398
#     4  12  25  40  65  93 125 169 229 285 325 394
#
# _framework density 22.073003
#
# number of rings (size 3 to 8) (size 9 to 14) (size 15 to 20)
#    0.000    1.000    3.750    3.375    3.500    0.500 
#    0.000    0.625    0.000    3.000    0.000    0.000 
#    0.000    0.000    0.000    0.000    0.000    0.000 
#
# Total GULP energy -89181.324683 kJ/mol
# GULP energy per Si atom -5573.832793 kJ/mol
# Density = 2.202276 g / cm^3
# Si number density = 22.073003 Si / 1000 Ang^3
#
#
#
# Elastic Constant Matrix: (Units=GPa)
#
#
# Indices 1 2 3 4 5 6 
#
# 1 180.8269 31.5649 32.3761 -5.9354 17.4170 3.2838
# 2 31.5649 69.7906 10.5781 -4.8880 -3.3111 -0.5770
# 3 32.3761 10.5781 39.6144 1.3774 0.7319 -2.0875
# 4 -5.9354 -4.8880 1.3774 24.7750 -5.2285 4.1953
# 5 17.4170 -3.3111 0.7319 -5.2285 29.8862 -7.7417
# 6 3.2838 -0.5770 -2.0875 4.1953 -7.7417 36.9910
#
#
#
# Elastic Compliance Matrix: (Units=1/GPa)
#
#
# Indices 1 2 3 4 5 6 
#
# 1 0.007542 -0.002773 -0.005476 0.000881 -0.004975 -0.002163
# 2 -0.002773 0.016380 -0.002260 0.003455 0.004320 0.000887
# 3 -0.005476 -0.002260 0.030561 -0.003474 0.002379 0.003067
# 4 0.000881 0.003455 -0.003474 0.043477 0.006583 -0.003773
# 5 -0.004975 0.004320 0.002379 0.006583 0.040078 0.008284
# 6 -0.002163 0.000887 0.003067 -0.003773 0.008284 0.029574
#
#
# Mechanical properties :
#
#
# Convention : Reuss Voigt Hill
#
# Bulk Modulus (GPa) = 29.88376 48.80778 39.34577
# Shear Modulus (GPa) = 25.02677 32.71129 28.86903
#
# Velocity S-wave (km/s) = 3.37087 3.85380 3.62040
# Velocity P-wave (km/s) = 5.35895 6.47783 5.94478
#
# Compressibility (1/GPa) = 0.03346299
#
# Stress axis : x y z
#
# Youngs Moduli (GPa) = 132.58961 61.05094 32.72145
#
# Poissons Ratio (x) = 0.16932 0.17919
# Poissons Ratio (y) = 0.36772 0.07397
# Poissons Ratio (z) = 0.72608 0.13800
#
# Static dielectric constant tensor:
#      x y z
#    x 1.797250 0.011890 -0.004530 
#    y 0.011890 1.922560 -0.012780 
#    z -0.004530 -0.012780 1.862230 
# 
# From -- ./inp_files/39206.got.cif
#   From: 2010.05.17/outbox.cif.g08.bks.cpg/sg2_20_cif.got.tgz:39206.got - 2010.06.03 11:33:40.
