data_PCOD9106165
_publ_section_title
;
Structure prediction by ZEFSAII (Michael W. Deem and Ramdas Pophale) SiO2 
 PCOD9106165
Probable space group: P -1
;
_chemical_formula_sum "Si O2"
_cell_formula_units_Z 16
_cell_length_a 16.503425
_cell_length_b 19.331056
_cell_length_c 6.677402
_cell_angle_alpha 136.265949
_cell_angle_beta 46.850310
_cell_angle_gamma 148.442826
_cell_volume 756.912360
_symmetry_space_group_name_H-M "P -1"
_symmetry_group_IT_number 2
_symmetry_cell_setting 'triclinic'
loop_
_space_group_symop_operation_xyz
x,y,z
-x,-y,-z
loop_
_atom_site_type_symbol
_atom_site_label
_atom_site_fract_x
_atom_site_fract_y
_atom_site_fract_z
Si Si1 0.510479 0.199016 0.882007
Si Si2 0.823987 0.678433 0.329023
Si Si3 0.099672 0.989846 0.671816
Si Si4 0.688995 0.781777 0.541807
Si Si5 0.356284 0.002390 0.395803
Si Si6 0.384725 0.502631 0.310264
Si Si7 0.335128 0.767570 0.903608
Si Si8 0.747786 0.454310 0.718966
O O1 0.598585 0.328888 0.847218
O O2 0.455775 0.069106 0.572316
O O3 0.344582 0.145350 0.108399
O O4 0.632378 0.250309 0.962135
O O5 0.730776 0.703300 0.409246
O O6 0.718643 0.598168 0.539445
O O7 0.985606 0.835770 0.441175
O O8 0.847135 0.586197 0.984969
O O9 0.231734 0.011747 0.610366
O O10 0.184539 0.110785 0.613290
O O11 0.000000 0.000000 0.000000
O O12 0.513020 0.663339 0.503766
O O13 0.487622 0.107966 0.225060
O O14 0.275606 0.843458 0.170939
O O15 0.279715 0.483089 0.276975
O O16 0.500000 0.500000 0.000000
O O17 0.234696 0.634391 0.638552
#
# Coordination Sequence:
#
# PCOD9106165 Si02
#       8
#     2   2   2   2   2   2   2   2
#     4  11  19  37  67  98 125 159 214 274 319 366
#     4  12  25  38  61  94 134 173 211 256 322 387
#     4  12  26  45  62  93 135 175 209 256 324 394
#     4  12  21  40  63  93 128 169 213 263 315 376
#     4  10  22  40  64  95 129 169 212 268 318 375
#     4  12  21  38  62  93 129 168 214 266 316 372
#     4  10  20  39  67  97 126 160 220 274 317 363
#     4  11  21  37  62  95 129 164 209 269 319 373
#
# _framework density 21.13851
#
# number of rings (size 3 to 8) (size 9 to 14) (size 15 to 20)
#    0.000    0.750    5.000    4.125    0.000    0.000 
#    0.000    0.625    0.000    3.000    0.000    0.000 
#    0.000    0.000    0.000    0.000    0.000    0.000 
#
# Total GULP energy -89144.057358 kJ/mol
# GULP energy per Si atom -5571.503585 kJ/mol
# Density = 2.109040 g / cm^3
# Si number density = 21.138510 Si / 1000 Ang^3
#
#
#
# Elastic Constant Matrix: (Units=GPa)
#
#
# Indices 1 2 3 4 5 6 
#
# 1 59.4104 2.1586 2.0106 -20.5040 1.9613 -27.7345
# 2 2.1586 135.6207 93.6115 18.4184 24.6949 -5.9471
# 3 2.0106 93.6115 183.5512 45.8593 30.5264 3.1481
# 4 -20.5040 18.4184 45.8593 55.9887 3.9677 17.7462
# 5 1.9613 24.6949 30.5264 3.9677 33.6020 9.1052
# 6 -27.7345 -5.9471 3.1481 17.7462 9.1052 39.0520
#
#
#
# Elastic Compliance Matrix: (Units=1/GPa)
#
#
# Indices 1 2 3 4 5 6 
#
# 1 0.028219 0.002452 -0.001960 0.005361 -0.007703 0.019932
# 2 0.002452 0.012409 -0.005497 0.000011 -0.005735 0.005406
# 3 -0.001960 -0.005497 0.011265 -0.008363 -0.005627 0.001975
# 4 0.005361 0.000011 -0.008363 0.029522 0.006630 -0.010478
# 5 -0.007703 -0.005735 -0.005627 0.006630 0.043942 -0.019148
# 6 0.019932 0.005406 0.001975 -0.010478 -0.019148 0.049652
#
#
# Mechanical properties :
#
#
# Convention : Reuss Voigt Hill
#
# Bulk Modulus (GPa) = 23.87660 63.79375 43.83517
# Shear Modulus (GPa) = 25.12839 44.44865 34.78852
#
# Velocity S-wave (km/s) = 3.45156 4.59053 4.06117
# Velocity P-wave (km/s) = 5.21577 7.63818 6.54011
#
# Compressibility (1/GPa) = 0.04188202
#
# Stress axis : x y z
#
# Youngs Moduli (GPa) = 35.43764 80.58945 88.77445
#
# Poissons Ratio (x) = -0.19763 0.17400
# Poissons Ratio (y) = -0.08690 0.48800
# Poissons Ratio (z) = 0.06946 0.44301
#
# Static dielectric constant tensor:
#      x y z
#    x 1.774450 -0.010980 0.038230 
#    y -0.010980 1.743930 0.112440 
#    z 0.038230 0.112440 2.093260 
# 
# From -- ./inp_files/111701.got.cif
#   From: 2010.05.17/outbox.cif.g08.bks.cpg/sg2_56_cif.got.tgz:111701.got - 2010.06.03 11:33:40.
