data_PCOD9106265
_publ_section_title
;
Structure prediction by ZEFSAII (Michael W. Deem and Ramdas Pophale) SiO2 
 PCOD9106265
Probable space group: P -1
;
_chemical_formula_sum "Si O2"
_cell_formula_units_Z 12
_cell_length_a 24.318323
_cell_length_b 8.362279
_cell_length_c 5.139902
_cell_angle_alpha 120.925802
_cell_angle_beta 121.397146
_cell_angle_gamma 29.231957
_cell_volume 431.263949
_symmetry_space_group_name_H-M "P -1"
_symmetry_group_IT_number 2
_symmetry_cell_setting 'triclinic'
loop_
_space_group_symop_operation_xyz
x,y,z
-x,-y,-z
loop_
_atom_site_type_symbol
_atom_site_label
_atom_site_fract_x
_atom_site_fract_y
_atom_site_fract_z
Si Si1 0.952823 0.761462 0.402247
Si Si2 0.478309 0.235076 0.810611
Si Si3 0.815815 0.371485 0.860154
Si Si4 0.116999 0.596770 0.439106
Si Si5 0.729031 0.259537 0.909716
Si Si6 0.393628 0.757591 0.652985
O O1 0.000000 0.500000 0.500000
O O2 0.052266 0.555701 0.262105
O O3 0.831782 0.035241 0.182202
O O4 0.930763 0.986617 0.736485
O O5 0.418421 0.543509 0.755137
O O6 0.500000 0.000000 0.500000
O O7 0.389838 0.400646 0.960096
O O8 0.592964 0.067557 0.049556
O O9 0.827211 0.485985 0.219374
O O10 0.800177 0.533474 0.696355
O O11 0.747245 0.358130 0.797732
O O12 0.000000 0.000000 0.500000
O O13 0.710711 0.089453 0.629576
O O14 0.500000 0.500000 0.500000
#
# Coordination Sequence:
#
# PCOD9106265 Si02
#       6
#     2   2   2   2   2   2
#     4  11  24  41  71 102 149 205 253 306 371 441
#     4  10  22  45  79 107 147 195 247 315 400 462
#     4  11  21  42  70  94 144 200 247 313 369 437
#     4  10  20  39  68  94 138 197 250 304 372 420
#     4  11  22  40  74 107 149 200 255 309 381 456
#     4   9  21  41  75 101 151 188 241 323 390 449
#
# _framework density 27.825188000000001
#
# number of rings (size 3 to 8) (size 9 to 14) (size 15 to 20)
#    0.000    1.667    3.333    3.000    0.000    3.333 
#    0.000    0.000   66.000    0.000    0.000    0.000 
#    0.000    4.000    0.000    0.000    0.000    0.000 
#
# Total GULP energy -67124.330470 kJ/mol
# GULP energy per Si atom -5593.694206 kJ/mol
# Density = 2.776186 g / cm^3
# Si number density = 27.825188 Si / 1000 Ang^3
#
#
#
# Elastic Constant Matrix: (Units=GPa)
#
#
# Indices 1 2 3 4 5 6 
#
# 1 282.3782 49.5281 93.8521 -11.9991 -11.1072 -6.6095
# 2 49.5281 105.0377 49.5527 -25.3427 12.6905 -19.6627
# 3 93.8521 49.5527 220.1104 -3.8019 29.6781 -9.4877
# 4 -11.9991 -25.3427 -3.8019 56.4762 0.2040 11.3257
# 5 -11.1072 12.6905 29.6781 0.2040 71.3320 -7.8174
# 6 -6.6095 -19.6627 -9.4877 11.3257 -7.8174 51.5834
#
#
#
# Elastic Compliance Matrix: (Units=1/GPa)
#
#
# Indices 1 2 3 4 5 6 
#
# 1 0.004467 -0.001424 -0.001812 0.000200 0.001692 -0.000091
# 2 -0.001424 0.013009 -0.001913 0.004777 -0.001407 0.003162
# 3 -0.001812 -0.001913 0.006063 -0.000818 -0.002467 -0.000040
# 4 0.000200 0.004777 -0.000818 0.020426 -0.000857 -0.002919
# 5 0.001692 -0.001407 -0.002467 -0.000857 0.015759 0.001803
# 6 -0.000091 0.003162 -0.000040 -0.002919 0.001803 0.021486
#
#
# Mechanical properties :
#
#
# Convention : Reuss Voigt Hill
#
# Bulk Modulus (GPa) = 75.53073 110.37691 92.95382
# Shear Modulus (GPa) = 52.12530 63.51788 57.82159
#
# Velocity S-wave (km/s) = 4.33287 4.78299 4.56349
# Velocity P-wave (km/s) = 7.22741 8.38193 7.82599
#
# Compressibility (1/GPa) = 0.01323964
#
# Stress axis : x y z
#
# Youngs Moduli (GPa) = 223.88882 76.87011 164.92626
#
# Poissons Ratio (x) = 0.10949 0.29892
# Poissons Ratio (y) = 0.31890 0.31546
# Poissons Ratio (z) = 0.40579 0.14703
#
# Static dielectric constant tensor:
#      x y z
#    x 2.517450 0.076810 0.113540 
#    y 0.076810 2.384330 -0.027240 
#    z 0.113540 -0.027240 2.219140 
# 
# From -- ./inp_files/123055.got.cif
#   From: 2010.05.17/outbox.cif.g08.bks.cpg/sg2_62_cif.got.tgz:123055.got - 2010.06.03 11:33:40.
