data_PCOD9106019
_publ_section_title
;
Structure prediction by ZEFSAII (Michael W. Deem and Ramdas Pophale) SiO2 
 PCOD9106019
Probable space group: P -1
;
_chemical_formula_sum "Si O2"
_cell_formula_units_Z 14
_cell_length_a 21.068485
_cell_length_b 12.031134
_cell_length_c 15.529498
_cell_angle_alpha 139.489991
_cell_angle_beta 160.142280
_cell_angle_gamma 29.690824
_cell_volume 623.477442
_symmetry_space_group_name_H-M "P -1"
_symmetry_group_IT_number 2
_symmetry_cell_setting 'triclinic'
loop_
_space_group_symop_operation_xyz
x,y,z
-x,-y,-z
loop_
_atom_site_type_symbol
_atom_site_label
_atom_site_fract_x
_atom_site_fract_y
_atom_site_fract_z
Si Si1 0.901865 0.290658 0.826611
Si Si2 0.719977 0.716851 0.597503
Si Si3 0.010825 0.694805 0.619295
Si Si4 0.893806 0.802265 0.715984
Si Si5 0.614214 0.388411 0.243209
Si Si6 0.318065 0.712383 0.278681
Si Si7 0.977876 0.969728 0.594417
O O1 0.621892 0.516250 0.564814
O O2 0.828864 0.229420 0.783557
O O3 0.040383 0.081796 0.809571
O O4 0.056078 0.358933 0.096328
O O5 0.806774 0.697619 0.598027
O O6 0.654088 0.559965 0.425014
O O7 0.500000 0.000000 0.500000
O O8 0.000000 0.500000 0.500000
O O9 0.837969 0.851671 0.573866
O O10 0.909668 0.850256 0.496256
O O11 0.311996 0.556069 0.933967
O O12 0.759490 0.060714 0.731046
O O13 0.200483 0.636469 0.025508
O O14 0.784612 0.233714 0.284495
O O15 0.743342 0.185627 0.361913
#
# Coordination Sequence:
#
# PCOD9106019 Si02
#       7
#     2   2   2   2   2   2   2
#     4  10  20  39  67 101 131 173 228 276 332 402
#     4  11  25  43  68 100 141 185 221 277 349 407
#     4  12  25  45  72  98 129 182 235 281 338 409
#     4  10  21  40  66  98 130 175 223 275 340 387
#     4  11  27  48  66  98 148 178 224 287 343 411
#     4   9  19  37  66  97 133 166 219 287 327 388
#     4  11  24  46  71 100 136 186 221 281 347 406
#
# _framework density 22.454702999999999
#
# number of rings (size 3 to 8) (size 9 to 14) (size 15 to 20)
#    0.000    1.429    1.429    3.000    6.000    2.286 
#    7.714    0.000    0.000    0.000    0.000    0.000 
#    0.000    0.000    0.000    0.000    0.000    0.000 
#
# Total GULP energy -78177.802573 kJ/mol
# GULP energy per Si atom -5584.128755 kJ/mol
# Density = 2.240359 g / cm^3
# Si number density = 22.454703 Si / 1000 Ang^3
#
#
#
# Elastic Constant Matrix: (Units=GPa)
#
#
# Indices 1 2 3 4 5 6 
#
# 1 135.5231 44.3375 26.1733 1.3871 -17.1920 10.6574
# 2 44.3375 110.7631 52.1154 10.9157 5.2436 13.3292
# 3 26.1733 52.1154 75.4398 5.1026 8.7006 19.2749
# 4 1.3871 10.9157 5.1026 35.9102 6.9501 -0.7362
# 5 -17.1920 5.2436 8.7006 6.9501 19.8790 0.9790
# 6 10.6574 13.3292 19.2749 -0.7362 0.9790 54.6272
#
#
#
# Elastic Compliance Matrix: (Units=1/GPa)
#
#
# Indices 1 2 3 4 5 6 
#
# 1 0.010467 -0.003434 -0.002342 -0.001256 0.011452 -0.000600
# 2 -0.003434 0.014830 -0.008648 -0.002729 -0.002148 0.000105
# 3 -0.002342 -0.008648 0.022391 0.001319 -0.009752 -0.005141
# 4 -0.001256 -0.002729 0.001319 0.030839 -0.011779 0.001072
# 5 0.011452 -0.002148 -0.009752 -0.011779 0.069145 0.000333
# 6 -0.000600 0.000105 -0.005141 0.001072 0.000333 0.020220
#
#
# Mechanical properties :
#
#
# Convention : Reuss Voigt Hill
#
# Bulk Modulus (GPa) = 53.07527 62.99760 58.03643
# Shear Modulus (GPa) = 24.62808 35.35660 29.99234
#
# Velocity S-wave (km/s) = 3.31537 3.97240 3.65866
# Velocity P-wave (km/s) = 6.19221 7.01115 6.61437
#
# Compressibility (1/GPa) = 0.01884117
#
# Stress axis : x y z
#
# Youngs Moduli (GPa) = 95.53413 67.43132 44.66081
#
# Poissons Ratio (x) = 0.23159 0.10457
# Poissons Ratio (y) = 0.32811 0.38621
# Poissons Ratio (z) = 0.22369 0.58312
#
# Static dielectric constant tensor:
#      x y z
#    x 1.988430 -0.228470 -0.086380 
#    y -0.228470 2.251820 0.174460 
#    z -0.086380 0.174460 1.921360 
# 
# From -- ./inp_files/524142.got.cif
#   From: 2010.05.17/outbox.cif.g08.bks.cpg/sg2_263_cif.got.tgz:524142.got - 2010.06.03 11:33:40.
