data_PCOD9106813
_publ_section_title
;
Structure prediction by ZEFSAII (Michael W. Deem and Ramdas Pophale) SiO2 
 PCOD9106813
Probable space group: P -1
;
_chemical_formula_sum "Si O2"
_cell_formula_units_Z 16
_cell_length_a 13.286398
_cell_length_b 20.849805
_cell_length_c 18.787988
_cell_angle_alpha 166.873872
_cell_angle_beta 33.769127
_cell_angle_gamma 147.824234
_cell_volume 628.358933
_symmetry_space_group_name_H-M "P -1"
_symmetry_group_IT_number 2
_symmetry_cell_setting 'triclinic'
loop_
_space_group_symop_operation_xyz
x,y,z
-x,-y,-z
loop_
_atom_site_type_symbol
_atom_site_label
_atom_site_fract_x
_atom_site_fract_y
_atom_site_fract_z
Si Si1 0.305952 0.772902 0.896626
Si Si2 0.008633 0.381140 0.786640
Si Si3 0.152229 0.103447 0.232145
Si Si4 0.347707 0.210088 0.455336
Si Si5 0.655099 0.559114 0.840836
Si Si6 0.229748 0.257169 0.738905
Si Si7 0.762724 0.379584 0.433030
Si Si8 0.129584 0.771921 0.564055
O O1 0.284588 0.431580 0.526529
O O2 0.500000 0.000000 0.000000
O O3 0.154405 0.874018 0.045902
O O4 0.318745 0.882584 0.088903
O O5 0.212296 0.326886 0.610171
O O6 0.853537 0.064188 0.527351
O O7 0.934952 0.585084 0.997021
O O8 0.000000 0.500000 0.000000
O O9 0.958156 0.170791 0.397608
O O10 0.206850 0.928429 0.943826
O O11 0.275352 0.205859 0.573654
O O12 0.567678 0.389948 0.521690
O O13 0.429014 0.449261 0.860281
O O14 0.723369 0.396644 0.558121
O O15 0.751620 0.459796 0.745482
O O16 0.735052 0.903222 0.146420
O O17 0.944978 0.634594 0.574292
#
# Coordination Sequence:
#
# PCOD9106813 Si02
#       8
#     2   2   2   2   2   2   2   2
#     4  12  24  40  56  85 121 168 212 236 284 352
#     4  10  20  40  61  89 124 155 193 249 305 363
#     4  12  24  39  55  80 125 162 202 250 272 345
#     4  10  22  39  62  89 123 169 187 244 303 355
#     4  11  24  36  64  88 118 162 199 248 314 358
#     4  10  22  41  60  96 122 149 202 249 301 373
#     4  11  23  38  56  91 127 159 203 238 295 373
#     4  12  22  41  56  87 122 166 198 251 295 355
#
# _framework density 25.463156000000001
#
# number of rings (size 3 to 8) (size 9 to 14) (size 15 to 20)
#    0.000    1.000    3.750    3.375    1.750    3.000 
#   11.250    0.000    0.000    0.000    0.000   17.500 
#    0.000    0.000    0.000    0.000    0.000    0.000 
#
# Total GULP energy -89513.146385 kJ/mol
# GULP energy per Si atom -5594.571649 kJ/mol
# Density = 2.540520 g / cm^3
# Si number density = 25.463156 Si / 1000 Ang^3
#
#
#
# Elastic Constant Matrix: (Units=GPa)
#
#
# Indices 1 2 3 4 5 6 
#
# 1 58.1524 40.5809 5.5875 7.8437 -16.5801 15.3895
# 2 40.5809 121.8769 40.4700 29.3291 -16.1603 43.3899
# 3 5.5875 40.4700 123.2450 38.2916 -9.3329 -0.0753
# 4 7.8437 29.3291 38.2916 40.8541 -3.1617 2.6831
# 5 -16.5801 -16.1603 -9.3329 -3.1617 38.3610 1.8994
# 6 15.3895 43.3899 -0.0753 2.6831 1.8994 42.1365
#
#
#
# Elastic Compliance Matrix: (Units=1/GPa)
#
#
# Indices 1 2 3 4 5 6 
#
# 1 0.024895 -0.006692 0.002041 -0.001067 0.008473 -0.002511
# 2 -0.006692 0.021330 -0.003477 -0.009087 0.005449 -0.019194
# 3 0.002041 -0.003477 0.012211 -0.009452 0.001441 0.003393
# 4 -0.001067 -0.009087 -0.009452 0.039292 -0.003717 0.007396
# 5 0.008473 0.005449 0.001441 -0.003717 0.032562 -0.009934
# 6 -0.002511 -0.019194 0.003393 0.007396 -0.009934 0.044397
#
#
# Mechanical properties :
#
#
# Convention : Reuss Voigt Hill
#
# Bulk Modulus (GPa) = 23.70819 52.95012 38.32915
# Shear Modulus (GPa) = 24.38979 38.71272 31.55125
#
# Velocity S-wave (km/s) = 3.09827 3.90339 3.52390
# Velocity P-wave (km/s) = 4.70425 6.41523 5.62517
#
# Compressibility (1/GPa) = 0.04217952
#
# Stress axis : x y z
#
# Youngs Moduli (GPa) = 40.16927 46.88156 81.89329
#
# Poissons Ratio (x) = 0.31375 -0.16711
# Poissons Ratio (y) = 0.26883 0.28470
# Poissons Ratio (z) = -0.08197 0.16298
#
# Static dielectric constant tensor:
#      x y z
#    x 2.047930 -0.030510 0.016480 
#    y -0.030510 2.095990 -0.003020 
#    z 0.016480 -0.003020 2.020610 
# 
# From -- ./inp_files/612450.got.cif
#   From: 2010.05.17/outbox.cif.g08.bks.cpg/sg2_307_cif.got.tgz:612450.got - 2010.06.03 11:33:40.
