data_PCOD9106781
_publ_section_title
;
Structure prediction by ZEFSAII (Michael W. Deem and Ramdas Pophale) SiO2 
 PCOD9106781
Probable space group: P -1
;
_chemical_formula_sum "Si O2"
_cell_formula_units_Z 16
_cell_length_a 8.075501
_cell_length_b 7.698197
_cell_length_c 15.204564
_cell_angle_alpha 62.928661
_cell_angle_beta 90.207232
_cell_angle_gamma 53.059116
_cell_volume 619.607494
_symmetry_space_group_name_H-M "P -1"
_symmetry_group_IT_number 2
_symmetry_cell_setting 'triclinic'
loop_
_space_group_symop_operation_xyz
x,y,z
-x,-y,-z
loop_
_atom_site_type_symbol
_atom_site_label
_atom_site_fract_x
_atom_site_fract_y
_atom_site_fract_z
Si Si1 0.831248 0.599237 0.559470
Si Si2 0.774279 0.584222 0.099541
Si Si3 0.772656 0.004671 0.770634
Si Si4 0.562071 0.994547 0.145023
Si Si5 0.786227 0.401704 0.769968
Si Si6 0.799984 0.238955 0.560311
Si Si7 0.503695 0.566365 0.882621
Si Si8 0.709372 0.126258 0.408535
O O1 0.902037 0.464546 0.688017
O O2 0.702206 0.511717 0.541533
O O3 0.721486 0.898103 0.500208
O O4 0.000000 0.500000 0.500000
O O5 0.627441 0.510299 0.144158
O O6 0.026249 0.310845 0.150499
O O7 0.748631 0.773368 0.128438
O O8 0.647940 0.769017 0.971353
O O9 0.539067 0.102826 0.779272
O O10 0.840815 0.142316 0.794406
O O11 0.739463 0.102016 0.649253
O O12 0.618065 0.127940 0.178120
O O13 0.748788 0.410698 0.873832
O O14 0.523379 0.657765 0.689652
O O15 0.070765 0.031944 0.614881
O O16 0.744235 0.257344 0.454680
O O17 0.500000 0.500000 0.000000
#
# Coordination Sequence:
#
# PCOD9106781 Si02
#       8
#     2   2   2   2   2   2   2   2
#     4   9  20  38  57  87 124 162 210 261 310 374
#     4  10  21  44  65  90 133 168 213 277 323 373
#     4  11  22  39  66  96 129 167 216 268 324 390
#     4  10  22  41  66  93 125 173 217 263 328 387
#     4  11  22  39  66  92 129 171 213 261 328 381
#     4   9  21  37  60  88 124 161 210 259 316 373
#     4  10  22  43  65  93 130 167 216 270 320 386
#     4  10  20  40  61  86 125 168 206 262 313 378
#
# _framework density 25.822800999999998
#
# number of rings (size 3 to 8) (size 9 to 14) (size 15 to 20)
#    0.000    2.000    1.250    1.500    1.750    2.000 
#    4.500    3.750    0.000    0.000    0.000    0.000 
#    0.000    0.000    0.000    0.000    0.000    0.000 
#
# Total GULP energy -89385.393877 kJ/mol
# GULP energy per Si atom -5586.587117 kJ/mol
# Density = 2.576403 g / cm^3
# Si number density = 25.822801 Si / 1000 Ang^3
#
#
#
# Elastic Constant Matrix: (Units=GPa)
#
#
# Indices 1 2 3 4 5 6 
#
# 1 30.7316 7.6848 24.0661 8.9188 -18.2855 -10.8339
# 2 7.6848 131.4576 28.2445 6.7296 -1.4803 11.5369
# 3 24.0661 28.2445 99.0714 12.0563 -14.7796 -6.9870
# 4 8.9188 6.7296 12.0563 41.8338 -8.2946 -8.6559
# 5 -18.2855 -1.4803 -14.7796 -8.2946 49.5132 7.8615
# 6 -10.8339 11.5369 -6.9870 -8.6559 7.8615 51.9633
#
#
#
# Elastic Compliance Matrix: (Units=1/GPa)
#
#
# Indices 1 2 3 4 5 6 
#
# 1 0.052550 -0.001356 -0.009186 -0.003922 0.014836 0.007124
# 2 -0.001356 0.008434 -0.002225 -0.001088 -0.000693 -0.002531
# 3 -0.009186 -0.002225 0.013171 -0.001419 0.000222 0.000080
# 4 -0.003922 -0.001088 -0.001419 0.026408 0.001991 0.003331
# 5 0.014836 -0.000693 0.000222 0.001991 0.026109 -0.000341
# 6 0.007124 -0.002531 0.000080 0.003331 -0.000341 0.021909
#
#
# Mechanical properties :
#
#
# Convention : Reuss Voigt Hill
#
# Bulk Modulus (GPa) = 20.56660 42.36127 31.46394
# Shear Modulus (GPa) = 26.27152 42.07974 34.17563
#
# Velocity S-wave (km/s) = 3.19310 4.04116 3.64190
# Velocity P-wave (km/s) = 4.64503 6.18181 5.46768
#
# Compressibility (1/GPa) = 0.04862252
#
# Stress axis : x y z
#
# Youngs Moduli (GPa) = 19.02963 118.56444 75.92572
#
# Poissons Ratio (x) = 0.16074 0.69742
# Poissons Ratio (y) = 0.02580 0.16891
# Poissons Ratio (z) = 0.17480 0.26377
#
# Static dielectric constant tensor:
#      x y z
#    x 2.106620 -0.016070 -0.011360 
#    y -0.016070 2.051550 0.057680 
#    z -0.011360 0.057680 2.090810 
# 
# From -- ./inp_files/555101.got.cif
#   From: 2010.05.17/outbox.cif.g08.bks.cpg/sg2_278_cif.got.tgz:555101.got - 2010.06.03 11:33:40.
