data_PCOD9106216
_publ_section_title
;
Structure prediction by ZEFSAII (Michael W. Deem and Ramdas Pophale) SiO2 
 PCOD9106216
Probable space group: P -1
;
_chemical_formula_sum "Si O2"
_cell_formula_units_Z 16
_cell_length_a 11.523106
_cell_length_b 12.177545
_cell_length_c 6.826099
_cell_angle_alpha 129.928868
_cell_angle_beta 82.181703
_cell_angle_gamma 84.815755
_cell_volume 707.519633
_symmetry_space_group_name_H-M "P -1"
_symmetry_group_IT_number 2
_symmetry_cell_setting 'triclinic'
loop_
_space_group_symop_operation_xyz
x,y,z
-x,-y,-z
loop_
_atom_site_type_symbol
_atom_site_label
_atom_site_fract_x
_atom_site_fract_y
_atom_site_fract_z
Si Si1 0.019494 0.365203 0.599757
Si Si2 0.740238 0.870263 0.258713
Si Si3 0.415096 0.937610 0.797137
Si Si4 0.190165 0.684124 0.140441
Si Si5 0.000304 0.292796 0.071025
Si Si6 0.501331 0.326491 0.307609
Si Si7 0.280182 0.342153 0.665167
Si Si8 0.599831 0.163160 0.718707
O O1 0.921632 0.307802 0.680856
O O2 0.004549 0.317327 0.327843
O O3 0.993199 0.544352 0.825956
O O4 0.157581 0.308420 0.568427
O O5 0.468335 0.869621 0.497339
O O6 0.708586 0.728371 0.201590
O O7 0.679018 0.001419 0.572632
O O8 0.883885 0.829593 0.162094
O O9 0.390460 0.792956 0.745364
O O10 0.312672 0.068430 0.872778
O O11 0.500000 0.000000 0.000000
O O12 0.293332 0.759707 0.273304
O O13 0.123041 0.740464 0.016996
O O14 0.255513 0.515772 0.899706
O O15 0.500000 0.500000 0.500000
O O16 0.385871 0.308861 0.440643
O O17 0.515944 0.259052 0.008801
#
# Coordination Sequence:
#
# PCOD9106216 Si02
#       8
#     2   2   2   2   2   2   2   2
#     4  10  21  38  70 112 138 190 257 292 356 437
#     4  10  23  46  71 108 145 196 244 297 380 439
#     4  10  28  52  70 104 147 193 253 306 359 453
#     4  11  20  46  70 108 152 184 247 304 356 445
#     4  10  20  39  68 110 143 187 246 298 363 432
#     4  12  27  49  74 108 144 191 251 309 372 426
#     4  11  22  43  79 105 146 198 242 309 359 442
#     4  10  27  47  71 110 149 194 242 302 374 443
#
# _framework density 22.614215000000002
#
# number of rings (size 3 to 8) (size 9 to 14) (size 15 to 20)
#    0.750    0.750    3.750    0.750    3.500    4.000 
#    4.500    0.625    0.000    0.000    0.000    0.000 
#    0.000    0.000    0.000    0.000    0.000    0.000 
#
# Total GULP energy -89166.809517 kJ/mol
# GULP energy per Si atom -5572.925595 kJ/mol
# Density = 2.256274 g / cm^3
# Si number density = 22.614215 Si / 1000 Ang^3
#
#
#
# Elastic Constant Matrix: (Units=GPa)
#
#
# Indices 1 2 3 4 5 6 
#
# 1 85.4641 53.9099 42.5996 5.0827 -13.1173 -5.0973
# 2 53.9099 92.0610 38.5420 -6.5500 -2.1646 -11.4599
# 3 42.5996 38.5420 124.9657 0.9624 -6.2476 -5.9470
# 4 5.0827 -6.5500 0.9624 28.2587 -1.7559 -3.9338
# 5 -13.1173 -2.1646 -6.2476 -1.7559 24.6048 -8.5439
# 6 -5.0973 -11.4599 -5.9470 -3.9338 -8.5439 44.5831
#
#
#
# Elastic Compliance Matrix: (Units=1/GPa)
#
#
# Indices 1 2 3 4 5 6 
#
# 1 0.023088 -0.012189 -0.003542 -0.006176 0.010040 0.000413
# 2 -0.012189 0.019663 -0.001986 0.007056 -0.003614 0.003326
# 3 -0.003542 -0.001986 0.009878 -0.000049 0.000621 0.000517
# 4 -0.006176 0.007056 -0.000049 0.038925 0.001788 0.004878
# 5 0.010040 -0.003614 0.000621 0.001788 0.049410 0.009928
# 6 0.000413 0.003326 0.000517 0.004878 0.009928 0.025734
#
#
# Mechanical properties :
#
#
# Convention : Reuss Voigt Hill
#
# Bulk Modulus (GPa) = 58.15757 63.62155 60.88956
# Shear Modulus (GPa) = 24.05423 30.65193 27.35308
#
# Velocity S-wave (km/s) = 3.26495 3.68561 3.48164
# Velocity P-wave (km/s) = 6.32347 6.80486 6.56857
#
# Compressibility (1/GPa) = 0.01719467
#
# Stress axis : x y z
#
# Youngs Moduli (GPa) = 43.31270 50.85793 101.23334
#
# Poissons Ratio (x) = 0.61991 0.35856
# Poissons Ratio (y) = 0.52794 0.20105
# Poissons Ratio (z) = 0.15341 0.10100
#
# Static dielectric constant tensor:
#      x y z
#    x 1.869820 -0.044480 -0.016760 
#    y -0.044480 1.913220 0.009430 
#    z -0.016760 0.009430 1.866460 
# 
# From -- ./inp_files/312082.got.cif
#   From: 2010.05.17/outbox.cif.g08.bks.cpg/sg2_157_cif.got.tgz:312082.got - 2010.06.03 11:33:40.
