data_PCOD9106032
_publ_section_title
;
Structure prediction by ZEFSAII (Michael W. Deem and Ramdas Pophale) SiO2 
 PCOD9106032
Probable space group: P -1
;
_chemical_formula_sum "Si O2"
_cell_formula_units_Z 16
_cell_length_a 14.648018
_cell_length_b 15.949607
_cell_length_c 12.493022
_cell_angle_alpha 141.985322
_cell_angle_beta 126.497168
_cell_angle_gamma 26.022280
_cell_volume 716.071472
_symmetry_space_group_name_H-M "P -1"
_symmetry_group_IT_number 2
_symmetry_cell_setting 'triclinic'
loop_
_space_group_symop_operation_xyz
x,y,z
-x,-y,-z
loop_
_atom_site_type_symbol
_atom_site_label
_atom_site_fract_x
_atom_site_fract_y
_atom_site_fract_z
Si Si1 0.563857 0.237340 0.694683
Si Si2 0.303593 0.459101 0.120543
Si Si3 0.568050 0.335184 0.016350
Si Si4 0.059228 0.140907 0.914316
Si Si5 0.046629 0.631443 0.459196
Si Si6 0.373181 0.052575 0.056030
Si Si7 0.953937 0.252925 0.203780
Si Si8 0.269863 0.644225 0.503338
O O1 0.587341 0.374356 0.828473
O O2 0.322647 0.465801 0.698512
O O3 0.520533 0.275270 0.830197
O O4 0.801799 0.913400 0.513329
O O5 0.493222 0.361713 0.105226
O O6 0.214848 0.625929 0.333756
O O7 0.121122 0.629959 0.071834
O O8 0.435587 0.182177 0.959205
O O9 0.842678 0.067027 0.942226
O O10 0.099175 0.939684 0.721335
O O11 0.282163 0.000168 0.904191
O O12 0.998316 0.231753 0.087553
O O13 0.160273 0.368156 0.254307
O O14 0.998102 0.689758 0.610816
O O15 0.223456 0.567940 0.479246
O O16 0.500000 0.000000 0.000000
O O17 0.500000 0.500000 0.500000
#
# Coordination Sequence:
#
# PCOD9106032 Si02
#       8
#     2   2   2   2   2   2   2   2
#     4  10  22  39  66 103 147 173 229 285 350 414
#     4  12  24  45  74 103 142 179 243 290 344 421
#     4  10  20  39  67 105 140 181 220 292 347 410
#     4  12  26  44  76 105 137 186 234 291 360 411
#     4  11  27  45  70 105 142 183 237 288 349 420
#     4  12  26  53  70  98 145 193 235 287 350 423
#     4  11  23  41  71 104 139 184 225 289 356 413
#     4  12  24  47  72 106 138 184 236 295 349 414
#
# _framework density 22.344137
#
# number of rings (size 3 to 8) (size 9 to 14) (size 15 to 20)
#    0.000    0.750    5.000    1.500    7.000    2.000 
#    2.250    1.250    0.000    0.000    0.000    0.000 
#    0.000    0.000    0.000    0.000    0.000    0.000 
#
# Total GULP energy -89086.562923 kJ/mol
# GULP energy per Si atom -5567.910183 kJ/mol
# Density = 2.229328 g / cm^3
# Si number density = 22.344137 Si / 1000 Ang^3
#
#
#
# Elastic Constant Matrix: (Units=GPa)
#
#
# Indices 1 2 3 4 5 6 
#
# 1 42.8720 5.4903 21.1894 0.5631 -3.3030 8.3570
# 2 5.4903 132.9938 37.5129 8.7323 1.1985 4.5679
# 3 21.1894 37.5129 101.1805 13.4441 0.7736 26.5009
# 4 0.5631 8.7323 13.4441 20.4887 11.2296 0.1298
# 5 -3.3030 1.1985 0.7736 11.2296 28.7901 1.4990
# 6 8.3570 4.5679 26.5009 0.1298 1.4990 36.1136
#
#
#
# Elastic Compliance Matrix: (Units=1/GPa)
#
#
# Indices 1 2 3 4 5 6 
#
# 1 0.026543 0.000365 -0.005180 0.000918 0.002942 -0.002512
# 2 0.000365 0.008510 -0.003356 -0.001634 0.000348 0.001293
# 3 -0.005180 -0.003356 0.016474 -0.011422 0.004110 -0.010595
# 4 0.000918 -0.001634 -0.011422 0.072392 -0.028240 0.009288
# 5 0.002942 0.000348 0.004110 -0.028240 0.046251 -0.005559
# 6 -0.002512 0.001293 -0.010595 0.009288 -0.005559 0.036080
#
#
# Mechanical properties :
#
#
# Convention : Reuss Voigt Hill
#
# Bulk Modulus (GPa) = 28.42151 45.04794 36.73473
# Shear Modulus (GPa) = 21.33814 31.26875 26.30344
#
# Velocity S-wave (km/s) = 3.09362 3.74494 3.43475
# Velocity P-wave (km/s) = 5.05056 6.23732 5.67505
#
# Compressibility (1/GPa) = 0.03518462
#
# Stress axis : x y z
#
# Youngs Moduli (GPa) = 37.67429 117.50325 60.70281
#
# Poissons Ratio (x) = -0.04289 0.31447
# Poissons Ratio (y) = -0.01375 0.20372
# Poissons Ratio (z) = 0.19517 0.39433
#
# Static dielectric constant tensor:
#      x y z
#    x 1.876560 -0.054600 -0.029860 
#    y -0.054600 1.886680 0.029300 
#    z -0.029860 0.029300 1.849490 
# 
# From -- ./inp_files/455947.got.cif
#   From: 2010.05.17/outbox.cif.g08.bks.cpg/sg2_228_cif.got.tgz:455947.got - 2010.06.03 11:33:40.
