data_PCOD9106452
_publ_section_title
;
Structure prediction by ZEFSAII (Michael W. Deem and Ramdas Pophale) SiO2 
 PCOD9106452
Probable space group: P -1
;
_chemical_formula_sum "Si O2"
_cell_formula_units_Z 16
_cell_length_a 7.880530
_cell_length_b 14.818861
_cell_length_c 11.430252
_cell_angle_alpha 129.318506
_cell_angle_beta 71.237293
_cell_angle_gamma 67.575867
_cell_volume 588.013217
_symmetry_space_group_name_H-M "P -1"
_symmetry_group_IT_number 2
_symmetry_cell_setting 'triclinic'
loop_
_space_group_symop_operation_xyz
x,y,z
-x,-y,-z
loop_
_atom_site_type_symbol
_atom_site_label
_atom_site_fract_x
_atom_site_fract_y
_atom_site_fract_z
Si Si1 0.400333 0.002111 0.754080
Si Si2 0.645814 0.660395 0.703563
Si Si3 0.333670 0.383862 0.589879
Si Si4 0.017799 0.699795 0.094048
Si Si5 0.260056 0.824395 0.159297
Si Si6 0.894206 0.926660 0.918941
Si Si7 0.987586 0.198381 0.460562
Si Si8 0.809726 0.502561 0.879380
O O1 0.456583 0.832871 0.591808
O O2 0.132526 0.144877 0.024828
O O3 0.693322 0.907826 0.665269
O O4 0.285825 0.128361 0.769984
O O5 0.601359 0.610495 0.552152
O O6 0.471564 0.711249 0.901076
O O7 0.447557 0.876971 0.889902
O O8 0.000000 0.500000 0.500000
O O9 0.016124 0.480994 0.741435
O O10 0.277773 0.513810 0.800761
O O11 0.022143 0.614070 0.134245
O O12 0.096024 0.789401 0.184841
O O13 0.486127 0.726543 0.135696
O O14 0.028789 0.047688 0.374866
O O15 0.062244 0.788118 0.656102
O O16 0.000000 0.000000 0.000000
O O17 0.768878 0.398840 0.739923
#
# Coordination Sequence:
#
# PCOD9106452 Si02
#       8
#     2   2   2   2   2   2   2   2
#     4  10  22  40  64  95 128 171 221 263 328 392
#     4  10  20  39  70  94 126 170 219 268 333 398
#     4  10  23  42  66  94 127 171 217 275 323 392
#     4  12  26  40  64  97 135 175 218 273 324 381
#     4  11  24  42  64  95 132 168 220 274 334 386
#     4  10  21  39  65 100 136 165 212 280 342 392
#     4  10  23  41  69  92 126 177 216 268 324 397
#     4  11  24  43  65  94 128 180 228 258 321 395
#
# _framework density 27.210272
#
# number of rings (size 3 to 8) (size 9 to 14) (size 15 to 20)
#    0.000    1.500    1.250    3.375    1.750    9.000 
#    0.000    0.000    0.000    0.000    0.000    0.000 
#    0.000    0.000    0.000    0.000    0.000    0.000 
#
# Total GULP energy -89577.773091 kJ/mol
# GULP energy per Si atom -5598.610818 kJ/mol
# Density = 2.714834 g / cm^3
# Si number density = 27.210272 Si / 1000 Ang^3
#
#
#
# Elastic Constant Matrix: (Units=GPa)
#
#
# Indices 1 2 3 4 5 6 
#
# 1 98.4232 25.0621 3.7276 6.7936 2.3754 -0.1804
# 2 25.0621 134.3370 11.2139 -10.8468 2.2479 -11.3664
# 3 3.7276 11.2139 83.4410 -4.5828 -0.6390 -2.4446
# 4 6.7936 -10.8468 -4.5828 34.6295 8.3700 1.0987
# 5 2.3754 2.2479 -0.6390 8.3700 29.8088 2.1747
# 6 -0.1804 -11.3664 -2.4446 1.0987 2.1747 41.1245
#
#
#
# Elastic Compliance Matrix: (Units=1/GPa)
#
#
# Indices 1 2 3 4 5 6 
#
# 1 0.010957 -0.002300 -0.000356 -0.002938 0.000157 -0.000539
# 2 -0.002300 0.008423 -0.000794 0.003289 -0.001558 0.002265
# 3 -0.000356 -0.000794 0.012199 0.001442 -0.000090 0.000470
# 4 -0.002938 0.003289 0.001442 0.032894 -0.009263 0.000593
# 5 0.000157 -0.001558 -0.000090 -0.009263 0.036405 -0.002113
# 6 -0.000539 0.002265 0.000470 0.000593 -0.002113 0.025064
#
#
# Mechanical properties :
#
#
# Convention : Reuss Voigt Hill
#
# Bulk Modulus (GPa) = 40.52081 44.02317 42.27199
# Shear Modulus (GPa) = 35.44341 39.52574 37.48457
#
# Velocity S-wave (km/s) = 3.61304 3.81544 3.71562
# Velocity P-wave (km/s) = 5.68590 5.96859 5.82896
#
# Compressibility (1/GPa) = 0.02467868
#
# Stress axis : x y z
#
# Youngs Moduli (GPa) = 91.26288 118.72813 81.97078
#
# Poissons Ratio (x) = 0.27306 0.02921
# Poissons Ratio (y) = 0.20989 0.06510
# Poissons Ratio (z) = 0.03252 0.09429
#
# Static dielectric constant tensor:
#      x y z
#    x 2.103660 -0.065860 0.003360 
#    y -0.065860 2.116890 -0.033720 
#    z 0.003360 -0.033720 2.252120 
# 
# From -- ./inp_files/399597.got.cif
#   From: 2010.05.17/outbox.cif.g08.bks.cpg/sg2_200_cif.got.tgz:399597.got - 2010.06.03 11:33:40.
