data_PCOD9106180
_publ_section_title
;
Structure prediction by ZEFSAII (Michael W. Deem and Ramdas Pophale) SiO2 
 PCOD9106180
Probable space group: P -1
;
_chemical_formula_sum "Si O2"
_cell_formula_units_Z 16
_cell_length_a 25.987290
_cell_length_b 9.148666
_cell_length_c 20.731022
_cell_angle_alpha 152.721846
_cell_angle_beta 159.600598
_cell_angle_gamma 36.485674
_cell_volume 774.247069
_symmetry_space_group_name_H-M "P -1"
_symmetry_group_IT_number 2
_symmetry_cell_setting 'triclinic'
loop_
_space_group_symop_operation_xyz
x,y,z
-x,-y,-z
loop_
_atom_site_type_symbol
_atom_site_label
_atom_site_fract_x
_atom_site_fract_y
_atom_site_fract_z
Si Si1 0.287609 0.802685 0.591991
Si Si2 0.430240 0.973847 0.335742
Si Si3 0.883414 0.013398 0.716197
Si Si4 0.185056 0.439864 0.770837
Si Si5 0.322171 0.300090 0.545533
Si Si6 0.555491 0.247061 0.015032
Si Si7 0.194773 0.412576 0.216523
Si Si8 0.838640 0.385615 0.336156
O O1 0.311322 0.520608 0.557424
O O2 0.168282 0.626755 0.331664
O O3 0.241267 0.102592 0.692483
O O4 0.430569 0.949622 0.773726
O O5 0.568522 0.947059 0.440704
O O6 0.500000 0.000000 0.500000
O O7 0.346712 0.274814 0.344221
O O8 0.299643 0.660815 0.041065
O O9 0.815367 0.339213 0.755409
O O10 0.833912 0.867037 0.670522
O O11 0.821121 0.736777 0.482249
O O12 0.057486 0.113727 0.942307
O O13 0.185587 0.614207 0.769186
O O14 0.006528 0.354201 0.541940
O O15 0.400860 0.547462 0.788770
O O16 0.702864 0.147830 0.117576
O O17 0.500000 0.500000 0.000000
#
# Coordination Sequence:
#
# PCOD9106180 Si02
#       8
#     2   2   2   2   2   2   2   2
#     4  12  22  40  65  96 130 178 214 261 331 395
#     4  12  24  42  63  97 137 176 211 272 328 391
#     4  10  22  43  67  99 129 171 222 272 326 389
#     4  11  22  39  67  98 130 169 220 268 328 381
#     4  11  24  40  64  94 130 173 216 265 329 391
#     4  11  20  39  65  97 126 165 219 270 321 384
#     4  11  23  42  69  93 134 175 217 269 331 386
#     4  10  20  39  67  98 130 164 218 278 321 376
#
# _framework density 20.665239
#
# number of rings (size 3 to 8) (size 9 to 14) (size 15 to 20)
#    0.000    1.000    6.250    1.125    0.000    1.000 
#    0.000    5.000    0.000    0.000    0.000    0.000 
#    0.000    0.000    0.000    0.000    0.000    0.000 
#
# Total GULP energy -89253.975987 kJ/mol
# GULP energy per Si atom -5578.373499 kJ/mol
# Density = 2.061820 g / cm^3
# Si number density = 20.665239 Si / 1000 Ang^3
#
#
#
# Elastic Constant Matrix: (Units=GPa)
#
#
# Indices 1 2 3 4 5 6 
#
# 1 68.2047 26.6316 34.3188 -10.5100 14.5681 10.2430
# 2 26.6316 91.6010 19.9938 -1.6702 23.8365 -4.3149
# 3 34.3188 19.9938 91.6206 -3.1125 2.4833 6.7740
# 4 -10.5100 -1.6702 -3.1125 24.5337 -4.7874 3.8490
# 5 14.5681 23.8365 2.4833 -4.7874 35.5440 2.4788
# 6 10.2430 -4.3149 6.7740 3.8490 2.4788 38.6541
#
#
#
# Elastic Compliance Matrix: (Units=1/GPa)
#
#
# Indices 1 2 3 4 5 6 
#
# 1 0.022902 -0.004095 -0.006829 0.008698 -0.004580 -0.005902
# 2 -0.004095 0.014984 -0.001902 -0.003353 -0.008967 0.004000
# 3 -0.006829 -0.001902 0.013857 -0.000538 0.003102 -0.000977
# 4 0.008698 -0.003353 -0.000538 0.046451 0.005505 -0.007563
# 5 -0.004580 -0.008967 0.003102 0.005505 0.036776 -0.003238
# 6 -0.005902 0.004000 -0.000977 -0.007563 -0.003238 0.029013
#
#
# Mechanical properties :
#
#
# Convention : Reuss Voigt Hill
#
# Bulk Modulus (GPa) = 38.32927 45.92386 42.12657
# Shear Modulus (GPa) = 25.21030 31.11183 28.16106
#
# Velocity S-wave (km/s) = 3.49655 3.88431 3.69552
# Velocity P-wave (km/s) = 5.90670 6.51062 6.21600
#
# Compressibility (1/GPa) = 0.02608972
#
# Stress axis : x y z
#
# Youngs Moduli (GPa) = 43.66471 66.73944 72.16342
#
# Poissons Ratio (x) = 0.27333 0.49279
# Poissons Ratio (y) = 0.17883 0.13728
# Poissons Ratio (z) = 0.29818 0.12696
#
# Static dielectric constant tensor:
#      x y z
#    x 1.831400 0.074370 0.048420 
#    y 0.074370 1.834780 0.010220 
#    z 0.048420 0.010220 1.780850 
# 
# From -- ./inp_files/602313.got.cif
#   From: 2010.05.17/outbox.cif.g08.bks.cpg/sg2_302_cif.got.tgz:602313.got - 2010.06.03 11:33:40.
