data_PCOD9106746
_publ_section_title
;
Structure prediction by ZEFSAII (Michael W. Deem and Ramdas Pophale) SiO2 
 PCOD9106746
Probable space group: P -1
;
_chemical_formula_sum "Si O2"
_cell_formula_units_Z 13
_cell_length_a 9.633398
_cell_length_b 23.598402
_cell_length_c 22.815377
_cell_angle_alpha 12.194133
_cell_angle_beta 143.487085
_cell_angle_gamma 144.750923
_cell_volume 631.637016
_symmetry_space_group_name_H-M "P -1"
_symmetry_group_IT_number 2
_symmetry_cell_setting 'triclinic'
loop_
_space_group_symop_operation_xyz
x,y,z
-x,-y,-z
loop_
_atom_site_type_symbol
_atom_site_label
_atom_site_fract_x
_atom_site_fract_y
_atom_site_fract_z
Si Si1 0.915639 0.235651 0.698066
Si Si2 0.144928 0.400282 0.481482
Si Si3 0.500000 0.000000 0.000000
Si Si4 0.917950 0.577056 0.829459
Si Si5 0.565864 0.366512 0.098002
Si Si6 0.635068 0.175362 0.486387
Si Si7 0.590247 0.999866 0.289878
O O1 0.628792 0.139376 0.686590
O O2 0.000000 0.500000 0.500000
O O3 0.046315 0.306380 0.608388
O O4 0.000000 0.000000 0.000000
O O5 0.264902 0.726828 0.191250
O O6 0.913571 0.320946 0.441269
O O7 0.328575 0.217002 0.712752
O O8 0.796130 0.832739 0.531371
O O9 0.156562 0.634973 0.812673
O O10 0.000000 0.500000 0.000000
O O11 0.719305 0.315877 0.001301
O O12 0.415915 0.055625 0.347854
O O13 0.500000 0.500000 0.000000
O O14 0.504673 0.583862 0.811050
O O15 0.531858 0.013265 0.674413
#
# Coordination Sequence:
#
# PCOD9106746 Si02
#       7
#     2   2   1   2   2   2   2
#     4  11  23  41  63  94 132 164 205 273 333 367
#     4  10  22  39  66  89 121 163 223 254 314 387
#     4  10  20  40  60  94 114 158 214 266 298 368
#     4  12  21  39  65  93 125 161 213 265 304 376
#     4  12  25  39  59  90 131 162 200 255 326 367
#     4  11  21  41  63  87 116 164 210 258 303 388
#     4  11  22  39  66  95 114 164 222 255 307 386
#
# _framework density 20.581441000000002
#
# number of rings (size 3 to 8) (size 9 to 14) (size 15 to 20)
#    0.000    0.923    3.077    4.615    0.000    4.923 
#    0.000   15.385    0.000    0.000    0.000    0.000 
#    0.000    0.000    0.000    0.000    0.000    0.000 
#
# Total GULP energy -72422.865801 kJ/mol
# GULP energy per Si atom -5570.989677 kJ/mol
# Density = 2.053460 g / cm^3
# Si number density = 20.581441 Si / 1000 Ang^3
#
#
#
# Elastic Constant Matrix: (Units=GPa)
#
#
# Indices 1 2 3 4 5 6 
#
# 1 49.5349 39.1593 5.0602 -10.8332 11.9783 12.4705
# 2 39.1593 121.9720 29.5311 -25.9995 3.8666 14.8959
# 3 5.0602 29.5311 131.8248 -27.8621 4.3349 0.2963
# 4 -10.8332 -25.9995 -27.8621 42.1721 9.0452 -4.4029
# 5 11.9783 3.8666 4.3349 9.0452 30.6696 -2.8751
# 6 12.4705 14.8959 0.2963 -4.4029 -2.8751 27.7773
#
#
#
# Elastic Compliance Matrix: (Units=1/GPa)
#
#
# Indices 1 2 3 4 5 6 
#
# 1 0.035219 -0.008282 0.002790 0.008111 -0.016607 -0.011833
# 2 -0.008282 0.012374 -0.001595 0.004115 0.000480 -0.002199
# 3 0.002790 -0.001595 0.009431 0.006890 -0.004239 0.000155
# 4 0.008111 0.004115 0.006890 0.036009 -0.015450 -0.001813
# 5 -0.016607 0.000480 -0.004239 -0.015450 0.045073 0.009459
# 6 -0.011833 -0.002199 0.000155 -0.001813 0.009459 0.043182
#
#
# Mechanical properties :
#
#
# Convention : Reuss Voigt Hill
#
# Bulk Modulus (GPa) = 23.33715 50.09255 36.71485
# Shear Modulus (GPa) = 23.83835 35.42921 29.63378
#
# Velocity S-wave (km/s) = 3.40699 4.15350 3.79863
# Velocity P-wave (km/s) = 5.18077 6.88430 6.09237
#
# Compressibility (1/GPa) = 0.04285014
#
# Stress axis : x y z
#
# Youngs Moduli (GPa) = 28.39410 80.81314 106.02931
#
# Poissons Ratio (x) = 0.66931 -0.29587
# Poissons Ratio (y) = 0.23516 0.16915
# Poissons Ratio (z) = -0.07923 0.12892
#
# Static dielectric constant tensor:
#      x y z
#    x 1.822200 -0.038170 -0.016410 
#    y -0.038170 1.742380 0.003530 
#    z -0.016410 0.003530 1.691290 
# 
# From -- ./inp_files/201682.got.cif
#   From: 2010.05.17/outbox.cif.g08.bks.cpg/sg2_101_cif.got.tgz:201682.got - 2010.06.03 11:33:40.
