data_PCOD9106284
_publ_section_title
;
Structure prediction by ZEFSAII (Michael W. Deem and Ramdas Pophale) SiO2 
 PCOD9106284
Probable space group: P -1
;
_chemical_formula_sum "Si O2"
_cell_formula_units_Z 14
_cell_length_a 13.642066
_cell_length_b 9.333569
_cell_length_c 8.950331
_cell_angle_alpha 45.379378
_cell_angle_beta 63.207501
_cell_angle_gamma 42.616997
_cell_volume 544.037797
_symmetry_space_group_name_H-M "P -1"
_symmetry_group_IT_number 2
_symmetry_cell_setting 'triclinic'
loop_
_space_group_symop_operation_xyz
x,y,z
-x,-y,-z
loop_
_atom_site_type_symbol
_atom_site_label
_atom_site_fract_x
_atom_site_fract_y
_atom_site_fract_z
Si Si1 0.749575 0.266428 0.736054
Si Si2 0.780726 0.862888 0.211526
Si Si3 0.032184 0.293876 0.306953
Si Si4 0.184469 0.490834 0.965088
Si Si5 0.461462 0.710895 0.744267
Si Si6 0.353267 0.604843 0.610881
Si Si7 0.933180 0.991505 0.226469
O O1 0.616266 0.563953 0.668030
O O2 0.753737 0.256493 0.561772
O O3 0.896856 0.167213 0.780677
O O4 0.730366 0.061879 0.960533
O O5 0.891695 0.563469 0.291967
O O6 0.880217 0.882424 0.234952
O O7 0.637243 0.005742 0.308934
O O8 0.959416 0.323954 0.178433
O O9 0.085497 0.059103 0.553125
O O10 0.164134 0.293590 0.189742
O O11 0.322207 0.413828 0.835506
O O12 0.154389 0.695065 0.960915
O O13 0.369906 0.716200 0.669965
O O14 0.500000 0.500000 0.000000
O O15 0.500000 0.500000 0.500000
#
# Coordination Sequence:
#
# PCOD9106284 Si02
#       7
#     2   2   2   2   2   2   2
#     4  10  21  37  67  95 129 177 220 271 328 400
#     4  11  22  41  63 101 136 169 228 277 333 391
#     4  11  25  38  62 104 138 170 220 283 331 398
#     4  11  23  41  65  96 136 171 225 268 339 390
#     4   9  20  38  65  96 127 173 222 269 331 397
#     4  10  20  39  68  96 125 178 231 260 326 406
#     4  12  22  40  67  97 133 179 221 275 333 393
#
# _framework density 25.733505000000001
#
# number of rings (size 3 to 8) (size 9 to 14) (size 15 to 20)
#    0.000    1.429    4.286    1.286    0.000    0.000 
#    0.000    0.714    0.000   17.143    0.000    0.000 
#    0.000    0.000    0.000    0.000    0.000    0.000 
#
# Total GULP energy -78179.373371 kJ/mol
# GULP energy per Si atom -5584.240955 kJ/mol
# Density = 2.567493 g / cm^3
# Si number density = 25.733505 Si / 1000 Ang^3
#
#
#
# Elastic Constant Matrix: (Units=GPa)
#
#
# Indices 1 2 3 4 5 6 
#
# 1 44.8092 30.4438 1.1847 -1.5876 -8.0759 -13.3225
# 2 30.4438 133.1627 28.3210 29.9186 0.8399 -4.7213
# 3 1.1847 28.3210 98.5837 26.0784 -15.0051 12.9128
# 4 -1.5876 29.9186 26.0784 39.1790 4.1636 -1.5317
# 5 -8.0759 0.8399 -15.0051 4.1636 48.9791 13.0950
# 6 -13.3225 -4.7213 12.9128 -1.5317 13.0950 49.6699
#
#
#
# Elastic Compliance Matrix: (Units=1/GPa)
#
#
# Indices 1 2 3 4 5 6 
#
# 1 0.031064 -0.008574 -0.000704 0.008307 0.002388 0.007326
# 2 -0.008574 0.011551 -0.001003 -0.008437 -0.000947 -0.000951
# 3 -0.000704 -0.001003 0.015089 -0.010312 0.007111 -0.006400
# 4 0.008307 -0.008437 -0.010312 0.040190 -0.006983 0.007187
# 5 0.002388 -0.000947 0.007111 -0.006983 0.025824 -0.008322
# 6 0.007326 -0.000951 -0.006400 0.007187 -0.008322 0.026087
#
#
# Mechanical properties :
#
#
# Convention : Reuss Voigt Hill
#
# Bulk Modulus (GPa) = 26.92387 44.05052 35.48719
# Shear Modulus (GPa) = 27.36029 42.00600 34.68314
#
# Velocity S-wave (km/s) = 3.26424 4.04461 3.67520
# Velocity P-wave (km/s) = 4.96913 6.24236 5.64178
#
# Compressibility (1/GPa) = 0.03714177
#
# Stress axis : x y z
#
# Youngs Moduli (GPa) = 32.19190 86.57277 66.27492
#
# Poissons Ratio (x) = 0.74227 0.04665
# Poissons Ratio (y) = 0.27601 0.06648
# Poissons Ratio (z) = 0.02266 0.08684
#
# Static dielectric constant tensor:
#      x y z
#    x 2.022270 -0.098840 -0.049280 
#    y -0.098840 2.196030 0.024720 
#    z -0.049280 0.024720 2.039590 
# 
# From -- ./inp_files/293962.got.cif
#   From: 2010.05.17/outbox.cif.g08.bks.cpg/sg2_147_cif.got.tgz:293962.got - 2010.06.03 11:33:40.
