data_PCOD9106716
_publ_section_title
;
Structure prediction by ZEFSAII (Michael W. Deem and Ramdas Pophale) SiO2 
 PCOD9106716
Probable space group: P -1
;
_chemical_formula_sum "Si O2"
_cell_formula_units_Z 12
_cell_length_a 7.041873
_cell_length_b 12.530649
_cell_length_c 7.089741
_cell_angle_alpha 111.968460
_cell_angle_beta 121.461133
_cell_angle_gamma 54.090417
_cell_volume 430.110505
_symmetry_space_group_name_H-M "P -1"
_symmetry_group_IT_number 2
_symmetry_cell_setting 'triclinic'
loop_
_space_group_symop_operation_xyz
x,y,z
-x,-y,-z
loop_
_atom_site_type_symbol
_atom_site_label
_atom_site_fract_x
_atom_site_fract_y
_atom_site_fract_z
Si Si1 0.269319 0.308202 0.363812
Si Si2 0.252763 0.582195 0.629612
Si Si3 0.477081 0.144535 0.696773
Si Si4 0.718151 0.617136 0.973524
Si Si5 0.966380 0.166257 0.554205
Si Si6 0.764848 0.001780 0.100969
O O1 0.276685 0.442700 0.500355
O O2 0.475543 0.183864 0.506405
O O3 0.320264 0.286477 0.156443
O O4 0.985131 0.341901 0.300366
O O5 0.513730 0.567555 0.832813
O O6 0.180845 0.679445 0.475853
O O7 0.254414 0.106456 0.578901
O O8 0.341634 0.292659 0.816049
O O9 0.718132 0.050500 0.889876
O O10 0.000000 0.500000 0.000000
O O11 0.836812 0.097433 0.322024
O O12 0.014351 0.136156 0.782716
O O13 0.500000 0.000000 0.000000
#
# Coordination Sequence:
#
# PCOD9106716 Si02
#       6
#     2   2   2   2   2   2
#     4  10  23  39  61  91 129 165 205 254 304 371
#     4  10  20  40  60  89 130 161 202 260 300 362
#     4  10  21  38  59  92 126 159 205 252 308 365
#     4  12  23  37  60  91 128 172 207 244 311 371
#     4   9  17  34  61  87 118 160 207 251 305 366
#     4   9  17  33  62  90 112 162 207 248 315 363
#
# _framework density 27.899809999999999
#
# number of rings (size 3 to 8) (size 9 to 14) (size 15 to 20)
#    0.000    2.000    1.667    3.500    0.000    2.667 
#    0.000    0.000    0.000   17.000    0.000    0.000 
#    0.000    0.000    0.000    0.000    0.000    0.000 
#
# Total GULP energy -67248.330918 kJ/mol
# GULP energy per Si atom -5604.027576 kJ/mol
# Density = 2.783631 g / cm^3
# Si number density = 27.899810 Si / 1000 Ang^3
#
#
#
# Elastic Constant Matrix: (Units=GPa)
#
#
# Indices 1 2 3 4 5 6 
#
# 1 114.4804 29.9912 59.2577 -7.4404 36.6267 2.9370
# 2 29.9912 164.8379 67.8901 -12.8423 11.7321 17.7596
# 3 59.2577 67.8901 163.5044 -16.6895 26.8863 16.8933
# 4 -7.4404 -12.8423 -16.6895 65.0089 12.0043 -3.7098
# 5 36.6267 11.7321 26.8863 12.0043 71.6831 -11.1636
# 6 2.9370 17.7596 16.8933 -3.7098 -11.1636 29.5654
#
#
#
# Elastic Compliance Matrix: (Units=1/GPa)
#
#
# Indices 1 2 3 4 5 6 
#
# 1 0.012340 -0.000312 -0.003175 0.001485 -0.005485 -0.001109
# 2 -0.000312 0.007630 -0.002498 0.000788 -0.000802 -0.003328
# 3 -0.003175 -0.002498 0.009310 0.001738 -0.002405 -0.004194
# 4 0.001485 0.000788 0.001738 0.016928 -0.004564 -0.001213
# 5 -0.005485 -0.000802 -0.002405 -0.004564 0.020012 0.009385
# 6 -0.001109 -0.003328 -0.004194 -0.001213 0.009385 0.041720
#
#
# Mechanical properties :
#
#
# Convention : Reuss Voigt Hill
#
# Bulk Modulus (GPa) = 57.77255 84.12232 70.94743
# Shear Modulus (GPa) = 39.78359 52.29706 46.04033
#
# Velocity S-wave (km/s) = 3.78027 4.33420 4.06668
# Velocity P-wave (km/s) = 6.30920 7.43398 6.89457
#
# Compressibility (1/GPa) = 0.01730926
#
# Stress axis : x y z
#
# Youngs Moduli (GPa) = 81.03803 131.07000 107.40910
#
# Poissons Ratio (x) = 0.04091 0.34098
# Poissons Ratio (y) = 0.02529 0.26836
# Poissons Ratio (z) = 0.25726 0.32748
#
# Static dielectric constant tensor:
#      x y z
#    x 2.189990 -0.001690 -0.011990 
#    y -0.001690 2.259040 -0.052510 
#    z -0.011990 -0.052510 2.163130 
# 
# From -- ./inp_files/180791.got.cif
#   From: 2010.05.17/outbox.cif.g08.bks.cpg/sg2_91_cif.got.tgz:180791.got - 2010.06.03 11:33:40.
