data_PCOD9106711
_publ_section_title
;
Structure prediction by ZEFSAII (Michael W. Deem and Ramdas Pophale) SiO2 
 PCOD9106711
Probable space group: P -1
;
_chemical_formula_sum "Si O2"
_cell_formula_units_Z 14
_cell_length_a 5.248193
_cell_length_b 20.081014
_cell_length_c 6.894457
_cell_angle_alpha 106.437449
_cell_angle_beta 52.868386
_cell_angle_gamma 106.067716
_cell_volume 550.246829
_symmetry_space_group_name_H-M "P -1"
_symmetry_group_IT_number 2
_symmetry_cell_setting 'triclinic'
loop_
_space_group_symop_operation_xyz
x,y,z
-x,-y,-z
loop_
_atom_site_type_symbol
_atom_site_label
_atom_site_fract_x
_atom_site_fract_y
_atom_site_fract_z
Si Si1 0.926856 0.910809 0.079487
Si Si2 0.383962 0.598237 0.652049
Si Si3 0.091669 0.173942 0.606776
Si Si4 0.167058 0.327529 0.164282
Si Si5 0.305425 0.440868 0.906657
Si Si6 0.552667 0.800164 0.919858
Si Si7 0.809439 0.053509 0.352391
O O1 0.813163 0.862054 0.270188
O O2 0.023864 0.990824 0.170295
O O3 0.666638 0.880142 0.006407
O O4 0.233839 0.905621 0.795723
O O5 0.662488 0.630086 0.695853
O O6 0.079943 0.558673 0.882876
O O7 0.538670 0.558011 0.375902
O O8 0.196525 0.656917 0.683512
O O9 0.913138 0.108803 0.512456
O O10 0.351547 0.207098 0.356132
O O11 0.815332 0.218871 0.851196
O O12 0.229649 0.249178 0.106735
O O13 0.341734 0.365215 0.926082
O O14 0.500000 0.500000 0.000000
O O15 0.500000 0.000000 0.500000
#
# Coordination Sequence:
#
# PCOD9106711 Si02
#       7
#     2   2   2   2   2   2   2
#     4  10  23  40  61  89 124 163 211 275 329 395
#     4  10  25  42  70 100 141 181 224 282 335 401
#     4  11  25  40  64  91 122 169 217 267 341 391
#     4  10  27  44  69 100 143 183 233 277 343 400
#     4  10  24  45  74 107 140 182 229 281 338 401
#     4  11  26  41  62  92 126 168 223 267 323 404
#     4  10  20  40  60  89 124 157 212 272 333 398
#
# _framework density 25.443125999999999
#
# number of rings (size 3 to 8) (size 9 to 14) (size 15 to 20)
#    0.857    0.857    1.429    0.857    8.000    2.857 
#    0.000    0.000    0.000    0.000    0.000    0.000 
#    0.000    0.000    0.000    0.000    0.000    0.000 
#
# Total GULP energy -77984.702682 kJ/mol
# GULP energy per Si atom -5570.335906 kJ/mol
# Density = 2.538522 g / cm^3
# Si number density = 25.443126 Si / 1000 Ang^3
#
#
#
# Elastic Constant Matrix: (Units=GPa)
#
#
# Indices 1 2 3 4 5 6 
#
# 1 70.1462 20.2920 51.7341 -3.7686 2.5146 0.4067
# 2 20.2920 97.7939 42.7774 -10.6551 -2.3243 4.1308
# 3 51.7341 42.7774 235.1899 -15.2755 5.4771 -0.3885
# 4 -3.7686 -10.6551 -15.2755 28.8630 -7.3265 6.3035
# 5 2.5146 -2.3243 5.4771 -7.3265 23.0810 3.6311
# 6 0.4067 4.1308 -0.3885 6.3035 3.6311 42.7826
#
#
#
# Elastic Compliance Matrix: (Units=1/GPa)
#
#
# Indices 1 2 3 4 5 6 
#
# 1 0.017463 -0.002259 -0.003447 -0.000854 -0.001628 0.000285
# 2 -0.002259 0.012037 -0.001471 0.004773 0.003664 -0.002168
# 3 -0.003447 -0.001471 0.005402 0.001735 -0.000506 0.000011
# 4 -0.000854 0.004773 0.001735 0.042773 0.015000 -0.008012
# 5 -0.001628 0.003664 -0.000506 0.015000 0.049820 -0.006781
# 6 0.000285 -0.002168 0.000011 -0.008012 -0.006781 0.025337
#
#
# Mechanical properties :
#
#
# Convention : Reuss Voigt Hill
#
# Bulk Modulus (GPa) = 48.67111 70.30411 59.48761
# Shear Modulus (GPa) = 28.72970 38.16706 33.44838
#
# Velocity S-wave (km/s) = 3.36396 3.87731 3.62972
# Velocity P-wave (km/s) = 5.85314 6.90916 6.40296
#
# Compressibility (1/GPa) = 0.02054607
#
# Stress axis : x y z
#
# Youngs Moduli (GPa) = 57.26434 83.07942 185.10720
#
# Poissons Ratio (x) = 0.18770 0.63814
# Poissons Ratio (y) = 0.12938 0.27233
# Poissons Ratio (z) = 0.19741 0.12223
#
# Static dielectric constant tensor:
#      x y z
#    x 2.227930 -0.324180 -0.179980 
#    y -0.324180 2.618280 0.182110 
#    z -0.179980 0.182110 2.261550 
# 
# From -- ./inp_files/9556.got.cif
#   From: 2010.05.17/outbox.cif.g08.bks.cpg/sg2_5_cif.got.tgz:9556.got - 2010.06.03 11:33:40.
