data_PCOD9106092
_publ_section_title
;
Structure prediction by ZEFSAII (Michael W. Deem and Ramdas Pophale) SiO2 
 PCOD9106092
Probable space group: P -1
;
_chemical_formula_sum "Si O2"
_cell_formula_units_Z 16
_cell_length_a 21.019555
_cell_length_b 6.117039
_cell_length_c 19.045932
_cell_angle_alpha 113.708712
_cell_angle_beta 159.817762
_cell_angle_gamma 67.012244
_cell_volume 772.904596
_symmetry_space_group_name_H-M "P -1"
_symmetry_group_IT_number 2
_symmetry_cell_setting 'triclinic'
loop_
_space_group_symop_operation_xyz
x,y,z
-x,-y,-z
loop_
_atom_site_type_symbol
_atom_site_label
_atom_site_fract_x
_atom_site_fract_y
_atom_site_fract_z
Si Si1 0.279417 0.569996 0.572484
Si Si2 0.645957 0.673909 0.589527
Si Si3 0.202741 0.373102 0.613387
Si Si4 0.661997 0.694802 0.773615
Si Si5 0.896639 0.140122 0.347699
Si Si6 0.915797 0.273353 0.748270
Si Si7 0.490370 0.004420 0.075782
Si Si8 0.354301 0.080104 0.518271
O O1 0.178139 0.467293 0.521735
O O2 0.148305 0.688396 0.393128
O O3 0.415707 0.763374 0.767721
O O4 0.379041 0.341244 0.609152
O O5 0.673986 0.734377 0.707245
O O6 0.449190 0.547493 0.362523
O O7 0.804957 0.479145 0.705204
O O8 0.656612 0.888035 0.572952
O O9 0.184564 0.605486 0.674201
O O10 0.045423 0.197418 0.451009
O O11 0.395114 0.226550 0.805568
O O12 0.524558 0.900312 0.689468
O O13 0.867073 0.701934 0.016165
O O14 0.000000 0.000000 0.500000
O O15 0.722656 0.998946 0.124650
O O16 0.831763 0.029736 0.658699
O O17 0.500000 0.000000 0.000000
#
# Coordination Sequence:
#
# PCOD9106092 Si02
#       8
#     2   2   2   2   2   2   2   2
#     4  11  24  43  61  87 130 172 209 258 325 379
#     4   9  20  38  64  99 126 163 212 266 311 368
#     4  11  23  42  67  92 124 158 207 264 323 386
#     4  10  20  39  67  93 128 166 213 262 311 367
#     4  11  23  41  66  99 121 149 206 269 319 384
#     4  10  22  41  61  90 133 168 211 258 313 382
#     4  12  23  43  70  91 124 163 208 270 323 378
#     4  10  22  40  60  90 131 167 213 260 312 385
#
# _framework density 20.701131
#
# number of rings (size 3 to 8) (size 9 to 14) (size 15 to 20)
#    0.000    1.500    2.500    1.875    0.000    2.500 
#    0.000   23.750    0.000    0.000    0.000    0.000 
#    0.000    0.000    0.000    0.000    0.000    0.000 
#
# Total GULP energy -89465.734072 kJ/mol
# GULP energy per Si atom -5591.608379 kJ/mol
# Density = 2.065401 g / cm^3
# Si number density = 20.701131 Si / 1000 Ang^3
#
#
#
# Elastic Constant Matrix: (Units=GPa)
#
#
# Indices 1 2 3 4 5 6 
#
# 1 85.8421 11.5977 56.3291 6.3785 -7.6692 35.9546
# 2 11.5977 73.6289 49.6266 2.5123 -3.6097 14.3605
# 3 56.3291 49.6266 174.8658 13.5539 12.5290 19.0037
# 4 6.3785 2.5123 13.5539 16.8522 -3.1855 -1.6631
# 5 -7.6692 -3.6097 12.5290 -3.1855 29.8104 0.8702
# 6 35.9546 14.3605 19.0037 -1.6631 0.8702 43.6681
#
#
#
# Elastic Compliance Matrix: (Units=1/GPa)
#
#
# Indices 1 2 3 4 5 6 
#
# 1 0.026168 0.006247 -0.008505 -0.003871 0.011241 -0.020271
# 2 0.006247 0.019445 -0.007219 0.001095 0.007361 -0.008502
# 3 -0.008505 -0.007219 0.011070 -0.005763 -0.008462 0.004508
# 4 -0.003871 0.001095 -0.005763 0.067659 0.008563 0.007741
# 5 0.011241 0.007361 -0.008462 0.008563 0.042049 -0.008506
# 6 -0.020271 -0.008502 0.004508 0.007741 -0.008506 0.040888
#
#
# Mechanical properties :
#
#
# Convention : Reuss Voigt Hill
#
# Bulk Modulus (GPa) = 26.50423 63.27154 44.88788
# Shear Modulus (GPa) = 20.93711 32.51837 26.72774
#
# Velocity S-wave (km/s) = 3.18370 3.96769 3.59712
# Velocity P-wave (km/s) = 5.13280 7.18476 6.24365
#
# Compressibility (1/GPa) = 0.03772983
#
# Stress axis : x y z
#
# Youngs Moduli (GPa) = 38.21391 51.42674 90.33220
#
# Poissons Ratio (x) = -0.32128 0.76827
# Poissons Ratio (y) = -0.23873 0.65214
# Poissons Ratio (z) = 0.32501 0.37127
#
# Static dielectric constant tensor:
#      x y z
#    x 1.762350 -0.007150 0.002180 
#    y -0.007150 1.775400 0.010650 
#    z 0.002180 0.010650 1.697400 
# 
# From -- ./inp_files/48019.got.cif
#   From: 2010.05.17/outbox.cif.g08.bks.cpg/sg2_25_cif.got.tgz:48019.got - 2010.06.03 11:33:40.
