data_PCOD9106804
_publ_section_title
;
Structure prediction by ZEFSAII (Michael W. Deem and Ramdas Pophale) SiO2 
 PCOD9106804
Probable space group: P -1
;
_chemical_formula_sum "Si O2"
_cell_formula_units_Z 14
_cell_length_a 9.166242
_cell_length_b 13.395871
_cell_length_c 5.011045
_cell_angle_alpha 88.321746
_cell_angle_beta 100.096601
_cell_angle_gamma 76.667377
_cell_volume 587.886423
_symmetry_space_group_name_H-M "P -1"
_symmetry_group_IT_number 2
_symmetry_cell_setting 'triclinic'
loop_
_space_group_symop_operation_xyz
x,y,z
-x,-y,-z
loop_
_atom_site_type_symbol
_atom_site_label
_atom_site_fract_x
_atom_site_fract_y
_atom_site_fract_z
Si Si1 0.180841 0.992295 0.554198
Si Si2 0.364728 0.275980 0.372424
Si Si3 0.834421 0.672070 0.159558
Si Si4 0.238963 0.116222 0.061688
Si Si5 0.153569 0.595054 0.473089
Si Si6 0.695101 0.246400 0.331653
Si Si7 0.337008 0.566432 0.028775
O O1 0.262007 0.874866 0.651164
O O2 0.246456 0.060472 0.785502
O O3 0.000000 0.000000 0.500000
O O4 0.206464 0.036153 0.269784
O O5 0.275238 0.291975 0.622116
O O6 0.536785 0.284900 0.437700
O O7 0.265553 0.352677 0.115451
O O8 0.368529 0.165290 0.238172
O O9 0.880364 0.773720 0.038845
O O10 0.988356 0.596635 0.312503
O O11 0.165610 0.713240 0.503215
O O12 0.209852 0.547121 0.779402
O O13 0.285486 0.551022 0.308669
O O14 0.666692 0.313214 0.044687
O O15 0.500000 0.500000 0.000000
#
# Coordination Sequence:
#
# PCOD9106804 Si02
#       7
#     2   2   2   2   2   2   2
#     4  12  24  37  57  90 126 161 212 261 287 357
#     4  10  22  39  59  88 128 171 202 252 302 370
#     4  10  20  40  61  88 124 169 205 243 302 363
#     4  10  22  37  56  79 128 166 199 245 304 339
#     4  10  22  38  69  90 117 158 211 248 310 364
#     4  10  27  36  67  92 123 162 213 250 318 358
#     4  10  23  42  67  96 123 153 205 263 313 366
#
# _framework density 23.814124
#
# number of rings (size 3 to 8) (size 9 to 14) (size 15 to 20)
#    1.714    0.000    1.429    2.571    6.000    1.143 
#    0.000    0.000    0.000    5.143    0.000    0.000 
#    0.000    0.000    0.000    0.000    0.000    0.000 
#
# Total GULP energy -78072.177267 kJ/mol
# GULP energy per Si atom -5576.584091 kJ/mol
# Density = 2.375992 g / cm^3
# Si number density = 23.814124 Si / 1000 Ang^3
#
#
#
# Elastic Constant Matrix: (Units=GPa)
#
#
# Indices 1 2 3 4 5 6 
#
# 1 65.9230 8.1679 -0.1519 -5.1110 21.6490 10.0772
# 2 8.1679 81.5746 16.2363 -23.3215 4.1638 12.4159
# 3 -0.1519 16.2363 103.8575 -3.4351 -1.0143 9.0620
# 4 -5.1110 -23.3215 -3.4351 36.2870 -4.7461 1.6517
# 5 21.6490 4.1638 -1.0143 -4.7461 30.4774 0.2530
# 6 10.0772 12.4159 9.0620 1.6517 0.2530 24.1773
#
#
#
# Elastic Compliance Matrix: (Units=1/GPa)
#
#
# Indices 1 2 3 4 5 6 
#
# 1 0.021652 0.000434 0.000706 0.001859 -0.015048 -0.009482
# 2 0.000434 0.017182 -0.001519 0.011264 -0.000876 -0.009196
# 3 0.000706 -0.001519 0.010168 0.000252 0.000112 -0.003344
# 4 0.001859 0.011264 0.000252 0.035867 0.002810 -0.009134
# 5 -0.015048 -0.000876 0.000112 0.002810 0.044011 0.006028
# 6 -0.009482 -0.009196 -0.003344 -0.009134 0.006028 0.051850
#
#
# Mechanical properties :
#
#
# Convention : Reuss Voigt Hill
#
# Bulk Modulus (GPa) = 20.72774 33.31773 27.02273
# Shear Modulus (GPa) = 25.30742 33.32852 29.31797
#
# Velocity S-wave (km/s) = 3.26345 3.74508 3.51253
# Velocity P-wave (km/s) = 4.78780 5.72031 5.27471
#
# Compressibility (1/GPa) = 0.04824452
#
# Stress axis : x y z
#
# Youngs Moduli (GPa) = 46.18450 58.19931 98.34503
#
# Poissons Ratio (x) = -0.02528 -0.06940
# Poissons Ratio (y) = -0.02006 0.14940
# Poissons Ratio (z) = -0.03259 0.08841
#
# Static dielectric constant tensor:
#      x y z
#    x 1.935720 0.109310 0.000930 
#    y 0.109310 2.050860 -0.002410 
#    z 0.000930 -0.002410 1.869770 
# 
# From -- ./inp_files/35191.got.cif
#   From: 2010.05.17/outbox.cif.g08.bks.cpg/sg2_18_cif.got.tgz:35191.got - 2010.06.03 11:33:40.
