data_PCOD9106243
_publ_section_title
;
Structure prediction by ZEFSAII (Michael W. Deem and Ramdas Pophale) SiO2 
 PCOD9106243
Probable space group: P -1
;
_chemical_formula_sum "Si O2"
_cell_formula_units_Z 16
_cell_length_a 15.880144
_cell_length_b 9.655680
_cell_length_c 6.967641
_cell_angle_alpha 126.774130
_cell_angle_beta 120.486524
_cell_angle_gamma 90.624555
_cell_volume 656.397126
_symmetry_space_group_name_H-M "P -1"
_symmetry_group_IT_number 2
_symmetry_cell_setting 'triclinic'
loop_
_space_group_symop_operation_xyz
x,y,z
-x,-y,-z
loop_
_atom_site_type_symbol
_atom_site_label
_atom_site_fract_x
_atom_site_fract_y
_atom_site_fract_z
Si Si1 0.591849 0.624125 0.937515
Si Si2 0.677030 0.217997 0.902130
Si Si3 0.605563 0.033493 0.266949
Si Si4 0.797789 0.586668 0.106154
Si Si5 0.361311 0.471548 0.673055
Si Si6 0.793251 0.194196 0.354948
Si Si7 0.878158 0.616638 0.807102
Si Si8 0.074623 0.981877 0.404386
O O1 0.618636 0.839828 0.091229
O O2 0.674441 0.552631 0.881595
O O3 0.622532 0.630967 0.204609
O O4 0.460247 0.494889 0.666879
O O5 0.775088 0.410963 0.077461
O O6 0.616603 0.314287 0.042947
O O7 0.724188 0.110451 0.010427
O O8 0.391363 0.910713 0.461060
O O9 0.707843 0.203428 0.418331
O O10 0.500000 0.000000 0.000000
O O11 0.857761 0.808137 0.440018
O O12 0.868456 0.599246 0.012806
O O13 0.235284 0.379290 0.382496
O O14 0.875597 0.414488 0.577460
O O15 0.847949 0.083316 0.438935
O O16 0.988712 0.803850 0.030852
O O17 0.000000 0.000000 0.500000
#
# Coordination Sequence:
#
# PCOD9106243 Si02
#       8
#     2   2   2   2   2   2   2   2
#     4  10  21  39  60  93 133 164 223 258 328 392
#     4  10  23  42  65  92 137 164 219 264 322 395
#     4  12  24  40  67  98 129 174 217 265 324 396
#     4  10  20  40  63  95 128 169 218 269 315 394
#     4   9  21  41  62  94 130 176 208 273 325 382
#     4  11  22  43  67  95 130 175 214 268 330 378
#     4  10  20  39  68  92 131 171 219 269 329 378
#     4  10  22  40  67  96 130 172 224 270 321 382
#
# _framework density 24.375489000000002
#
# number of rings (size 3 to 8) (size 9 to 14) (size 15 to 20)
#    0.000    1.750    2.500    1.875    0.000    4.500 
#    4.500    8.125   11.000    0.000    0.000    0.000 
#    0.000    0.000    0.000    0.000    0.000    0.000 
#
# Total GULP energy -89354.111220 kJ/mol
# GULP energy per Si atom -5584.631951 kJ/mol
# Density = 2.432001 g / cm^3
# Si number density = 24.375489 Si / 1000 Ang^3
#
#
#
# Elastic Constant Matrix: (Units=GPa)
#
#
# Indices 1 2 3 4 5 6 
#
# 1 60.9657 0.1617 14.3970 -17.8080 11.1759 -1.4453
# 2 0.1617 90.7414 42.5954 -11.9565 13.4944 -6.3705
# 3 14.3970 42.5954 96.2090 -14.6321 17.6154 -2.9700
# 4 -17.8080 -11.9565 -14.6321 35.7473 5.2681 4.3313
# 5 11.1759 13.4944 17.6154 5.2681 33.2932 -1.8340
# 6 -1.4453 -6.3705 -2.9700 4.3313 -1.8340 27.9445
#
#
#
# Elastic Compliance Matrix: (Units=1/GPa)
#
#
# Indices 1 2 3 4 5 6 
#
# 1 0.022645 0.003808 -0.001009 0.013854 -0.010854 -0.000928
# 2 0.003808 0.015196 -0.005469 0.005287 -0.005275 0.001914
# 3 -0.001009 -0.005469 0.014763 0.004706 -0.006048 -0.000856
# 4 0.013854 0.005287 0.004706 0.041564 -0.016140 -0.005080
# 5 -0.010854 -0.005275 -0.006048 -0.016140 0.041728 0.002834
# 6 -0.000928 0.001914 -0.000856 -0.005080 0.002834 0.037056
#
#
# Mechanical properties :
#
#
# Convention : Reuss Voigt Hill
#
# Bulk Modulus (GPa) = 21.15759 40.24716 30.70237
# Shear Modulus (GPa) = 25.76704 32.11444 28.94074
#
# Velocity S-wave (km/s) = 3.25482 3.63366 3.44944
# Velocity P-wave (km/s) = 4.77743 5.84396 5.33740
#
# Compressibility (1/GPa) = 0.04726437
#
# Stress axis : x y z
#
# Youngs Moduli (GPa) = 44.15942 65.80633 67.73786
#
# Poissons Ratio (x) = -0.25057 0.06833
# Poissons Ratio (y) = -0.16815 0.37044
# Poissons Ratio (z) = 0.04455 0.35988
#
# Static dielectric constant tensor:
#      x y z
#    x 1.939780 0.027780 -0.068370 
#    y 0.027780 1.885400 0.093330 
#    z -0.068370 0.093330 1.942020 
# 
# From -- ./inp_files/327888.got.cif
#   From: 2010.05.17/outbox.cif.g08.bks.cpg/sg2_164_cif.got.tgz:327888.got - 2010.06.03 11:33:40.
