data_PCOD9106124
_publ_section_title
;
Structure prediction by ZEFSAII (Michael W. Deem and Ramdas Pophale) SiO2 
 PCOD9106124
Probable space group: P -1
;
_chemical_formula_sum "Si O2"
_cell_formula_units_Z 15
_cell_length_a 9.127530
_cell_length_b 14.384420
_cell_length_c 7.621429
_cell_angle_alpha 59.354010
_cell_angle_beta 72.335892
_cell_angle_gamma 112.984444
_cell_volume 612.632675
_symmetry_space_group_name_H-M "P -1"
_symmetry_group_IT_number 2
_symmetry_cell_setting 'triclinic'
loop_
_space_group_symop_operation_xyz
x,y,z
-x,-y,-z
loop_
_atom_site_type_symbol
_atom_site_label
_atom_site_fract_x
_atom_site_fract_y
_atom_site_fract_z
Si Si1 0.761074 0.739941 0.257026
Si Si2 0.000000 0.500000 0.500000
Si Si3 0.053422 0.425049 0.935813
Si Si4 0.315200 0.192683 0.315086
Si Si5 0.427632 0.455446 0.833339
Si Si6 0.134733 0.787908 0.214707
Si Si7 0.851209 0.996429 0.799672
Si Si8 0.370418 0.838002 0.751235
O O1 0.629737 0.621063 0.570876
O O2 0.638941 0.640062 0.227567
O O3 0.987838 0.794872 0.139889
O O4 0.779618 0.876750 0.088809
O O5 0.082940 0.476112 0.673224
O O6 0.987349 0.375431 0.523178
O O7 0.241882 0.450939 0.923633
O O8 0.847685 0.257941 0.171414
O O9 0.000000 0.500000 0.000000
O O10 0.498439 0.204692 0.310543
O O11 0.100447 0.106627 0.579710
O O12 0.244488 0.092924 0.260899
O O13 0.417990 0.354726 0.071746
O O14 0.205028 0.907258 0.219539
O O15 0.310375 0.814434 0.003066
O O16 0.500000 0.000000 0.500000
#
# Coordination Sequence:
#
# PCOD9106124 Si02
#       8
#     2   1   2   2   2   2   2   2
#     4  10  20  39  67  94 133 179 235 290 359 421
#     4  10  24  42  66 100 142 178 236 290 358 416
#     4  11  26  45  71 101 143 191 240 298 369 435
#     4  10  24  42  69 101 141 185 238 300 365 430
#     4  10  22  41  68  97 137 185 239 291 357 437
#     4  11  23  40  69  99 139 185 235 298 364 430
#     4  10  23  41  69  98 137 184 239 294 361 439
#     4  11  25  44  69  99 146 185 239 303 370 432
#
# _framework density 24.484493000000001
#
# number of rings (size 3 to 8) (size 9 to 14) (size 15 to 20)
#    0.000    1.600    2.667    1.200    9.333    4.800 
#    0.000    1.333    0.000    0.000    0.000    0.000 
#    0.000    0.000    0.000    0.000    0.000    0.000 
#
# Total GULP energy -83604.933629 kJ/mol
# GULP energy per Si atom -5573.662242 kJ/mol
# Density = 2.442877 g / cm^3
# Si number density = 24.484493 Si / 1000 Ang^3
#
#
#
# Elastic Constant Matrix: (Units=GPa)
#
#
# Indices 1 2 3 4 5 6 
#
# 1 71.5606 -1.3788 18.1600 -15.7489 -4.5638 -21.3181
# 2 -1.3788 122.1764 25.2836 -18.7645 0.5199 -17.9474
# 3 18.1600 25.2836 63.5028 -14.5436 -7.0443 -8.3900
# 4 -15.7489 -18.7645 -14.5436 41.3182 -5.1274 11.5816
# 5 -4.5638 0.5199 -7.0443 -5.1274 42.9541 -4.6372
# 6 -21.3181 -17.9474 -8.3900 11.5816 -4.6372 47.5295
#
#
#
# Elastic Compliance Matrix: (Units=1/GPa)
#
#
# Indices 1 2 3 4 5 6 
#
# 1 0.018695 0.002975 -0.003997 0.005227 0.002761 0.007799
# 2 0.002975 0.010018 -0.003509 0.003466 0.000432 0.003695
# 3 -0.003997 -0.003509 0.019587 0.004294 0.003301 -0.000385
# 4 0.005227 0.003466 0.004294 0.030576 0.004588 -0.002592
# 5 0.002761 0.000432 0.003301 0.004588 0.025015 0.003307
# 6 0.007799 0.003695 -0.000385 -0.002592 0.003307 0.026819
#
#
# Mechanical properties :
#
#
# Convention : Reuss Voigt Hill
#
# Bulk Modulus (GPa) = 25.48653 37.92992 31.70823
# Shear Modulus (GPa) = 32.71132 40.70537 36.70834
#
# Velocity S-wave (km/s) = 3.65910 4.08179 3.87621
# Velocity P-wave (km/s) = 5.31826 6.14327 5.74559
#
# Compressibility (1/GPa) = 0.03923641
#
# Stress axis : x y z
#
# Youngs Moduli (GPa) = 53.48895 99.82000 51.05544
#
# Poissons Ratio (x) = -0.29694 0.20408
# Poissons Ratio (y) = -0.15912 0.17918
# Poissons Ratio (z) = 0.21380 0.35031
#
# Static dielectric constant tensor:
#      x y z
#    x 1.953830 0.128500 0.096020 
#    y 0.128500 2.092610 0.097110 
#    z 0.096020 0.097110 1.969250 
# 
# From -- ./inp_files/205539.got.cif
#   From: 2010.05.17/outbox.cif.g08.bks.cpg/sg2_103_cif.got.tgz:205539.got - 2010.06.03 11:33:40.
