data_PCOD9106534
_publ_section_title
;
Structure prediction by ZEFSAII (Michael W. Deem and Ramdas Pophale) SiO2 
 PCOD9106534
Probable space group: P -1
;
_chemical_formula_sum "Si O2"
_cell_formula_units_Z 16
_cell_length_a 15.608608
_cell_length_b 13.088191
_cell_length_c 9.684160
_cell_angle_alpha 72.093453
_cell_angle_beta 33.289597
_cell_angle_gamma 47.893970
_cell_volume 631.230936
_symmetry_space_group_name_H-M "P -1"
_symmetry_group_IT_number 2
_symmetry_cell_setting 'triclinic'
loop_
_space_group_symop_operation_xyz
x,y,z
-x,-y,-z
loop_
_atom_site_type_symbol
_atom_site_label
_atom_site_fract_x
_atom_site_fract_y
_atom_site_fract_z
Si Si1 0.307203 0.064739 0.349957
Si Si2 0.357955 0.372961 0.636786
Si Si3 0.241148 0.336843 0.335990
Si Si4 0.042906 0.579321 0.724957
Si Si5 0.159029 0.817336 0.782664
Si Si6 0.604105 0.300308 0.785788
Si Si7 0.638335 0.016240 0.394228
Si Si8 0.863206 0.289666 0.668710
O O1 0.211572 0.232299 0.462727
O O2 0.431010 0.944048 0.365673
O O3 0.062325 0.145232 0.576069
O O4 0.500000 0.000000 0.000000
O O5 0.181572 0.531785 0.700288
O O6 0.562946 0.334631 0.455745
O O7 0.536259 0.184583 0.402923
O O8 0.163513 0.402128 0.973630
O O9 0.251697 0.403525 0.427674
O O10 0.000000 0.500000 0.500000
O O11 0.488142 0.243345 0.961675
O O12 0.996242 0.706762 0.634414
O O13 0.229793 0.785540 0.539666
O O14 0.943695 0.842670 0.063994
O O15 0.000000 0.000000 0.000000
O O16 0.761318 0.247885 0.731454
O O17 0.365589 0.516551 0.030483
O O18 0.500000 0.000000 0.500000
#
# Coordination Sequence:
#
# PCOD9106534 Si02
#       8
#     2   2   2   2   2   2   2   2
#     4  12  26  42  72 102 138 181 231 289 342 418
#     4  10  22  41  67  96 133 184 226 275 339 412
#     4  11  21  41  69  96 132 175 227 275 339 409
#     4  10  20  39  72  97 136 173 234 279 337 415
#     4  10  24  42  68  95 136 184 228 281 344 421
#     4  10  22  42  73  96 141 173 230 296 338 412
#     4  11  26  45  66  95 143 178 231 282 353 418
#     4  10  23  43  67 107 134 177 230 292 349 399
#
# _framework density 25.347300000000001
#
# number of rings (size 3 to 8) (size 9 to 14) (size 15 to 20)
#    0.000    1.500    2.500    2.250    7.000    3.000 
#    0.000    3.125    0.000    0.000    0.000    0.000 
#    0.000    0.000    0.000    0.000    0.000    0.000 
#
# Total GULP energy -89324.750711 kJ/mol
# GULP energy per Si atom -5582.796919 kJ/mol
# Density = 2.528961 g / cm^3
# Si number density = 25.347300 Si / 1000 Ang^3
#
#
#
# Elastic Constant Matrix: (Units=GPa)
#
#
# Indices 1 2 3 4 5 6 
#
# 1 164.4558 34.6789 48.5163 -5.7833 -15.0534 -7.4665
# 2 34.6789 71.1435 5.3525 -1.5017 6.0192 -13.4859
# 3 48.5163 5.3525 126.5410 -21.3902 -10.0818 -6.1962
# 4 -5.7833 -1.5017 -21.3902 22.6074 9.2762 5.4175
# 5 -15.0534 6.0192 -10.0818 9.2762 40.8343 -7.1789
# 6 -7.4665 -13.4859 -6.1962 5.4175 -7.1789 30.5631
#
#
#
# Elastic Compliance Matrix: (Units=1/GPa)
#
#
# Indices 1 2 3 4 5 6 
#
# 1 0.008083 -0.003887 -0.003075 -0.002815 0.003606 0.000982
# 2 -0.003887 0.017286 0.000961 0.000781 -0.002855 0.006063
# 3 -0.003075 0.000961 0.010605 0.009696 -0.000877 -0.000102
# 4 -0.002815 0.000781 0.009696 0.062043 -0.015126 -0.012928
# 5 0.003606 -0.002855 -0.000877 -0.015126 0.031117 0.009433
# 6 0.000982 0.006063 -0.000102 -0.012928 0.009433 0.040121
#
#
# Mechanical properties :
#
#
# Convention : Reuss Voigt Hill
#
# Bulk Modulus (GPa) = 41.71709 59.91506 50.81607
# Shear Modulus (GPa) = 26.42021 37.04048 31.73035
#
# Velocity S-wave (km/s) = 3.23201 3.82687 3.54195
# Velocity P-wave (km/s) = 5.51560 6.57385 6.06784
#
# Compressibility (1/GPa) = 0.02397099
#
# Stress axis : x y z
#
# Youngs Moduli (GPa) = 123.71377 57.85009 94.29525
#
# Poissons Ratio (x) = 0.22487 0.28997
# Poissons Ratio (y) = 0.48089 -0.09059
# Poissons Ratio (z) = 0.38044 -0.05557
#
# Static dielectric constant tensor:
#      x y z
#    x 2.116410 -0.074240 0.083070 
#    y -0.074240 2.165930 -0.063890 
#    z 0.083070 -0.063890 2.155380 
# 
# From -- ./inp_files/315023.got.cif
#   From: 2010.05.17/outbox.cif.g08.bks.cpg/sg2_158_cif.got.tgz:315023.got - 2010.06.03 11:33:40.
