data_PCOD9106913
_publ_section_title
;
Structure prediction by ZEFSAII (Michael W. Deem and Ramdas Pophale) SiO2 
 PCOD9106913
Probable space group: P -1
;
_chemical_formula_sum "Si O2"
_cell_formula_units_Z 16
_cell_length_a 7.496558
_cell_length_b 6.783207
_cell_length_c 14.599346
_cell_angle_alpha 97.691497
_cell_angle_beta 67.388017
_cell_angle_gamma 117.593128
_cell_volume 606.481650
_symmetry_space_group_name_H-M "P -1"
_symmetry_group_IT_number 2
_symmetry_cell_setting 'triclinic'
loop_
_space_group_symop_operation_xyz
x,y,z
-x,-y,-z
loop_
_atom_site_type_symbol
_atom_site_label
_atom_site_fract_x
_atom_site_fract_y
_atom_site_fract_z
Si Si1 0.186031 0.576057 0.044037
Si Si2 0.993469 0.860801 0.711353
Si Si3 0.168186 0.621557 0.367715
Si Si4 0.166948 0.225891 0.544480
Si Si5 0.483886 0.407682 0.162010
Si Si6 0.097278 0.908920 0.891627
Si Si7 0.580411 0.151668 0.833192
Si Si8 0.497069 0.545263 0.640301
O O1 0.401013 0.626401 0.949911
O O2 0.254123 0.784042 0.110480
O O3 0.000000 0.500000 0.000000
O O4 0.084719 0.343870 0.103754
O O5 0.969535 0.615154 0.673160
O O6 0.126297 0.987511 0.784223
O O7 0.745474 0.795098 0.782163
O O8 0.077386 0.014301 0.615239
O O9 0.010242 0.700746 0.454185
O O10 0.287812 0.819281 0.283011
O O11 0.358785 0.588135 0.378690
O O12 0.310534 0.421211 0.598071
O O13 0.328568 0.234564 0.432171
O O14 0.469142 0.633576 0.154399
O O15 0.596393 0.439756 0.241357
O O16 0.338925 0.953891 0.877023
O O17 0.000000 0.000000 0.000000
#
# Coordination Sequence:
#
# PCOD9106913 Si02
#       8
#     2   2   2   2   2   2   2   2
#     4  12  25  38  60  96 132 167 217 270 323 398
#     4  10  22  40  66  99 125 174 224 267 337 402
#     4  10  22  41  66  93 140 167 216 289 322 393
#     4  11  22  41  69  93 130 174 224 268 347 398
#     4  10  20  40  62  86 130 167 209 274 325 381
#     4  12  22  38  67  88 129 179 213 264 334 389
#     4  10  21  40  61  91 129 171 217 261 327 394
#     4   9  22  41  62  98 129 169 223 279 329 402
#
# _framework density 26.38167
#
# number of rings (size 3 to 8) (size 9 to 14) (size 15 to 20)
#    0.000    1.750    3.750    3.000    1.750    3.500 
#    0.000    6.250    0.000    0.000    0.000    0.000 
#    0.000    0.000    0.000    0.000    0.000    0.000 
#
# Total GULP energy -89401.135383 kJ/mol
# GULP energy per Si atom -5587.570961 kJ/mol
# Density = 2.632162 g / cm^3
# Si number density = 26.381670 Si / 1000 Ang^3
#
#
#
# Elastic Constant Matrix: (Units=GPa)
#
#
# Indices 1 2 3 4 5 6 
#
# 1 53.9284 39.3984 17.9867 6.3236 17.1363 13.1162
# 2 39.3984 120.3846 47.0081 -6.0949 -8.6310 11.9139
# 3 17.9867 47.0081 121.2676 -12.1555 -0.8364 -0.4439
# 4 6.3236 -6.0949 -12.1555 49.8644 9.0544 8.1432
# 5 17.1363 -8.6310 -0.8364 9.0544 44.1081 -1.0099
# 6 13.1162 11.9139 -0.4439 8.1432 -1.0099 43.6987
#
#
#
# Elastic Compliance Matrix: (Units=1/GPa)
#
#
# Indices 1 2 3 4 5 6 
#
# 1 0.033759 -0.011129 -0.001023 -0.001999 -0.015065 -0.007085
# 2 -0.011129 0.013949 -0.003601 0.001103 0.006746 -0.000549
# 3 -0.001023 -0.003601 0.010001 0.002059 -0.000517 0.000995
# 4 -0.001999 0.001103 0.002059 0.022241 -0.003624 -0.003908
# 5 -0.015065 0.006746 -0.000517 -0.003624 0.030671 0.004061
# 6 -0.007085 -0.000549 0.000995 -0.003908 0.004061 0.025992
#
#
# Mechanical properties :
#
#
# Convention : Reuss Voigt Hill
#
# Bulk Modulus (GPa) = 38.16598 56.04077 47.10337
# Shear Modulus (GPa) = 28.27176 40.28006 34.27591
#
# Velocity S-wave (km/s) = 3.27715 3.91169 3.60840
# Velocity P-wave (km/s) = 5.36823 6.45680 5.93751
#
# Compressibility (1/GPa) = 0.02620135
#
# Stress axis : x y z
#
# Youngs Moduli (GPa) = 29.62140 71.68973 99.99473
#
# Poissons Ratio (x) = 0.79783 0.10234
# Poissons Ratio (y) = 0.32965 0.36012
# Poissons Ratio (z) = 0.03032 0.25819
#
# Static dielectric constant tensor:
#      x y z
#    x 2.182000 -0.075920 0.089800 
#    y -0.075920 2.090840 -0.059200 
#    z 0.089800 -0.059200 2.086330 
# 
# From -- ./inp_files/492962.got.cif
#   From: 2010.05.17/outbox.cif.g08.bks.cpg/sg2_247_cif.got.tgz:492962.got - 2010.06.03 11:33:40.
