data_PCOD9106105
_publ_section_title
;
Structure prediction by ZEFSAII (Michael W. Deem and Ramdas Pophale) SiO2 
 PCOD9106105
Probable space group: P -1
;
_chemical_formula_sum "Si O2"
_cell_formula_units_Z 15
_cell_length_a 11.279184
_cell_length_b 11.582692
_cell_length_c 10.728906
_cell_angle_alpha 84.107617
_cell_angle_beta 66.604095
_cell_angle_gamma 138.283430
_cell_volume 648.028023
_symmetry_space_group_name_H-M "P -1"
_symmetry_group_IT_number 2
_symmetry_cell_setting 'triclinic'
loop_
_space_group_symop_operation_xyz
x,y,z
-x,-y,-z
loop_
_atom_site_type_symbol
_atom_site_label
_atom_site_fract_x
_atom_site_fract_y
_atom_site_fract_z
Si Si1 0.000000 0.000000 0.500000
Si Si2 0.250217 0.782087 0.960502
Si Si3 0.274317 0.366976 0.016760
Si Si4 0.930860 0.696498 0.651424
Si Si5 0.498316 0.890580 0.605661
Si Si6 0.950747 0.039434 0.804583
Si Si7 0.565103 0.221385 0.892631
Si Si8 0.263650 0.473716 0.755647
O O1 0.122396 0.222588 0.396385
O O2 0.996188 0.027636 0.649021
O O3 0.293048 0.757875 0.812663
O O4 0.481811 0.050551 0.860505
O O5 0.272544 0.705234 0.069248
O O6 0.002431 0.668613 0.088316
O O7 0.369111 0.510301 0.840576
O O8 0.500000 0.500000 0.000000
O O9 0.100495 0.312394 0.184557
O O10 0.115682 0.129420 0.071723
O O11 0.733456 0.445003 0.725341
O O12 0.221411 0.895176 0.476275
O O13 0.441506 0.714880 0.601283
O O14 0.500000 0.000000 0.500000
O O15 0.181422 0.299254 0.727275
O O16 0.690355 0.914532 0.933379
#
# Coordination Sequence:
#
# PCOD9106105 Si02
#       8
#     1   2   2   2   2   2   2   2
#     4  10  24  38  62  98 124 172 202 264 326 386
#     4  10  22  40  65  93 127 167 226 263 322 376
#     4  11  22  41  70  95 122 169 229 269 320 387
#     4  11  23  37  63  92 127 167 219 258 329 382
#     4  12  25  39  60  92 137 172 208 264 328 387
#     4  10  22  42  66  98 129 165 221 267 327 386
#     4  10  20  39  67  94 120 172 220 271 309 387
#     4  11  24  42  67  94 132 174 219 271 317 387
#
# _framework density 23.147148000000001
#
# number of rings (size 3 to 8) (size 9 to 14) (size 15 to 20)
#    0.000    1.333    1.333    4.000    3.733    1.600 
#    0.000    2.667    0.000    0.000    0.000    0.000 
#    0.000    0.000    0.000    0.000    0.000    0.000 
#
# Total GULP energy -83628.114241 kJ/mol
# GULP energy per Si atom -5575.207616 kJ/mol
# Density = 2.309446 g / cm^3
# Si number density = 23.147148 Si / 1000 Ang^3
#
#
#
# Elastic Constant Matrix: (Units=GPa)
#
#
# Indices 1 2 3 4 5 6 
#
# 1 75.3645 17.4527 18.1135 -25.4003 23.3173 -12.8433
# 2 17.4527 101.4206 18.6224 -25.4666 30.9304 -28.5655
# 3 18.1135 18.6224 50.1898 -24.1995 20.2994 -8.3506
# 4 -25.4003 -25.4666 -24.1995 33.5892 -22.5380 7.7669
# 5 23.3173 30.9304 20.2994 -22.5380 45.6132 -15.5464
# 6 -12.8433 -28.5655 -8.3506 7.7669 -15.5464 37.4414
#
#
#
# Elastic Compliance Matrix: (Units=1/GPa)
#
#
# Indices 1 2 3 4 5 6 
#
# 1 0.018782 0.002134 0.000874 0.013114 -0.003573 0.004062
# 2 0.002134 0.015488 0.001209 0.009072 -0.004568 0.009039
# 3 0.000874 0.001209 0.031221 0.020783 -0.004160 0.002147
# 4 0.013114 0.009072 0.020783 0.069844 0.015073 0.007825
# 5 -0.003573 -0.004568 -0.004160 0.015073 0.038625 0.007273
# 6 0.004062 0.009039 0.002147 0.007825 0.007273 0.036873
#
#
# Mechanical properties :
#
#
# Convention : Reuss Voigt Hill
#
# Bulk Modulus (GPa) = 13.52742 37.26133 25.39438
# Shear Modulus (GPa) = 22.02238 34.84784 28.43511
#
# Velocity S-wave (km/s) = 3.08784 3.88428 3.50873
# Velocity P-wave (km/s) = 4.30926 6.02074 5.23541
#
# Compressibility (1/GPa) = 0.07392393
#
# Stress axis : x y z
#
# Youngs Moduli (GPa) = 53.24195 64.56747 32.02986
#
# Poissons Ratio (x) = -0.13779 -0.02798
# Poissons Ratio (y) = -0.11362 -0.03872
# Poissons Ratio (z) = -0.04652 -0.07805
#
# Static dielectric constant tensor:
#      x y z
#    x 1.894340 0.002870 -0.005400 
#    y 0.002870 1.889070 -0.031850 
#    z -0.005400 -0.031850 1.888510 
# 
# From -- ./inp_files/428147.got.cif
#   From: 2010.05.17/outbox.cif.g08.bks.cpg/sg2_215_cif.got.tgz:428147.got - 2010.06.03 11:33:40.
