data_PCOD9106762
_publ_section_title
;
Structure prediction by ZEFSAII (Michael W. Deem and Ramdas Pophale) SiO2 
 PCOD9106762
Probable space group: P -1
;
_chemical_formula_sum "Si O2"
_cell_formula_units_Z 14
_cell_length_a 17.353244
_cell_length_b 9.182481
_cell_length_c 6.991491
_cell_angle_alpha 133.033440
_cell_angle_beta 60.228171
_cell_angle_gamma 130.707778
_cell_volume 614.632093
_symmetry_space_group_name_H-M "P -1"
_symmetry_group_IT_number 2
_symmetry_cell_setting 'triclinic'
loop_
_space_group_symop_operation_xyz
x,y,z
-x,-y,-z
loop_
_atom_site_type_symbol
_atom_site_label
_atom_site_fract_x
_atom_site_fract_y
_atom_site_fract_z
Si Si1 0.925658 0.730332 0.299390
Si Si2 0.814553 0.215446 0.597711
Si Si3 0.485176 0.901107 0.643670
Si Si4 0.633213 0.755181 0.445800
Si Si5 0.789496 0.928632 0.702854
Si Si6 0.345744 0.683554 0.941740
Si Si7 0.081625 0.686822 0.829104
O O1 0.818468 0.730673 0.452630
O O2 0.919273 0.528909 0.260502
O O3 0.000000 0.000000 0.500000
O O4 0.977845 0.693495 0.011694
O O5 0.892915 0.323695 0.430496
O O6 0.719356 0.975098 0.423962
O O7 0.854536 0.125357 0.640971
O O8 0.760010 0.344087 0.875801
O O9 0.527115 0.723543 0.475340
O O10 0.374759 0.774284 0.768544
O O11 0.500000 0.000000 0.500000
O O12 0.564452 0.114807 0.864591
O O13 0.673644 0.838854 0.690730
O O14 0.644370 0.535196 0.215735
O O15 0.828805 0.071714 0.975523
#
# Coordination Sequence:
#
# PCOD9106762 Si02
#       7
#     2   2   2   2   2   2   2
#     4   9  20  38  60  88 115 158 198 240 288 345
#     4   9  22  37  57  92 114 153 193 239 295 345
#     4  10  22  41  61  87 115 157 196 238 296 344
#     4   9  21  41  57  89 117 150 195 241 294 343
#     4   9  21  38  58  87 118 151 194 242 294 341
#     4  10  21  41  60  84 125 147 194 248 286 353
#     4  10  20  40  61  82 124 153 195 244 289 346
#
# _framework density 22.777854999999999
#
# number of rings (size 3 to 8) (size 9 to 14) (size 15 to 20)
#    0.857    1.714    0.000    0.429    2.000    5.714 
#    2.571    6.429    0.000    0.000    0.000    0.000 
#    0.000    0.000    0.000    0.000    0.000    0.000 
#
# Total GULP energy -77952.559018 kJ/mol
# GULP energy per Si atom -5568.039930 kJ/mol
# Density = 2.272601 g / cm^3
# Si number density = 22.777855 Si / 1000 Ang^3
#
#
#
# Elastic Constant Matrix: (Units=GPa)
#
#
# Indices 1 2 3 4 5 6 
#
# 1 90.5067 32.0598 47.7547 -0.0542 -19.5712 -7.4056
# 2 32.0598 84.8916 80.6007 1.4575 -26.3453 -6.6147
# 3 47.7547 80.6007 135.0904 -9.9249 -29.2229 -17.1336
# 4 -0.0542 1.4575 -9.9249 43.5410 -12.1626 -13.5823
# 5 -19.5712 -26.3453 -29.2229 -12.1626 31.5748 10.4627
# 6 -7.4056 -6.6147 -17.1336 -13.5823 10.4627 30.4927
#
#
#
# Elastic Compliance Matrix: (Units=1/GPa)
#
#
# Indices 1 2 3 4 5 6 
#
# 1 0.014258 -0.000119 -0.003745 0.000641 0.005622 -0.000311
# 2 -0.000119 0.031713 -0.018103 -0.005078 0.010748 -0.009271
# 3 -0.003745 -0.018103 0.022464 0.010190 0.003617 0.011084
# 4 0.000641 -0.005078 0.010190 0.034031 0.013645 0.015256
# 5 0.005622 0.010748 0.003617 0.013645 0.055077 -0.007091
# 6 -0.000311 -0.009271 0.011084 0.015256 -0.007091 0.046164
#
#
# Mechanical properties :
#
#
# Convention : Reuss Voigt Hill
#
# Bulk Modulus (GPa) = 40.81583 70.14659 55.48121
# Shear Modulus (GPa) = 19.54573 31.12660 25.33616
#
# Velocity S-wave (km/s) = 2.93252 3.70067 3.33876
# Velocity P-wave (km/s) = 5.42441 7.00876 6.26685
#
# Compressibility (1/GPa) = 0.02450030
#
# Stress axis : x y z
#
# Youngs Moduli (GPa) = 70.13660 31.53237 44.51474
#
# Poissons Ratio (x) = 0.00376 0.16672
# Poissons Ratio (y) = 0.00836 0.80587
# Poissons Ratio (z) = 0.26268 0.57084
#
# Static dielectric constant tensor:
#      x y z
#    x 2.005220 0.086240 -0.007180 
#    y 0.086240 1.868690 0.034160 
#    z -0.007180 0.034160 1.889820 
# 
# From -- ./inp_files/117509.got.cif
#   From: 2010.05.17/outbox.cif.g08.bks.cpg/sg2_59_cif.got.tgz:117509.got - 2010.06.03 11:33:40.
