data_PCOD9106918
_publ_section_title
;
Structure prediction by ZEFSAII (Michael W. Deem and Ramdas Pophale) SiO2 
 PCOD9106918
Probable space group: P -1
;
_chemical_formula_sum "Si O2"
_cell_formula_units_Z 14
_cell_length_a 18.841152
_cell_length_b 10.871021
_cell_length_c 9.006840
_cell_angle_alpha 76.927470
_cell_angle_beta 135.069410
_cell_angle_gamma 138.342501
_cell_volume 661.820209
_symmetry_space_group_name_H-M "P -1"
_symmetry_group_IT_number 2
_symmetry_cell_setting 'triclinic'
loop_
_space_group_symop_operation_xyz
x,y,z
-x,-y,-z
loop_
_atom_site_type_symbol
_atom_site_label
_atom_site_fract_x
_atom_site_fract_y
_atom_site_fract_z
Si Si1 0.046770 0.420696 0.675800
Si Si2 0.845313 0.198361 0.731284
Si Si3 0.802617 0.856342 0.779902
Si Si4 0.441696 0.345030 0.255059
Si Si5 0.372048 0.984988 0.274108
Si Si6 0.529852 0.164010 0.915817
Si Si7 0.323352 0.073814 0.883050
O O1 0.000000 0.500000 0.500000
O O2 0.007976 0.404086 0.796194
O O3 0.259368 0.601701 0.904530
O O4 0.881634 0.149716 0.441723
O O5 0.846273 0.049511 0.777682
O O6 0.822610 0.223324 0.858210
O O7 0.640432 0.016551 0.406117
O O8 0.640163 0.631375 0.488518
O O9 0.709215 0.745840 0.836354
O O10 0.000000 0.000000 0.000000
O O11 0.468290 0.227218 0.385999
O O12 0.364569 0.237042 0.004955
O O13 0.500000 0.000000 0.500000
O O14 0.333329 0.966978 0.046499
O O15 0.482567 0.219672 0.953505
O O16 0.500000 0.000000 0.000000
#
# Coordination Sequence:
#
# PCOD9106918 Si02
#       7
#     2   2   2   2   2   2   2
#     4  11  22  36  58  84 123 166 199 237 294 370
#     4  10  22  38  60  93 117 160 206 244 306 366
#     4  10  20  40  62  87 121 160 203 252 304 353
#     4   8  20  37  58  86 121 154 195 253 301 347
#     4   9  18  35  60  89 122 150 197 251 311 360
#     4  11  20  38  61  80 125 166 194 239 304 364
#     4   9  20  38  57  88 118 158 200 241 303 354
#
# _framework density 21.153780999999999
#
# number of rings (size 3 to 8) (size 9 to 14) (size 15 to 20)
#    0.857    1.429    2.857    0.857    0.000    4.571 
#    0.000    3.571    0.000    5.143    0.000    0.000 
#    0.000    0.000    0.000    0.000    0.000    0.000 
#
# Total GULP energy -78060.040298 kJ/mol
# GULP energy per Si atom -5575.717164 kJ/mol
# Density = 2.110563 g / cm^3
# Si number density = 21.153781 Si / 1000 Ang^3
#
#
#
# Elastic Constant Matrix: (Units=GPa)
#
#
# Indices 1 2 3 4 5 6 
#
# 1 140.2122 36.8259 65.4103 33.7425 -6.0029 17.9196
# 2 36.8259 48.9797 13.9825 14.8490 10.7496 27.5206
# 3 65.4103 13.9825 82.4491 22.1440 11.7535 15.7828
# 4 33.7425 14.8490 22.1440 31.4255 4.0136 9.9777
# 5 -6.0029 10.7496 11.7535 4.0136 49.0004 4.3194
# 6 17.9196 27.5206 15.7828 9.9777 4.3194 40.2620
#
#
#
# Elastic Compliance Matrix: (Units=1/GPa)
#
#
# Indices 1 2 3 4 5 6 
#
# 1 0.017369 -0.012996 -0.012077 -0.007169 0.007862 0.006820
# 2 -0.012996 0.047058 0.010832 -0.005540 -0.011591 -0.028011
# 3 -0.012077 0.010832 0.024260 -0.005202 -0.008425 -0.009346
# 4 -0.007169 -0.005540 -0.005202 0.046814 -0.002041 -0.002366
# 5 0.007862 -0.011591 -0.008425 -0.002041 0.025618 0.005484
# 6 0.006820 -0.028011 -0.009346 -0.002366 0.005484 0.044610
#
#
# Mechanical properties :
#
#
# Convention : Reuss Voigt Hill
#
# Bulk Modulus (GPa) = 16.60968 56.00873 36.30921
# Shear Modulus (GPa) = 19.66339 34.49906 27.08123
#
# Velocity S-wave (km/s) = 3.05215 4.04278 3.58188
# Velocity P-wave (km/s) = 4.50442 6.95173 5.85732
#
# Compressibility (1/GPa) = 0.06020585
#
# Stress axis : x y z
#
# Youngs Moduli (GPa) = 57.57253 21.25060 41.22018
#
# Poissons Ratio (x) = 0.27616 0.49780
# Poissons Ratio (y) = 0.74819 -0.44649
# Poissons Ratio (z) = 0.69529 -0.23018
#
# Static dielectric constant tensor:
#      x y z
#    x 1.798330 0.022370 -0.068050 
#    y 0.022370 1.837220 -0.020160 
#    z -0.068050 -0.020160 1.773820 
# 
# From -- ./inp_files/333275.got.cif
#   From: 2010.05.17/outbox.cif.g08.bks.cpg/sg2_167_cif.got.tgz:333275.got - 2010.06.03 11:33:40.
