data_PCOD9106380
_publ_section_title
;
Structure prediction by ZEFSAII (Michael W. Deem and Ramdas Pophale) SiO2 
 PCOD9106380
Probable space group: P -1
;
_chemical_formula_sum "Si O2"
_cell_formula_units_Z 16
_cell_length_a 11.836622
_cell_length_b 9.258042
_cell_length_c 19.711160
_cell_angle_alpha 147.106088
_cell_angle_beta 138.754214
_cell_angle_gamma 50.346444
_cell_volume 773.260082
_symmetry_space_group_name_H-M "P -1"
_symmetry_group_IT_number 2
_symmetry_cell_setting 'triclinic'
loop_
_space_group_symop_operation_xyz
x,y,z
-x,-y,-z
loop_
_atom_site_type_symbol
_atom_site_label
_atom_site_fract_x
_atom_site_fract_y
_atom_site_fract_z
Si Si1 0.616138 0.723690 0.607285
Si Si2 0.505649 0.931965 0.139362
Si Si3 0.187181 0.900347 0.065668
Si Si4 0.213602 0.759303 0.533452
Si Si5 0.917179 0.050882 0.594226
Si Si6 0.564581 0.854204 0.403447
Si Si7 0.420450 0.261354 0.105361
Si Si8 0.806104 0.641078 0.074425
O O1 0.500000 0.500000 0.500000
O O2 0.734276 0.539551 0.540027
O O3 0.728382 0.843998 0.763810
O O4 0.523480 0.966292 0.624092
O O5 0.630262 0.047153 0.299422
O O6 0.435917 0.173747 0.155822
O O7 0.331329 0.802868 0.037372
O O8 0.635785 0.748060 0.081064
O O9 0.173822 0.668251 0.022894
O O10 0.000000 0.000000 0.000000
O O11 0.162743 0.783317 0.440466
O O12 0.051398 0.853369 0.540503
O O13 0.029415 0.219210 0.763904
O O14 0.766077 0.897753 0.502182
O O15 0.513997 0.544953 0.252586
O O16 0.500000 0.000000 0.500000
O O17 0.237709 0.302574 0.001688
O O18 0.500000 0.000000 0.000000
#
# Coordination Sequence:
#
# PCOD9106380 Si02
#       8
#     2   2   2   2   2   2   2   2
#     4  12  22  41  64  93 134 168 215 279 335 396
#     4  10  21  42  67  89 128 178 220 270 328 395
#     4  12  24  38  62  98 131 165 219 274 335 393
#     4  10  20  39  69  95 131 168 221 278 332 383
#     4  10  22  42  68 100 132 170 227 281 328 406
#     4  12  25  43  72  99 132 181 227 271 342 406
#     4  10  23  46  66  95 135 182 223 271 335 408
#     4  10  22  43  66  94 131 171 222 275 337 397
#
# _framework density 20.691614999999999
#
# number of rings (size 3 to 8) (size 9 to 14) (size 15 to 20)
#    0.000    1.250    3.750    1.875    0.000    0.000 
#   13.500   10.000    0.000    0.000    0.000    0.000 
#    0.000    0.000    0.000    0.000    0.000    0.000 
#
# Total GULP energy -89226.795116 kJ/mol
# GULP energy per Si atom -5576.674695 kJ/mol
# Density = 2.064452 g / cm^3
# Si number density = 20.691615 Si / 1000 Ang^3
#
#
#
# Elastic Constant Matrix: (Units=GPa)
#
#
# Indices 1 2 3 4 5 6 
#
# 1 58.4847 21.9726 33.3824 -13.0884 12.4964 -2.6990
# 2 21.9726 135.7610 52.4062 -8.0762 13.8664 5.8078
# 3 33.3824 52.4062 129.8239 -8.7485 9.3103 2.9250
# 4 -13.0884 -8.0762 -8.7485 49.5058 -5.2012 -0.8750
# 5 12.4964 13.8664 9.3103 -5.2012 22.4862 -1.0407
# 6 -2.6990 5.8078 2.9250 -0.8750 -1.0407 32.6808
#
#
#
# Elastic Compliance Matrix: (Units=1/GPa)
#
#
# Indices 1 2 3 4 5 6 
#
# 1 0.023140 -0.000819 -0.004719 0.004211 -0.009320 0.002295
# 2 -0.000819 0.009205 -0.003171 0.000286 -0.003913 -0.001537
# 3 -0.004719 -0.003171 0.010192 0.000059 0.000338 -0.000726
# 4 0.004211 0.000286 0.000059 0.021651 0.002511 0.000951
# 5 -0.009320 -0.003913 0.000338 0.002511 0.052581 0.001637
# 6 0.002295 -0.001537 -0.000726 0.000951 0.001637 0.031204
#
#
# Mechanical properties :
#
#
# Convention : Reuss Voigt Hill
#
# Bulk Modulus (GPa) = 39.81003 59.95468 49.88235
# Shear Modulus (GPa) = 28.77489 35.35512 32.06501
#
# Velocity S-wave (km/s) = 3.73319 4.13809 3.94085
# Velocity P-wave (km/s) = 6.15335 7.20208 6.69827
#
# Compressibility (1/GPa) = 0.02511930
#
# Stress axis : x y z
#
# Youngs Moduli (GPa) = 43.21611 108.63892 98.11532
#
# Poissons Ratio (x) = 0.08900 0.46299
# Poissons Ratio (y) = 0.03540 0.31108
# Poissons Ratio (z) = 0.20393 0.34444
#
# Static dielectric constant tensor:
#      x y z
#    x 1.856260 -0.039960 -0.043300 
#    y -0.039960 1.776160 -0.013100 
#    z -0.043300 -0.013100 1.733770 
# 
# From -- ./inp_files/208673.got.cif
#   From: 2010.05.17/outbox.cif.g08.bks.cpg/sg2_105_cif.got.tgz:208673.got - 2010.06.03 11:33:40.
