data_PCOD9106570
_publ_section_title
;
Structure prediction by ZEFSAII (Michael W. Deem and Ramdas Pophale) SiO2 
 PCOD9106570
Probable space group: P -1
;
_chemical_formula_sum "Si O2"
_cell_formula_units_Z 14
_cell_length_a 22.114946
_cell_length_b 6.548836
_cell_length_c 5.213704
_cell_angle_alpha 72.887534
_cell_angle_beta 94.815972
_cell_angle_gamma 51.260613
_cell_volume 525.233665
_symmetry_space_group_name_H-M "P -1"
_symmetry_group_IT_number 2
_symmetry_cell_setting 'triclinic'
loop_
_space_group_symop_operation_xyz
x,y,z
-x,-y,-z
loop_
_atom_site_type_symbol
_atom_site_label
_atom_site_fract_x
_atom_site_fract_y
_atom_site_fract_z
Si Si1 0.506715 0.718514 0.311508
Si Si2 0.875944 0.204911 0.954311
Si Si3 0.738790 0.813816 0.903473
Si Si4 0.124807 0.269239 0.712355
Si Si5 0.283583 0.969487 0.679624
Si Si6 0.405709 0.346459 0.135964
Si Si7 0.004299 0.245079 0.204553
O O1 0.500000 0.500000 0.500000
O O2 0.570413 0.676767 0.551267
O O3 0.422726 0.059216 0.190838
O O4 0.534126 0.676660 0.040803
O O5 0.785258 0.507998 0.891000
O O6 0.905585 0.067377 0.726084
O O7 0.940790 0.228107 0.063038
O O8 0.885755 0.956293 0.194891
O O9 0.682584 0.054656 0.576371
O O10 0.812024 0.806155 0.013871
O O11 0.700210 0.892819 0.145547
O O12 0.040982 0.603524 0.594927
O O13 0.183660 0.193711 0.528162
O O14 0.319204 0.663869 0.915905
O O15 0.000000 0.500000 0.000000
#
# Coordination Sequence:
#
# PCOD9106570 Si02
#       7
#     2   2   2   2   2   2   2
#     4  10  21  40  65  91 118 154 201 237 286 346
#     4   9  15  32  56  81 109 149 196 240 286 335
#     4   9  20  36  54  78 117 147 188 234 281 343
#     4   8  18  33  53  78 114 145 190 239 286 346
#     4  10  20  40  55  82 121 152 182 233 294 336
#     4  10  21  39  62  87 125 155 190 248 289 340
#     4   8  14  28  57  80 109 147 194 241 292 333
#
# _framework density 26.654802
#
# number of rings (size 3 to 8) (size 9 to 14) (size 15 to 20)
#    0.857    2.000    0.000    1.286    0.000    0.000 
#    7.714    0.714    0.000   12.000    0.000    0.000 
#    0.000    0.000    0.000    0.000    0.000    0.000 
#
# Total GULP energy -78075.844411 kJ/mol
# GULP energy per Si atom -5576.846029 kJ/mol
# Density = 2.659413 g / cm^3
# Si number density = 26.654802 Si / 1000 Ang^3
#
#
#
# Elastic Constant Matrix: (Units=GPa)
#
#
# Indices 1 2 3 4 5 6 
#
# 1 56.6213 22.8143 11.4954 4.7000 -9.2642 18.7479
# 2 22.8143 166.1732 27.1628 -11.4399 -3.6871 -13.5432
# 3 11.4954 27.1628 108.9403 11.1403 2.0392 5.6818
# 4 4.7000 -11.4399 11.1403 44.3116 0.4517 -5.1343
# 5 -9.2642 -3.6871 2.0392 0.4517 35.3204 -4.2609
# 6 18.7479 -13.5432 5.6818 -5.1343 -4.2609 45.7702
#
#
#
# Elastic Compliance Matrix: (Units=1/GPa)
#
#
# Indices 1 2 3 4 5 6 
#
# 1 0.024520 -0.004466 -0.000452 -0.005013 0.004676 -0.011436
# 2 -0.004466 0.007596 -0.002033 0.003493 0.000267 0.004746
# 3 -0.000452 -0.002033 0.010203 -0.003280 -0.001138 -0.002157
# 4 -0.005013 0.003493 -0.003280 0.025562 -0.000324 0.006331
# 5 0.004676 0.000267 -0.001138 -0.000324 0.029762 0.001039
# 6 -0.011436 0.004746 -0.002157 0.006331 0.001039 0.029012
#
#
# Mechanical properties :
#
#
# Convention : Reuss Voigt Hill
#
# Bulk Modulus (GPa) = 35.18882 50.51996 42.85439
# Shear Modulus (GPa) = 33.32676 43.09792 38.21234
#
# Velocity S-wave (km/s) = 3.53981 4.02542 3.79040
# Velocity P-wave (km/s) = 5.47150 6.37181 5.93874
#
# Compressibility (1/GPa) = 0.02841811
#
# Stress axis : x y z
#
# Youngs Moduli (GPa) = 40.78277 131.64170 98.00963
#
# Poissons Ratio (x) = 0.58789 0.04433
# Poissons Ratio (y) = 0.18213 0.19921
# Poissons Ratio (z) = 0.01845 0.26757
#
# Static dielectric constant tensor:
#      x y z
#    x 2.203230 -0.072870 -0.034830 
#    y -0.072870 2.118160 0.040720 
#    z -0.034830 0.040720 2.094600 
# 
# From -- ./inp_files/127963.got.cif
#   From: 2010.05.17/outbox.cif.g08.bks.cpg/sg2_64_cif.got.tgz:127963.got - 2010.06.03 11:33:40.
