data_PCOD9106924
_publ_section_title
;
Structure prediction by ZEFSAII (Michael W. Deem and Ramdas Pophale) SiO2 
 PCOD9106924
Probable space group: P -1
;
_chemical_formula_sum "Si O2"
_cell_formula_units_Z 16
_cell_length_a 11.038807
_cell_length_b 15.362331
_cell_length_c 21.623239
_cell_angle_alpha 159.122744
_cell_angle_beta 134.824687
_cell_angle_gamma 37.689347
_cell_volume 788.884011
_symmetry_space_group_name_H-M "P -1"
_symmetry_group_IT_number 2
_symmetry_cell_setting 'triclinic'
loop_
_space_group_symop_operation_xyz
x,y,z
-x,-y,-z
loop_
_atom_site_type_symbol
_atom_site_label
_atom_site_fract_x
_atom_site_fract_y
_atom_site_fract_z
Si Si1 0.335225 0.539637 0.732966
Si Si2 0.638991 0.133459 0.653055
Si Si3 0.444678 0.932067 0.607082
Si Si4 0.937447 0.436391 0.140801
Si Si5 0.312725 0.813870 0.150370
Si Si6 0.989342 0.553333 0.375003
Si Si7 0.303251 0.984480 0.916317
Si Si8 0.609499 0.479992 0.462588
O O1 0.494116 0.456871 0.791387
O O2 0.467998 0.271816 0.556546
O O3 0.293926 0.808797 0.855852
O O4 0.141163 0.535465 0.686817
O O5 0.695283 0.129257 0.741790
O O6 0.500000 0.000000 0.500000
O O7 0.849030 0.899145 0.543586
O O8 0.441251 0.739670 0.532347
O O9 0.245341 0.238893 0.724765
O O10 0.624002 0.983634 0.723487
O O11 0.007725 0.424465 0.228174
O O12 0.863251 0.212728 0.957901
O O13 0.116967 0.309341 0.072038
O O14 0.500000 0.500000 0.000000
O O15 0.198211 0.492118 0.436269
O O16 0.311232 0.807988 0.741181
O O17 0.500000 0.000000 0.000000
O O18 0.500000 0.500000 0.500000
#
# Coordination Sequence:
#
# PCOD9106924 Si02
#       8
#     2   2   2   2   2   2   2   2
#     4  10  20  38  69  97 125 172 210 258 317 382
#     4  10  16  34  60  97 127 157 211 256 307 383
#     4  10  20  40  67  92 130 168 214 252 321 387
#     4  11  23  41  63  99 132 165 204 269 330 369
#     4  10  18  32  58  96 132 158 195 268 316 362
#     4  11  21  39  71  96 128 161 222 259 311 386
#     4  11  26  46  62  91 137 166 210 271 325 368
#     4  11  26  47  66  90 125 175 221 262 307 387
#
# _framework density 20.281815000000002
#
# number of rings (size 3 to 8) (size 9 to 14) (size 15 to 20)
#    0.000    1.500    3.750    3.750    1.750    1.500 
#   13.500    2.500    0.000    0.000    0.000    0.000 
#    0.000    0.000    0.000    0.000    0.000    0.000 
#
# Total GULP energy -89125.020032 kJ/mol
# GULP energy per Si atom -5570.313752 kJ/mol
# Density = 2.023565 g / cm^3
# Si number density = 20.281815 Si / 1000 Ang^3
#
#
#
# Elastic Constant Matrix: (Units=GPa)
#
#
# Indices 1 2 3 4 5 6 
#
# 1 108.9875 45.1957 41.2376 2.5910 -13.8155 4.0047
# 2 45.1957 99.7259 53.4923 -2.4782 -2.2187 -10.2981
# 3 41.2376 53.4923 104.4968 -12.5989 -25.2305 0.9530
# 4 2.5910 -2.4782 -12.5989 37.6736 2.6028 -3.2476
# 5 -13.8155 -2.2187 -25.2305 2.6028 24.4399 -0.6990
# 6 4.0047 -10.2981 0.9530 -3.2476 -0.6990 34.6875
#
#
#
# Elastic Compliance Matrix: (Units=1/GPa)
#
#
# Indices 1 2 3 4 5 6 
#
# 1 0.012744 -0.005433 -0.001114 -0.002273 0.005712 -0.003151
# 2 -0.005433 0.018285 -0.010146 -0.000489 -0.011660 0.006054
# 3 -0.001114 -0.010146 0.020351 0.004684 0.018885 -0.002624
# 4 -0.002273 -0.000489 0.004684 0.028425 0.000556 0.002661
# 5 0.005712 -0.011660 0.018885 0.000556 0.062429 -0.003330
# 6 -0.003151 0.006054 -0.002624 0.002661 -0.003330 0.031244
#
#
# Mechanical properties :
#
#
# Convention : Reuss Voigt Hill
#
# Bulk Modulus (GPa) = 55.57001 65.89570 60.73286
# Shear Modulus (GPa) = 23.48938 30.91253 27.20095
#
# Velocity S-wave (km/s) = 3.40685 3.90827 3.66614
# Velocity P-wave (km/s) = 6.55240 7.27507 6.92317
#
# Compressibility (1/GPa) = 0.01799532
#
# Stress axis : x y z
#
# Youngs Moduli (GPa) = 78.47038 54.68881 49.13647
#
# Poissons Ratio (x) = 0.29710 0.05474
# Poissons Ratio (y) = 0.42630 0.49853
# Poissons Ratio (z) = 0.08742 0.55486
#
# Static dielectric constant tensor:
#      x y z
#    x 1.764760 -0.013390 0.037050 
#    y -0.013390 1.815990 0.002070 
#    z 0.037050 0.002070 1.738610 
# 
# From -- ./inp_files/610727.got.cif
#   From: 2010.05.17/outbox.cif.g08.bks.cpg/sg2_306_cif.got.tgz:610727.got - 2010.06.03 11:33:40.
