data_PCOD9106232
_publ_section_title
;
Structure prediction by ZEFSAII (Michael W. Deem and Ramdas Pophale) SiO2 
 PCOD9106232
Probable space group: P -1
;
_chemical_formula_sum "Si O2"
_cell_formula_units_Z 14
_cell_length_a 10.257859
_cell_length_b 7.913879
_cell_length_c 13.658601
_cell_angle_alpha 147.524084
_cell_angle_beta 84.308840
_cell_angle_gamma 96.874576
_cell_volume 591.079729
_symmetry_space_group_name_H-M "P -1"
_symmetry_group_IT_number 2
_symmetry_cell_setting 'triclinic'
loop_
_space_group_symop_operation_xyz
x,y,z
-x,-y,-z
loop_
_atom_site_type_symbol
_atom_site_label
_atom_site_fract_x
_atom_site_fract_y
_atom_site_fract_z
Si Si1 0.903578 0.737211 0.576886
Si Si2 0.482397 0.745893 0.261495
Si Si3 0.693156 0.542611 0.024442
Si Si4 0.969534 0.812843 0.062328
Si Si5 0.623749 0.842083 0.680000
Si Si6 0.447567 0.682068 0.790653
Si Si7 0.867848 0.396815 0.228144
O O1 0.752238 0.649724 0.574963
O O2 0.905613 0.702493 0.442558
O O3 0.000000 0.500000 0.500000
O O4 0.951750 0.055384 0.784049
O O5 0.401380 0.468587 0.069656
O O6 0.489383 0.612484 0.303515
O O7 0.411866 0.044224 0.371130
O O8 0.629512 0.765523 0.216520
O O9 0.672259 0.185019 0.889968
O O10 0.836474 0.639046 0.025464
O O11 0.920881 0.105648 0.144485
O O12 0.059189 0.617856 0.888356
O O13 0.496066 0.288353 0.309127
O O14 0.289702 0.647470 0.790092
O O15 0.500000 0.000000 0.000000
#
# Coordination Sequence:
#
# PCOD9106232 Si02
#       7
#     2   2   2   2   2   2   2
#     4  10  23  43  62  94 136 171 221 272 325 389
#     4   9  19  35  58 104 128 159 223 268 320 395
#     4   9  18  37  61  96 131 165 217 267 326 394
#     4  10  20  39  68  89 132 180 212 270 334 381
#     4  10  21  38  63  93 133 169 212 274 328 387
#     4  12  19  36  68  95 129 170 217 273 328 389
#     4  10  23  38  62 103 125 170 233 262 319 409
#
# _framework density 23.685466999999999
#
# number of rings (size 3 to 8) (size 9 to 14) (size 15 to 20)
#    0.857    1.143    1.429    2.571    0.000    3.429 
#    0.000    1.429    0.000    0.000    0.000    0.000 
#    0.000    0.000    0.000    0.000    0.000    0.000 
#
# Total GULP energy -78161.774818 kJ/mol
# GULP energy per Si atom -5582.983916 kJ/mol
# Density = 2.363156 g / cm^3
# Si number density = 23.685467 Si / 1000 Ang^3
#
#
#
# Elastic Constant Matrix: (Units=GPa)
#
#
# Indices 1 2 3 4 5 6 
#
# 1 170.0943 53.6630 55.8746 -13.8213 -10.4128 16.6963
# 2 53.6630 110.8868 36.0831 -10.5705 5.4221 0.9266
# 3 55.8746 36.0831 83.3802 -37.4871 13.0252 4.5444
# 4 -13.8213 -10.5705 -37.4871 35.1388 -10.9942 -6.2490
# 5 -10.4128 5.4221 13.0252 -10.9942 40.4943 2.1175
# 6 16.6963 0.9266 4.5444 -6.2490 2.1175 45.9711
#
#
#
# Elastic Compliance Matrix: (Units=1/GPa)
#
#
# Indices 1 2 3 4 5 6 
#
# 1 0.009496 -0.002691 -0.007758 -0.004646 0.004217 -0.003454
# 2 -0.002691 0.011461 -0.003909 -0.002116 -0.001592 0.000919
# 3 -0.007758 -0.003909 0.032951 0.030367 -0.004033 0.003953
# 4 -0.004646 -0.002116 0.030367 0.061362 0.005625 0.006810
# 5 0.004217 -0.001592 -0.004033 0.005625 0.028904 -0.001668
# 6 -0.003454 0.000919 0.003953 0.006810 -0.001668 0.023600
#
#
# Mechanical properties :
#
#
# Convention : Reuss Voigt Hill
#
# Bulk Modulus (GPa) = 39.69591 72.84475 56.27033
# Shear Modulus (GPa) = 24.40341 38.90353 31.65347
#
# Velocity S-wave (km/s) = 3.21333 4.05718 3.65966
# Velocity P-wave (km/s) = 5.52841 7.26426 6.45495
#
# Compressibility (1/GPa) = 0.02519151
#
# Stress axis : x y z
#
# Youngs Moduli (GPa) = 105.30340 87.25147 30.34793
#
# Poissons Ratio (x) = 0.23482 0.23545
# Poissons Ratio (y) = 0.28341 0.11863
# Poissons Ratio (z) = 0.81698 0.34106
#
# Static dielectric constant tensor:
#      x y z
#    x 1.885620 -0.049320 0.000870 
#    y -0.049320 1.896580 0.004030 
#    z 0.000870 0.004030 2.087680 
# 
# From -- ./inp_files/513897.got.cif
#   From: 2010.05.17/outbox.cif.g08.bks.cpg/sg2_257_cif.got.tgz:513897.got - 2010.06.03 11:33:40.
