data_PCOD9106585
_publ_section_title
;
Structure prediction by ZEFSAII (Michael W. Deem and Ramdas Pophale) SiO2 
 PCOD9106585
Probable space group: P -1
;
_chemical_formula_sum "Si O2"
_cell_formula_units_Z 14
_cell_length_a 18.218618
_cell_length_b 6.627070
_cell_length_c 5.407182
_cell_angle_alpha 104.295247
_cell_angle_beta 71.682653
_cell_angle_gamma 73.858439
_cell_volume 553.885682
_symmetry_space_group_name_H-M "P -1"
_symmetry_group_IT_number 2
_symmetry_cell_setting 'triclinic'
loop_
_space_group_symop_operation_xyz
x,y,z
-x,-y,-z
loop_
_atom_site_type_symbol
_atom_site_label
_atom_site_fract_x
_atom_site_fract_y
_atom_site_fract_z
Si Si1 0.902128 0.590194 0.855906
Si Si2 0.640013 0.853923 0.940136
Si Si3 0.333385 0.502467 0.831588
Si Si4 0.523809 0.213328 0.476469
Si Si5 0.053498 0.146527 0.459243
Si Si6 0.814368 0.730526 0.490242
Si Si7 0.356060 0.599107 0.342682
O O1 0.009386 0.616027 0.287897
O O2 0.846165 0.611299 0.160244
O O3 0.925122 0.805901 0.829794
O O4 0.855029 0.576251 0.644278
O O5 0.716259 0.828834 0.674347
O O6 0.600425 0.678636 0.824354
O O7 0.579373 0.106017 0.142526
O O8 0.675325 0.724962 0.127101
O O9 0.434115 0.421314 0.642134
O O10 0.296613 0.621205 0.649680
O O11 0.312128 0.657447 0.142177
O O12 0.583183 0.273365 0.623883
O O13 0.500000 0.000000 0.500000
O O14 0.141769 0.087808 0.483088
O O15 0.000000 0.000000 0.500000
#
# Coordination Sequence:
#
# PCOD9106585 Si02
#       7
#     2   2   2   2   2   2   2
#     4   9  21  38  63  85 122 157 194 243 297 351
#     4   9  23  38  61  84 121 160 190 249 296 355
#     4   9  21  38  60  81 116 152 200 246 295 350
#     4  10  20  40  60  87 113 154 205 248 291 356
#     4   9  20  38  65  91 118 152 204 242 288 356
#     4  10  20  40  57  86 122 157 193 237 305 348
#     4  10  21  39  57  84 114 150 200 245 305 346
#
# _framework density 25.275973
#
# number of rings (size 3 to 8) (size 9 to 14) (size 15 to 20)
#    1.714    0.857    0.000    1.286    2.000    1.143 
#    7.714    0.000    0.000    0.000    0.000    0.000 
#    0.000    0.000    0.000    0.000    0.000    0.000 
#
# Total GULP energy -77953.573353 kJ/mol
# GULP energy per Si atom -5568.112382 kJ/mol
# Density = 2.521844 g / cm^3
# Si number density = 25.275973 Si / 1000 Ang^3
#
#
#
# Elastic Constant Matrix: (Units=GPa)
#
#
# Indices 1 2 3 4 5 6 
#
# 1 81.0369 21.9436 58.3329 2.4795 -22.3795 10.1452
# 2 21.9436 90.9973 46.3007 6.7601 -2.8885 14.3351
# 3 58.3329 46.3007 202.9614 -34.3037 -2.0093 2.2412
# 4 2.4795 6.7601 -34.3037 52.6501 7.6329 3.0340
# 5 -22.3795 -2.8885 -2.0093 7.6329 42.2059 -7.4117
# 6 10.1452 14.3351 2.2412 3.0340 -7.4117 22.9027
#
#
#
# Elastic Compliance Matrix: (Units=1/GPa)
#
#
# Indices 1 2 3 4 5 6 
#
# 1 0.021485 0.000057 -0.007242 -0.007185 0.011625 -0.004130
# 2 0.000057 0.014557 -0.003916 -0.003969 0.000120 -0.008189
# 3 -0.007242 -0.003916 0.009061 0.007278 -0.004584 0.002325
# 4 -0.007185 -0.003969 0.007278 0.025910 -0.008645 -0.001275
# 5 0.011625 0.000120 -0.004584 -0.008645 0.032416 0.006859
# 6 -0.004130 -0.008189 0.002325 -0.001275 0.006859 0.052779
#
#
# Mechanical properties :
#
#
# Convention : Reuss Voigt Hill
#
# Bulk Modulus (GPa) = 43.66685 69.79443 56.73064
# Shear Modulus (GPa) = 26.87561 40.11298 33.49429
#
# Velocity S-wave (km/s) = 3.26435 3.98804 3.64420
# Velocity P-wave (km/s) = 5.61440 6.99134 6.34036
#
# Compressibility (1/GPa) = 0.02290067
#
# Stress axis : x y z
#
# Youngs Moduli (GPa) = 46.54487 68.69563 110.36554
#
# Poissons Ratio (x) = -0.00392 0.79921
# Poissons Ratio (y) = -0.00266 0.43224
# Poissons Ratio (z) = 0.33705 0.26904
#
# Static dielectric constant tensor:
#      x y z
#    x 2.195590 0.075630 0.078660 
#    y 0.075630 2.170790 -0.066230 
#    z 0.078660 -0.066230 2.095870 
# 
# From -- ./inp_files/122322.got.cif
#   From: 2010.05.17/outbox.cif.g08.bks.cpg/sg2_62_cif.got.tgz:122322.got - 2010.06.03 11:33:40.
