data_PCOD9106488
_publ_section_title
;
Structure prediction by ZEFSAII (Michael W. Deem and Ramdas Pophale) SiO2 
 PCOD9106488
Probable space group: P -1
;
_chemical_formula_sum "Si O2"
_cell_formula_units_Z 14
_cell_length_a 8.075424
_cell_length_b 13.220175
_cell_length_c 9.223214
_cell_angle_alpha 127.657573
_cell_angle_beta 108.041415
_cell_angle_gamma 103.249685
_cell_volume 616.155526
_symmetry_space_group_name_H-M "P -1"
_symmetry_group_IT_number 2
_symmetry_cell_setting 'triclinic'
loop_
_space_group_symop_operation_xyz
x,y,z
-x,-y,-z
loop_
_atom_site_type_symbol
_atom_site_label
_atom_site_fract_x
_atom_site_fract_y
_atom_site_fract_z
Si Si1 0.971705 0.799585 0.988366
Si Si2 0.721652 0.029889 0.551643
Si Si3 0.066851 0.509776 0.357922
Si Si4 0.569370 0.233341 0.179616
Si Si5 0.152965 0.908728 0.844088
Si Si6 0.947251 0.711347 0.337300
Si Si7 0.348358 0.257455 0.897916
O O1 0.172865 0.946957 0.244636
O O2 0.790268 0.760159 0.015996
O O3 0.981190 0.851452 0.872566
O O4 0.979601 0.649680 0.850384
O O5 0.875646 0.190307 0.650208
O O6 0.500000 0.000000 0.500000
O O7 0.710663 0.897752 0.336995
O O8 0.318302 0.636684 0.552732
O O9 0.967267 0.577547 0.288367
O O10 0.000000 0.500000 0.500000
O O11 0.715639 0.167283 0.151039
O O12 0.557897 0.303682 0.083810
O O13 0.340086 0.086234 0.030636
O O14 0.025759 0.833877 0.596643
O O15 0.723851 0.663978 0.168877
#
# Coordination Sequence:
#
# PCOD9106488 Si02
#       7
#     2   2   2   2   2   2   2
#     4  11  23  40  69  97 134 179 215 270 334 390
#     4  11  24  41  68  98 133 172 223 275 333 385
#     4  11  23  42  70  96 136 180 219 258 330 407
#     4  10  21  38  67  93 137 163 224 267 322 382
#     4  10  20  39  70  99 124 177 224 267 324 387
#     4  10  21  41  68  97 134 171 219 272 327 390
#     4  11  24  43  64 102 138 162 220 288 330 379
#
# _framework density 22.721533999999998
#
# number of rings (size 3 to 8) (size 9 to 14) (size 15 to 20)
#    0.000    1.429    4.286    2.571    4.000    3.429 
#    0.000    0.714    3.143    0.000    0.000    0.000 
#    0.000    0.000    0.000    0.000    0.000    0.000 
#
# Total GULP energy -78075.800119 kJ/mol
# GULP energy per Si atom -5576.842866 kJ/mol
# Density = 2.266982 g / cm^3
# Si number density = 22.721534 Si / 1000 Ang^3
#
#
#
# Elastic Constant Matrix: (Units=GPa)
#
#
# Indices 1 2 3 4 5 6 
#
# 1 74.2669 45.2180 35.7554 -3.6712 -22.0898 -10.9807
# 2 45.2180 125.1795 38.8415 -10.7045 5.0916 -28.8075
# 3 35.7554 38.8415 84.6614 -19.7298 -10.4234 -7.5840
# 4 -3.6712 -10.7045 -19.7298 41.5171 -11.2115 6.0693
# 5 -22.0898 5.0916 -10.4234 -11.2115 38.9190 -8.6771
# 6 -10.9807 -28.8075 -7.5840 6.0693 -8.6771 48.7039
#
#
#
# Elastic Compliance Matrix: (Units=1/GPa)
#
#
# Indices 1 2 3 4 5 6 
#
# 1 0.025381 -0.007467 -0.004723 0.001759 0.015311 0.003079
# 2 -0.007467 0.012928 -0.003447 -0.001302 -0.006229 0.004479
# 3 -0.004723 -0.003447 0.017969 0.008646 0.004962 -0.000499
# 4 0.001759 -0.001302 0.008646 0.031468 0.012384 -0.000742
# 5 0.015311 -0.006229 0.004962 0.012384 0.041522 0.006395
# 6 0.003079 0.004479 -0.000499 -0.000742 0.006395 0.025030
#
#
# Mechanical properties :
#
#
# Convention : Reuss Voigt Hill
#
# Bulk Modulus (GPa) = 39.99106 58.19305 49.09205
# Shear Modulus (GPa) = 25.78577 36.78087 31.28332
#
# Velocity S-wave (km/s) = 3.37242 4.02776 3.71457
# Velocity P-wave (km/s) = 5.72739 6.87731 6.32853
#
# Compressibility (1/GPa) = 0.02500559
#
# Stress axis : x y z
#
# Youngs Moduli (GPa) = 39.39905 77.35181 55.65205
#
# Poissons Ratio (x) = 0.57756 0.26283
# Poissons Ratio (y) = 0.29418 0.19182
# Poissons Ratio (z) = 0.18607 0.26661
#
# Static dielectric constant tensor:
#      x y z
#    x 1.868120 -0.010040 0.033620 
#    y -0.010040 1.877760 0.010390 
#    z 0.033620 0.010390 1.826300 
# 
# From -- ./inp_files/182802.got.cif
#   From: 2010.05.17/outbox.cif.g08.bks.cpg/sg2_92_cif.got.tgz:182802.got - 2010.06.03 11:33:40.
