data_PCOD9106391
_publ_section_title
;
Structure prediction by ZEFSAII (Michael W. Deem and Ramdas Pophale) SiO2 
 PCOD9106391
Probable space group: P -1
;
_chemical_formula_sum "Si O2"
_cell_formula_units_Z 16
_cell_length_a 8.016573
_cell_length_b 9.537368
_cell_length_c 11.950074
_cell_angle_alpha 69.728270
_cell_angle_beta 54.792030
_cell_angle_gamma 91.656983
_cell_volume 668.391443
_symmetry_space_group_name_H-M "P -1"
_symmetry_group_IT_number 2
_symmetry_cell_setting 'triclinic'
loop_
_space_group_symop_operation_xyz
x,y,z
-x,-y,-z
loop_
_atom_site_type_symbol
_atom_site_label
_atom_site_fract_x
_atom_site_fract_y
_atom_site_fract_z
Si Si1 0.478301 0.309698 0.622196
Si Si2 0.794028 0.895936 0.044945
Si Si3 0.626522 0.613263 0.595378
Si Si4 0.056926 0.687419 0.909782
Si Si5 0.847470 0.107197 0.398179
Si Si6 0.792503 0.028088 0.780862
Si Si7 0.926315 0.310618 0.510829
Si Si8 0.515251 0.856558 0.732313
O O1 0.382803 0.160125 0.776291
O O2 0.454751 0.453615 0.666326
O O3 0.359192 0.296727 0.554097
O O4 0.735934 0.351065 0.506109
O O5 0.728990 0.986915 0.943415
O O6 0.861586 0.752763 0.001219
O O7 0.000000 0.000000 0.000000
O O8 0.558621 0.710062 0.691767
O O9 0.844794 0.582448 0.564635
O O10 0.135149 0.754571 0.736139
O O11 0.263177 0.789537 0.870990
O O12 0.000000 0.500000 0.000000
O O13 0.973445 0.187115 0.438316
O O14 0.975608 0.000015 0.320980
O O15 0.618849 0.001538 0.564884
O O16 0.639041 0.912456 0.783867
O O17 0.821315 0.206202 0.686845
#
# Coordination Sequence:
#
# PCOD9106391 Si02
#       8
#     2   2   2   2   2   2   2   2
#     4  11  26  40  62  95 137 179 213 267 338 408
#     4  11  26  45  63  91 138 182 215 262 336 411
#     4  11  22  43  66  98 132 166 223 283 333 384
#     4  11  25  43  64  99 135 174 222 274 334 396
#     4  10  20  39  69  97 122 163 223 281 327 381
#     4  10  21  41  65  97 124 162 222 282 319 389
#     4  11  20  40  68  97 127 164 225 273 332 387
#     4  11  20  40  73  95 121 169 225 286 323 377
#
# _framework density 23.938068000000001
#
# number of rings (size 3 to 8) (size 9 to 14) (size 15 to 20)
#    0.000    1.250    2.500    3.750    5.250    1.500 
#    4.500    1.875    0.000    0.000    0.000    0.000 
#    0.000    0.000    0.000    0.000    0.000    0.000 
#
# Total GULP energy -89348.721288 kJ/mol
# GULP energy per Si atom -5584.295081 kJ/mol
# Density = 2.388358 g / cm^3
# Si number density = 23.938068 Si / 1000 Ang^3
#
#
#
# Elastic Constant Matrix: (Units=GPa)
#
#
# Indices 1 2 3 4 5 6 
#
# 1 106.8535 17.9494 34.4884 -2.8224 8.9330 13.3266
# 2 17.9494 78.3231 9.6310 -1.5221 3.0478 15.9419
# 3 34.4884 9.6310 86.2880 -1.0253 10.3451 0.5799
# 4 -2.8224 -1.5221 -1.0253 33.3122 -0.4950 0.4831
# 5 8.9330 3.0478 10.3451 -0.4950 40.6617 2.3811
# 6 13.3266 15.9419 0.5799 0.4831 2.3811 42.7794
#
#
#
# Elastic Compliance Matrix: (Units=1/GPa)
#
#
# Indices 1 2 3 4 5 6 
#
# 1 0.011454 -0.001449 -0.004250 0.000799 -0.001146 -0.002916
# 2 -0.001449 0.014218 -0.000943 0.000565 -0.000218 -0.004828
# 3 -0.004250 -0.000943 0.013690 -0.000044 -0.002575 0.001633
# 4 0.000799 0.000565 -0.000044 0.030126 0.000208 -0.000810
# 5 -0.001146 -0.000218 -0.002575 0.000208 0.025575 -0.000953
# 6 -0.002916 -0.004828 0.001633 -0.000810 -0.000953 0.026123
#
#
# Mechanical properties :
#
#
# Convention : Reuss Voigt Hill
#
# Bulk Modulus (GPa) = 38.34406 43.95579 41.14992
# Shear Modulus (GPa) = 34.92544 37.31039 36.11792
#
# Velocity S-wave (km/s) = 3.82382 3.95222 3.88855
# Velocity P-wave (km/s) = 5.96224 6.26330 6.11462
#
# Compressibility (1/GPa) = 0.02607966
#
# Stress axis : x y z
#
# Youngs Moduli (GPa) = 87.30359 70.33453 73.04513
#
# Poissons Ratio (x) = 0.10190 0.31044
# Poissons Ratio (y) = 0.12648 0.06885
# Poissons Ratio (z) = 0.37104 0.06629
#
# Static dielectric constant tensor:
#      x y z
#    x 1.997070 -0.115130 -0.019490 
#    y -0.115130 2.020910 0.001950 
#    z -0.019490 0.001950 1.925680 
# 
# From -- ./inp_files/389722.got.cif
#   From: 2010.05.17/outbox.cif.g08.bks.cpg/sg2_195_cif.got.tgz:389722.got - 2010.06.03 11:33:40.
