data_PCOD9106442
_publ_section_title
;
Structure prediction by ZEFSAII (Michael W. Deem and Ramdas Pophale) SiO2 
 PCOD9106442
Probable space group: P -1
;
_chemical_formula_sum "Si O2"
_cell_formula_units_Z 14
_cell_length_a 6.880925
_cell_length_b 7.545946
_cell_length_c 19.195445
_cell_angle_alpha 34.575783
_cell_angle_beta 117.037912
_cell_angle_gamma 118.793289
_cell_volume 492.302227
_symmetry_space_group_name_H-M "P -1"
_symmetry_group_IT_number 2
_symmetry_cell_setting 'triclinic'
loop_
_space_group_symop_operation_xyz
x,y,z
-x,-y,-z
loop_
_atom_site_type_symbol
_atom_site_label
_atom_site_fract_x
_atom_site_fract_y
_atom_site_fract_z
Si Si1 0.840440 0.788599 0.228223
Si Si2 0.649901 0.736661 0.001869
Si Si3 0.634946 0.284533 0.264260
Si Si4 0.360060 0.695904 0.477242
Si Si5 0.833658 0.650206 0.573829
Si Si6 0.159560 0.717309 0.053865
Si Si7 0.994554 0.934377 0.695144
O O1 0.672252 0.460425 0.287164
O O2 0.065896 0.657258 0.289269
O O3 0.808277 0.086485 0.078276
O O4 0.842785 0.857136 0.288285
O O5 0.566593 0.545262 0.120289
O O6 0.680927 0.097612 0.918710
O O7 0.500000 0.500000 0.000000
O O8 0.902871 0.738183 0.021123
O O9 0.861987 0.231627 0.280471
O O10 0.470698 0.953140 0.352921
O O11 0.586275 0.640452 0.567605
O O12 0.220069 0.416296 0.496415
O O13 0.186190 0.877761 0.425468
O O14 0.000000 0.000000 0.500000
O O15 0.140698 0.343925 0.185092
#
# Coordination Sequence:
#
# PCOD9106442 Si02
#       7
#     2   2   2   2   2   2   2
#     4  10  20  39  70  86 130 175 200 266 326 357
#     4   9  19  34  59  91 128 167 212 250 308 389
#     4  10  21  42  63  95 131 166 212 264 315 381
#     4  10  22  41  67  93 126 171 209 265 325 366
#     4  10  20  40  68  90 126 168 214 268 312 374
#     4   9  19  38  58  92 132 166 202 262 316 372
#     4  10  22  41  65  98 131 165 215 261 312 395
#
# _framework density 28.437816000000002
#
# number of rings (size 3 to 8) (size 9 to 14) (size 15 to 20)
#    0.000    2.286    1.429    1.286    4.000    0.000 
#    5.143    8.571    0.000    0.000    0.000    0.000 
#    0.000    0.000    0.000    0.000    0.000    0.000 
#
# Total GULP energy -78161.431352 kJ/mol
# GULP energy per Si atom -5582.959382 kJ/mol
# Density = 2.837309 g / cm^3
# Si number density = 28.437816 Si / 1000 Ang^3
#
#
#
# Elastic Constant Matrix: (Units=GPa)
#
#
# Indices 1 2 3 4 5 6 
#
# 1 142.7276 30.5466 12.2945 1.7137 13.9514 17.4396
# 2 30.5466 218.6216 5.4536 -4.6639 7.3488 -7.5079
# 3 12.2945 5.4536 112.6647 -0.3282 37.6370 -2.2019
# 4 1.7137 -4.6639 -0.3282 24.2421 -3.7265 -6.0727
# 5 13.9514 7.3488 37.6370 -3.7265 45.1567 1.8821
# 6 17.4396 -7.5079 -2.2019 -6.0727 1.8821 52.8750
#
#
#
# Elastic Compliance Matrix: (Units=1/GPa)
#
#
# Indices 1 2 3 4 5 6 
#
# 1 0.007853 -0.001160 -0.000146 -0.001836 -0.002147 -0.002895
# 2 -0.001160 0.004818 0.000063 0.001252 -0.000426 0.001228
# 3 -0.000146 0.000063 0.012381 -0.001210 -0.010418 0.000805
# 4 -0.001836 0.001252 -0.001210 0.043734 0.004748 0.005587
# 5 -0.002147 -0.000426 -0.010418 0.004748 0.031969 -0.000379
# 6 -0.002895 0.001228 0.000805 0.005587 -0.000379 0.020730
#
#
# Mechanical properties :
#
#
# Convention : Reuss Voigt Hill
#
# Bulk Modulus (GPa) = 44.31093 63.40037 53.85565
# Shear Modulus (GPa) = 38.02516 52.83603 45.43060
#
# Velocity S-wave (km/s) = 3.66065 4.31507 4.00126
# Velocity P-wave (km/s) = 5.78642 6.86799 6.35027
#
# Compressibility (1/GPa) = 0.02256780
#
# Stress axis : x y z
#
# Youngs Moduli (GPa) = 127.34294 207.56206 80.76749
#
# Poissons Ratio (x) = 0.24077 0.01175
# Poissons Ratio (y) = 0.14772 -0.00513
# Poissons Ratio (z) = 0.01853 -0.01318
#
# Static dielectric constant tensor:
#      x y z
#    x 2.256400 0.034160 0.072870 
#    y 0.034160 2.330910 0.059180 
#    z 0.072870 0.059180 2.332530 
# 
# From -- ./inp_files/616453.got.cif
#   From: 2010.05.17/outbox.cif.g08.bks.cpg/sg2_309_cif.got.tgz:616453.got - 2010.06.03 11:33:40.
