data_PCOD9106013
_publ_section_title
;
Structure prediction by ZEFSAII (Michael W. Deem and Ramdas Pophale) SiO2 
 PCOD9106013
Probable space group: P -1
;
_chemical_formula_sum "Si O2"
_cell_formula_units_Z 16
_cell_length_a 13.375003
_cell_length_b 10.490698
_cell_length_c 8.858203
_cell_angle_alpha 70.019888
_cell_angle_beta 46.733604
_cell_angle_gamma 97.381767
_cell_volume 721.321394
_symmetry_space_group_name_H-M "P -1"
_symmetry_group_IT_number 2
_symmetry_cell_setting 'triclinic'
loop_
_space_group_symop_operation_xyz
x,y,z
-x,-y,-z
loop_
_atom_site_type_symbol
_atom_site_label
_atom_site_fract_x
_atom_site_fract_y
_atom_site_fract_z
Si Si1 0.177178 0.564339 0.356541
Si Si2 0.455207 0.330456 0.537429
Si Si3 0.069205 0.373177 0.829242
Si Si4 0.491575 0.351516 0.145162
Si Si5 0.873495 0.844775 0.910020
Si Si6 0.309224 0.891320 0.270138
Si Si7 0.755812 0.298547 0.295869
Si Si8 0.805600 0.885022 0.651038
O O1 0.153839 0.428093 0.556441
O O2 0.233861 0.727633 0.322112
O O3 0.000000 0.500000 0.500000
O O4 0.326617 0.612613 0.070716
O O5 0.500000 0.500000 0.500000
O O6 0.432560 0.338274 0.381065
O O7 0.595737 0.293417 0.418743
O O8 0.294350 0.187729 0.838239
O O9 0.149531 0.538385 0.771601
O O10 0.089305 0.256707 0.968621
O O11 0.878774 0.308286 0.038987
O O12 0.355581 0.207426 0.243500
O O13 0.500000 0.500000 0.000000
O O14 0.829658 0.789087 0.800766
O O15 0.034140 0.019484 0.655692
O O16 0.282935 0.843065 0.492775
O O17 0.216516 0.981849 0.296166
O O18 0.500000 0.000000 0.000000
#
# Coordination Sequence:
#
# PCOD9106013 Si02
#       8
#     2   2   2   2   2   2   2   2
#     4  11  25  43  72 109 144 183 239 297 352 417
#     4  12  24  41  70 100 136 184 233 289 355 419
#     4  10  20  39  67 100 135 184 230 286 343 421
#     4  12  27  45  68 102 142 179 237 301 351 422
#     4  11  23  42  71  98 137 185 235 285 346 429
#     4  11  21  42  73  98 141 189 232 281 357 423
#     4  10  21  37  67  99 132 179 233 277 340 424
#     4  11  25  45  71 104 136 188 237 293 359 422
#
# _framework density 22.181512999999999
#
# number of rings (size 3 to 8) (size 9 to 14) (size 15 to 20)
#    0.000    1.000    3.750    3.000    3.500    3.500 
#    0.000    3.125    0.000    0.000    0.000    0.000 
#    0.000    0.000    0.000    0.000    0.000    0.000 
#
# Total GULP energy -89328.308058 kJ/mol
# GULP energy per Si atom -5583.019254 kJ/mol
# Density = 2.213103 g / cm^3
# Si number density = 22.181513 Si / 1000 Ang^3
#
#
#
# Elastic Constant Matrix: (Units=GPa)
#
#
# Indices 1 2 3 4 5 6 
#
# 1 124.2474 23.7598 64.2729 -4.2772 -11.4952 -7.4644
# 2 23.7598 45.1547 21.2946 -3.3915 -1.0269 -3.4004
# 3 64.2729 21.2946 181.5786 2.8012 -10.3152 8.9773
# 4 -4.2772 -3.3915 2.8012 23.8379 -4.0848 2.3253
# 5 -11.4952 -1.0269 -10.3152 -4.0848 55.7558 2.3032
# 6 -7.4644 -3.4004 8.9773 2.3253 2.3032 25.1601
#
#
#
# Elastic Compliance Matrix: (Units=1/GPa)
#
#
# Indices 1 2 3 4 5 6 
#
# 1 0.011041 -0.003657 -0.003607 0.001777 0.001516 0.003765
# 2 -0.003657 0.025374 -0.001895 0.002808 -0.000548 0.002811
# 3 -0.003607 -0.001895 0.007252 -0.001285 0.000628 -0.003852
# 4 0.001777 0.002808 -0.001285 0.043712 0.003507 -0.002995
# 5 0.001516 -0.000548 0.000628 0.003507 0.018689 -0.001883
# 6 0.003765 0.002811 -0.003852 -0.002995 -0.001883 0.043066
#
#
# Mechanical properties :
#
#
# Convention : Reuss Voigt Hill
#
# Bulk Modulus (GPa) = 39.44744 63.29282 51.37013
# Shear Modulus (GPa) = 28.42483 37.06098 32.74291
#
# Velocity S-wave (km/s) = 3.58364 4.09198 3.84622
# Velocity P-wave (km/s) = 5.91150 7.13595 6.55239
#
# Compressibility (1/GPa) = 0.02535018
#
# Stress axis : x y z
#
# Youngs Moduli (GPa) = 90.56898 39.41016 137.89111
#
# Poissons Ratio (x) = 0.14414 0.49734
# Poissons Ratio (y) = 0.33124 0.26124
# Poissons Ratio (z) = 0.32666 0.07467
#
# Static dielectric constant tensor:
#      x y z
#    x 1.947830 0.107980 -0.038420 
#    y 0.107980 1.883520 0.008880 
#    z -0.038420 0.008880 1.832240 
# 
# From -- ./inp_files/262008.got.cif
#   From: 2010.05.17/outbox.cif.g08.bks.cpg/sg2_132_cif.got.tgz:262008.got - 2010.06.03 11:33:40.
