data_PCOD9106892
_publ_section_title
;
Structure prediction by ZEFSAII (Michael W. Deem and Ramdas Pophale) SiO2 
 PCOD9106892
Probable space group: P -1
;
_chemical_formula_sum "Si O2"
_cell_formula_units_Z 14
_cell_length_a 10.360467
_cell_length_b 6.854921
_cell_length_c 11.305723
_cell_angle_alpha 69.897065
_cell_angle_beta 124.296499
_cell_angle_gamma 110.915253
_cell_volume 608.959339
_symmetry_space_group_name_H-M "P -1"
_symmetry_group_IT_number 2
_symmetry_cell_setting 'triclinic'
loop_
_space_group_symop_operation_xyz
x,y,z
-x,-y,-z
loop_
_atom_site_type_symbol
_atom_site_label
_atom_site_fract_x
_atom_site_fract_y
_atom_site_fract_z
Si Si1 0.948886 0.241681 0.771024
Si Si2 0.162044 0.159342 0.702108
Si Si3 0.233931 0.403777 0.447172
Si Si4 0.478045 0.210520 0.510071
Si Si5 0.668484 0.168037 0.058309
Si Si6 0.665046 0.051394 0.825370
Si Si7 0.699336 0.647291 0.032234
O O1 0.898115 0.467867 0.686756
O O2 0.996137 0.161369 0.683906
O O3 0.113188 0.274510 0.921743
O O4 0.803316 0.090490 0.791420
O O5 0.175349 0.264893 0.560213
O O6 0.212529 0.932514 0.777445
O O7 0.286178 0.300240 0.830890
O O8 0.305243 0.266927 0.414823
O O9 0.391302 0.591727 0.513567
O O10 0.500000 0.000000 0.500000
O O11 0.528248 0.162835 0.680538
O O12 0.649298 0.399966 0.035422
O O13 0.732363 0.165331 0.957810
O O14 0.500000 0.000000 0.000000
O O15 0.611381 0.803365 0.881658
#
# Coordination Sequence:
#
# PCOD9106892 Si02
#       7
#     2   2   2   2   2   2   2
#     4   9  20  41  60  91 122 159 200 245 304 353
#     4   9  21  38  59  88 124 153 201 245 297 358
#     4  10  20  40  62  84 124 159 194 253 297 349
#     4  10  23  39  61  91 114 157 206 242 300 357
#     4  11  23  38  58  89 121 162 205 247 296 353
#     4  10  21  40  62  85 123 155 198 258 295 353
#     4   9  22  38  60  91 119 159 198 244 299 358
#
# _framework density 22.990041999999999
#
# number of rings (size 3 to 8) (size 9 to 14) (size 15 to 20)
#    0.857    1.429    0.000    1.714    0.000    9.714 
#    5.143    0.714    0.000    0.000    0.000    0.000 
#    0.000    0.000    0.000    0.000    0.000    0.000 
#
# Total GULP energy -78142.845512 kJ/mol
# GULP energy per Si atom -5581.631822 kJ/mol
# Density = 2.293772 g / cm^3
# Si number density = 22.990042 Si / 1000 Ang^3
#
#
#
# Elastic Constant Matrix: (Units=GPa)
#
#
# Indices 1 2 3 4 5 6 
#
# 1 85.4653 3.1638 0.4529 -7.5728 -5.8751 -7.3994
# 2 3.1638 112.3047 6.2939 -18.9234 -7.6188 -12.0136
# 3 0.4529 6.2939 70.4008 -33.2448 -6.0048 -4.2359
# 4 -7.5728 -18.9234 -33.2448 31.5173 -4.5317 8.8668
# 5 -5.8751 -7.6188 -6.0048 -4.5317 36.5472 -8.6283
# 6 -7.3994 -12.0136 -4.2359 8.8668 -8.6283 25.8433
#
#
#
# Elastic Compliance Matrix: (Units=1/GPa)
#
#
# Indices 1 2 3 4 5 6 
#
# 1 0.013056 0.001564 0.004367 0.008279 0.005125 0.004052
# 2 0.001564 0.011716 0.006196 0.013639 0.006437 0.004379
# 3 0.004367 0.006196 0.035791 0.044680 0.013195 -0.000927
# 4 0.008279 0.013639 0.044680 0.094716 0.021031 -0.009441
# 5 0.005125 0.006437 0.013195 0.021031 0.037087 0.011789
# 6 0.004052 0.004379 -0.000927 -0.009441 0.011789 0.048914
#
#
# Mechanical properties :
#
#
# Convention : Reuss Voigt Hill
#
# Bulk Modulus (GPa) = 11.79022 31.99910 21.89466
# Shear Modulus (GPa) = 20.38317 35.99891 28.19104
#
# Velocity S-wave (km/s) = 2.98083 3.96137 3.50555
# Velocity P-wave (km/s) = 4.12149 5.90527 5.09209
#
# Compressibility (1/GPa) = 0.08481607
#
# Stress axis : x y z
#
# Youngs Moduli (GPa) = 76.59121 85.35018 27.93995
#
# Poissons Ratio (x) = -0.13345 -0.12201
# Poissons Ratio (y) = -0.11976 -0.17311
# Poissons Ratio (z) = -0.33445 -0.52881
#
# Static dielectric constant tensor:
#      x y z
#    x 1.913760 -0.019430 0.014500 
#    y -0.019430 1.872710 0.028330 
#    z 0.014500 0.028330 1.870520 
# 
# From -- ./inp_files/410119.got.cif
#   From: 2010.05.17/outbox.cif.g08.bks.cpg/sg2_206_cif.got.tgz:410119.got - 2010.06.03 11:33:40.
