data_PCOD9106295
_publ_section_title
;
Structure prediction by ZEFSAII (Michael W. Deem and Ramdas Pophale) SiO2 
 PCOD9106295
Probable space group: P -1
;
_chemical_formula_sum "Si O2"
_cell_formula_units_Z 16
_cell_length_a 11.286302
_cell_length_b 9.802483
_cell_length_c 9.103824
_cell_angle_alpha 88.365469
_cell_angle_beta 85.943635
_cell_angle_gamma 42.832445
_cell_volume 682.624826
_symmetry_space_group_name_H-M "P -1"
_symmetry_group_IT_number 2
_symmetry_cell_setting 'triclinic'
loop_
_space_group_symop_operation_xyz
x,y,z
-x,-y,-z
loop_
_atom_site_type_symbol
_atom_site_label
_atom_site_fract_x
_atom_site_fract_y
_atom_site_fract_z
Si Si1 0.379831 0.228368 0.542111
Si Si2 0.902000 0.541615 0.224818
Si Si3 0.736123 0.687072 0.921474
Si Si4 0.452540 0.682924 0.660006
Si Si5 0.022957 0.176129 0.353568
Si Si6 0.625561 0.047946 0.773123
Si Si7 0.454878 0.694886 0.971387
Si Si8 0.777234 0.247765 0.581882
O O1 0.189518 0.348875 0.614741
O O2 0.429679 0.292140 0.410154
O O3 0.459445 0.224689 0.685669
O O4 0.500000 0.000000 0.500000
O O5 0.087513 0.458615 0.185957
O O6 0.933163 0.349755 0.235504
O O7 0.793993 0.670510 0.084251
O O8 0.631149 0.635679 0.937411
O O9 0.620274 0.905986 0.855590
O O10 0.362066 0.785902 0.819130
O O11 0.603926 0.441321 0.674721
O O12 0.311323 0.755646 0.549965
O O13 0.891974 0.272073 0.498832
O O14 0.211261 0.090018 0.348693
O O15 0.090389 0.963006 0.337379
O O16 0.646423 0.142320 0.895263
O O17 0.500000 0.500000 0.000000
#
# Coordination Sequence:
#
# PCOD9106295 Si02
#       8
#     2   2   2   2   2   2   2   2
#     4  12  24  42  70 100 130 176 233 284 336 399
#     4  10  22  42  71  97 133 179 228 281 343 395
#     4  10  23  44  70  97 135 183 229 278 340 405
#     4  11  24  41  67 100 130 181 224 276 334 409
#     4  10  20  39  68  97 129 180 217 278 344 393
#     4  11  23  45  69  94 140 180 229 282 336 404
#     4  12  26  41  69 103 139 178 226 277 343 410
#     4  10  21  40  68  94 137 172 223 275 341 406
#
# _framework density 23.438935000000001
#
# number of rings (size 3 to 8) (size 9 to 14) (size 15 to 20)
#    0.000    1.250    3.750    1.875    5.250    0.000 
#    2.250    3.750    0.000    0.000    0.000    0.000 
#    0.000    0.000    0.000    0.000    0.000    0.000 
#
# Total GULP energy -89248.913380 kJ/mol
# GULP energy per Si atom -5578.057086 kJ/mol
# Density = 2.338559 g / cm^3
# Si number density = 23.438935 Si / 1000 Ang^3
#
#
#
# Elastic Constant Matrix: (Units=GPa)
#
#
# Indices 1 2 3 4 5 6 
#
# 1 87.3401 21.0624 29.4374 4.5977 -36.4391 10.3643
# 2 21.0624 89.7533 18.3626 -8.3853 -6.7926 10.1977
# 3 29.4374 18.3626 101.4506 8.3175 -18.5997 5.0449
# 4 4.5977 -8.3853 8.3175 37.8461 6.0286 -7.7539
# 5 -36.4391 -6.7926 -18.5997 6.0286 44.7306 -1.1868
# 6 10.3643 10.1977 5.0449 -7.7539 -1.1868 35.6053
#
#
#
# Elastic Compliance Matrix: (Units=1/GPa)
#
#
# Indices 1 2 3 4 5 6 
#
# 1 0.020649 -0.003253 -0.001556 -0.006686 0.016428 -0.005767
# 2 -0.003253 0.012676 -0.001941 0.003613 -0.002064 -0.001690
# 3 -0.001556 -0.001941 0.011720 -0.003690 0.003773 -0.001330
# 4 -0.006686 0.003613 -0.003690 0.032186 -0.010555 0.008092
# 5 0.016428 -0.002064 0.003773 -0.010555 0.038265 -0.005749
# 6 -0.005767 -0.001690 -0.001330 0.008092 -0.005749 0.032007
#
#
# Mechanical properties :
#
#
# Convention : Reuss Voigt Hill
#
# Bulk Modulus (GPa) = 31.70147 46.25209 38.97678
# Shear Modulus (GPa) = 29.15160 37.61519 33.38339
#
# Velocity S-wave (km/s) = 3.53048 4.01036 3.77805
# Velocity P-wave (km/s) = 5.49304 6.42027 5.97467
#
# Compressibility (1/GPa) = 0.03154427
#
# Stress axis : x y z
#
# Youngs Moduli (GPa) = 48.42917 78.89187 85.32252
#
# Poissons Ratio (x) = 0.25667 0.13275
# Poissons Ratio (y) = 0.15756 0.16560
# Poissons Ratio (z) = 0.07535 0.15312
#
# Static dielectric constant tensor:
#      x y z
#    x 1.929040 -0.006020 0.004680 
#    y -0.006020 1.928250 0.007650 
#    z 0.004680 0.007650 1.936420 
# 
# From -- ./inp_files/243964.got.cif
#   From: 2010.05.17/outbox.cif.g08.bks.cpg/sg2_122_cif.got.tgz:243964.got - 2010.06.03 11:33:40.
