data_PCOD9106700
_publ_section_title
;
Structure prediction by ZEFSAII (Michael W. Deem and Ramdas Pophale) SiO2 
 PCOD9106700
Probable space group: P -1
;
_chemical_formula_sum "Si O2"
_cell_formula_units_Z 12
_cell_length_a 13.992239
_cell_length_b 11.016825
_cell_length_c 19.168425
_cell_angle_alpha 24.865873
_cell_angle_beta 28.155885
_cell_angle_gamma 27.704219
_cell_volume 529.172758
_symmetry_space_group_name_H-M "P -1"
_symmetry_group_IT_number 2
_symmetry_cell_setting 'triclinic'
loop_
_space_group_symop_operation_xyz
x,y,z
-x,-y,-z
loop_
_atom_site_type_symbol
_atom_site_label
_atom_site_fract_x
_atom_site_fract_y
_atom_site_fract_z
Si Si1 0.169051 0.630137 0.131304
Si Si2 0.581240 0.046739 0.134393
Si Si3 0.715131 0.498852 0.025064
Si Si4 0.144125 0.588206 0.758350
Si Si5 0.455336 0.337492 0.815678
Si Si6 0.079283 0.784998 0.489790
O O1 0.210376 0.864455 0.035166
O O2 0.202308 0.722104 0.981932
O O3 0.969259 0.524712 0.313853
O O4 0.385671 0.284039 0.186244
O O5 0.463970 0.182081 0.065234
O O6 0.666452 0.670089 0.279191
O O7 0.920199 0.556569 0.894994
O O8 0.597910 0.431118 0.202585
O O9 0.240742 0.468491 0.834818
O O10 0.083042 0.956824 0.595768
O O11 0.669075 0.310853 0.647689
O O12 0.500000 0.000000 0.000000
O O13 0.000000 0.000000 0.500000
#
# Coordination Sequence:
#
# PCOD9106700 Si02
#       6
#     2   2   2   2   2   2
#     4   9  20  44  60  86 125 155 192 253 293 346
#     4   9  20  40  64  85 118 161 199 240 291 357
#     4  10  20  40  60  88 120 155 205 238 295 356
#     4  12  21  35  68  89 114 159 205 237 300 349
#     4  12  22  38  60  90 125 156 194 252 296 349
#     4  12  23  40  57  95 124 147 199 253 295 347
#
# _framework density 22.676904
#
# number of rings (size 3 to 8) (size 9 to 14) (size 15 to 20)
#    1.000    0.333    5.000    1.500    0.000    3.333 
#    0.000    0.833    0.000    2.000    0.000    0.000 
#    0.000    0.000    0.000    0.000    0.000    0.000 
#
# Total GULP energy -66819.537373 kJ/mol
# GULP energy per Si atom -5568.294781 kJ/mol
# Density = 2.262529 g / cm^3
# Si number density = 22.676904 Si / 1000 Ang^3
#
#
#
# Elastic Constant Matrix: (Units=GPa)
#
#
# Indices 1 2 3 4 5 6 
#
# 1 143.3711 38.5062 63.9477 0.4514 0.1739 -19.9065
# 2 38.5062 67.4734 31.3188 4.2180 3.4714 -10.3917
# 3 63.9477 31.3188 103.3410 21.3320 -13.6163 5.4620
# 4 0.4514 4.2180 21.3320 32.0701 -1.6812 2.6856
# 5 0.1739 3.4714 -13.6163 -1.6812 29.3924 -4.3001
# 6 -19.9065 -10.3917 5.4620 2.6856 -4.3001 37.8094
#
#
#
# Elastic Compliance Matrix: (Units=1/GPa)
#
#
# Indices 1 2 3 4 5 6 
#
# 1 0.012357 -0.002178 -0.008761 0.005258 -0.002623 0.006501
# 2 -0.002178 0.019455 -0.005429 0.000492 -0.004116 0.004482
# 3 -0.008761 -0.005429 0.020705 -0.011878 0.008540 -0.007281
# 4 0.005258 0.000492 -0.011878 0.038651 -0.003159 0.001515
# 5 -0.002623 -0.004116 0.008540 -0.003159 0.038424 0.000849
# 6 0.006501 0.004482 -0.007281 0.001515 0.000849 0.032144
#
#
# Mechanical properties :
#
#
# Convention : Reuss Voigt Hill
#
# Bulk Modulus (GPa) = 50.55364 64.63677 57.59521
# Shear Modulus (GPa) = 24.86761 31.88192 28.37476
#
# Velocity S-wave (km/s) = 3.31510 3.75363 3.54116
# Velocity P-wave (km/s) = 6.08231 6.88124 6.49408
#
# Compressibility (1/GPa) = 0.01978097
#
# Stress axis : x y z
#
# Youngs Moduli (GPa) = 80.92769 51.40129 48.29694
#
# Poissons Ratio (x) = 0.11194 0.42312
# Poissons Ratio (y) = 0.17625 0.26221
# Poissons Ratio (z) = 0.70900 0.27906
#
# Static dielectric constant tensor:
#      x y z
#    x 1.884840 0.029160 0.003620 
#    y 0.029160 2.016610 0.042770 
#    z 0.003620 0.042770 1.893140 
# 
# From -- ./inp_files/573328.got.cif
#   From: 2010.05.17/outbox.cif.g08.bks.cpg/sg2_287_cif.got.tgz:573328.got - 2010.06.03 11:33:40.
