data_PCOD9106101
_publ_section_title
;
Structure prediction by ZEFSAII (Michael W. Deem and Ramdas Pophale) SiO2 
 PCOD9106101
Probable space group: P -1
;
_chemical_formula_sum "Si O2"
_cell_formula_units_Z 15
_cell_length_a 6.249621
_cell_length_b 14.674934
_cell_length_c 9.008346
_cell_angle_alpha 116.790828
_cell_angle_beta 69.131258
_cell_angle_gamma 88.637197
_cell_volume 672.074581
_symmetry_space_group_name_H-M "P -1"
_symmetry_group_IT_number 2
_symmetry_cell_setting 'triclinic'
loop_
_space_group_symop_operation_xyz
x,y,z
-x,-y,-z
loop_
_atom_site_type_symbol
_atom_site_label
_atom_site_fract_x
_atom_site_fract_y
_atom_site_fract_z
Si Si1 0.196427 0.696993 0.563231
Si Si2 0.343350 0.660365 0.066407
Si Si3 0.500000 0.000000 0.000000
Si Si4 0.604902 0.564876 0.217304
Si Si5 0.717263 0.908452 0.189027
Si Si6 0.544324 0.135493 0.511975
Si Si7 0.746616 0.196343 0.068106
Si Si8 0.875536 0.722865 0.415070
O O1 0.359838 0.588343 0.387228
O O2 0.299239 0.785614 0.516515
O O3 0.229954 0.726048 0.744654
O O4 0.941377 0.709433 0.562293
O O5 0.542380 0.615863 0.106868
O O6 0.109960 0.713563 0.253885
O O7 0.294864 0.556659 0.921289
O O8 0.391551 0.736422 0.982156
O O9 0.627615 0.936389 0.066683
O O10 0.639947 0.097729 0.067491
O O11 0.763113 0.629214 0.314442
O O12 0.549851 0.852831 0.288609
O O13 0.687343 0.019421 0.362575
O O14 0.985114 0.848624 0.081809
O O15 0.309414 0.168929 0.493417
#
# Coordination Sequence:
#
# PCOD9106101 Si02
#       8
#     2   2   1   2   2   2   2   2
#     4  10  23  40  63  97 136 169 217 269 332 392
#     4  10  21  41  70  96 133 167 219 275 328 397
#     4  12  28  42  66  94 138 174 218 280 318 392
#     4   9  21  41  67 102 126 168 220 272 333 390
#     4  11  25  42  64  91 129 173 232 263 327 383
#     4  10  22  42  63  93 124 175 221 272 317 389
#     4  12  26  44  64  99 135 180 215 272 335 389
#     4  10  20  39  67  93 132 168 217 274 320 397
#
# _framework density 22.318949
#
# number of rings (size 3 to 8) (size 9 to 14) (size 15 to 20)
#    0.000    1.600    2.667    0.800    7.467    0.533 
#    0.000    3.333    0.000    0.000    0.000    0.000 
#    0.000    0.000    0.000    0.000    0.000    0.000 
#
# Total GULP energy -83544.845200 kJ/mol
# GULP energy per Si atom -5569.656347 kJ/mol
# Density = 2.226815 g / cm^3
# Si number density = 22.318949 Si / 1000 Ang^3
#
#
#
# Elastic Constant Matrix: (Units=GPa)
#
#
# Indices 1 2 3 4 5 6 
#
# 1 54.0809 9.8592 24.6995 -18.3168 26.5805 -11.1476
# 2 9.8592 64.1785 24.5023 -8.4652 -3.1133 -5.4194
# 3 24.6995 24.5023 98.6098 5.1694 9.8366 -11.8553
# 4 -18.3168 -8.4652 5.1694 22.2468 -9.4477 4.2171
# 5 26.5805 -3.1133 9.8366 -9.4477 34.0738 -1.2630
# 6 -11.1476 -5.4194 -11.8553 4.2171 -1.2630 23.1318
#
#
#
# Elastic Compliance Matrix: (Units=1/GPa)
#
#
# Indices 1 2 3 4 5 6 
#
# 1 0.047477 -0.000413 -0.009229 0.027718 -0.026295 0.011564
# 2 -0.000413 0.019895 -0.006239 0.011834 0.007204 -0.000500
# 3 -0.009229 -0.006239 0.015571 -0.015315 -0.001936 0.004757
# 4 0.027718 0.011834 -0.015315 0.079352 0.005665 -0.005876
# 5 -0.026295 0.007204 -0.001936 0.005665 0.052272 -0.010155
# 6 0.011564 -0.000500 0.004757 -0.005876 -0.010155 0.051641
#
#
# Mechanical properties :
#
#
# Convention : Reuss Voigt Hill
#
# Bulk Modulus (GPa) = 19.53869 37.22124 28.37996
# Shear Modulus (GPa) = 15.87146 26.41101 21.14124
#
# Velocity S-wave (km/s) = 2.66958 3.44371 3.08105
# Velocity P-wave (km/s) = 4.27499 5.70310 5.03988
#
# Compressibility (1/GPa) = 0.05118051
#
# Stress axis : x y z
#
# Youngs Moduli (GPa) = 21.06299 50.26339 64.22308
#
# Poissons Ratio (x) = 0.02076 0.59270
# Poissons Ratio (y) = 0.00870 0.40069
# Poissons Ratio (z) = 0.19439 0.31360
#
# Static dielectric constant tensor:
#      x y z
#    x 1.858180 -0.003160 0.008480 
#    y -0.003160 1.803740 -0.002310 
#    z 0.008480 -0.002310 1.863170 
# 
# From -- ./inp_files/135640.got.cif
#   From: 2010.05.17/outbox.cif.g08.bks.cpg/sg2_68_cif.got.tgz:135640.got - 2010.06.03 11:33:40.
