data_PCOD9106606
_publ_section_title
;
Structure prediction by ZEFSAII (Michael W. Deem and Ramdas Pophale) SiO2 
 PCOD9106606
Probable space group: P -1
;
_chemical_formula_sum "Si O2"
_cell_formula_units_Z 16
_cell_length_a 17.923219
_cell_length_b 30.872869
_cell_length_c 24.610406
_cell_angle_alpha 10.544782
_cell_angle_beta 160.997732
_cell_angle_gamma 159.645424
_cell_volume 804.071213
_symmetry_space_group_name_H-M "P -1"
_symmetry_group_IT_number 2
_symmetry_cell_setting 'triclinic'
loop_
_space_group_symop_operation_xyz
x,y,z
-x,-y,-z
loop_
_atom_site_type_symbol
_atom_site_label
_atom_site_fract_x
_atom_site_fract_y
_atom_site_fract_z
Si Si1 0.134824 0.751935 0.190378
Si Si2 0.927545 0.773367 0.193159
Si Si3 0.654607 0.791255 0.875730
Si Si4 0.084089 0.832597 0.811580
Si Si5 0.397658 0.744870 0.490057
Si Si6 0.813647 0.118476 0.345477
Si Si7 0.082605 0.452747 0.199217
Si Si8 0.424247 0.096842 0.886195
O O1 0.131253 0.477761 0.507101
O O2 0.333263 0.779042 0.340616
O O3 0.888478 0.801450 0.986160
O O4 0.221102 0.923123 0.989676
O O5 0.150283 0.729832 0.365945
O O6 0.739128 0.815425 0.966651
O O7 0.000000 0.000000 0.000000
O O8 0.500000 0.000000 0.500000
O O9 0.527088 0.516137 0.124443
O O10 0.015379 0.567234 0.068248
O O11 0.355908 0.872781 0.960146
O O12 0.000000 0.000000 0.500000
O O13 0.971770 0.917950 0.683745
O O14 0.561819 0.971164 0.347444
O O15 0.889810 0.250974 0.290443
O O16 0.865623 0.330912 0.075100
O O17 0.318996 0.340973 0.504718
O O18 0.500000 0.000000 0.000000
#
# Coordination Sequence:
#
# PCOD9106606 Si02
#       8
#     2   2   2   2   2   2   2   2
#     4   9  20  39  62  83 124 165 198 248 312 369
#     4   9  19  40  60  90 117 155 201 245 311 381
#     4   9  19  40  65  91 121 151 203 257 308 372
#     4  10  21  39  61  82 120 161 205 251 305 362
#     4   9  19  39  64  85 122 164 196 249 313 376
#     4  10  20  40  58  88 122 158 210 252 302 366
#     4  10  22  38  58  84 124 161 207 256 299 361
#     4  12  23  40  60  91 125 165 214 258 303 363
#
# _framework density 19.898736
#
# number of rings (size 3 to 8) (size 9 to 14) (size 15 to 20)
#    0.000    2.250    1.250    3.375    0.000    2.000 
#    9.000    3.750    0.000    0.000    0.000    0.000 
#    0.000    0.000    0.000    0.000    0.000    0.000 
#
# Total GULP energy -89158.701665 kJ/mol
# GULP energy per Si atom -5572.418854 kJ/mol
# Density = 1.985345 g / cm^3
# Si number density = 19.898736 Si / 1000 Ang^3
#
#
#
# Elastic Constant Matrix: (Units=GPa)
#
#
# Indices 1 2 3 4 5 6 
#
# 1 63.2427 13.2289 37.0408 -16.4168 5.2191 -9.3916
# 2 13.2289 110.4212 45.6578 -12.2099 1.5452 -17.5837
# 3 37.0408 45.6578 120.7166 3.6977 22.9032 -17.6814
# 4 -16.4168 -12.2099 3.6977 29.2591 -2.3433 9.4441
# 5 5.2191 1.5452 22.9032 -2.3433 20.5306 -10.2221
# 6 -9.3916 -17.5837 -17.6814 9.4441 -10.2221 25.3934
#
#
#
# Elastic Compliance Matrix: (Units=1/GPa)
#
#
# Indices 1 2 3 4 5 6 
#
# 1 0.025642 0.003508 -0.011144 0.017633 0.008086 0.000850
# 2 0.003508 0.013448 -0.007354 0.007053 0.010671 0.007161
# 3 -0.011144 -0.007354 0.018557 -0.013591 -0.018139 0.001459
# 4 0.017633 0.007053 -0.013591 0.054152 0.009090 -0.014539
# 5 0.008086 0.010671 -0.018139 0.009090 0.080441 0.026750
# 6 0.000850 0.007161 0.001459 -0.014539 0.026750 0.061845
#
#
# Mechanical properties :
#
#
# Convention : Reuss Voigt Hill
#
# Bulk Modulus (GPa) = 36.14747 54.02619 45.08683
# Shear Modulus (GPa) = 17.04815 28.26682 22.65748
#
# Velocity S-wave (km/s) = 2.93020 3.77309 3.37803
# Velocity P-wave (km/s) = 5.44548 6.79640 6.15810
#
# Compressibility (1/GPa) = 0.02766445
#
# Stress axis : x y z
#
# Youngs Moduli (GPa) = 38.99910 74.36165 53.88925
#
# Poissons Ratio (x) = -0.26086 0.60056
# Poissons Ratio (y) = -0.13681 0.39632
# Poissons Ratio (z) = 0.43462 0.54688
#
# Static dielectric constant tensor:
#      x y z
#    x 1.720960 0.008890 -0.000690 
#    y 0.008890 1.718390 0.005230 
#    z -0.000690 0.005230 1.717450 
# 
# From -- ./inp_files/613350.got.cif
#   From: 2010.05.17/outbox.cif.g08.bks.cpg/sg2_307_cif.got.tgz:613350.got - 2010.06.03 11:33:40.
