data_PCOD9106885
_publ_section_title
;
Structure prediction by ZEFSAII (Michael W. Deem and Ramdas Pophale) SiO2 
 PCOD9106885
Probable space group: P -1
;
_chemical_formula_sum "Si O2"
_cell_formula_units_Z 16
_cell_length_a 10.398581
_cell_length_b 17.050447
_cell_length_c 8.066990
_cell_angle_alpha 47.543602
_cell_angle_beta 135.352335
_cell_angle_gamma 127.513435
_cell_volume 718.360042
_symmetry_space_group_name_H-M "P -1"
_symmetry_group_IT_number 2
_symmetry_cell_setting 'triclinic'
loop_
_space_group_symop_operation_xyz
x,y,z
-x,-y,-z
loop_
_atom_site_type_symbol
_atom_site_label
_atom_site_fract_x
_atom_site_fract_y
_atom_site_fract_z
Si Si1 0.533757 0.234672 0.566976
Si Si2 0.868669 0.409808 0.617366
Si Si3 0.146218 0.245995 0.553888
Si Si4 0.430890 0.740455 0.056515
Si Si5 0.490054 0.878674 0.607902
Si Si6 0.914215 0.774063 0.827150
Si Si7 0.209844 0.500872 0.245227
Si Si8 0.924456 0.880271 0.020834
O O1 0.678246 0.337146 0.465682
O O2 0.615107 0.234487 0.829769
O O3 0.560207 0.138189 0.608478
O O4 0.317597 0.247225 0.355156
O O5 0.788079 0.473416 0.596390
O O6 0.000000 0.500000 0.500000
O O7 0.001377 0.330899 0.911652
O O8 0.343837 0.214083 0.793555
O O9 0.034838 0.192450 0.364934
O O10 0.216211 0.376614 0.400040
O O11 0.044612 0.208484 0.688245
O O12 0.355691 0.608340 0.151540
O O13 0.374897 0.799272 0.758975
O O14 0.700548 0.861549 0.823054
O O15 0.500000 0.000000 0.500000
O O16 0.989483 0.857741 0.927816
O O17 0.000000 0.500000 0.000000
O O18 0.000000 0.000000 0.000000
#
# Coordination Sequence:
#
# PCOD9106885 Si02
#       8
#     2   2   2   2   2   2   2   2
#     4   9  22  40  58  85 122 158 203 248 299 367
#     4  11  23  37  59  93 122 160 206 249 300 362
#     4  10  20  40  62  82 122 161 197 248 300 365
#     4   9  21  39  59  84 120 159 198 244 300 365
#     4  10  22  39  62  88 114 161 201 249 313 353
#     4  10  21  41  60  83 124 162 197 251 307 356
#     4  11  21  35  56  91 117 152 203 242 298 357
#     4  10  23  40  60  91 117 153 209 252 302 370
#
# _framework density 22.272955
#
# number of rings (size 3 to 8) (size 9 to 14) (size 15 to 20)
#    0.000    2.000    1.250    1.125    3.500    2.500 
#    0.000    0.000    0.000    0.000    0.000    0.000 
#    0.000    0.000    0.000    0.000    0.000    0.000 
#
# Total GULP energy -89073.426092 kJ/mol
# GULP energy per Si atom -5567.089131 kJ/mol
# Density = 2.222226 g / cm^3
# Si number density = 22.272955 Si / 1000 Ang^3
#
#
#
# Elastic Constant Matrix: (Units=GPa)
#
#
# Indices 1 2 3 4 5 6 
#
# 1 61.2326 21.5019 22.8334 4.5873 -11.2469 -25.3570
# 2 21.5019 63.1629 2.3587 6.2486 -18.1512 -24.4548
# 3 22.8334 2.3587 58.2522 6.7158 -2.4604 -4.1273
# 4 4.5873 6.2486 6.7158 32.5528 8.8368 2.0805
# 5 -11.2469 -18.1512 -2.4604 8.8368 32.8352 12.7147
# 6 -25.3570 -24.4548 -4.1273 2.0805 12.7147 46.7859
#
#
#
# Elastic Compliance Matrix: (Units=1/GPa)
#
#
# Indices 1 2 3 4 5 6 
#
# 1 0.026053 -0.003142 -0.008860 -0.002759 0.003006 0.011003
# 2 -0.003142 0.024179 0.002289 -0.008315 0.011448 0.008396
# 3 -0.008860 0.002289 0.020911 -0.003812 0.001609 -0.002029
# 4 -0.002759 -0.008315 -0.003812 0.037662 -0.014442 -0.003928
# 5 0.003006 0.011448 0.001609 -0.014442 0.043105 -0.003317
# 6 0.011003 0.008396 -0.002029 -0.003928 -0.003317 0.032623
#
#
# Mechanical properties :
#
#
# Convention : Reuss Voigt Hill
#
# Bulk Modulus (GPa) = 19.33546 30.67065 25.00305
# Shear Modulus (GPa) = 22.60409 31.49836 27.05123
#
# Velocity S-wave (km/s) = 3.18915 3.76466 3.48880
# Velocity P-wave (km/s) = 4.71815 5.71814 5.24205
#
# Compressibility (1/GPa) = 0.05171844
#
# Stress axis : x y z
#
# Youngs Moduli (GPa) = 38.38259 41.35757 47.82215
#
# Poissons Ratio (x) = 0.12993 0.42373
# Poissons Ratio (y) = 0.12058 -0.10949
# Poissons Ratio (z) = 0.34009 -0.09469
#
# Static dielectric constant tensor:
#      x y z
#    x 2.056140 -0.183170 -0.051360 
#    y -0.183170 2.015520 0.032410 
#    z -0.051360 0.032410 1.861630 
# 
# From -- ./inp_files/278878.got.cif
#   From: 2010.05.17/outbox.cif.g08.bks.cpg/sg2_140_cif.got.tgz:278878.got - 2010.06.03 11:33:40.
