data_PCOD9106406
_publ_section_title
;
Structure prediction by ZEFSAII (Michael W. Deem and Ramdas Pophale) SiO2 
 PCOD9106406
Probable space group: P -1
;
_chemical_formula_sum "Si O2"
_cell_formula_units_Z 16
_cell_length_a 9.051247
_cell_length_b 5.170290
_cell_length_c 18.309108
_cell_angle_alpha 86.103645
_cell_angle_beta 109.088741
_cell_angle_gamma 68.155657
_cell_volume 733.795183
_symmetry_space_group_name_H-M "P -1"
_symmetry_group_IT_number 2
_symmetry_cell_setting 'triclinic'
loop_
_space_group_symop_operation_xyz
x,y,z
-x,-y,-z
loop_
_atom_site_type_symbol
_atom_site_label
_atom_site_fract_x
_atom_site_fract_y
_atom_site_fract_z
Si Si1 0.616090 0.241360 0.368516
Si Si2 0.730080 0.422994 0.632577
Si Si3 0.087191 0.613490 0.574006
Si Si4 0.268590 0.030057 0.462047
Si Si5 0.867591 0.845291 0.292729
Si Si6 0.319545 0.489844 0.977874
Si Si7 0.172353 0.104265 0.880384
Si Si8 0.916840 0.318349 0.947056
O O1 0.412948 0.440348 0.329097
O O2 0.729795 0.398412 0.415543
O O3 0.642089 0.020794 0.443612
O O4 0.728651 0.091939 0.317518
O O5 0.734147 0.690318 0.583168
O O6 0.930323 0.213738 0.686115
O O7 0.659485 0.239809 0.574141
O O8 0.115366 0.433794 0.655625
O O9 0.000000 0.500000 0.500000
O O10 0.931284 0.918768 0.558205
O O11 0.796652 0.869333 0.199493
O O12 0.288672 0.226065 0.944216
O O13 0.202413 0.781112 0.910014
O O14 0.500000 0.500000 0.000000
O O15 0.274427 0.533069 0.056182
O O16 0.978419 0.295834 0.874604
O O17 0.000000 0.500000 0.000000
O O18 0.000000 0.000000 0.000000
#
# Coordination Sequence:
#
# PCOD9106406 Si02
#       8
#     2   2   2   2   2   2   2   2
#     4  12  23  40  65  87 125 167 223 274 332 377
#     4  11  26  40  63  90 123 162 226 270 329 382
#     4  11  22  40  66  87 126 177 227 270 325 377
#     4  11  22  41  61  91 118 164 221 287 320 377
#     4  11  25  42  61  91 134 174 210 269 330 384
#     4  10  20  39  69  99 124 157 207 251 301 380
#     4  10  22  39  63  92 132 165 200 251 318 374
#     4   8  16  34  59  85 115 156 191 232 291 362
#
# _framework density 21.804448000000001
#
# number of rings (size 3 to 8) (size 9 to 14) (size 15 to 20)
#    0.000    1.500    2.500    3.000    3.500    0.000 
#    2.250    0.000    0.000    0.000    0.000    0.000 
#    0.000    0.000    0.000    0.000    0.000    0.000 
#
# Total GULP energy -89096.362613 kJ/mol
# GULP energy per Si atom -5568.522663 kJ/mol
# Density = 2.175482 g / cm^3
# Si number density = 21.804448 Si / 1000 Ang^3
#
#
#
# Elastic Constant Matrix: (Units=GPa)
#
#
# Indices 1 2 3 4 5 6 
#
# 1 129.9619 21.2344 2.0338 18.5966 -11.3407 -30.7197
# 2 21.2344 91.1010 15.7560 17.4779 -4.9177 -0.5110
# 3 2.0338 15.7560 59.6068 20.2567 -22.7346 -13.0460
# 4 18.5966 17.4779 20.2567 21.9992 -5.2698 -11.9332
# 5 -11.3407 -4.9177 -22.7346 -5.2698 23.0154 3.5825
# 6 -30.7197 -0.5110 -13.0460 -11.9332 3.5825 48.2078
#
#
#
# Elastic Compliance Matrix: (Units=1/GPa)
#
#
# Indices 1 2 3 4 5 6 
#
# 1 0.012029 -0.001618 0.009816 -0.011574 0.011603 0.006577
# 2 -0.001618 0.013509 -0.001004 -0.010651 -0.000759 -0.003739
# 3 0.009816 -0.001004 0.046180 -0.036645 0.040815 0.006637
# 4 -0.011574 -0.010651 -0.036645 0.096266 -0.023405 0.008164
# 5 0.011603 -0.000759 0.040815 -0.023405 0.082955 0.006473
# 6 0.006577 -0.003739 0.006637 0.008164 0.006473 0.028231
#
#
# Mechanical properties :
#
#
# Convention : Reuss Voigt Hill
#
# Bulk Modulus (GPa) = 11.61360 39.85756 25.73558
# Shear Modulus (GPa) = 17.03670 34.75419 25.89545
#
# Velocity S-wave (km/s) = 2.79828 3.99670 3.44993
# Velocity P-wave (km/s) = 3.97219 6.29424 5.26288
#
# Compressibility (1/GPa) = 0.08610597
#
# Stress axis : x y z
#
# Youngs Moduli (GPa) = 83.13572 74.02491 21.65416
#
# Poissons Ratio (x) = 0.11974 -0.21255
# Poissons Ratio (y) = 0.13448 0.02174
# Poissons Ratio (z) = -0.81602 0.07432
#
# Static dielectric constant tensor:
#      x y z
#    x 1.895970 -0.053710 -0.016690 
#    y -0.053710 1.885610 0.001410 
#    z -0.016690 0.001410 1.804710 
# 
# From -- ./inp_files/140616.got.cif
#   From: 2010.05.17/outbox.cif.g08.bks.cpg/sg2_71_cif.got.tgz:140616.got - 2010.06.03 11:33:40.
