data_PCOD9106928
_publ_section_title
;
Structure prediction by ZEFSAII (Michael W. Deem and Ramdas Pophale) SiO2 
 PCOD9106928
Probable space group: P -1
;
_chemical_formula_sum "Si O2"
_cell_formula_units_Z 12
_cell_length_a 10.852385
_cell_length_b 9.488831
_cell_length_c 7.031424
_cell_angle_alpha 96.375475
_cell_angle_beta 58.746509
_cell_angle_gamma 123.247009
_cell_volume 502.217136
_symmetry_space_group_name_H-M "P -1"
_symmetry_group_IT_number 2
_symmetry_cell_setting 'triclinic'
loop_
_space_group_symop_operation_xyz
x,y,z
-x,-y,-z
loop_
_atom_site_type_symbol
_atom_site_label
_atom_site_fract_x
_atom_site_fract_y
_atom_site_fract_z
Si Si1 0.583856 0.200392 0.511164
Si Si2 0.145746 0.190824 0.329952
Si Si3 0.856616 0.281207 0.995740
Si Si4 0.143035 0.411130 0.064265
Si Si5 0.463575 0.322143 0.321903
Si Si6 0.608631 0.895366 0.991533
O O1 0.762247 0.291713 0.262938
O O2 0.480542 0.275363 0.513396
O O3 0.561804 0.203389 0.753497
O O4 0.500000 0.000000 0.500000
O O5 0.080433 0.287487 0.278832
O O6 0.290025 0.308755 0.395941
O O7 0.263863 0.166469 0.083819
O O8 0.000000 0.000000 0.500000
O O9 0.029936 0.308374 0.951017
O O10 0.729797 0.098168 0.967983
O O11 0.883599 0.434810 0.869790
O O12 0.352351 0.509419 0.872749
O O13 0.440748 0.161758 0.195020
#
# Coordination Sequence:
#
# PCOD9106928 Si02
#       6
#     2   2   2   2   2   2
#     4   9  18  35  61  90 120 153 200 248 299 355
#     4  10  23  40  63  89 121 164 206 251 301 366
#     4   9  20  37  63  93 121 161 200 252 301 368
#     4  10  20  40  62  87 131 157 194 259 314 343
#     4   9  21  40  62  88 121 162 202 247 305 356
#     4   9  21  39  64  91 118 162 209 246 301 362
#
# _framework density 23.894047
#
# number of rings (size 3 to 8) (size 9 to 14) (size 15 to 20)
#    1.000    1.667    0.000    0.500    4.667    6.667 
#    0.000   10.000    0.000    0.000    0.000    0.000 
#    0.000    0.000    0.000    0.000    0.000    0.000 
#
# Total GULP energy -66889.019115 kJ/mol
# GULP energy per Si atom -5574.084926 kJ/mol
# Density = 2.383966 g / cm^3
# Si number density = 23.894047 Si / 1000 Ang^3
#
#
#
# Elastic Constant Matrix: (Units=GPa)
#
#
# Indices 1 2 3 4 5 6 
#
# 1 103.3779 37.5613 28.4110 -25.3046 18.9775 4.2968
# 2 37.5613 85.1198 34.9340 -22.3174 13.8419 7.0472
# 3 28.4110 34.9340 71.9168 -12.0779 4.7763 1.0487
# 4 -25.3046 -22.3174 -12.0779 43.0086 -14.4439 1.5766
# 5 18.9775 13.8419 4.7763 -14.4439 30.9427 -6.1780
# 6 4.2968 7.0472 1.0487 1.5766 -6.1780 30.2370
#
#
#
# Elastic Compliance Matrix: (Units=1/GPa)
#
#
# Indices 1 2 3 4 5 6 
#
# 1 0.013510 -0.002597 -0.003005 0.004085 -0.005252 -0.002497
# 2 -0.002597 0.017856 -0.006518 0.004691 -0.004128 -0.004655
# 3 -0.003005 -0.006518 0.018186 0.000792 0.002685 0.001823
# 4 0.004085 0.004691 0.000792 0.031644 0.009774 -0.001354
# 5 -0.005252 -0.004128 0.002685 0.009774 0.043530 0.010000
# 6 -0.002497 -0.004655 0.001823 -0.001354 0.010000 0.036562
#
#
# Mechanical properties :
#
#
# Convention : Reuss Voigt Hill
#
# Bulk Modulus (GPa) = 39.50379 51.35855 45.43117
# Shear Modulus (GPa) = 25.77785 31.47154 28.62469
#
# Velocity S-wave (km/s) = 3.28813 3.63316 3.46495
# Velocity P-wave (km/s) = 5.56638 6.25626 5.92137
#
# Compressibility (1/GPa) = 0.02531402
#
# Stress axis : x y z
#
# Youngs Moduli (GPa) = 74.01681 56.00460 54.98711
#
# Poissons Ratio (x) = 0.14543 0.16521
# Poissons Ratio (y) = 0.19221 0.35839
# Poissons Ratio (z) = 0.22239 0.36502
#
# Static dielectric constant tensor:
#      x y z
#    x 2.026790 -0.003070 -0.031080 
#    y -0.003070 1.921830 0.016320 
#    z -0.031080 0.016320 1.898160 
# 
# From -- ./inp_files/69724.got.cif
#   From: 2010.05.17/outbox.cif.g08.bks.cpg/sg2_35_cif.got.tgz:69724.got - 2010.06.03 11:33:40.
