data_PCOD9106487
_publ_section_title
;
Structure prediction by ZEFSAII (Michael W. Deem and Ramdas Pophale) SiO2 
 PCOD9106487
Probable space group: P -1
;
_chemical_formula_sum "Si O2"
_cell_formula_units_Z 14
_cell_length_a 13.058969
_cell_length_b 7.100319
_cell_length_c 14.450086
_cell_angle_alpha 39.120509
_cell_angle_beta 137.276417
_cell_angle_gamma 121.695855
_cell_volume 570.449367
_symmetry_space_group_name_H-M "P -1"
_symmetry_group_IT_number 2
_symmetry_cell_setting 'triclinic'
loop_
_space_group_symop_operation_xyz
x,y,z
-x,-y,-z
loop_
_atom_site_type_symbol
_atom_site_label
_atom_site_fract_x
_atom_site_fract_y
_atom_site_fract_z
Si Si1 0.671947 0.075444 0.922150
Si Si2 0.973221 0.743555 0.306307
Si Si3 0.130476 0.058531 0.421572
Si Si4 0.458550 0.664873 0.616787
Si Si5 0.676217 0.404870 0.628643
Si Si6 0.155740 0.671732 0.760993
Si Si7 0.483067 0.696443 0.042526
O O1 0.593425 0.400707 0.779563
O O2 0.718375 0.117851 0.830259
O O3 0.815677 0.957547 0.123623
O O4 0.560230 0.814911 0.956742
O O5 0.945292 0.577439 0.254729
O O6 0.000000 0.500000 0.500000
O O7 0.106587 0.942166 0.346402
O O8 0.223127 0.340722 0.372051
O O9 0.962849 0.140769 0.322489
O O10 0.199771 0.839704 0.632111
O O11 0.324714 0.623394 0.471465
O O12 0.430234 0.575040 0.737887
O O13 0.500000 0.000000 0.500000
O O14 0.500000 0.500000 0.500000
O O15 0.313265 0.621672 0.939552
O O16 0.500000 0.000000 0.000000
#
# Coordination Sequence:
#
# PCOD9106487 Si02
#       7
#     2   2   2   2   2   2   2
#     4  10  22  43  66  95 140 175 222 281 339 397
#     4  10  23  41  64  99 131 176 235 276 334 409
#     4  10  20  41  65  92 139 178 218 290 339 396
#     4  10  22  40  64 102 136 171 221 275 345 408
#     4  10  22  42  65  95 138 174 218 281 351 399
#     4  10  21  38  66  97 132 176 235 273 336 413
#     4  10  20  39  70  98 132 175 224 277 338 400
#
# _framework density 24.542055999999999
#
# number of rings (size 3 to 8) (size 9 to 14) (size 15 to 20)
#    0.000    2.000    0.000    4.286    2.000    3.429 
#   15.429    0.714    0.000    0.000    0.000    0.000 
#    0.000    0.000    0.000    0.000    0.000    0.000 
#
# Total GULP energy -78119.578827 kJ/mol
# GULP energy per Si atom -5579.969916 kJ/mol
# Density = 2.448620 g / cm^3
# Si number density = 24.542056 Si / 1000 Ang^3
#
#
#
# Elastic Constant Matrix: (Units=GPa)
#
#
# Indices 1 2 3 4 5 6 
#
# 1 74.7203 22.6833 40.4125 4.1827 -5.9201 -9.6260
# 2 22.6833 162.6515 73.6435 21.7586 -15.0483 4.9776
# 3 40.4125 73.6435 164.8460 12.0891 -11.7301 3.9345
# 4 4.1827 21.7586 12.0891 55.0607 -2.2622 -5.7857
# 5 -5.9201 -15.0483 -11.7301 -2.2622 27.5421 -7.8359
# 6 -9.6260 4.9776 3.9345 -5.7857 -7.8359 39.5563
#
#
#
# Elastic Compliance Matrix: (Units=1/GPa)
#
#
# Indices 1 2 3 4 5 6 
#
# 1 0.016445 -0.000532 -0.003725 0.000447 0.003154 0.005129
# 2 -0.000532 0.008257 -0.003171 -0.002491 0.002645 -0.000693
# 3 -0.003725 -0.003171 0.008508 -0.000438 0.000690 -0.001281
# 4 0.000447 -0.002491 -0.000438 0.019632 0.001177 0.003570
# 5 0.003154 0.002645 0.000690 0.001177 0.041302 0.008720
# 6 0.005129 -0.000693 -0.001281 0.003570 0.008720 0.028993
#
#
# Mechanical properties :
#
#
# Convention : Reuss Voigt Hill
#
# Bulk Modulus (GPa) = 54.48255 75.07739 64.77997
# Shear Modulus (GPa) = 34.69564 42.13039 38.41301
#
# Velocity S-wave (km/s) = 3.76403 4.14776 3.96054
# Velocity P-wave (km/s) = 6.41392 7.32094 6.88239
#
# Compressibility (1/GPa) = 0.01835450
#
# Stress axis : x y z
#
# Youngs Moduli (GPa) = 60.80917 121.10773 117.53943
#
# Poissons Ratio (x) = 0.06443 0.43779
# Poissons Ratio (y) = 0.03235 0.37271
# Poissons Ratio (z) = 0.22649 0.38403
#
# Static dielectric constant tensor:
#      x y z
#    x 2.175210 -0.094390 -0.029940 
#    y -0.094390 1.976810 -0.015520 
#    z -0.029940 -0.015520 1.979030 
# 
# From -- ./inp_files/437198.got.cif
#   From: 2010.05.17/outbox.cif.g08.bks.cpg/sg2_219_cif.got.tgz:437198.got - 2010.06.03 11:33:40.
