data_PCOD9106473
_publ_section_title
;
Structure prediction by ZEFSAII (Michael W. Deem and Ramdas Pophale) SiO2 
 PCOD9106473
Probable space group: P -1
;
_chemical_formula_sum "Si O2"
_cell_formula_units_Z 15
_cell_length_a 15.038755
_cell_length_b 11.931828
_cell_length_c 8.031947
_cell_angle_alpha 72.110103
_cell_angle_beta 107.809971
_cell_angle_gamma 45.684143
_cell_volume 632.747323
_symmetry_space_group_name_H-M "P -1"
_symmetry_group_IT_number 2
_symmetry_cell_setting 'triclinic'
loop_
_space_group_symop_operation_xyz
x,y,z
-x,-y,-z
loop_
_atom_site_type_symbol
_atom_site_label
_atom_site_fract_x
_atom_site_fract_y
_atom_site_fract_z
Si Si1 0.553408 0.752920 0.036748
Si Si2 0.048218 0.479400 0.775602
Si Si3 0.496255 0.949103 0.253456
Si Si4 0.500000 0.500000 0.500000
Si Si5 0.138284 0.738014 0.218255
Si Si6 0.639682 0.282225 0.047419
Si Si7 0.975031 0.254092 0.504792
Si Si8 0.163530 0.483055 0.171271
O O1 0.577226 0.789664 0.213158
O O2 0.425449 0.781319 0.968464
O O3 0.758991 0.487507 0.200431
O O4 0.466198 0.953271 0.785605
O O5 0.980399 0.653867 0.525813
O O6 0.916417 0.514230 0.728884
O O7 0.070753 0.532284 0.932145
O O8 0.265451 0.193556 0.000429
O O9 0.605608 0.781187 0.554323
O O10 0.351948 0.555137 0.444506
O O11 0.608224 0.373461 0.805669
O O12 0.062257 0.749564 0.328463
O O13 0.115435 0.671253 0.086140
O O14 0.000000 0.000000 0.000000
O O15 0.500000 0.500000 0.000000
O O16 0.863759 0.013596 0.349145
#
# Coordination Sequence:
#
# PCOD9106473 Si02
#       8
#     2   2   2   1   2   2   2   2
#     4  10  22  41  66 104 132 182 237 290 358 423
#     4  10  25  41  71 110 141 183 235 304 368 438
#     4  10  20  39  70  96 137 180 233 291 354 430
#     4  12  26  48  68 102 140 192 254 286 360 426
#     4  12  26  46  72 101 143 197 245 299 359 433
#     4  12  27  45  71 104 143 190 243 300 358 431
#     4  11  23  47  70 102 142 185 241 299 361 433
#     4  11  23  44  67 105 145 186 236 296 373 428
#
# _framework density 23.706143000000001
#
# number of rings (size 3 to 8) (size 9 to 14) (size 15 to 20)
#    0.000    1.067    4.000    1.200    1.867    5.333 
#    0.000    2.667    0.000    0.000    0.000    0.000 
#    0.000    0.000    0.000    0.000    0.000    0.000 
#
# Total GULP energy -83552.495770 kJ/mol
# GULP energy per Si atom -5570.166385 kJ/mol
# Density = 2.365219 g / cm^3
# Si number density = 23.706143 Si / 1000 Ang^3
#
#
#
# Elastic Constant Matrix: (Units=GPa)
#
#
# Indices 1 2 3 4 5 6 
#
# 1 83.7775 45.9516 46.2529 -0.3128 -7.1686 -6.1364
# 2 45.9516 112.4474 52.5229 -26.0373 -7.6968 13.1155
# 3 46.2529 52.5229 78.0665 -24.8756 -12.5895 20.3011
# 4 -0.3128 -26.0373 -24.8756 38.9261 2.0347 0.5864
# 5 -7.1686 -7.6968 -12.5895 2.0347 33.8210 -2.0237
# 6 -6.1364 13.1155 20.3011 0.5864 -2.0237 31.8277
#
#
#
# Elastic Compliance Matrix: (Units=1/GPa)
#
#
# Indices 1 2 3 4 5 6 
#
# 1 0.039486 -0.010911 -0.035151 -0.029795 -0.003319 0.034868
# 2 -0.010911 0.016488 0.002212 0.012467 0.000886 -0.010482
# 3 -0.035151 0.002212 0.057309 0.037994 0.009446 -0.044342
# 4 -0.029795 0.012467 0.037994 0.058348 0.005008 -0.035873
# 5 -0.003319 0.000886 0.009446 0.005008 0.031976 -0.005090
# 6 0.034868 -0.010482 -0.044342 -0.035873 -0.005090 0.071082
#
#
# Mechanical properties :
#
#
# Convention : Reuss Voigt Hill
#
# Bulk Modulus (GPa) = 39.08597 62.63848 50.86222
# Shear Modulus (GPa) = 13.48019 29.55256 21.51638
#
# Velocity S-wave (km/s) = 2.38720 3.53458 3.01596
# Velocity P-wave (km/s) = 4.91139 6.56795 5.79913
#
# Compressibility (1/GPa) = 0.02558463
#
# Stress axis : x y z
#
# Youngs Moduli (GPa) = 25.32546 60.64931 17.44940
#
# Poissons Ratio (x) = 0.66172 0.61336
# Poissons Ratio (y) = 0.27632 -0.03860
# Poissons Ratio (z) = 0.89021 -0.13418
#
# Static dielectric constant tensor:
#      x y z
#    x 1.920920 -0.064930 -0.013720 
#    y -0.064930 1.964960 0.031840 
#    z -0.013720 0.031840 1.969030 
# 
# From -- ./inp_files/307097.got.cif
#   From: 2010.05.17/outbox.cif.g08.bks.cpg/sg2_154_cif.got.tgz:307097.got - 2010.06.03 11:33:40.
