data_PCOD9106160
_publ_section_title
;
Structure prediction by ZEFSAII (Michael W. Deem and Ramdas Pophale) SiO2 
 PCOD9106160
Probable space group: P -1
;
_chemical_formula_sum "Si O2"
_cell_formula_units_Z 14
_cell_length_a 15.548693
_cell_length_b 25.143764
_cell_length_c 9.173672
_cell_angle_alpha 144.724082
_cell_angle_beta 37.855733
_cell_angle_gamma 161.631160
_cell_volume 650.561374
_symmetry_space_group_name_H-M "P -1"
_symmetry_group_IT_number 2
_symmetry_cell_setting 'triclinic'
loop_
_space_group_symop_operation_xyz
x,y,z
-x,-y,-z
loop_
_atom_site_type_symbol
_atom_site_label
_atom_site_fract_x
_atom_site_fract_y
_atom_site_fract_z
Si Si1 0.533968 0.413647 0.084174
Si Si2 0.122773 0.144328 0.550757
Si Si3 0.759342 0.475541 0.387844
Si Si4 0.812109 0.422469 0.889878
Si Si5 0.911857 0.791596 0.543563
Si Si6 0.362895 0.018723 0.681195
Si Si7 0.897005 0.756221 0.933208
O O1 0.730561 0.609842 0.303047
O O2 0.296625 0.276371 0.218620
O O3 0.367791 0.341366 0.998274
O O4 0.708447 0.419897 0.883576
O O5 0.436437 0.297583 0.441815
O O6 0.987579 0.083799 0.439344
O O7 0.097976 0.222675 0.855875
O O8 0.000000 0.000000 0.500000
O O9 0.871357 0.635327 0.653855
O O10 0.904452 0.472153 0.265698
O O11 0.829402 0.502352 0.182806
O O12 0.590414 0.221473 0.787414
O O13 0.158093 0.892204 0.535561
O O14 0.500000 0.000000 0.500000
O O15 0.170482 0.944049 0.904623
#
# Coordination Sequence:
#
# PCOD9106160 Si02
#       7
#     2   2   2   2   2   2   2
#     4  10  20  39  67  97 122 168 226 272 311 380
#     4  12  25  43  67  96 135 174 218 261 327 398
#     4  11  22  41  64  96 125 174 214 269 324 380
#     4  11  22  37  69  96 130 161 224 273 320 378
#     4  10  22  40  65  95 131 167 222 268 324 381
#     4  11  23  40  65  99 131 165 218 275 328 371
#     4  11  23  41  70  91 132 175 213 265 327 388
#
# _framework density 21.519877000000001
#
# number of rings (size 3 to 8) (size 9 to 14) (size 15 to 20)
#    0.000    1.143    4.286    3.000    4.000    1.143 
#    0.000    1.429    0.000    0.000    0.000    0.000 
#    0.000    0.000    0.000    0.000    0.000    0.000 
#
# Total GULP energy -78322.979249 kJ/mol
# GULP energy per Si atom -5594.498518 kJ/mol
# Density = 2.147090 g / cm^3
# Si number density = 21.519877 Si / 1000 Ang^3
#
#
#
# Elastic Constant Matrix: (Units=GPa)
#
#
# Indices 1 2 3 4 5 6 
#
# 1 111.4346 14.5979 22.2349 -20.3468 -4.6068 9.4164
# 2 14.5979 44.3886 10.5750 -8.1502 -0.6278 5.1163
# 3 22.2349 10.5750 65.9468 1.7232 -5.0643 2.1599
# 4 -20.3468 -8.1502 1.7232 21.7687 3.2763 -7.1668
# 5 -4.6068 -0.6278 -5.0643 3.2763 35.6246 -4.7856
# 6 9.4164 5.1163 2.1599 -7.1668 -4.7856 37.0349
#
#
#
# Elastic Compliance Matrix: (Units=1/GPa)
#
#
# Indices 1 2 3 4 5 6 
#
# 1 0.011978 -0.000851 -0.004184 0.011045 -0.000153 -0.000566
# 2 -0.000851 0.025553 -0.004086 0.008777 -0.001255 -0.001539
# 3 -0.004184 -0.004086 0.017631 -0.007379 0.002504 -0.000504
# 4 0.011045 0.008777 -0.007379 0.063445 -0.004207 0.008144
# 5 -0.000153 -0.001255 0.002504 -0.004207 0.029178 0.003022
# 6 -0.000566 -0.001539 -0.000504 0.008144 0.003022 0.029354
#
#
# Mechanical properties :
#
#
# Convention : Reuss Voigt Hill
#
# Bulk Modulus (GPa) = 27.08545 35.17619 31.13082
# Shear Modulus (GPa) = 24.07452 30.50980 27.29216
#
# Velocity S-wave (km/s) = 3.34834 3.76939 3.56509
# Velocity P-wave (km/s) = 5.24996 5.94355 5.60749
#
# Compressibility (1/GPa) = 0.03692019
#
# Stress axis : x y z
#
# Youngs Moduli (GPa) = 83.48293 39.13465 56.71749
#
# Poissons Ratio (x) = 0.03332 0.23730
# Poissons Ratio (y) = 0.07108 0.23173
# Poissons Ratio (z) = 0.34929 0.15989
#
# Static dielectric constant tensor:
#      x y z
#    x 1.803720 -0.015040 -0.018880 
#    y -0.015040 1.796250 0.049790 
#    z -0.018880 0.049790 1.796410 
# 
# From -- ./inp_files/149222.got.cif
#   From: 2010.05.17/outbox.cif.g08.bks.cpg/sg2_75_cif.got.tgz:149222.got - 2010.06.03 11:33:40.
