data_PCOD9106542
_publ_section_title
;
Structure prediction by ZEFSAII (Michael W. Deem and Ramdas Pophale) SiO2 
 PCOD9106542
Probable space group: P -1
;
_chemical_formula_sum "Si O2"
_cell_formula_units_Z 12
_cell_length_a 7.166895
_cell_length_b 12.418466
_cell_length_c 9.277228
_cell_angle_alpha 126.864381
_cell_angle_beta 128.724262
_cell_angle_gamma 65.942523
_cell_volume 514.684413
_symmetry_space_group_name_H-M "P -1"
_symmetry_group_IT_number 2
_symmetry_cell_setting 'triclinic'
loop_
_space_group_symop_operation_xyz
x,y,z
-x,-y,-z
loop_
_atom_site_type_symbol
_atom_site_label
_atom_site_fract_x
_atom_site_fract_y
_atom_site_fract_z
Si Si1 0.833760 0.419782 0.243195
Si Si2 0.561184 0.869731 0.519387
Si Si3 0.821653 0.826105 0.889553
Si Si4 0.120845 0.325572 0.687073
Si Si5 0.026765 0.866060 0.310581
Si Si6 0.419180 0.636980 0.654243
O O1 0.024571 0.716365 0.845565
O O2 0.846960 0.318662 0.493484
O O3 0.000000 0.500000 0.500000
O O4 0.192257 0.479484 0.824087
O O5 0.712281 0.903191 0.760928
O O6 0.709091 0.760841 0.408415
O O7 0.304562 0.817410 0.397169
O O8 0.500000 0.000000 0.500000
O O9 0.605677 0.744976 0.786866
O O10 0.931169 0.904564 0.136954
O O11 0.116910 0.251828 0.779412
O O12 0.607863 0.389589 0.208882
O O13 0.000000 0.000000 0.500000
O O14 0.500000 0.500000 0.500000
#
# Coordination Sequence:
#
# PCOD9106542 Si02
#       6
#     2   2   2   2   2   2
#     4  10  20  39  73 110 140 182 230 296 368 429
#     4  12  25  48  72 101 145 190 242 304 347 428
#     4  12  25  45  77 105 141 198 233 292 383 416
#     4  11  22  44  72 105 151 178 234 305 353 421
#     4  12  29  49  67 105 146 193 253 297 340 430
#     4  11  19  40  76 105 145 185 228 296 366 432
#
# _framework density 23.315255000000001
#
# number of rings (size 3 to 8) (size 9 to 14) (size 15 to 20)
#    0.000    0.667   10.000    0.000    0.000    3.333 
#    0.000    1.667    0.000    0.000    0.000    0.000 
#    0.000    0.000    0.000    0.000    0.000    0.000 
#
# Total GULP energy -67176.005455 kJ/mol
# GULP energy per Si atom -5598.000455 kJ/mol
# Density = 2.326219 g / cm^3
# Si number density = 23.315255 Si / 1000 Ang^3
#
#
#
# Elastic Constant Matrix: (Units=GPa)
#
#
# Indices 1 2 3 4 5 6 
#
# 1 168.7956 48.4059 29.5185 -5.7477 -10.9731 -9.0097
# 2 48.4059 116.9321 43.7082 -24.1436 -14.7541 6.0398
# 3 29.5185 43.7082 112.5198 -22.9328 -18.6717 -7.8235
# 4 -5.7477 -24.1436 -22.9328 31.4305 7.7796 -10.7600
# 5 -10.9731 -14.7541 -18.6717 7.7796 24.0990 -10.9717
# 6 -9.0097 6.0398 -7.8235 -10.7600 -10.9717 55.1399
#
#
#
# Elastic Compliance Matrix: (Units=1/GPa)
#
#
# Indices 1 2 3 4 5 6 
#
# 1 0.006992 -0.002751 -0.000548 -0.001241 0.002186 0.001559
# 2 -0.002751 0.012203 -0.002389 0.006459 0.002077 -0.000451
# 3 -0.000548 -0.002389 0.013241 0.007393 0.008523 0.005189
# 4 -0.001241 0.006459 0.007393 0.045298 -0.001560 0.008668
# 5 0.002186 0.002077 0.008523 -0.001560 0.056455 0.012268
# 6 0.001559 -0.000451 0.005189 0.008668 0.012268 0.023309
#
#
# Mechanical properties :
#
#
# Convention : Reuss Voigt Hill
#
# Bulk Modulus (GPa) = 47.48141 71.27919 59.38030
# Shear Modulus (GPa) = 28.42663 40.57487 34.50075
#
# Velocity S-wave (km/s) = 3.49553 4.17618 3.85093
# Velocity P-wave (km/s) = 6.05812 7.34114 6.73027
#
# Compressibility (1/GPa) = 0.02106087
#
# Stress axis : x y z
#
# Youngs Moduli (GPa) = 143.02145 81.94985 75.52417
#
# Poissons Ratio (x) = 0.22542 0.04136
# Poissons Ratio (y) = 0.39342 0.18041
# Poissons Ratio (z) = 0.07833 0.19576
#
# Static dielectric constant tensor:
#      x y z
#    x 1.892980 0.050800 0.011120 
#    y 0.050800 1.879670 -0.067030 
#    z 0.011120 -0.067030 1.903630 
# 
# From -- ./inp_files/194566.got.cif
#   From: 2010.05.17/outbox.cif.g08.bks.cpg/sg2_98_cif.got.tgz:194566.got - 2010.06.03 11:33:40.
