data_PCOD9106381
_publ_section_title
;
Structure prediction by ZEFSAII (Michael W. Deem and Ramdas Pophale) SiO2 
 PCOD9106381
Probable space group: P -1
;
_chemical_formula_sum "Si O2"
_cell_formula_units_Z 14
_cell_length_a 5.747027
_cell_length_b 8.865736
_cell_length_c 26.255010
_cell_angle_alpha 30.653920
_cell_angle_beta 117.014087
_cell_angle_gamma 123.718346
_cell_volume 566.450581
_symmetry_space_group_name_H-M "P -1"
_symmetry_group_IT_number 2
_symmetry_cell_setting 'triclinic'
loop_
_space_group_symop_operation_xyz
x,y,z
-x,-y,-z
loop_
_atom_site_type_symbol
_atom_site_label
_atom_site_fract_x
_atom_site_fract_y
_atom_site_fract_z
Si Si1 0.142584 0.864793 0.926663
Si Si2 0.534091 0.058482 0.616213
Si Si3 0.141348 0.693246 0.270717
Si Si4 0.328512 0.266743 0.004611
Si Si5 0.303608 0.817014 0.774376
Si Si6 0.094832 0.352543 0.467121
Si Si7 0.185320 0.253575 0.315865
O O1 0.475430 0.929564 0.936411
O O2 0.034093 0.077798 0.816853
O O3 0.000000 0.500000 0.000000
O O4 0.985196 0.887755 0.957632
O O5 0.367769 0.255616 0.516135
O O6 0.824990 0.334921 0.580630
O O7 0.404631 0.916022 0.698394
O O8 0.523141 0.753434 0.672213
O O9 0.033511 0.448754 0.377454
O O10 0.146456 0.522529 0.267735
O O11 0.469630 0.906328 0.251390
O O12 0.315921 0.493958 0.891309
O O13 0.500000 0.500000 0.000000
O O14 0.984647 0.785017 0.743115
O O15 0.897748 0.054605 0.565602
#
# Coordination Sequence:
#
# PCOD9106381 Si02
#       7
#     2   2   2   2   2   2   2
#     4  10  21  41  65 101 132 174 232 279 333 412
#     4   9  20  39  62  93 131 167 220 271 330 412
#     4  11  22  42  65  96 130 173 223 276 337 400
#     4  10  20  39  69  95 132 174 233 278 335 406
#     4  10  22  41  65  92 129 176 213 274 340 398
#     4   9  20  40  61  92 130 172 217 269 335 405
#     4  11  23  40  64  99 129 168 224 273 337 403
#
# _framework density 24.715308
#
# number of rings (size 3 to 8) (size 9 to 14) (size 15 to 20)
#    0.000    2.000    2.857    1.714    2.000    1.714 
#    7.714    1.429    0.000    0.000    0.000    0.000 
#    0.000    0.000    0.000    0.000    0.000    0.000 
#
# Total GULP energy -78116.363741 kJ/mol
# GULP energy per Si atom -5579.740267 kJ/mol
# Density = 2.465905 g / cm^3
# Si number density = 24.715308 Si / 1000 Ang^3
#
#
#
# Elastic Constant Matrix: (Units=GPa)
#
#
# Indices 1 2 3 4 5 6 
#
# 1 90.9981 23.9847 33.9997 0.3449 32.5557 -2.9778
# 2 23.9847 76.9496 44.3171 -7.6860 29.8998 18.0714
# 3 33.9997 44.3171 182.7307 30.7145 28.3751 -9.9920
# 4 0.3449 -7.6860 30.7145 18.0526 1.5180 13.2021
# 5 32.5557 29.8998 28.3751 1.5180 33.2779 -18.1911
# 6 -2.9778 18.0714 -9.9920 13.2021 -18.1911 9.2541
#
#
#
# Elastic Compliance Matrix: (Units=1/GPa)
#
#
# Indices 1 2 3 4 5 6 
#
# 1 0.014973 -0.003749 0.000909 -0.006705 -0.008750 0.005486
# 2 -0.003749 0.006275 0.000887 -0.010995 0.006507 0.015974
# 3 0.000909 0.000887 0.007612 -0.006474 -0.011718 -0.007017
# 4 -0.006705 -0.010995 -0.006474 0.037997 0.035809 0.028507
# 5 -0.008750 0.006507 -0.011718 0.035809 0.029592 -0.021091
# 6 0.005486 0.015974 -0.007017 0.028507 -0.021091 -0.011074
#
#
# Mechanical properties :
#
#
# Convention : Reuss Voigt Hill
#
# Bulk Modulus (GPa) = 40.07296 61.69794 50.88545
# Shear Modulus (GPa) = 51.22958 28.67539 39.95249
#
# Velocity S-wave (km/s) = 4.55773 3.40991 4.02494
# Velocity P-wave (km/s) = 6.62919 6.36561 6.49874
#
# Compressibility (1/GPa) = 0.02495449
#
# Stress axis : x y z
#
# Youngs Moduli (GPa) = 66.78678 159.36099 131.36465
#
# Poissons Ratio (x) = 0.59743 -0.11942
# Poissons Ratio (y) = 0.25038 -0.11650
# Poissons Ratio (z) = -0.06071 -0.14133
#
# Static dielectric constant tensor:
#      x y z
#    x 2.103420 0.104650 -0.000260 
#    y 0.104650 2.036560 -0.019740 
#    z -0.000260 -0.019740 1.892100 
# 
# From -- ./inp_files/43576.got.cif
#   From: 2010.05.17/outbox.cif.g08.bks.cpg/sg2_22_cif.got.tgz:43576.got - 2010.06.03 11:33:40.
