data_PCOD9106634
_publ_section_title
;
Structure prediction by ZEFSAII (Michael W. Deem and Ramdas Pophale) SiO2 
 PCOD9106634
Probable space group: P -1
;
_chemical_formula_sum "Si O2"
_cell_formula_units_Z 16
_cell_length_a 18.643234
_cell_length_b 8.818587
_cell_length_c 15.220273
_cell_angle_alpha 53.747925
_cell_angle_beta 143.843041
_cell_angle_gamma 143.591245
_cell_volume 863.987826
_symmetry_space_group_name_H-M "P -1"
_symmetry_group_IT_number 2
_symmetry_cell_setting 'triclinic'
loop_
_space_group_symop_operation_xyz
x,y,z
-x,-y,-z
loop_
_atom_site_type_symbol
_atom_site_label
_atom_site_fract_x
_atom_site_fract_y
_atom_site_fract_z
Si Si1 0.685629 0.045439 0.544622
Si Si2 0.441667 0.508778 0.536636
Si Si3 0.150853 0.433285 0.015985
Si Si4 0.936155 0.916240 0.643492
Si Si5 0.878904 0.265656 0.391037
Si Si6 0.530810 0.870290 0.258802
Si Si7 0.023514 0.965527 0.170704
Si Si8 0.972492 0.573561 0.707376
O O1 0.831246 0.040696 0.678567
O O2 0.779299 0.326738 0.576797
O O3 0.552430 0.809297 0.558824
O O4 0.596873 0.981351 0.385085
O O5 0.500000 0.500000 0.500000
O O6 0.245891 0.336407 0.411010
O O7 0.476963 0.364969 0.679618
O O8 0.115612 0.264308 0.953907
O O9 0.027928 0.479388 0.866402
O O10 0.337664 0.715863 0.109058
O O11 0.101846 0.239708 0.112914
O O12 0.001776 0.814169 0.686855
O O13 0.908948 0.077291 0.506786
O O14 0.039996 0.069909 0.781559
O O15 0.000000 0.500000 0.500000
O O16 0.929773 0.360138 0.309477
O O17 0.683723 0.104697 0.270272
#
# Coordination Sequence:
#
# PCOD9106634 Si02
#       8
#     2   2   2   2   2   2   2   2
#     4  10  16  34  59  84 108 140 194 236 265 331
#     4   9  15  29  57  83 100 135 190 233 270 306
#     4  10  21  33  57  86 115 143 184 232 278 342
#     4  11  21  36  59  82 114 149 183 237 282 329
#     4  11  20  39  63  82 102 147 206 238 260 319
#     4  10  17  32  62  85 102 141 198 245 260 306
#     4  10  17  35  58  84 110 149 188 226 272 333
#     4  11  24  35  51  87 121 150 178 221 297 342
#
# _framework density 18.51878
#
# number of rings (size 3 to 8) (size 9 to 14) (size 15 to 20)
#    0.000    1.750    6.250    1.875    0.000    1.500 
#    0.000    0.000    5.500    1.500    0.000    0.000 
#    0.000    0.000    0.000    0.000    0.000    0.000 
#
# Total GULP energy -89147.061920 kJ/mol
# GULP energy per Si atom -5571.691370 kJ/mol
# Density = 1.847663 g / cm^3
# Si number density = 18.518780 Si / 1000 Ang^3
#
#
#
# Elastic Constant Matrix: (Units=GPa)
#
#
# Indices 1 2 3 4 5 6 
#
# 1 26.4932 2.7235 8.0485 -4.9817 -1.3470 -1.2114
# 2 2.7235 69.4753 12.4168 4.1542 3.2598 2.6561
# 3 8.0485 12.4168 60.1531 13.5571 -5.9032 -4.7821
# 4 -4.9817 4.1542 13.5571 28.7209 3.4947 4.7480
# 5 -1.3470 3.2598 -5.9032 3.4947 14.4543 0.3465
# 6 -1.2114 2.6561 -4.7821 4.7480 0.3465 27.6386
#
#
#
# Elastic Compliance Matrix: (Units=1/GPa)
#
#
# Indices 1 2 3 4 5 6 
#
# 1 0.042519 -0.000679 -0.008627 0.012091 -0.002293 -0.001612
# 2 -0.000679 0.015413 -0.003883 0.000481 -0.005189 -0.002200
# 3 -0.008627 -0.003883 0.023727 -0.014811 0.013188 0.006479
# 4 0.012091 0.000481 -0.014811 0.047474 -0.016268 -0.010030
# 5 -0.002293 -0.005189 0.013188 -0.016268 0.079352 0.004480
# 6 -0.001612 -0.002200 0.006479 -0.010030 0.004480 0.039110
#
#
# Mechanical properties :
#
#
# Convention : Reuss Voigt Hill
#
# Bulk Modulus (GPa) = 18.08923 22.49991 20.29457
# Shear Modulus (GPa) = 17.09977 23.02496 20.06236
#
# Velocity S-wave (km/s) = 3.04200 3.52991 3.29500
# Velocity P-wave (km/s) = 4.70400 5.36562 5.04567
#
# Compressibility (1/GPa) = 0.05528152
#
# Stress axis : x y z
#
# Youngs Moduli (GPa) = 23.51864 64.87993 42.14534
#
# Poissons Ratio (x) = 0.04403 0.36360
# Poissons Ratio (y) = 0.01596 0.16367
# Poissons Ratio (z) = 0.20290 0.25195
#
# Static dielectric constant tensor:
#      x y z
#    x 1.656300 -0.005760 -0.002730 
#    y -0.005760 1.697620 0.013190 
#    z -0.002730 0.013190 1.672330 
# 
# From -- ./inp_files/432740.got.cif
#   From: 2010.05.17/outbox.cif.g08.bks.cpg/sg2_217_cif.got.tgz:432740.got - 2010.06.03 11:33:40.
