data_PCOD9106537
_publ_section_title
;
Structure prediction by ZEFSAII (Michael W. Deem and Ramdas Pophale) SiO2 
 PCOD9106537
Probable space group: P -1
;
_chemical_formula_sum "Si O2"
_cell_formula_units_Z 12
_cell_length_a 12.054183
_cell_length_b 8.352171
_cell_length_c 8.796279
_cell_angle_alpha 64.400193
_cell_angle_beta 63.355345
_cell_angle_gamma 34.908117
_cell_volume 449.379216
_symmetry_space_group_name_H-M "P -1"
_symmetry_group_IT_number 2
_symmetry_cell_setting 'triclinic'
loop_
_space_group_symop_operation_xyz
x,y,z
-x,-y,-z
loop_
_atom_site_type_symbol
_atom_site_label
_atom_site_fract_x
_atom_site_fract_y
_atom_site_fract_z
Si Si1 0.939608 0.253810 0.994791
Si Si2 0.778891 0.060662 0.534900
Si Si3 0.834452 0.750699 0.379623
Si Si4 0.751095 0.457205 0.545381
Si Si5 0.448763 0.348296 0.083672
Si Si6 0.163745 0.181196 0.092935
O O1 0.047713 0.272542 0.810156
O O2 0.032207 0.155012 0.144992
O O3 0.708377 0.525718 0.002327
O O4 0.000000 0.000000 0.000000
O O5 0.694161 0.345676 0.525951
O O6 0.707345 0.036230 0.436762
O O7 0.765707 0.930679 0.734043
O O8 0.012801 0.828728 0.460900
O O9 0.734385 0.681498 0.406910
O O10 0.000000 0.500000 0.500000
O O11 0.647348 0.581495 0.723062
O O12 0.645660 0.029866 0.043764
O O13 0.500000 0.500000 0.000000
O O14 0.000000 0.500000 0.000000
#
# Coordination Sequence:
#
# PCOD9106537 Si02
#       6
#     2   2   2   2   2   2
#     4  12  24  45  74 107 145 190 238 298 368 432
#     4  10  20  40  72 102 140 191 242 292 368 428
#     4  10  20  40  70 102 142 197 235 287 372 432
#     4  10  20  39  72  98 135 198 234 284 364 439
#     4  12  23  46  72 103 147 197 234 295 381 431
#     4  12  27  44  71 110 143 184 250 306 356 431
#
# _framework density 26.703503000000001
#
# number of rings (size 3 to 8) (size 9 to 14) (size 15 to 20)
#    0.000    1.000    6.667    2.000    2.333    0.667 
#    0.000    3.333    0.000    3.000    0.000    0.000 
#    0.000    0.000    0.000    0.000    0.000    0.000 
#
# Total GULP energy -67070.244729 kJ/mol
# GULP energy per Si atom -5589.187061 kJ/mol
# Density = 2.664272 g / cm^3
# Si number density = 26.703503 Si / 1000 Ang^3
#
#
#
# Elastic Constant Matrix: (Units=GPa)
#
#
# Indices 1 2 3 4 5 6 
#
# 1 79.3114 28.0820 7.2106 15.1384 6.6392 5.9976
# 2 28.0820 177.3367 56.2585 26.1799 -12.3614 16.0491
# 3 7.2106 56.2585 152.6533 1.3961 -21.8633 2.0185
# 4 15.1384 26.1799 1.3961 45.5731 10.8230 -10.5154
# 5 6.6392 -12.3614 -21.8633 10.8230 31.6728 2.7291
# 6 5.9976 16.0491 2.0185 -10.5154 2.7291 65.5863
#
#
#
# Elastic Compliance Matrix: (Units=1/GPa)
#
#
# Indices 1 2 3 4 5 6 
#
# 1 0.014212 -0.001690 -0.000374 -0.003421 -0.002615 -0.001314
# 2 -0.001690 0.007956 -0.002178 -0.005558 0.004095 -0.002787
# 3 -0.000374 -0.002178 0.008052 0.000026 0.004767 0.000125
# 4 -0.003421 -0.005558 0.000026 0.030918 -0.012616 0.007154
# 5 -0.002615 0.004095 0.004767 -0.012616 0.041723 -0.004668
# 6 -0.001314 -0.002787 0.000125 0.007154 -0.004668 0.017387
#
#
# Mechanical properties :
#
#
# Convention : Reuss Voigt Hill
#
# Bulk Modulus (GPa) = 46.00859 65.82262 55.91561
# Shear Modulus (GPa) = 36.77096 49.74980 43.26038
#
# Velocity S-wave (km/s) = 3.71483 4.32098 4.02932
# Velocity P-wave (km/s) = 5.97217 7.04255 6.52933
#
# Compressibility (1/GPa) = 0.02173507
#
# Stress axis : x y z
#
# Youngs Moduli (GPa) = 70.36196 125.69669 124.19282
#
# Poissons Ratio (x) = 0.21245 0.04648
# Poissons Ratio (y) = 0.11892 0.27049
# Poissons Ratio (z) = 0.02634 0.27376
#
# Static dielectric constant tensor:
#      x y z
#    x 2.279910 0.045780 0.038590 
#    y 0.045780 2.253510 -0.028280 
#    z 0.038590 -0.028280 2.005690 
# 
# From -- ./inp_files/459746.got.cif
#   From: 2010.05.17/outbox.cif.g08.bks.cpg/sg2_230_cif.got.tgz:459746.got - 2010.06.03 11:33:40.
