data_PCOD9106502
_publ_section_title
;
Structure prediction by ZEFSAII (Michael W. Deem and Ramdas Pophale) SiO2 
 PCOD9106502
Probable space group: P -1
;
_chemical_formula_sum "Si O2"
_cell_formula_units_Z 16
_cell_length_a 8.170012
_cell_length_b 14.104003
_cell_length_c 14.447289
_cell_angle_alpha 132.465420
_cell_angle_beta 30.354613
_cell_angle_gamma 129.704523
_cell_volume 613.502516
_symmetry_space_group_name_H-M "P -1"
_symmetry_group_IT_number 2
_symmetry_cell_setting 'triclinic'
loop_
_space_group_symop_operation_xyz
x,y,z
-x,-y,-z
loop_
_atom_site_type_symbol
_atom_site_label
_atom_site_fract_x
_atom_site_fract_y
_atom_site_fract_z
Si Si1 0.185784 0.817203 0.549966
Si Si2 0.879954 0.531529 0.444778
Si Si3 0.523126 0.565396 0.819531
Si Si4 0.509361 0.851636 0.949356
Si Si5 0.596435 0.837722 0.544850
Si Si6 0.496046 0.880160 0.256657
Si Si7 0.241148 0.893156 0.922451
Si Si8 0.048301 0.631312 0.229950
O O1 0.045422 0.673644 0.491199
O O2 0.332756 0.813085 0.576138
O O3 0.453919 0.874786 0.384260
O O4 0.867314 0.887707 0.750244
O O5 0.157144 0.446329 0.282607
O O6 0.863286 0.551279 0.354715
O O7 0.581612 0.503678 0.648119
O O8 0.508168 0.715001 0.905416
O O9 0.203806 0.533787 0.020565
O O10 0.244677 0.841008 0.990790
O O11 0.530680 0.966236 0.087810
O O12 0.422413 0.807897 0.709063
O O13 0.850375 0.736645 0.346871
O O14 0.679879 0.995700 0.602754
O O15 0.336900 0.738573 0.204597
O O16 0.883266 0.903407 0.066173
#
# Coordination Sequence:
#
# PCOD9106502 Si02
#       8
#     2   2   2   2   2   2   2   2
#     4  10  22  39  59  87 124 157 199 252 301 354
#     4   9  21  42  64  91 116 157 205 262 298 352
#     4  10  20  39  71  85 116 161 209 244 313 351
#     4  10  22  39  62  88 120 162 197 247 304 360
#     4  12  23  37  57  91 127 160 198 245 298 364
#     4  11  23  38  58  90 123 164 197 244 299 365
#     4  11  23  37  61  89 126 156 203 245 297 363
#     4  11  24  39  63  92 125 157 205 248 303 361
#
# _framework density 26.079761000000001
#
# number of rings (size 3 to 8) (size 9 to 14) (size 15 to 20)
#    0.000    1.500    1.250    4.500    5.250    1.000 
#    0.000    0.625    2.750    4.500    0.000    0.000 
#    0.000    0.000    0.000    0.000    0.000    0.000 
#
# Total GULP energy -89421.672293 kJ/mol
# GULP energy per Si atom -5588.854518 kJ/mol
# Density = 2.602040 g / cm^3
# Si number density = 26.079761 Si / 1000 Ang^3
#
#
#
# Elastic Constant Matrix: (Units=GPa)
#
#
# Indices 1 2 3 4 5 6 
#
# 1 101.4664 16.1338 44.5133 -3.5984 0.6923 -15.8325
# 2 16.1338 48.7440 39.5551 -7.1606 13.1128 -27.6421
# 3 44.5133 39.5551 145.8950 -0.4124 -1.9656 -8.2044
# 4 -3.5984 -7.1606 -0.4124 32.5161 -8.0436 -9.2568
# 5 0.6923 13.1128 -1.9656 -8.0436 38.0081 7.5631
# 6 -15.8325 -27.6421 -8.2044 -9.2568 7.5631 28.3522
#
#
#
# Elastic Compliance Matrix: (Units=1/GPa)
#
#
# Indices 1 2 3 4 5 6 
#
# 1 0.005806 -0.038828 0.006562 -0.015323 0.018895 -0.042757
# 2 -0.038828 -0.220381 0.056821 -0.104955 0.114140 -0.284816
# 3 0.006562 0.056821 -0.006726 0.026942 -0.029025 0.073655
# 4 -0.015323 -0.104955 0.026942 -0.014183 0.059471 -0.123581
# 5 0.018895 0.114140 -0.029025 0.059471 -0.030375 0.140953
# 6 -0.042757 -0.284816 0.073655 -0.123581 0.140953 -0.322923
#
#
# Mechanical properties :
#
#
# Convention : Reuss Voigt Hill
#
# Bulk Modulus (GPa) = -5.80752 55.16777 24.68013
# Shear Modulus (GPa) = -7.19125 32.83550 12.82212
#
# Velocity S-wave (km/s) = -1.66235 3.55215 2.21972
# Velocity P-wave (km/s) = 2.43232 6.16628 4.00667
#
# Compressibility (1/GPa) = -0.17219042
#
# Stress axis : x y z
#
# Youngs Moduli (GPa) = 172.22123 -4.53759 -148.67267
#
# Poissons Ratio (x) = -0.17619 0.97563
# Poissons Ratio (y) = 6.68700 8.44773
# Poissons Ratio (z) = -1.13016 0.25783
#
# Static dielectric constant tensor:
#      x y z
#    x 2.017080 -0.005000 0.051680 
#    y -0.005000 2.069570 -0.050630 
#    z 0.051680 -0.050630 2.110900 
# 
# From -- ./inp_files/214596.got.cif
#   From: 2010.05.17/outbox.cif.g08.bks.cpg/sg2_108_cif.got.tgz:214596.got - 2010.06.03 11:33:40.
