data_PCOD9106293
_publ_section_title
;
Structure prediction by ZEFSAII (Michael W. Deem and Ramdas Pophale) SiO2 
 PCOD9106293
Probable space group: P -1
;
_chemical_formula_sum "Si O2"
_cell_formula_units_Z 16
_cell_length_a 5.826844
_cell_length_b 13.959352
_cell_length_c 18.041532
_cell_angle_alpha 30.011971
_cell_angle_beta 106.802318
_cell_angle_gamma 95.515450
_cell_volume 665.236764
_symmetry_space_group_name_H-M "P -1"
_symmetry_group_IT_number 2
_symmetry_cell_setting 'triclinic'
loop_
_space_group_symop_operation_xyz
x,y,z
-x,-y,-z
loop_
_atom_site_type_symbol
_atom_site_label
_atom_site_fract_x
_atom_site_fract_y
_atom_site_fract_z
Si Si1 0.823115 0.361858 0.280093
Si Si2 0.292705 0.810619 0.478079
Si Si3 0.772388 0.436614 0.781537
Si Si4 0.190353 0.613722 0.905742
Si Si5 0.142964 0.795969 0.189367
Si Si6 0.983279 0.555077 0.546711
Si Si7 0.448843 0.890938 0.288710
Si Si8 0.661403 0.243791 0.036698
O O1 0.832952 0.174770 0.461016
O O2 0.905131 0.313688 0.234508
O O3 0.982394 0.491810 0.245343
O O4 0.548286 0.533688 0.132296
O O5 0.563683 0.652655 0.629762
O O6 0.347152 0.950400 0.323793
O O7 0.148858 0.686994 0.500012
O O8 0.678192 0.339819 0.766542
O O9 0.817547 0.267479 0.963482
O O10 0.184898 0.780050 0.856190
O O11 0.500000 0.500000 0.000000
O O12 0.000000 0.500000 0.000000
O O13 0.952076 0.668177 0.265160
O O14 0.265150 0.831033 0.253762
O O15 0.000000 0.000000 0.000000
O O16 0.697564 0.692747 0.448062
O O17 0.000000 0.500000 0.500000
O O18 0.534293 0.069814 0.140795
#
# Coordination Sequence:
#
# PCOD9106293 Si02
#       8
#     2   2   2   2   2   2   2   2
#     4  10  20  39  68  97 125 169 224 277 329 402
#     4  11  22  40  64  87 128 174 222 260 336 405
#     4  11  21  39  62  91 126 166 221 273 325 398
#     4  10  20  41  69 104 138 176 224 287 349 409
#     4  12  25  39  62  93 127 166 225 276 323 391
#     4  12  24  42  62  88 128 182 221 265 336 401
#     4  12  25  43  61  93 137 175 218 272 341 403
#     4  10  24  38  64  98 129 170 219 279 341 400
#
# _framework density 24.051589
#
# number of rings (size 3 to 8) (size 9 to 14) (size 15 to 20)
#    0.000    1.000    5.000    1.875    3.500    1.500 
#    0.000    0.625    0.000    3.000    0.000    0.000 
#    0.000    0.000    0.000    0.000    0.000    0.000 
#
# Total GULP energy -89120.421330 kJ/mol
# GULP energy per Si atom -5570.026333 kJ/mol
# Density = 2.399685 g / cm^3
# Si number density = 24.051589 Si / 1000 Ang^3
#
#
#
# Elastic Constant Matrix: (Units=GPa)
#
#
# Indices 1 2 3 4 5 6 
#
# 1 73.5189 12.2496 13.0086 9.6573 -12.1789 -6.6577
# 2 12.2496 91.5060 3.1053 35.3267 -10.0063 -6.0491
# 3 13.0086 3.1053 76.6131 17.3342 -19.6596 -12.8676
# 4 9.6573 35.3267 17.3342 43.2093 -6.9506 -6.6768
# 5 -12.1789 -10.0063 -19.6596 -6.9506 39.3590 9.7663
# 6 -6.6577 -6.0491 -12.8676 -6.6768 9.7663 34.5072
#
#
#
# Elastic Compliance Matrix: (Units=1/GPa)
#
#
# Indices 1 2 3 4 5 6 
#
# 1 0.014782 -0.000998 -0.001155 -0.001338 0.003242 0.001070
# 2 -0.000998 0.016902 0.003641 -0.014483 0.003141 0.000437
# 3 -0.001155 0.003641 0.017255 -0.008008 0.006945 0.003335
# 4 -0.001338 -0.014483 -0.008008 0.038540 -0.001834 0.002193
# 5 0.003242 0.003141 0.006945 -0.001834 0.031736 -0.005571
# 6 0.001070 0.000437 0.003335 0.002193 -0.005571 0.032507
#
#
# Mechanical properties :
#
#
# Convention : Reuss Voigt Hill
#
# Bulk Modulus (GPa) = 19.26260 33.15166 26.20713
# Shear Modulus (GPa) = 30.11087 37.63340 33.87213
#
# Velocity S-wave (km/s) = 3.54210 3.95991 3.75682
# Velocity P-wave (km/s) = 4.97543 5.89248 5.45327
#
# Compressibility (1/GPa) = 0.05191407
#
# Stress axis : x y z
#
# Youngs Moduli (GPa) = 67.64869 59.16446 57.95290
#
# Poissons Ratio (x) = 0.05905 0.06696
# Poissons Ratio (y) = 0.06752 -0.21098
# Poissons Ratio (z) = 0.07816 -0.21539
#
# Static dielectric constant tensor:
#      x y z
#    x 1.694880 0.001130 0.046650 
#    y 0.001130 1.934990 0.012560 
#    z 0.046650 0.012560 1.920110 
# 
# From -- ./inp_files/39207.got.cif
#   From: 2010.05.17/outbox.cif.g08.bks.cpg/sg2_20_cif.got.tgz:39207.got - 2010.06.03 11:33:40.
