data_PCOD9106694
_publ_section_title
;
Structure prediction by ZEFSAII (Michael W. Deem and Ramdas Pophale) SiO2 
 PCOD9106694
Probable space group: P -1
;
_chemical_formula_sum "Si O2"
_cell_formula_units_Z 14
_cell_length_a 8.177075
_cell_length_b 8.897812
_cell_length_c 23.515828
_cell_angle_alpha 152.591804
_cell_angle_beta 63.885864
_cell_angle_gamma 118.999056
_cell_volume 688.656537
_symmetry_space_group_name_H-M "P -1"
_symmetry_group_IT_number 2
_symmetry_cell_setting 'triclinic'
loop_
_space_group_symop_operation_xyz
x,y,z
-x,-y,-z
loop_
_atom_site_type_symbol
_atom_site_label
_atom_site_fract_x
_atom_site_fract_y
_atom_site_fract_z
Si Si1 0.947379 0.680709 0.442207
Si Si2 0.721502 0.812890 0.625060
Si Si3 0.949709 0.523298 0.951154
Si Si4 0.165296 0.777443 0.799792
Si Si5 0.114959 0.276226 0.741952
Si Si6 0.439436 0.831250 0.144711
Si Si7 0.327638 0.821359 0.505111
O O1 0.770908 0.714381 0.520448
O O2 0.894404 0.367587 0.302368
O O3 0.136038 0.693606 0.454509
O O4 0.000000 0.000000 0.500000
O O5 0.641504 0.483727 0.563835
O O6 0.931861 0.975508 0.668406
O O7 0.286486 0.109079 0.649487
O O8 0.765116 0.227859 0.870535
O O9 0.109411 0.471258 0.866350
O O10 0.000000 0.500000 0.000000
O O11 0.903310 0.881663 0.065847
O O12 0.093493 0.508178 0.769327
O O13 0.390480 0.873008 0.801051
O O14 0.601692 0.084512 0.754273
O O15 0.500000 0.500000 0.000000
O O16 0.500000 0.000000 0.500000
#
# Coordination Sequence:
#
# PCOD9106694 Si02
#       7
#     2   2   2   2   2   2   2
#     4  11  22  39  60  94 122 156 210 240 300 373
#     4  10  21  37  65  86 124 162 197 251 308 355
#     4  10  23  39  64  89 115 160 211 248 297 358
#     4  11  21  39  64  85 125 161 199 250 300 363
#     4  10  20  40  60  87 121 163 197 244 311 361
#     4   9  21  41  59  86 121 157 201 246 302 352
#     4  11  23  40  61  88 126 160 197 255 307 356
#
# _framework density 20.329435
#
# number of rings (size 3 to 8) (size 9 to 14) (size 15 to 20)
#    0.000    1.714    2.857    3.000    6.000    0.571 
#    0.000    0.714    0.000    0.000    0.000    0.000 
#    0.000    0.000    0.000    0.000    0.000    0.000 
#
# Total GULP energy -77985.615179 kJ/mol
# GULP energy per Si atom -5570.401084 kJ/mol
# Density = 2.028316 g / cm^3
# Si number density = 20.329435 Si / 1000 Ang^3
#
#
#
# Elastic Constant Matrix: (Units=GPa)
#
#
# Indices 1 2 3 4 5 6 
#
# 1 41.8369 21.8184 33.6435 -6.2729 5.5284 4.5594
# 2 21.8184 121.8153 60.9905 -15.1610 -8.0440 7.7608
# 3 33.6435 60.9905 161.5189 -36.2409 -7.5346 6.3694
# 4 -6.2729 -15.1610 -36.2409 40.5809 3.7149 -0.8784
# 5 5.5284 -8.0440 -7.5346 3.7149 34.4203 -3.0303
# 6 4.5594 7.7608 6.3694 -0.8784 -3.0303 27.7636
#
#
#
# Elastic Compliance Matrix: (Units=1/GPa)
#
#
# Indices 1 2 3 4 5 6 
#
# 1 0.031382 -0.003085 -0.005753 -0.000857 -0.007262 -0.003791
# 2 -0.003085 0.010608 -0.003094 0.000498 0.002111 -0.001503
# 3 -0.005753 -0.003094 0.010189 0.006898 0.001676 -0.000127
# 4 -0.000857 0.000498 0.006898 0.030990 -0.001650 -0.000780
# 5 -0.007262 0.002111 0.001676 -0.001650 0.031575 0.003612
# 6 -0.003791 -0.001503 -0.000127 -0.000780 0.003612 0.037460
#
#
# Mechanical properties :
#
#
# Convention : Reuss Voigt Hill
#
# Bulk Modulus (GPa) = 35.31734 62.00844 48.66289
# Shear Modulus (GPa) = 26.95348 34.46755 30.71052
#
# Velocity S-wave (km/s) = 3.64515 4.12205 3.89092
# Velocity P-wave (km/s) = 5.92675 7.29542 6.64641
#
# Compressibility (1/GPa) = 0.02831471
#
# Stress axis : x y z
#
# Youngs Moduli (GPa) = 31.86535 94.27155 98.14896
#
# Poissons Ratio (x) = 0.29082 0.56468
# Poissons Ratio (y) = 0.09830 0.30363
# Poissons Ratio (z) = 0.18333 0.29163
#
# Static dielectric constant tensor:
#      x y z
#    x 1.729340 0.007040 -0.008740 
#    y 0.007040 1.723410 -0.007330 
#    z -0.008740 -0.007330 1.830680 
# 
# From -- ./inp_files/588263.got.cif
#   From: 2010.05.17/outbox.cif.g08.bks.cpg/sg2_295_cif.got.tgz:588263.got - 2010.06.03 11:33:40.
