data_PCOD9106419
_publ_section_title
;
Structure prediction by ZEFSAII (Michael W. Deem and Ramdas Pophale) SiO2 
 PCOD9106419
Probable space group: P -1
;
_chemical_formula_sum "Si O2"
_cell_formula_units_Z 16
_cell_length_a 5.358288
_cell_length_b 29.846181
_cell_length_c 8.640643
_cell_angle_alpha 32.150596
_cell_angle_beta 61.235778
_cell_angle_gamma 71.835853
_cell_volume 630.906887
_symmetry_space_group_name_H-M "P -1"
_symmetry_group_IT_number 2
_symmetry_cell_setting 'triclinic'
loop_
_space_group_symop_operation_xyz
x,y,z
-x,-y,-z
loop_
_atom_site_type_symbol
_atom_site_label
_atom_site_fract_x
_atom_site_fract_y
_atom_site_fract_z
Si Si1 0.548064 0.815992 0.500590
Si Si2 0.488074 0.286027 0.487899
Si Si3 0.898820 0.979194 0.418699
Si Si4 0.072982 0.907263 0.289320
Si Si5 0.105491 0.738442 0.109737
Si Si6 0.672266 0.485053 0.832958
Si Si7 0.276898 0.855359 0.001331
Si Si8 0.804450 0.444232 0.355753
O O1 0.645527 0.758976 0.500787
O O2 0.793112 0.842039 0.487047
O O3 0.400167 0.887265 0.242917
O O4 0.262282 0.761136 0.833215
O O5 0.242642 0.286362 0.691879
O O6 0.694034 0.224910 0.667641
O O7 0.640574 0.383409 0.124689
O O8 0.065073 0.921766 0.435665
O O9 0.584173 0.918714 0.698630
O O10 0.898884 0.076429 0.073728
O O11 0.000000 0.000000 0.500000
O O12 0.000000 0.000000 0.000000
O O13 0.220398 0.655613 0.380051
O O14 0.184125 0.817217 0.974052
O O15 0.497699 0.525911 0.637423
O O16 0.001314 0.533705 0.614242
O O17 0.500000 0.500000 0.000000
O O18 0.000000 0.500000 0.000000
#
# Coordination Sequence:
#
# PCOD9106419 Si02
#       8
#     2   2   2   2   2   2   2   2
#     4  12  30  48  68 115 139 189 250 295 368 430
#     4  12  26  43  76 101 145 190 241 297 366 435
#     4  11  24  42  67 101 138 185 248 291 356 435
#     4  12  27  50  70  97 155 190 238 311 359 424
#     4  12  25  46  74 102 151 188 236 313 358 424
#     4  10  20  40  66 105 135 180 238 284 345 441
#     4  11  23  40  69 101 133 187 242 293 359 424
#     4  10  20  39  70 101 137 187 233 280 365 428
#
# _framework density 25.360320999999999
#
# number of rings (size 3 to 8) (size 9 to 14) (size 15 to 20)
#    0.000    0.750    3.750    4.875    7.000    0.000 
#    0.000    1.250    0.000    0.000    0.000    0.000 
#    0.000    0.000    0.000    0.000    0.000    0.000 
#
# Total GULP energy -89397.151176 kJ/mol
# GULP energy per Si atom -5587.321949 kJ/mol
# Density = 2.530260 g / cm^3
# Si number density = 25.360321 Si / 1000 Ang^3
#
#
#
# Elastic Constant Matrix: (Units=GPa)
#
#
# Indices 1 2 3 4 5 6 
#
# 1 149.6888 24.5420 29.5160 -23.7904 13.7525 7.9965
# 2 24.5420 94.7533 40.6712 -19.7568 0.8545 -3.8452
# 3 29.5160 40.6712 85.1420 -28.2908 16.2056 -5.5335
# 4 -23.7904 -19.7568 -28.2908 48.7265 -5.5944 -4.5791
# 5 13.7525 0.8545 16.2056 -5.5944 37.2127 -11.7757
# 6 7.9965 -3.8452 -5.5335 -4.5791 -11.7757 36.2879
#
#
#
# Elastic Compliance Matrix: (Units=1/GPa)
#
#
# Indices 1 2 3 4 5 6 
#
# 1 0.007841 -0.001223 -0.001038 0.002137 -0.002952 -0.002704
# 2 -0.001223 0.014019 -0.006127 0.002195 0.003874 0.002355
# 3 -0.001038 -0.006127 0.018706 0.007300 -0.006089 0.001377
# 4 0.002137 0.002195 0.007300 0.027337 0.001626 0.004852
# 5 -0.002952 0.003874 -0.006089 0.001626 0.034411 0.011504
# 6 -0.002704 0.002355 0.001377 0.004852 0.011504 0.032958
#
#
# Mechanical properties :
#
#
# Convention : Reuss Voigt Hill
#
# Bulk Modulus (GPa) = 42.03586 57.67141 49.85364
# Shear Modulus (GPa) = 31.25413 40.10243 35.67828
#
# Velocity S-wave (km/s) = 3.51437 3.98088 3.75488
# Velocity P-wave (km/s) = 5.75145 6.62722 6.20480
#
# Compressibility (1/GPa) = 0.02378921
#
# Stress axis : x y z
#
# Youngs Moduli (GPa) = 127.53527 71.33179 53.45910
#
# Poissons Ratio (x) = 0.08724 0.05548
# Poissons Ratio (y) = 0.15597 0.32757
# Poissons Ratio (z) = 0.13236 0.43708
#
# Static dielectric constant tensor:
#      x y z
#    x 2.075720 0.041770 0.031210 
#    y 0.041770 2.123400 0.139080 
#    z 0.031210 0.139080 2.029240 
# 
# From -- ./inp_files/90938.got.cif
#   From: 2010.05.17/outbox.cif.g08.bks.cpg/sg2_46_cif.got.tgz:90938.got - 2010.06.03 11:33:40.
