data_PCOD9106841
_publ_section_title
;
Structure prediction by ZEFSAII (Michael W. Deem and Ramdas Pophale) SiO2 
 PCOD9106841
Probable space group: P -1
;
_chemical_formula_sum "Si O2"
_cell_formula_units_Z 14
_cell_length_a 24.744632
_cell_length_b 7.030805
_cell_length_c 5.380599
_cell_angle_alpha 73.219776
_cell_angle_beta 83.922243
_cell_angle_gamma 44.659463
_cell_volume 623.031537
_symmetry_space_group_name_H-M "P -1"
_symmetry_group_IT_number 2
_symmetry_cell_setting 'triclinic'
loop_
_space_group_symop_operation_xyz
x,y,z
-x,-y,-z
loop_
_atom_site_type_symbol
_atom_site_label
_atom_site_fract_x
_atom_site_fract_y
_atom_site_fract_z
Si Si1 0.992803 0.647296 0.199101
Si Si2 0.757029 0.689971 0.251942
Si Si3 0.588488 0.181079 0.278413
Si Si4 0.181748 0.748122 0.969797
Si Si5 0.737740 0.136288 0.773428
Si Si6 0.429532 0.515225 0.331750
Si Si7 0.849237 0.588307 0.647150
O O1 0.066403 0.599770 0.209408
O O2 0.000000 0.500000 0.500000
O O3 0.908030 0.963858 0.127074
O O4 0.000000 0.500000 0.000000
O O5 0.774858 0.425578 0.238142
O O6 0.837546 0.566725 0.373525
O O7 0.677605 0.879620 0.376802
O O8 0.736220 0.927288 0.992440
O O9 0.517705 0.212454 0.351207
O O10 0.575553 0.374737 0.432755
O O11 0.578844 0.301182 0.961055
O O12 0.223034 0.805055 0.092367
O O13 0.183821 0.529713 0.184426
O O14 0.647359 0.419561 0.664597
O O15 0.795321 0.921982 0.601217
#
# Coordination Sequence:
#
# PCOD9106841 Si02
#       7
#     2   2   2   2   2   2   2
#     4  12  27  46  70  93 126 167 210 260 316 380
#     4  10  22  38  63  92 124 170 208 264 306 379
#     4   9  17  33  58  90 123 160 212 252 307 364
#     4  11  25  41  64  94 127 164 211 261 317 372
#     4  10  20  40  61  91 125 168 212 255 313 373
#     4   9  17  32  60  89 120 167 206 254 305 368
#     4  11  23  41  66  90 128 164 210 257 318 373
#
# _framework density 22.470773000000001
#
# number of rings (size 3 to 8) (size 9 to 14) (size 15 to 20)
#    0.000    1.714    2.857    1.286    4.000    1.714 
#    0.000    0.714    0.000    0.857    0.000    0.000 
#    0.000    0.000    0.000    0.000    0.000    0.000 
#
# Total GULP energy -77984.783382 kJ/mol
# GULP energy per Si atom -5570.341670 kJ/mol
# Density = 2.241963 g / cm^3
# Si number density = 22.470773 Si / 1000 Ang^3
#
#
#
# Elastic Constant Matrix: (Units=GPa)
#
#
# Indices 1 2 3 4 5 6 
#
# 1 119.0682 57.5574 11.2107 -0.3976 29.2977 -14.1366
# 2 57.5574 102.8025 18.1325 15.8723 10.0468 -2.2044
# 3 11.2107 18.1325 69.5492 8.7322 16.4658 6.0736
# 4 -0.3976 15.8723 8.7322 26.5883 -4.3319 5.9093
# 5 29.2977 10.0468 16.4658 -4.3319 30.4489 -4.4622
# 6 -14.1366 -2.2044 6.0736 5.9093 -4.4622 35.2572
#
#
#
# Elastic Compliance Matrix: (Units=1/GPa)
#
#
# Indices 1 2 3 4 5 6 
#
# 1 0.015674 -0.008043 0.002119 0.001459 -0.012846 0.003546
# 2 -0.008043 0.015656 -0.002374 -0.008225 0.002669 -0.000121
# 3 0.002119 -0.002374 0.018691 -0.006065 -0.012681 -0.003107
# 4 0.001459 -0.008225 -0.006065 0.047475 0.010537 -0.005508
# 5 -0.012846 0.002669 -0.012681 0.010537 0.052992 0.002141
# 6 0.003546 -0.000121 -0.003107 -0.005508 0.002141 0.031507
#
#
# Mechanical properties :
#
#
# Convention : Reuss Voigt Hill
#
# Bulk Modulus (GPa) = 29.91843 51.69124 40.80483
# Shear Modulus (GPa) = 23.84001 32.09350 27.96676
#
# Velocity S-wave (km/s) = 3.26073 3.78330 3.53169
# Velocity P-wave (km/s) = 5.24593 6.49139 5.90161
#
# Compressibility (1/GPa) = 0.03342421
#
# Stress axis : x y z
#
# Youngs Moduli (GPa) = 63.80090 63.87458 53.50233
#
# Poissons Ratio (x) = 0.51374 -0.11337
# Poissons Ratio (y) = 0.51315 0.12701
# Poissons Ratio (z) = -0.13519 0.15163
#
# Static dielectric constant tensor:
#      x y z
#    x 2.361910 -0.303520 0.332650 
#    y -0.303520 1.950370 -0.110590 
#    z 0.332650 -0.110590 2.461760 
# 
# From -- ./inp_files/6529.got.cif
#   From: 2010.05.17/outbox.cif.g08.bks.cpg/sg2_4_cif.got.tgz:6529.got - 2010.06.03 11:33:40.
