data_PCOD9106779
_publ_section_title
;
Structure prediction by ZEFSAII (Michael W. Deem and Ramdas Pophale) SiO2 
 PCOD9106779
Probable space group: P -1
;
_chemical_formula_sum "Si O2"
_cell_formula_units_Z 16
_cell_length_a 6.210609
_cell_length_b 11.625119
_cell_length_c 14.973183
_cell_angle_alpha 86.751523
_cell_angle_beta 61.007552
_cell_angle_gamma 118.714426
_cell_volume 767.957919
_symmetry_space_group_name_H-M "P -1"
_symmetry_group_IT_number 2
_symmetry_cell_setting 'triclinic'
loop_
_space_group_symop_operation_xyz
x,y,z
-x,-y,-z
loop_
_atom_site_type_symbol
_atom_site_label
_atom_site_fract_x
_atom_site_fract_y
_atom_site_fract_z
Si Si1 0.848784 0.649779 0.756932
Si Si2 0.304833 0.068502 0.817038
Si Si3 0.202447 0.720636 0.415179
Si Si4 0.438364 0.855432 0.738180
Si Si5 0.219371 0.233633 0.418444
Si Si6 0.324772 0.645943 0.931371
Si Si7 0.823482 0.447192 0.396731
Si Si8 0.604343 0.895838 0.996431
O O1 0.787749 0.692254 0.672702
O O2 0.573878 0.612089 0.876438
O O3 0.154480 0.783633 0.731542
O O4 0.928298 0.540351 0.721154
O O5 0.478300 0.189705 0.702734
O O6 0.446210 0.979777 0.779237
O O7 0.371894 0.123803 0.902311
O O8 0.942177 0.971473 0.884357
O O9 0.211725 0.643434 0.504564
O O10 0.082516 0.812663 0.466645
O O11 0.955033 0.601143 0.401761
O O12 0.713895 0.876861 0.624696
O O13 0.365395 0.740591 0.833525
O O14 0.507425 0.355016 0.412653
O O15 0.387085 0.746117 0.997960
O O16 0.000000 0.500000 0.000000
O O17 0.500000 0.000000 0.000000
#
# Coordination Sequence:
#
# PCOD9106779 Si02
#       8
#     2   2   2   2   2   2   2   2
#     4   9  19  37  59  85 122 155 196 257 309 359
#     4  11  24  40  64  87 124 172 206 252 318 370
#     4  10  21  37  61  92 121 164 207 249 310 376
#     4  10  20  40  61  86 124 160 197 261 309 364
#     4   9  19  36  62  88 122 157 197 254 308 363
#     4  11  23  39  65  92 118 164 213 259 313 368
#     4   9  19  38  59  89 129 157 200 260 306 366
#     4  11  24  44  62  89 130 162 210 264 308 369
#
# _framework density 20.834475999999999
#
# number of rings (size 3 to 8) (size 9 to 14) (size 15 to 20)
#    0.000    2.000    2.500    0.375    0.000    6.000 
#    0.000    5.625    0.000    0.000    0.000    0.000 
#    0.000    0.000    0.000    0.000    0.000    0.000 
#
# Total GULP energy -89272.832430 kJ/mol
# GULP energy per Si atom -5579.552027 kJ/mol
# Density = 2.078706 g / cm^3
# Si number density = 20.834476 Si / 1000 Ang^3
#
#
#
# Elastic Constant Matrix: (Units=GPa)
#
#
# Indices 1 2 3 4 5 6 
#
# 1 51.6028 11.1549 8.0013 11.7341 -8.3556 7.8770
# 2 11.1549 90.7194 45.5638 19.7188 -1.9408 3.5671
# 3 8.0013 45.5638 83.9743 12.8463 -28.3736 -7.1377
# 4 11.7341 19.7188 12.8463 28.9454 -1.1442 1.3355
# 5 -8.3556 -1.9408 -28.3736 -1.1442 32.4710 15.0995
# 6 7.8770 3.5671 -7.1377 1.3355 15.0995 28.0159
#
#
#
# Elastic Compliance Matrix: (Units=1/GPa)
#
#
# Indices 1 2 3 4 5 6 
#
# 1 0.026570 -0.002809 0.005257 -0.009796 0.017862 -0.014934
# 2 -0.002809 0.018943 -0.012874 -0.006609 -0.011930 0.001843
# 3 0.005257 -0.012874 0.028051 -0.004314 0.028622 -0.007913
# 4 -0.009796 -0.006609 -0.004314 0.044464 -0.007064 0.004184
# 5 0.017862 -0.011930 0.028622 -0.007064 0.076762 -0.037246
# 6 -0.014934 0.001843 -0.007913 0.004184 -0.037246 0.057517
#
#
# Mechanical properties :
#
#
# Convention : Reuss Voigt Hill
#
# Bulk Modulus (GPa) = 18.97073 39.52626 29.24850
# Shear Modulus (GPa) = 17.19812 28.65823 22.92817
#
# Velocity S-wave (km/s) = 2.87621 3.71282 3.32097
# Velocity P-wave (km/s) = 4.48947 6.11497 5.36415
#
# Compressibility (1/GPa) = 0.05271278
#
# Stress axis : x y z
#
# Youngs Moduli (GPa) = 37.63616 52.78929 35.64913
#
# Poissons Ratio (x) = 0.14827 -0.18740
# Poissons Ratio (y) = 0.10571 0.45895
# Poissons Ratio (z) = -0.19785 0.67961
#
# Static dielectric constant tensor:
#      x y z
#    x 1.740120 -0.025740 -0.015250 
#    y -0.025740 1.738340 0.030360 
#    z -0.015250 0.030360 1.759210 
# 
# From -- ./inp_files/77090.got.cif
#   From: 2010.05.17/outbox.cif.g08.bks.cpg/sg2_39_cif.got.tgz:77090.got - 2010.06.03 11:33:40.
