data_PCOD9106809
_publ_section_title
;
Structure prediction by ZEFSAII (Michael W. Deem and Ramdas Pophale) SiO2 
 PCOD9106809
Probable space group: P -1
;
_chemical_formula_sum "Si O2"
_cell_formula_units_Z 16
_cell_length_a 8.587066
_cell_length_b 14.279682
_cell_length_c 7.929693
_cell_angle_alpha 80.074222
_cell_angle_beta 52.316094
_cell_angle_gamma 71.041374
_cell_volume 727.317771
_symmetry_space_group_name_H-M "P -1"
_symmetry_group_IT_number 2
_symmetry_cell_setting 'triclinic'
loop_
_space_group_symop_operation_xyz
x,y,z
-x,-y,-z
loop_
_atom_site_type_symbol
_atom_site_label
_atom_site_fract_x
_atom_site_fract_y
_atom_site_fract_z
Si Si1 0.320577 0.304897 0.851135
Si Si2 0.918600 0.963557 0.892474
Si Si3 0.455110 0.490214 0.733185
Si Si4 0.885966 0.408173 0.508109
Si Si5 0.955133 0.427945 0.819889
Si Si6 0.966926 0.783184 0.708703
Si Si7 0.824001 0.922638 0.448096
Si Si8 0.576539 0.898512 0.301255
O O1 0.438867 0.380071 0.812973
O O2 0.449860 0.205973 0.704462
O O3 0.147227 0.372522 0.822587
O O4 0.201584 0.261529 0.082599
O O5 0.032135 0.853776 0.780415
O O6 0.691621 0.953663 0.075857
O O7 0.965290 0.045461 0.715125
O O8 0.000000 0.000000 0.000000
O O9 0.500000 0.500000 0.500000
O O10 0.671913 0.490677 0.666116
O O11 0.250321 0.558830 0.935267
O O12 0.965936 0.371936 0.652059
O O13 0.014603 0.466765 0.294998
O O14 0.869698 0.313857 0.441393
O O15 0.856108 0.853614 0.609130
O O16 0.741343 0.876251 0.353880
O O17 0.641492 0.024746 0.545847
#
# Coordination Sequence:
#
# PCOD9106809 Si02
#       8
#     2   2   2   2   2   2   2   2
#     4  11  22  40  64  92 127 165 213 261 317 378
#     4   9  20  38  59  86 121 158 202 256 310 367
#     4  12  23  41  66  94 125 169 217 259 320 382
#     4  11  24  41  66  94 127 168 214 266 317 382
#     4  11  23  45  63  90 133 167 208 271 327 370
#     4  11  22  39  65  92 126 167 211 257 314 380
#     4  10  20  40  61  89 120 164 206 254 317 370
#     4   9  21  39  62  86 123 161 204 258 312 373
#
# _framework density 21.998638
#
# number of rings (size 3 to 8) (size 9 to 14) (size 15 to 20)
#    0.000    1.500    2.500    2.625    1.750    2.000 
#    2.250    0.000    0.000    0.000    0.000    0.000 
#    0.000    0.000    0.000    0.000    0.000    0.000 
#
# Total GULP energy -89166.495634 kJ/mol
# GULP energy per Si atom -5572.905977 kJ/mol
# Density = 2.194857 g / cm^3
# Si number density = 21.998638 Si / 1000 Ang^3
#
#
#
# Elastic Constant Matrix: (Units=GPa)
#
#
# Indices 1 2 3 4 5 6 
#
# 1 27.3862 7.4950 17.8368 -11.0943 -0.5476 -4.7693
# 2 7.4950 68.7676 17.9210 -6.4610 14.8301 15.0904
# 3 17.8368 17.9210 91.9696 -21.7512 9.0269 -4.2851
# 4 -11.0943 -6.4610 -21.7512 41.0274 -4.0111 2.3469
# 5 -0.5476 14.8301 9.0269 -4.0111 25.3567 -3.1602
# 6 -4.7693 15.0904 -4.2851 2.3469 -3.1602 30.6206
#
#
#
# Elastic Compliance Matrix: (Units=1/GPa)
#
#
# Indices 1 2 3 4 5 6 
#
# 1 0.048344 -0.007337 -0.006347 0.008954 0.010337 0.010638
# 2 -0.007337 0.021880 -0.002174 -0.000272 -0.013925 -0.013646
# 3 -0.006347 -0.002174 0.014068 0.005037 -0.002907 0.001365
# 4 0.008954 -0.000272 0.005037 0.029729 0.003299 0.000295
# 5 0.010337 -0.013925 -0.002907 0.003299 0.050991 0.013075
# 6 0.010638 -0.013646 0.001365 0.000295 0.013075 0.042558
#
#
# Mechanical properties :
#
#
# Convention : Reuss Voigt Hill
#
# Bulk Modulus (GPa) = 19.02058 30.51434 24.76746
# Shear Modulus (GPa) = 19.46963 29.05898 24.26430
#
# Velocity S-wave (km/s) = 2.97819 3.63842 3.32473
# Velocity P-wave (km/s) = 4.52671 5.61711 5.10113
#
# Compressibility (1/GPa) = 0.05257465
#
# Stress axis : x y z
#
# Youngs Moduli (GPa) = 20.68529 45.70415 71.08311
#
# Poissons Ratio (x) = 0.33534 0.45119
# Poissons Ratio (y) = 0.15177 0.15452
# Poissons Ratio (z) = 0.13130 0.09935
#
# Static dielectric constant tensor:
#      x y z
#    x 1.861170 0.036890 0.046200 
#    y 0.036890 1.800450 0.037760 
#    z 0.046200 0.037760 1.891900 
# 
# From -- ./inp_files/206664.got.cif
#   From: 2010.05.17/outbox.cif.g08.bks.cpg/sg2_104_cif.got.tgz:206664.got - 2010.06.03 11:33:40.
