data_PCOD9106862
_publ_section_title
;
Structure prediction by ZEFSAII (Michael W. Deem and Ramdas Pophale) SiO2 
 PCOD9106862
Probable space group: P -1
;
_chemical_formula_sum "Si O2"
_cell_formula_units_Z 14
_cell_length_a 12.062552
_cell_length_b 5.396630
_cell_length_c 22.150748
_cell_angle_alpha 74.073239
_cell_angle_beta 158.221613
_cell_angle_gamma 105.384088
_cell_volume 514.230957
_symmetry_space_group_name_H-M "P -1"
_symmetry_group_IT_number 2
_symmetry_cell_setting 'triclinic'
loop_
_space_group_symop_operation_xyz
x,y,z
-x,-y,-z
loop_
_atom_site_type_symbol
_atom_site_label
_atom_site_fract_x
_atom_site_fract_y
_atom_site_fract_z
Si Si1 0.961593 0.463038 0.719262
Si Si2 0.941522 0.526280 0.371661
Si Si3 0.776910 0.422347 0.984276
Si Si4 0.324907 0.038422 0.103989
Si Si5 0.269922 0.980424 0.572764
Si Si6 0.645840 0.954189 0.013318
Si Si7 0.440364 0.133207 0.523616
O O1 0.693050 0.358660 0.633284
O O2 0.894540 0.760330 0.657132
O O3 0.969107 0.376804 0.657936
O O4 0.231143 0.329204 0.896424
O O5 0.582016 0.530652 0.193951
O O6 0.092058 0.247017 0.472580
O O7 0.068611 0.726906 0.472396
O O8 0.891513 0.717148 0.023298
O O9 0.824289 0.246762 0.960895
O O10 0.858616 0.211101 0.091023
O O11 0.526588 0.049158 0.263929
O O12 0.500597 0.056416 0.126474
O O13 0.465938 0.001128 0.609395
O O14 0.500000 0.000000 0.000000
O O15 0.500000 0.000000 0.500000
#
# Coordination Sequence:
#
# PCOD9106862 Si02
#       7
#     2   2   2   2   2   2   2
#     4  10  20  40  61  95 121 156 209 255 309 358
#     4  11  21  36  63  92 118 166 197 259 302 361
#     4  10  22  39  58  91 123 162 206 234 313 364
#     4  10  23  40  56  89 125 168 199 246 300 370
#     4  11  23  38  62  86 127 155 210 255 304 357
#     4  10  22  41  62  90 128 164 199 248 301 380
#     4  10  21  38  64  91 117 159 207 263 309 348
#
# _framework density 27.225121000000001
#
# number of rings (size 3 to 8) (size 9 to 14) (size 15 to 20)
#    0.857    0.857    2.857    1.714    0.000    5.143 
#    0.000    0.714    0.000    1.714    0.000    0.000 
#    0.000    0.000    0.000    0.000    0.000    0.000 
#
# Total GULP energy -78134.627216 kJ/mol
# GULP energy per Si atom -5581.044801 kJ/mol
# Density = 2.716316 g / cm^3
# Si number density = 27.225121 Si / 1000 Ang^3
#
#
#
# Elastic Constant Matrix: (Units=GPa)
#
#
# Indices 1 2 3 4 5 6 
#
# 1 180.8294 26.4963 48.0040 -3.2165 -38.5870 -16.2422
# 2 26.4963 175.9167 36.8238 -26.2570 -9.6056 -26.4733
# 3 48.0040 36.8238 93.9766 -11.3656 -46.0543 -9.1764
# 4 -3.2165 -26.2570 -11.3656 33.6709 -0.4542 -3.1377
# 5 -38.5870 -9.6056 -46.0543 -0.4542 50.3795 10.1217
# 6 -16.2422 -26.4733 -9.1764 -3.1377 10.1217 41.3339
#
#
#
# Elastic Compliance Matrix: (Units=1/GPa)
#
#
# Indices 1 2 3 4 5 6 
#
# 1 0.006851 -0.000321 -0.001494 0.000068 0.003562 0.001288
# 2 -0.000321 0.007828 -0.002900 0.005552 -0.002410 0.005255
# 3 -0.001494 -0.002900 0.022406 0.005253 0.019189 -0.001770
# 4 0.000068 0.005552 0.005253 0.036463 0.004976 0.006298
# 5 0.003562 -0.002410 0.019189 0.004976 0.040809 -0.005499
# 6 0.001288 0.005255 -0.001770 0.006298 -0.005499 0.029497
#
#
# Mechanical properties :
#
#
# Convention : Reuss Voigt Hill
#
# Bulk Modulus (GPa) = 36.15866 74.81897 55.48882
# Shear Modulus (GPa) = 30.76906 47.70343 39.23624
#
# Velocity S-wave (km/s) = 3.36545 4.19045 3.80040
# Velocity P-wave (km/s) = 5.33028 7.13824 6.29946
#
# Compressibility (1/GPa) = 0.02765589
#
# Stress axis : x y z
#
# Youngs Moduli (GPa) = 145.97105 127.75090 44.62996
#
# Poissons Ratio (x) = 0.04096 0.06669
# Poissons Ratio (y) = 0.04680 0.12941
# Poissons Ratio (z) = 0.21811 0.37044
#
# Static dielectric constant tensor:
#      x y z
#    x 2.133660 0.079850 0.029520 
#    y 0.079850 2.420600 -0.015100 
#    z 0.029520 -0.015100 2.269690 
# 
# From -- ./inp_files/123427.got.cif
#   From: 2010.05.17/outbox.cif.g08.bks.cpg/sg2_62_cif.got.tgz:123427.got - 2010.06.03 11:33:40.
