data_PCOD9106369
_publ_section_title
;
Structure prediction by ZEFSAII (Michael W. Deem and Ramdas Pophale) SiO2 
 PCOD9106369
Probable space group: P -1
;
_chemical_formula_sum "Si O2"
_cell_formula_units_Z 16
_cell_length_a 9.648657
_cell_length_b 13.733913
_cell_length_c 9.423302
_cell_angle_alpha 82.541999
_cell_angle_beta 114.466449
_cell_angle_gamma 51.839217
_cell_volume 752.790279
_symmetry_space_group_name_H-M "P -1"
_symmetry_group_IT_number 2
_symmetry_cell_setting 'triclinic'
loop_
_space_group_symop_operation_xyz
x,y,z
-x,-y,-z
loop_
_atom_site_type_symbol
_atom_site_label
_atom_site_fract_x
_atom_site_fract_y
_atom_site_fract_z
Si Si1 0.244193 0.835302 0.662550
Si Si2 0.835554 0.388655 0.943005
Si Si3 0.189803 0.899482 0.931888
Si Si4 0.516706 0.606429 0.303415
Si Si5 0.363648 0.349696 0.359252
Si Si6 0.174469 0.063730 0.106571
Si Si7 0.145241 0.656765 0.707285
Si Si8 0.363779 0.138796 0.519440
O O1 0.306221 0.849212 0.839190
O O2 0.411904 0.774323 0.616738
O O3 0.236788 0.721913 0.704303
O O4 0.000000 0.000000 0.500000
O O5 0.647846 0.409329 0.781498
O O6 0.808682 0.507800 0.840999
O O7 0.799283 0.399428 0.095409
O O8 0.074564 0.220213 0.046488
O O9 0.968531 0.933125 0.839149
O O10 0.368358 0.763481 0.139282
O O11 0.117089 0.038131 0.939295
O O12 0.580674 0.610763 0.486585
O O13 0.736054 0.474505 0.326646
O O14 0.291743 0.276494 0.392230
O O15 0.442812 0.931822 0.269508
O O16 0.873573 0.792656 0.545607
O O17 0.500000 0.000000 0.500000
#
# Coordination Sequence:
#
# PCOD9106369 Si02
#       8
#     2   2   2   2   2   2   2   2
#     4  12  24  39  67 103 128 170 228 280 323 386
#     4  11  22  41  69 101 133 170 222 278 326 388
#     4  10  20  39  69  96 131 171 230 265 330 391
#     4  11  22  41  69  99 130 172 224 280 324 387
#     4  12  26  41  69 103 133 169 228 279 329 381
#     4  10  20  39  69  94 126 179 219 266 324 394
#     4  12  24  42  68  93 140 179 214 268 341 399
#     4  12  24  46  66  96 135 182 219 264 335 408
#
# _framework density 21.254258
#
# number of rings (size 3 to 8) (size 9 to 14) (size 15 to 20)
#    0.000    0.750    6.250    3.000    3.500    1.000 
#    0.000    0.000    0.000    2.250    0.000    0.000 
#    0.000    0.000    0.000    0.000    0.000    0.000 
#
# Total GULP energy -89441.514766 kJ/mol
# GULP energy per Si atom -5590.094673 kJ/mol
# Density = 2.120588 g / cm^3
# Si number density = 21.254258 Si / 1000 Ang^3
#
#
#
# Elastic Constant Matrix: (Units=GPa)
#
#
# Indices 1 2 3 4 5 6 
#
# 1 9.3819 1.6498 -2.4357 5.1675 3.7186 -0.0654
# 2 1.6498 113.4020 11.2913 10.9583 -7.9341 -8.8566
# 3 -2.4357 11.2913 53.9558 1.5835 -10.5383 5.4276
# 4 5.1675 10.9583 1.5835 42.7355 0.6023 -7.5715
# 5 3.7186 -7.9341 -10.5383 0.6023 30.2978 -4.8645
# 6 -0.0654 -8.8566 5.4276 -7.5715 -4.8645 28.5712
#
#
#
# Elastic Compliance Matrix: (Units=1/GPa)
#
#
# Indices 1 2 3 4 5 6 
#
# 1 0.122667 -0.002395 0.004342 -0.015583 -0.015146 -0.007995
# 2 -0.002395 0.009648 -0.001888 -0.001551 0.002740 0.003400
# 3 0.004342 -0.001888 0.020655 -0.001589 0.005550 -0.003975
# 4 -0.015583 -0.001551 -0.001589 0.026995 0.001574 0.007207
# 5 -0.015146 0.002740 0.005550 0.001574 0.038564 0.006743
# 6 -0.007995 0.003400 -0.003975 0.007207 0.006743 0.039849
#
#
# Mechanical properties :
#
#
# Convention : Reuss Voigt Hill
#
# Bulk Modulus (GPa) = 6.53222 21.97227 14.25225
# Shear Modulus (GPa) = 16.16598 31.40320 23.78459
#
# Velocity S-wave (km/s) = 2.76089 3.84800 3.34885
# Velocity P-wave (km/s) = 3.63915 5.48663 4.65545
#
# Compressibility (1/GPa) = 0.15308738
#
# Stress axis : x y z
#
# Youngs Moduli (GPa) = 8.15215 103.64691 48.41338
#
# Poissons Ratio (x) = 0.24825 -0.21021
# Poissons Ratio (y) = 0.01953 0.09143
# Poissons Ratio (z) = -0.03540 0.19573
#
# Static dielectric constant tensor:
#      x y z
#    x 1.772670 0.015320 0.011580 
#    y 0.015320 1.784380 0.015720 
#    z 0.011580 0.015720 1.816430 
# 
# From -- ./inp_files/207016.got.cif
#   From: 2010.05.17/outbox.cif.g08.bks.cpg/sg2_104_cif.got.tgz:207016.got - 2010.06.03 11:33:40.
