data_PCOD9106939
_publ_section_title
;
Structure prediction by ZEFSAII (Michael W. Deem and Ramdas Pophale) SiO2 
 PCOD9106939
Probable space group: P -1
;
_chemical_formula_sum "Si O2"
_cell_formula_units_Z 15
_cell_length_a 14.718172
_cell_length_b 14.303833
_cell_length_c 25.341184
_cell_angle_alpha 159.135877
_cell_angle_beta 22.901673
_cell_angle_gamma 146.058778
_cell_volume 720.484995
_symmetry_space_group_name_H-M "P -1"
_symmetry_group_IT_number 2
_symmetry_cell_setting 'triclinic'
loop_
_space_group_symop_operation_xyz
x,y,z
-x,-y,-z
loop_
_atom_site_type_symbol
_atom_site_label
_atom_site_fract_x
_atom_site_fract_y
_atom_site_fract_z
Si Si1 0.763516 0.858133 0.109777
Si Si2 0.028126 0.721622 0.723017
Si Si3 0.993305 0.376320 0.655950
Si Si4 0.530943 0.574023 0.731663
Si Si5 0.730810 0.892355 0.541521
Si Si6 0.158332 0.564281 0.069580
Si Si7 0.000000 0.500000 0.000000
Si Si8 0.554363 0.852950 0.976464
O O1 0.947142 0.027206 0.121893
O O2 0.531999 0.058193 0.315318
O O3 0.704942 0.687511 0.101375
O O4 0.872085 0.643016 0.893834
O O5 0.038124 0.467483 0.621746
O O6 0.255985 0.651808 0.525469
O O7 0.783665 0.785644 0.855437
O O8 0.227269 0.231053 0.487366
O O9 0.814009 0.174808 0.646883
O O10 0.601594 0.667257 0.800700
O O11 0.278670 0.491812 0.828078
O O12 0.494209 0.841215 0.856104
O O13 0.921119 0.697750 0.299651
O O14 0.087337 0.487393 0.009094
O O15 0.325209 0.777913 0.086942
#
# Coordination Sequence:
#
# PCOD9106939 Si02
#       8
#     2   2   2   2   2   2   1   2
#     4  11  23  38  59  88 122 156 195 245 295 345
#     4  12  23  38  61  90 120 157 196 240 296 355
#     4  10  23  39  59  87 118 155 200 245 293 344
#     4  10  22  40  62  89 119 157 195 239 297 349
#     4  10  21  41  63  86 116 157 202 242 290 351
#     4  10  21  39  62  89 120 158 196 240 293 345
#     4  10  20  40  62  88 124 148 188 246 292 348
#     4  10  22  40  62  88 122 155 196 245 286 348
#
# _framework density 20.819310000000002
#
# number of rings (size 3 to 8) (size 9 to 14) (size 15 to 20)
#    0.000    1.600    0.000    4.400    0.000    4.800 
#    0.000   16.000    0.000    0.000    0.000    0.000 
#    0.000    0.000    0.000    0.000    0.000    0.000 
#
# Total GULP energy -83612.966472 kJ/mol
# GULP energy per Si atom -5574.197765 kJ/mol
# Density = 2.077192 g / cm^3
# Si number density = 20.819310 Si / 1000 Ang^3
#
#
#
# Elastic Constant Matrix: (Units=GPa)
#
#
# Indices 1 2 3 4 5 6 
#
# 1 118.3394 17.4700 10.5487 -18.3413 -41.0248 -1.9446
# 2 17.4700 27.2853 -13.7720 -9.1088 -23.6743 -8.0302
# 3 10.5487 -13.7720 3.0247 -11.5534 -23.4742 -12.3640
# 4 -18.3413 -9.1088 -11.5534 22.7387 5.7816 -8.8988
# 5 -41.0248 -23.6743 -23.4742 5.7816 26.0889 -11.4489
# 6 -1.9446 -8.0302 -12.3640 -8.8988 -11.4489 17.9016
#
#
#
# Elastic Compliance Matrix: (Units=1/GPa)
#
#
# Indices 1 2 3 4 5 6 
#
# 1 0.012782 -0.005378 -0.007887 0.001970 0.007335 -0.000801
# 2 -0.005378 0.020232 -0.015877 -0.006505 -0.007573 -0.010552
# 3 -0.007887 -0.015877 0.012005 -0.007961 -0.022025 -0.017731
# 4 0.001970 -0.006505 -0.007961 0.044425 -0.019075 0.001682
# 5 0.007335 -0.007573 -0.022025 -0.019075 0.021443 -0.013581
# 6 -0.000801 -0.010552 -0.017731 0.001682 -0.013581 0.030945
#
#
# Mechanical properties :
#
#
# Convention : Reuss Voigt Hill
#
# Bulk Modulus (GPa) = -75.37924 19.68253 -27.84835
# Shear Modulus (GPa) = 25.55004 22.30602 23.92803
#
# Velocity S-wave (km/s) = 3.50698 3.27679 3.39384
# Velocity P-wave (km/s) = 4.45942 4.87760 1.39724
#
# Compressibility (1/GPa) = -0.01326625
#
# Stress axis : x y z
#
# Youngs Moduli (GPa) = 78.23210 49.42761 83.29974
#
# Poissons Ratio (x) = 0.26584 0.65698
# Poissons Ratio (y) = 0.42077 1.32257
# Poissons Ratio (z) = 0.61701 0.78477
#
# Static dielectric constant tensor:
#      x y z
#    x 1.731130 -0.021820 0.021710 
#    y -0.021820 1.742460 0.014110 
#    z 0.021710 0.014110 1.730250 
# 
# From -- ./inp_files/34559.got.cif
#   From: 2010.05.17/outbox.cif.g08.bks.cpg/sg2_18_cif.got.tgz:34559.got - 2010.06.03 11:33:40.
