data_PCOD9106395
_publ_section_title
;
Structure prediction by ZEFSAII (Michael W. Deem and Ramdas Pophale) SiO2 
 PCOD9106395
Probable space group: P -1
;
_chemical_formula_sum "Si O2"
_cell_formula_units_Z 16
_cell_length_a 7.971882
_cell_length_b 14.592587
_cell_length_c 9.662767
_cell_angle_alpha 97.114796
_cell_angle_beta 87.800539
_cell_angle_gamma 41.785950
_cell_volume 728.586409
_symmetry_space_group_name_H-M "P -1"
_symmetry_group_IT_number 2
_symmetry_cell_setting 'triclinic'
loop_
_space_group_symop_operation_xyz
x,y,z
-x,-y,-z
loop_
_atom_site_type_symbol
_atom_site_label
_atom_site_fract_x
_atom_site_fract_y
_atom_site_fract_z
Si Si1 0.122937 0.057565 0.680925
Si Si2 0.457731 0.788970 0.949080
Si Si3 0.700859 0.221438 0.320861
Si Si4 0.783536 0.921536 0.014042
Si Si5 0.876865 0.736813 0.772955
Si Si6 0.452250 0.781129 0.260776
Si Si7 0.752033 0.937034 0.617795
Si Si8 0.767915 0.547526 0.436338
O O1 0.826932 0.148218 0.685119
O O2 0.143640 0.103386 0.832858
O O3 0.222919 0.073665 0.550027
O O4 0.276007 0.896782 0.658430
O O5 0.346553 0.762875 0.838812
O O6 0.702852 0.732341 0.853730
O O7 0.247001 0.958980 0.006871
O O8 0.516805 0.731823 0.090362
O O9 0.464790 0.366718 0.433381
O O10 0.965469 0.154259 0.350443
O O11 0.950671 0.780838 0.895012
O O12 0.500000 0.000000 0.000000
O O13 0.705148 0.861522 0.685809
O O14 0.115600 0.592355 0.661606
O O15 0.657601 0.656297 0.336933
O O16 0.423960 0.903432 0.303120
O O17 0.000000 0.500000 0.500000
#
# Coordination Sequence:
#
# PCOD9106395 Si02
#       8
#     2   2   2   2   2   2   2   2
#     4  10  20  39  69  98 122 162 224 267 307 369
#     4  10  21  40  64  95 126 170 211 261 314 381
#     4  10  20  40  67  94 128 164 218 262 315 377
#     4   9  20  38  59  93 132 159 200 268 317 363
#     4  11  24  40  62  96 133 166 203 264 331 374
#     4  11  22  40  70  94 124 169 222 259 305 387
#     4  11  21  40  70 100 120 162 221 274 309 364
#     4  12  24  45  62  91 134 174 206 256 326 386
#
# _framework density 21.960332999999999
#
# number of rings (size 3 to 8) (size 9 to 14) (size 15 to 20)
#    0.000    1.500    5.000    0.750    1.750    2.500 
#    4.500    6.875    0.000    0.000    0.000    0.000 
#    0.000    0.000    0.000    0.000    0.000    0.000 
#
# Total GULP energy -89490.084737 kJ/mol
# GULP energy per Si atom -5593.130296 kJ/mol
# Density = 2.191035 g / cm^3
# Si number density = 21.960333 Si / 1000 Ang^3
#
#
#
# Elastic Constant Matrix: (Units=GPa)
#
#
# Indices 1 2 3 4 5 6 
#
# 1 78.6128 20.1626 22.2528 3.2174 4.6657 -8.1738
# 2 20.1626 108.1728 57.2475 11.0117 17.7320 -5.3740
# 3 22.2528 57.2475 161.2998 -9.6484 28.8349 1.7497
# 4 3.2174 11.0117 -9.6484 52.9400 6.6186 9.2308
# 5 4.6657 17.7320 28.8349 6.6186 37.4965 -5.7681
# 6 -8.1738 -5.3740 1.7497 9.2308 -5.7681 18.0716
#
#
#
# Elastic Compliance Matrix: (Units=1/GPa)
#
#
# Indices 1 2 3 4 5 6 
#
# 1 0.014541 -0.001169 -0.002271 -0.002853 0.002324 0.008648
# 2 -0.001169 0.012698 -0.004528 -0.004283 -0.000755 0.005632
# 3 -0.002271 -0.004528 0.009839 0.005249 -0.007354 -0.008355
# 4 -0.002853 -0.004283 0.005249 0.025335 -0.009035 -0.018897
# 5 0.002324 -0.000755 -0.007354 -0.009035 0.036738 0.017880
# 6 0.008648 0.005632 -0.008355 -0.018897 0.017880 0.077090
#
#
# Mechanical properties :
#
#
# Convention : Reuss Voigt Hill
#
# Bulk Modulus (GPa) = 47.29793 60.82348 54.06070
# Shear Modulus (GPa) = 25.09723 38.26310 31.68017
#
# Velocity S-wave (km/s) = 3.38426 4.17870 3.80229
# Velocity P-wave (km/s) = 6.07089 7.14417 6.62928
#
# Compressibility (1/GPa) = 0.02114257
#
# Stress axis : x y z
#
# Youngs Moduli (GPa) = 68.76926 78.75115 101.63387
#
# Poissons Ratio (x) = 0.09210 0.23081
# Poissons Ratio (y) = 0.08042 0.46017
# Poissons Ratio (z) = 0.15617 0.35656
#
# Static dielectric constant tensor:
#      x y z
#    x 1.883720 -0.006280 -0.029780 
#    y -0.006280 1.787620 0.004040 
#    z -0.029780 0.004040 1.854730 
# 
# From -- ./inp_files/207328.got.cif
#   From: 2010.05.17/outbox.cif.g08.bks.cpg/sg2_104_cif.got.tgz:207328.got - 2010.06.03 11:33:40.
