data_PCOD9106816
_publ_section_title
;
Structure prediction by ZEFSAII (Michael W. Deem and Ramdas Pophale) SiO2 
 PCOD9106816
Probable space group: P -1
;
_chemical_formula_sum "Si O2"
_cell_formula_units_Z 12
_cell_length_a 4.986692
_cell_length_b 16.168605
_cell_length_c 5.788367
_cell_angle_alpha 85.453077
_cell_angle_beta 101.415451
_cell_angle_gamma 97.137729
_cell_volume 453.207969
_symmetry_space_group_name_H-M "P -1"
_symmetry_group_IT_number 2
_symmetry_cell_setting 'triclinic'
loop_
_space_group_symop_operation_xyz
x,y,z
-x,-y,-z
loop_
_atom_site_type_symbol
_atom_site_label
_atom_site_fract_x
_atom_site_fract_y
_atom_site_fract_z
Si Si1 0.282901 0.239349 0.467387
Si Si2 0.909111 0.790514 0.059751
Si Si3 0.296135 0.610656 0.588435
Si Si4 0.442121 0.065232 0.167405
Si Si5 0.211327 0.473365 0.226500
Si Si6 0.651483 0.103523 0.607496
O O1 0.184838 0.260404 0.707651
O O2 0.571832 0.296036 0.453949
O O3 0.358578 0.143792 0.529814
O O4 0.113385 0.249309 0.194097
O O5 0.193370 0.838877 0.186367
O O6 0.719776 0.864420 0.976346
O O7 0.306465 0.556257 0.370059
O O8 0.523326 0.570197 0.794316
O O9 0.987422 0.590701 0.632562
O O10 0.708231 0.108737 0.340388
O O11 0.293497 0.992102 0.321575
O O12 0.500000 0.000000 0.000000
O O13 0.000000 0.500000 0.000000
#
# Coordination Sequence:
#
# PCOD9106816 Si02
#       6
#     2   2   2   2   2   2
#     4  11  26  42  62  99 132 168 220 274 333 405
#     4  11  25  41  64  92 130 175 220 268 342 392
#     4  10  24  42  67 104 133 175 229 274 338 409
#     4  10  20  40  61  89 124 169 224 276 317 405
#     4  10  22  44  72  97 135 176 226 275 336 408
#     4  10  23  40  62  89 129 169 221 273 335 388
#
# _framework density 26.477906000000001
#
# number of rings (size 3 to 8) (size 9 to 14) (size 15 to 20)
#    0.000    1.667    1.667    1.000    7.000    2.000 
#    0.000    0.000    0.000    0.000    0.000    0.000 
#    0.000    0.000    0.000    0.000    0.000    0.000 
#
# Total GULP energy -66821.305630 kJ/mol
# GULP energy per Si atom -5568.442136 kJ/mol
# Density = 2.641764 g / cm^3
# Si number density = 26.477906 Si / 1000 Ang^3
#
#
#
# Elastic Constant Matrix: (Units=GPa)
#
#
# Indices 1 2 3 4 5 6 
#
# 1 67.8795 10.0565 25.1057 4.0212 14.4840 11.4146
# 2 10.0565 103.9535 30.2768 5.6864 6.0050 -2.0810
# 3 25.1057 30.2768 212.4580 8.9937 25.7705 2.1299
# 4 4.0212 5.6864 8.9937 38.2251 1.2916 4.3742
# 5 14.4840 6.0050 25.7705 1.2916 35.9881 -0.7820
# 6 11.4146 -2.0810 2.1299 4.3742 -0.7820 35.1270
#
#
#
# Elastic Compliance Matrix: (Units=1/GPa)
#
#
# Indices 1 2 3 4 5 6 
#
# 1 0.017640 -0.001115 -0.001087 -0.000559 -0.006241 -0.005801
# 2 -0.001115 0.010199 -0.001246 -0.001233 -0.000291 0.001189
# 3 -0.001087 -0.001246 0.005440 -0.000870 -0.003220 -0.000014
# 4 -0.000559 -0.001233 -0.000870 0.026973 0.000016 -0.003197
# 5 -0.006241 -0.000291 -0.003220 0.000016 0.032716 0.002932
# 6 -0.005801 0.001189 -0.000014 -0.003197 0.002932 0.030888
#
#
# Mechanical properties :
#
#
# Convention : Reuss Voigt Hill
#
# Bulk Modulus (GPa) = 37.90341 57.24098 47.57219
# Shear Modulus (GPa) = 35.83076 43.12485 39.47780
#
# Velocity S-wave (km/s) = 3.68262 4.04011 3.86550
# Velocity P-wave (km/s) = 5.69460 6.59004 6.15861
#
# Compressibility (1/GPa) = 0.02638285
#
# Stress axis : x y z
#
# Youngs Moduli (GPa) = 56.69093 98.05361 183.81403
#
# Poissons Ratio (x) = 0.10933 0.19974
# Poissons Ratio (y) = 0.06321 0.22905
# Poissons Ratio (z) = 0.06160 0.12218
#
# Static dielectric constant tensor:
#      x y z
#    x 2.252720 0.135120 -0.069740 
#    y 0.135120 2.396300 -0.042940 
#    z -0.069740 -0.042940 2.356880 
# 
# From -- ./inp_files/4964.got.cif
#   From: 2010.05.17/outbox.cif.g08.bks.cpg/sg2_3_cif.got.tgz:4964.got - 2010.06.03 11:33:40.
