data_PCOD9106430
_publ_section_title
;
Structure prediction by ZEFSAII (Michael W. Deem and Ramdas Pophale) SiO2 
 PCOD9106430
Probable space group: P -1
;
_chemical_formula_sum "Si O2"
_cell_formula_units_Z 16
_cell_length_a 13.742391
_cell_length_b 11.215614
_cell_length_c 8.153260
_cell_angle_alpha 125.419308
_cell_angle_beta 69.223877
_cell_angle_gamma 143.835491
_cell_volume 587.348384
_symmetry_space_group_name_H-M "P -1"
_symmetry_group_IT_number 2
_symmetry_cell_setting 'triclinic'
loop_
_space_group_symop_operation_xyz
x,y,z
-x,-y,-z
loop_
_atom_site_type_symbol
_atom_site_label
_atom_site_fract_x
_atom_site_fract_y
_atom_site_fract_z
Si Si1 0.970774 0.709886 0.148653
Si Si2 0.759380 0.770195 0.536225
Si Si3 0.642117 0.880622 0.302414
Si Si4 0.690304 0.520742 0.675616
Si Si5 0.809908 0.346357 0.488731
Si Si6 0.525030 0.719462 0.859771
Si Si7 0.145437 0.153644 0.899421
Si Si8 0.255654 0.784354 0.948406
O O1 0.902373 0.759707 0.110331
O O2 0.815675 0.433861 0.080700
O O3 0.087197 0.951309 0.382555
O O4 0.106369 0.742820 0.023272
O O5 0.792084 0.678392 0.578482
O O6 0.648488 0.747942 0.707588
O O7 0.650200 0.562279 0.299176
O O8 0.512075 0.718623 0.403180
O O9 0.801625 0.948103 0.273636
O O10 0.704221 0.114950 0.471462
O O11 0.568615 0.789587 0.083727
O O12 0.775317 0.471474 0.660520
O O13 0.693891 0.637984 0.915174
O O14 0.747800 0.273101 0.281221
O O15 0.000000 0.500000 0.500000
O O16 0.569823 0.926564 0.912836
O O17 0.000000 0.000000 0.000000
#
# Coordination Sequence:
#
# PCOD9106430 Si02
#       8
#     2   2   2   2   2   2   2   2
#     4  10  20  40  73 106 138 183 239 294 352 429
#     4  10  20  39  70 103 141 178 234 298 346 414
#     4  11  24  45  71 104 141 190 237 288 360 432
#     4  12  24  43  67 106 143 179 246 289 355 427
#     4  11  24  46  71 101 141 188 236 302 355 421
#     4   9  19  42  68  98 141 186 228 288 356 418
#     4  12  21  41  74 103 140 187 235 295 355 420
#     4   9  20  43  67 103 142 186 236 287 364 422
#
# _framework density 27.241073
#
# number of rings (size 3 to 8) (size 9 to 14) (size 15 to 20)
#    0.000    1.500    2.500    3.750    0.000    0.000 
#   15.750    3.125    0.000    0.000    0.000    0.000 
#    0.000    0.000    0.000    0.000    0.000    0.000 
#
# Total GULP energy -89293.811532 kJ/mol
# GULP energy per Si atom -5580.863221 kJ/mol
# Density = 2.717907 g / cm^3
# Si number density = 27.241073 Si / 1000 Ang^3
#
#
#
# Elastic Constant Matrix: (Units=GPa)
#
#
# Indices 1 2 3 4 5 6 
#
# 1 116.0515 47.5852 20.9216 4.5952 -22.6662 -28.6965
# 2 47.5852 198.1394 28.5747 22.1583 -10.3840 -20.4852
# 3 20.9216 28.5747 103.1479 20.9563 5.9684 -8.6914
# 4 4.5952 22.1583 20.9563 44.2065 -2.9165 -14.7210
# 5 -22.6662 -10.3840 5.9684 -2.9165 51.9173 0.6274
# 6 -28.6965 -20.4852 -8.6914 -14.7210 0.6274 43.6766
#
#
#
# Elastic Compliance Matrix: (Units=1/GPa)
#
#
# Indices 1 2 3 4 5 6 
#
# 1 0.012889 -0.002031 -0.002490 0.003988 0.005631 0.008284
# 2 -0.002031 0.005963 -0.000758 -0.002214 0.000262 0.000562
# 3 -0.002490 -0.000758 0.011574 -0.005541 -0.002862 -0.001515
# 4 0.003988 -0.002214 -0.005541 0.029642 0.003475 0.010420
# 5 0.005631 0.000262 -0.002862 0.003475 0.022247 0.004105
# 6 0.008284 0.000562 -0.001515 0.010420 0.004105 0.031753
#
#
# Mechanical properties :
#
#
# Convention : Reuss Voigt Hill
#
# Bulk Modulus (GPa) = 50.33145 67.94465 59.13805
# Shear Modulus (GPa) = 38.09583 49.31055 43.70319
#
# Velocity S-wave (km/s) = 3.74367 4.25921 4.00973
# Velocity P-wave (km/s) = 6.09944 7.01313 6.57218
#
# Compressibility (1/GPa) = 0.01986829
#
# Stress axis : x y z
#
# Youngs Moduli (GPa) = 77.58815 167.68851 86.40403
#
# Poissons Ratio (x) = 0.34054 0.21513
# Poissons Ratio (y) = 0.15756 0.06550
# Poissons Ratio (z) = 0.19318 0.12712
#
# Static dielectric constant tensor:
#      x y z
#    x 2.189260 0.045040 0.088620 
#    y 0.045040 2.284320 0.168060 
#    z 0.088620 0.168060 2.257160 
# 
# From -- ./inp_files/308528.got.cif
#   From: 2010.05.17/outbox.cif.g08.bks.cpg/sg2_155_cif.got.tgz:308528.got - 2010.06.03 11:33:40.
