data_PCOD9106203
_publ_section_title
;
Structure prediction by ZEFSAII (Michael W. Deem and Ramdas Pophale) SiO2 
 PCOD9106203
Probable space group: P -1
;
_chemical_formula_sum "Si O2"
_cell_formula_units_Z 12
_cell_length_a 14.447076
_cell_length_b 9.149501
_cell_length_c 8.081956
_cell_angle_alpha 32.994831
_cell_angle_beta 108.388731
_cell_angle_gamma 123.299654
_cell_volume 460.901784
_symmetry_space_group_name_H-M "P -1"
_symmetry_group_IT_number 2
_symmetry_cell_setting 'triclinic'
loop_
_space_group_symop_operation_xyz
x,y,z
-x,-y,-z
loop_
_atom_site_type_symbol
_atom_site_label
_atom_site_fract_x
_atom_site_fract_y
_atom_site_fract_z
Si Si1 0.784638 0.793084 0.905879
Si Si2 0.593958 0.228134 0.121815
Si Si3 0.464408 0.511654 0.659002
Si Si4 0.128395 0.567976 0.496888
Si Si5 0.253259 0.426276 0.446705
Si Si6 0.916084 0.126125 0.330752
O O1 0.668124 0.468945 0.083110
O O2 0.783239 0.057619 0.764683
O O3 0.846010 0.008603 0.572964
O O4 0.860525 0.669666 0.147692
O O5 0.484490 0.260227 0.998598
O O6 0.674965 0.362735 0.873357
O O7 0.551279 0.859453 0.460423
O O8 0.500000 0.500000 0.500000
O O9 0.342683 0.477126 0.592642
O O10 0.164072 0.501179 0.403907
O O11 0.000000 0.500000 0.500000
O O12 0.178913 0.062242 0.686861
O O13 0.000000 0.000000 0.500000
O O14 0.000000 0.500000 0.000000
#
# Coordination Sequence:
#
# PCOD9106203 Si02
#       6
#     2   2   2   2   2   2
#     4  11  25  45  66  94 136 177 219 278 337 394
#     4  10  22  43  70  98 129 169 222 279 333 394
#     4  10  20  39  68 101 129 165 219 282 333 387
#     4  12  26  45  65  95 138 183 222 273 333 397
#     4  10  24  42  68  98 131 175 224 272 330 398
#     4  11  24  42  66  94 126 173 228 274 323 388
#
# _framework density 26.035916
#
# number of rings (size 3 to 8) (size 9 to 14) (size 15 to 20)
#    0.000    1.333    0.000    5.500    0.000   14.667 
#    0.000    7.500    0.000    0.000    0.000    0.000 
#    0.000    0.000    0.000    0.000    0.000    0.000 
#
# Total GULP energy -67315.231950 kJ/mol
# GULP energy per Si atom -5609.602662 kJ/mol
# Density = 2.597666 g / cm^3
# Si number density = 26.035916 Si / 1000 Ang^3
#
#
#
# Elastic Constant Matrix: (Units=GPa)
#
#
# Indices 1 2 3 4 5 6 
#
# 1 128.3740 30.0875 35.8350 0.1726 2.2761 0.5062
# 2 30.0875 137.1181 59.3154 -15.7567 -5.5125 -5.2054
# 3 35.8350 59.3154 153.5447 -28.9652 15.3128 -15.8273
# 4 0.1726 -15.7567 -28.9652 45.0019 4.1841 8.2738
# 5 2.2761 -5.5125 15.3128 4.1841 39.9369 1.7059
# 6 0.5062 -5.2054 -15.8273 8.2738 1.7059 33.5826
#
#
#
# Elastic Compliance Matrix: (Units=1/GPa)
#
#
# Indices 1 2 3 4 5 6 
#
# 1 0.008628 -0.001256 -0.001947 -0.001593 0.000285 -0.000864
# 2 -0.001256 0.009233 -0.003416 0.000893 0.002584 -0.000511
# 3 -0.001947 -0.003416 0.010083 0.005164 -0.004905 0.003229
# 4 -0.001593 0.000893 0.005164 0.026979 -0.004429 -0.003826
# 5 0.000285 0.002584 -0.004905 -0.004429 0.027820 -0.002238
# 6 -0.000864 -0.000511 0.003229 -0.003826 -0.002238 0.032289
#
#
# Mechanical properties :
#
#
# Convention : Reuss Voigt Hill
#
# Bulk Modulus (GPa) = 67.99078 74.39030 71.19054
# Shear Modulus (GPa) = 37.54582 43.29087 40.41835
#
# Velocity S-wave (km/s) = 3.80159 4.08209 3.94433
# Velocity P-wave (km/s) = 6.74095 7.13107 6.93875
#
# Compressibility (1/GPa) = 0.01470788
#
# Stress axis : x y z
#
# Youngs Moduli (GPa) = 115.90302 108.30516 99.17938
#
# Poissons Ratio (x) = 0.13598 0.19307
# Poissons Ratio (y) = 0.14552 0.33877
# Poissons Ratio (z) = 0.22563 0.36994
#
# Static dielectric constant tensor:
#      x y z
#    x 2.089580 -0.000190 -0.065920 
#    y -0.000190 2.042520 0.039170 
#    z -0.065920 0.039170 1.979400 
# 
# From -- ./inp_files/297219.got.cif
#   From: 2010.05.17/outbox.cif.g08.bks.cpg/sg2_149_cif.got.tgz:297219.got - 2010.06.03 11:33:40.
