data_PCOD9106697
_publ_section_title
;
Structure prediction by ZEFSAII (Michael W. Deem and Ramdas Pophale) SiO2 
 PCOD9106697
Probable space group: P -1
;
_chemical_formula_sum "Si O2"
_cell_formula_units_Z 14
_cell_length_a 14.856963
_cell_length_b 18.224889
_cell_length_c 7.329312
_cell_angle_alpha 66.793834
_cell_angle_beta 76.367545
_cell_angle_gamma 21.639388
_cell_volume 620.691614
_symmetry_space_group_name_H-M "P -1"
_symmetry_group_IT_number 2
_symmetry_cell_setting 'triclinic'
loop_
_space_group_symop_operation_xyz
x,y,z
-x,-y,-z
loop_
_atom_site_type_symbol
_atom_site_label
_atom_site_fract_x
_atom_site_fract_y
_atom_site_fract_z
Si Si1 0.284075 0.669626 0.778053
Si Si2 0.745609 0.029620 0.281150
Si Si3 0.281171 0.847234 0.466292
Si Si4 0.731674 0.881225 0.649380
Si Si5 0.188925 0.273983 0.594006
Si Si6 0.279113 0.501677 0.917323
Si Si7 0.154202 0.600753 0.300514
O O1 0.305984 0.732093 0.586928
O O2 0.325732 0.552480 0.768034
O O3 0.500000 0.500000 0.000000
O O4 0.978180 0.919444 0.750989
O O5 0.787800 0.059572 0.392348
O O6 0.644270 0.030781 0.430066
O O7 0.525812 0.243269 0.042791
O O8 0.005571 0.792252 0.283872
O O9 0.575865 0.640578 0.484817
O O10 0.787574 0.765139 0.594298
O O11 0.007478 0.683718 0.799218
O O12 0.489038 0.051651 0.725722
O O13 0.000000 0.500000 0.500000
O O14 0.050869 0.306552 0.705127
O O15 0.241684 0.548173 0.105873
#
# Coordination Sequence:
#
# PCOD9106697 Si02
#       7
#     2   2   2   2   2   2   2
#     4  11  20  38  65  86 118 165 199 238 306 349
#     4  10  20  40  60  87 125 157 199 249 292 356
#     4  10  21  39  62  84 121 161 197 249 294 354
#     4  10  22  40  61  88 120 164 200 237 307 354
#     4  10  21  39  64  88 120 158 200 248 296 362
#     4  11  22  39  63  88 124 160 199 249 297 354
#     4  10  22  39  61  93 120 153 204 250 299 350
#
# _framework density 22.555485000000001
#
# number of rings (size 3 to 8) (size 9 to 14) (size 15 to 20)
#    0.000    1.714    4.286    1.714    0.000    1.714 
#    2.571   15.714    0.000    0.000    0.000    0.000 
#    0.000    0.000    0.000    0.000    0.000    0.000 
#
# Total GULP energy -78180.710347 kJ/mol
# GULP energy per Si atom -5584.336453 kJ/mol
# Density = 2.250415 g / cm^3
# Si number density = 22.555485 Si / 1000 Ang^3
#
#
#
# Elastic Constant Matrix: (Units=GPa)
#
#
# Indices 1 2 3 4 5 6 
#
# 1 101.0017 37.2596 32.3736 -24.0157 15.6563 4.6994
# 2 37.2596 76.2305 18.4904 -26.8438 -2.8444 24.2331
# 3 32.3736 18.4904 87.2301 -43.4241 5.2497 6.3940
# 4 -24.0157 -26.8438 -43.4241 43.9807 -7.2759 -0.2586
# 5 15.6563 -2.8444 5.2497 -7.2759 30.3613 -8.8256
# 6 4.6994 24.2331 6.3940 -0.2586 -8.8256 29.5987
#
#
#
# Elastic Compliance Matrix: (Units=1/GPa)
#
#
# Indices 1 2 3 4 5 6 
#
# 1 0.014946 -0.008750 -0.005335 -0.003650 -0.007402 0.003704
# 2 -0.008750 0.032644 0.011433 0.027014 0.004438 -0.026248
# 3 -0.005335 0.011433 0.027625 0.031717 0.002757 -0.013382
# 4 -0.003650 0.027014 0.031717 0.069771 0.008293 -0.025307
# 5 -0.007402 0.004438 0.002757 0.008293 0.041402 0.009364
# 6 0.003704 -0.026248 -0.013382 -0.025307 0.009364 0.060148
#
#
# Mechanical properties :
#
#
# Convention : Reuss Voigt Hill
#
# Bulk Modulus (GPa) = 14.30417 48.96773 31.63595
# Shear Modulus (GPa) = 18.17221 32.54404 25.35813
#
# Velocity S-wave (km/s) = 2.84151 3.80260 3.35663
# Velocity P-wave (km/s) = 4.13776 6.40599 5.39249
#
# Compressibility (1/GPa) = 0.06990966
#
# Stress axis : x y z
#
# Youngs Moduli (GPa) = 66.90731 30.63334 36.19956
#
# Poissons Ratio (x) = 0.26805 0.19313
# Poissons Ratio (y) = 0.58545 -0.41386
# Poissons Ratio (z) = 0.35695 -0.35022
#
# Static dielectric constant tensor:
#      x y z
#    x 1.867060 -0.048800 0.007930 
#    y -0.048800 1.867370 0.005330 
#    z 0.007930 0.005330 1.885570 
# 
# From -- ./inp_files/312693.got.cif
#   From: 2010.05.17/outbox.cif.g08.bks.cpg/sg2_157_cif.got.tgz:312693.got - 2010.06.03 11:33:40.
