data_PCOD9106048
_publ_section_title
;
Structure prediction by ZEFSAII (Michael W. Deem and Ramdas Pophale) SiO2 
 PCOD9106048
Probable space group: P -1
;
_chemical_formula_sum "Si O2"
_cell_formula_units_Z 14
_cell_length_a 8.930039
_cell_length_b 7.856374
_cell_length_c 11.122255
_cell_angle_alpha 122.223605
_cell_angle_beta 111.099277
_cell_angle_gamma 65.554762
_cell_volume 591.032485
_symmetry_space_group_name_H-M "P -1"
_symmetry_group_IT_number 2
_symmetry_cell_setting 'triclinic'
loop_
_space_group_symop_operation_xyz
x,y,z
-x,-y,-z
loop_
_atom_site_type_symbol
_atom_site_label
_atom_site_fract_x
_atom_site_fract_y
_atom_site_fract_z
Si Si1 0.663965 0.042860 0.812002
Si Si2 0.166747 0.810610 0.474950
Si Si3 0.527512 0.710880 0.522206
Si Si4 0.696623 0.369948 0.296027
Si Si5 0.849008 0.981321 0.065885
Si Si6 0.831620 0.316089 0.827910
Si Si7 0.592183 0.738716 0.976287
O O1 0.706229 0.176744 0.767341
O O2 0.621017 0.837386 0.677895
O O3 0.517592 0.191549 0.908912
O O4 0.831186 0.970714 0.914549
O O5 0.340567 0.862041 0.513633
O O6 0.204871 0.721051 0.586547
O O7 0.151497 0.661029 0.302217
O O8 0.000000 0.000000 0.500000
O O9 0.500000 0.500000 0.500000
O O10 0.634271 0.616930 0.399535
O O11 0.522580 0.324066 0.184865
O O12 0.821214 0.226116 0.181895
O O13 0.995042 0.818372 0.116314
O O14 0.681236 0.916253 0.034619
O O15 0.748035 0.531188 0.952980
#
# Coordination Sequence:
#
# PCOD9106048 Si02
#       7
#     2   2   2   2   2   2   2
#     4  11  25  42  66  94 130 166 209 260 321 369
#     4  11  21  37  64  92 127 160 210 260 312 363
#     4  10  20  40  66  89 119 168 212 250 300 380
#     4  10  20  39  67  89 118 166 217 259 291 372
#     4  11  22  42  68  92 125 170 215 255 309 376
#     4  12  25  40  63  99 134 160 201 275 322 358
#     4  11  22  43  68  94 119 174 220 248 302 391
#
# _framework density 23.687360999999999
#
# number of rings (size 3 to 8) (size 9 to 14) (size 15 to 20)
#    0.000    1.143    2.857    6.429    2.000    0.571 
#    0.000    0.714    0.000    0.000    0.000    0.000 
#    0.000    0.000    0.000    0.000    0.000    0.000 
#
# Total GULP energy -78024.952746 kJ/mol
# GULP energy per Si atom -5573.210910 kJ/mol
# Density = 2.363345 g / cm^3
# Si number density = 23.687361 Si / 1000 Ang^3
#
#
#
# Elastic Constant Matrix: (Units=GPa)
#
#
# Indices 1 2 3 4 5 6 
#
# 1 53.8491 27.2448 33.1113 2.6068 -12.4030 -18.3786
# 2 27.2448 59.8802 36.7754 11.6112 -5.2827 -36.9930
# 3 33.1113 36.7754 159.4051 16.6219 -8.5667 -16.2608
# 4 2.6068 11.6112 16.6219 44.4927 -6.1017 -3.0190
# 5 -12.4030 -5.2827 -8.5667 -6.1017 15.1073 3.0724
# 6 -18.3786 -36.9930 -16.2608 -3.0190 3.0724 54.6435
#
#
#
# Elastic Compliance Matrix: (Units=1/GPa)
#
#
# Indices 1 2 3 4 5 6 
#
# 1 0.031099 -0.010180 -0.003309 0.005179 0.021854 0.001640
# 2 -0.010180 0.037431 -0.003938 -0.006918 -0.004488 0.020615
# 3 -0.003309 -0.003938 0.007903 -0.001841 -0.000046 -0.001526
# 4 0.005179 -0.006918 -0.001841 0.026111 0.011888 -0.002715
# 5 0.021854 -0.004488 -0.000046 0.011888 0.087332 0.000045
# 6 0.001640 0.020615 -0.001526 -0.002715 0.000045 0.032202
#
#
# Mechanical properties :
#
#
# Convention : Reuss Voigt Hill
#
# Bulk Modulus (GPa) = 24.05105 51.93305 37.99205
# Shear Modulus (GPa) = 18.46437 34.58223 26.52330
#
# Velocity S-wave (km/s) = 2.79499 3.82507 3.34986
# Velocity P-wave (km/s) = 4.53779 6.44051 5.57098
#
# Compressibility (1/GPa) = 0.04157822
#
# Stress axis : x y z
#
# Youngs Moduli (GPa) = 32.15575 26.71570 126.53357
#
# Poissons Ratio (x) = 0.27196 0.41876
# Poissons Ratio (y) = 0.32734 0.49828
# Poissons Ratio (z) = 0.10642 0.10521
#
# Static dielectric constant tensor:
#      x y z
#    x 2.026050 -0.001690 -0.056210 
#    y -0.001690 1.966510 -0.032100 
#    z -0.056210 -0.032100 1.933280 
# 
# From -- ./inp_files/190733.got.cif
#   From: 2010.05.17/outbox.cif.g08.bks.cpg/sg2_96_cif.got.tgz:190733.got - 2010.06.03 11:33:40.
