data_PCOD9106753
_publ_section_title
;
Structure prediction by ZEFSAII (Michael W. Deem and Ramdas Pophale) SiO2 
 PCOD9106753
Probable space group: P -1
;
_chemical_formula_sum "Si O2"
_cell_formula_units_Z 16
_cell_length_a 5.049489
_cell_length_b 15.017848
_cell_length_c 20.327663
_cell_angle_alpha 24.534158
_cell_angle_beta 74.340352
_cell_angle_gamma 68.650332
_cell_volume 588.630941
_symmetry_space_group_name_H-M "P -1"
_symmetry_group_IT_number 2
_symmetry_cell_setting 'triclinic'
loop_
_space_group_symop_operation_xyz
x,y,z
-x,-y,-z
loop_
_atom_site_type_symbol
_atom_site_label
_atom_site_fract_x
_atom_site_fract_y
_atom_site_fract_z
Si Si1 0.610690 0.658366 0.432955
Si Si2 0.324456 0.885324 0.881738
Si Si3 0.849505 0.885490 0.644321
Si Si4 0.159309 0.126830 0.982332
Si Si5 0.845650 0.345963 0.733453
Si Si6 0.123586 0.065089 0.239042
Si Si7 0.354476 0.304984 0.378083
Si Si8 0.167148 0.514904 0.797362
O O1 0.500000 0.500000 0.500000
O O2 0.857120 0.506251 0.565033
O O3 0.326564 0.807364 0.391663
O O4 0.297331 0.136401 0.740721
O O5 0.657994 0.798740 0.894939
O O6 0.138560 0.901171 0.816509
O O7 0.142853 0.805723 0.002648
O O8 0.920515 0.624856 0.793969
O O9 0.944146 0.890697 0.709790
O O10 0.518177 0.044619 0.555643
O O11 0.000000 0.000000 0.500000
O O12 0.102994 0.223037 0.847934
O O13 0.265691 0.858989 0.147687
O O14 0.307189 0.262711 0.929459
O O15 0.648066 0.537835 0.664903
O O16 0.575158 0.389747 0.261232
O O17 0.030335 0.364384 0.333585
#
# Coordination Sequence:
#
# PCOD9106753 Si02
#       8
#     2   2   2   2   2   2   2   2
#     4  10  22  42  67  98 132 176 222 280 329 398
#     4  10  24  45  67  92 141 177 225 271 340 412
#     4  10  21  41  69 102 133 174 226 291 333 388
#     4  10  23  43  65  99 137 187 220 280 338 413
#     4  10  21  42  66 100 135 175 231 279 338 401
#     4  10  23  41  68  97 132 174 227 277 337 399
#     4  10  20  40  60  97 129 171 214 286 334 390
#     4  10  23  38  63  92 134 169 223 272 341 391
#
# _framework density 27.181713999999999
#
# number of rings (size 3 to 8) (size 9 to 14) (size 15 to 20)
#    0.750    1.250    1.250    1.125    0.000   12.500 
#    6.750    1.250    0.000    0.000    0.000    0.000 
#    0.000    0.000    0.000    0.000    0.000    0.000 
#
# Total GULP energy -89238.231935 kJ/mol
# GULP energy per Si atom -5577.389496 kJ/mol
# Density = 2.711985 g / cm^3
# Si number density = 27.181714 Si / 1000 Ang^3
#
#
#
# Elastic Constant Matrix: (Units=GPa)
#
#
# Indices 1 2 3 4 5 6 
#
# 1 127.7691 22.5137 10.6260 10.3215 2.0272 8.8330
# 2 22.5137 171.7089 34.3048 -8.9670 -2.9568 17.6059
# 3 10.6260 34.3048 85.6285 -6.3143 13.7354 1.1071
# 4 10.3215 -8.9670 -6.3143 63.9470 -8.4873 1.4222
# 5 2.0272 -2.9568 13.7354 -8.4873 32.2486 -6.8429
# 6 8.8330 17.6059 1.1071 1.4222 -6.8429 32.9551
#
#
#
# Elastic Compliance Matrix: (Units=1/GPa)
#
#
# Indices 1 2 3 4 5 6 
#
# 1 0.008314 -0.000884 -0.000582 -0.001639 -0.001193 -0.001914
# 2 -0.000884 0.006894 -0.002772 0.001104 0.001503 -0.003088
# 3 -0.000582 -0.002772 0.013856 0.000270 -0.006069 -0.000100
# 4 -0.001639 0.001104 0.000270 0.016679 0.004490 0.000053
# 5 -0.001193 0.001503 -0.006069 0.004490 0.036496 0.007105
# 6 -0.001914 -0.003088 -0.000100 0.000053 0.007105 0.033984
#
#
# Mechanical properties :
#
#
# Convention : Reuss Voigt Hill
#
# Bulk Modulus (GPa) = 48.57253 57.77727 53.17490
# Shear Modulus (GPa) = 38.00505 47.00761 42.50633
#
# Velocity S-wave (km/s) = 3.74329 4.16310 3.95876
# Velocity P-wave (km/s) = 6.04907 6.66413 6.36403
#
# Compressibility (1/GPa) = 0.02058777
#
# Stress axis : x y z
#
# Youngs Moduli (GPa) = 120.27276 145.06097 72.17130
#
# Poissons Ratio (x) = 0.12819 0.04204
# Poissons Ratio (y) = 0.10628 0.20005
# Poissons Ratio (z) = 0.07006 0.40210
#
# Static dielectric constant tensor:
#      x y z
#    x 2.191670 -0.085450 -0.085850 
#    y -0.085450 2.157300 0.013150 
#    z -0.085850 0.013150 2.299360 
# 
# From -- ./inp_files/583596.got.cif
#   From: 2010.05.17/outbox.cif.g08.bks.cpg/sg2_292_cif.got.tgz:583596.got - 2010.06.03 11:33:40.
