data_PCOD9106889
_publ_section_title
;
Structure prediction by ZEFSAII (Michael W. Deem and Ramdas Pophale) SiO2 
 PCOD9106889
Probable space group: P -1
;
_chemical_formula_sum "Si O2"
_cell_formula_units_Z 16
_cell_length_a 19.546016
_cell_length_b 12.475671
_cell_length_c 9.050426
_cell_angle_alpha 76.844642
_cell_angle_beta 48.174312
_cell_angle_gamma 36.098558
_cell_volume 683.392879
_symmetry_space_group_name_H-M "P -1"
_symmetry_group_IT_number 2
_symmetry_cell_setting 'triclinic'
loop_
_space_group_symop_operation_xyz
x,y,z
-x,-y,-z
loop_
_atom_site_type_symbol
_atom_site_label
_atom_site_fract_x
_atom_site_fract_y
_atom_site_fract_z
Si Si1 0.393838 0.667907 0.405664
Si Si2 0.224158 0.692148 0.240981
Si Si3 0.552476 0.221958 0.133614
Si Si4 0.588832 0.581730 0.403502
Si Si5 0.114754 0.319377 0.529815
Si Si6 0.596143 0.857170 0.633503
Si Si7 0.094776 0.106732 0.485625
Si Si8 0.222235 0.398919 0.849918
O O1 0.442543 0.717234 0.429547
O O2 0.337570 0.620954 0.595308
O O3 0.202525 0.898012 0.497355
O O4 0.610641 0.423863 0.069450
O O5 0.362030 0.500074 0.243185
O O6 0.000000 0.000000 0.500000
O O7 0.145956 0.666530 0.275918
O O8 0.541162 0.238618 0.320916
O O9 0.523231 0.126524 0.159790
O O10 0.775202 0.024865 0.812746
O O11 0.769560 0.479750 0.161330
O O12 0.303656 0.191656 0.355445
O O13 0.000000 0.500000 0.500000
O O14 0.150570 0.157879 0.472201
O O15 0.966274 0.461462 0.842704
O O16 0.765585 0.635125 0.332186
O O17 0.437974 0.114544 0.700983
#
# Coordination Sequence:
#
# PCOD9106889 Si02
#       8
#     2   2   2   2   2   2   2   2
#     4  10  22  40  61  87 120 154 196 242 291 347
#     4  11  22  39  62  88 119 156 196 240 290 347
#     4  10  22  40  61  86 119 155 197 240 289 350
#     4  10  20  40  62  84 117 155 194 242 289 341
#     4  12  24  38  61  91 119 151 196 244 292 348
#     4  10  22  41  62  85 118 159 194 239 295 344
#     4  11  23  39  60  88 120 156 194 241 294 344
#     4  10  22  41  62  85 118 156 197 240 289 350
#
# _framework density 23.412595
#
# number of rings (size 3 to 8) (size 9 to 14) (size 15 to 20)
#    0.000    1.500    0.000    4.875    0.000    6.000 
#    0.000   27.500    0.000    0.000    0.000    0.000 
#    0.000    0.000    0.000    0.000    0.000    0.000 
#
# Total GULP energy -89456.359813 kJ/mol
# GULP energy per Si atom -5591.022488 kJ/mol
# Density = 2.335931 g / cm^3
# Si number density = 23.412595 Si / 1000 Ang^3
#
#
#
# Elastic Constant Matrix: (Units=GPa)
#
#
# Indices 1 2 3 4 5 6 
#
# 1 149.5613 17.2077 11.6915 -0.7437 -15.0577 8.2241
# 2 17.2077 66.8551 13.8578 -17.7753 -11.8228 8.2796
# 3 11.6915 13.8578 56.7989 -13.0379 -6.8735 -5.5314
# 4 -0.7437 -17.7753 -13.0379 24.5877 8.3882 -1.0853
# 5 -15.0577 -11.8228 -6.8735 8.3882 28.1011 -8.1124
# 6 8.2241 8.2796 -5.5314 -1.0853 -8.1124 33.4228
#
#
#
# Elastic Compliance Matrix: (Units=1/GPa)
#
#
# Indices 1 2 3 4 5 6 
#
# 1 0.007381 -0.001658 -0.001461 -0.002997 0.003539 -0.000885
# 2 -0.001658 0.019949 -0.001764 0.012508 0.002219 -0.003881
# 3 -0.001461 -0.001764 0.021286 0.009385 0.002382 0.005202
# 4 -0.002997 0.012508 0.009385 0.058639 -0.012082 -0.001836
# 5 0.003539 0.002219 0.002382 -0.012082 0.045375 0.009595
# 6 -0.000885 -0.003881 0.005202 -0.001836 0.009595 0.034229
#
#
# Mechanical properties :
#
#
# Convention : Reuss Voigt Hill
#
# Bulk Modulus (GPa) = 25.73982 39.85879 32.79930
# Shear Modulus (GPa) = 23.85775 32.58620 28.22197
#
# Velocity S-wave (km/s) = 3.19566 3.73476 3.47568
# Velocity P-wave (km/s) = 4.96329 5.97155 5.49061
#
# Compressibility (1/GPa) = 0.03885031
#
# Stress axis : x y z
#
# Youngs Moduli (GPa) = 135.47751 50.12837 46.97901
#
# Poissons Ratio (x) = 0.08313 0.06862
# Poissons Ratio (y) = 0.22466 0.08287
# Poissons Ratio (z) = 0.19787 0.08843
#
# Static dielectric constant tensor:
#      x y z
#    x 1.832860 0.009010 0.115070 
#    y 0.009010 1.832850 0.058230 
#    z 0.115070 0.058230 1.839880 
# 
# From -- ./inp_files/81430.got.cif
#   From: 2010.05.17/outbox.cif.g08.bks.cpg/sg2_41_cif.got.tgz:81430.got - 2010.06.03 11:33:40.
