data_PCOD9106333
_publ_section_title
;
Structure prediction by ZEFSAII (Michael W. Deem and Ramdas Pophale) SiO2 
 PCOD9106333
Probable space group: P -1
;
_chemical_formula_sum "Si O2"
_cell_formula_units_Z 14
_cell_length_a 20.003657
_cell_length_b 8.879545
_cell_length_c 9.414883
_cell_angle_alpha 119.085647
_cell_angle_beta 49.241542
_cell_angle_gamma 149.092791
_cell_volume 638.756119
_symmetry_space_group_name_H-M "P -1"
_symmetry_group_IT_number 2
_symmetry_cell_setting 'triclinic'
loop_
_space_group_symop_operation_xyz
x,y,z
-x,-y,-z
loop_
_atom_site_type_symbol
_atom_site_label
_atom_site_fract_x
_atom_site_fract_y
_atom_site_fract_z
Si Si1 0.903926 0.846463 0.916783
Si Si2 0.015911 0.340655 0.483878
Si Si3 0.317307 0.222613 0.296359
Si Si4 0.852731 0.143460 0.054803
Si Si5 0.575918 0.849684 0.118347
Si Si6 0.435408 0.814108 0.855845
Si Si7 0.287352 0.971771 0.509819
O O1 0.958251 0.773464 0.712163
O O2 0.726230 0.529309 0.047379
O O3 0.910517 0.039600 0.916184
O O4 0.000000 0.000000 0.000000
O O5 0.000000 0.500000 0.500000
O O6 0.167194 0.622313 0.492078
O O7 0.855210 0.047498 0.648849
O O8 0.418495 0.551673 0.279512
O O9 0.293379 0.121956 0.443822
O O10 0.415198 0.232233 0.084093
O O11 0.772926 0.033266 0.268979
O O12 0.719067 0.998334 0.071195
O O13 0.000000 0.500000 0.000000
O O14 0.589531 0.070421 0.166724
O O15 0.549564 0.859385 0.648229
O O16 0.500000 0.000000 0.000000
#
# Coordination Sequence:
#
# PCOD9106333 Si02
#       7
#     2   2   2   2   2   2   2
#     4  12  25  43  74 105 144 190 239 298 363 427
#     4  10  20  39  69 100 137 185 242 286 347 431
#     4  10  21  39  67  99 137 182 238 284 360 427
#     4  12  28  47  68 106 152 187 240 307 363 421
#     4  11  24  41  67 102 144 181 234 310 351 417
#     4  12  23  45  73 105 141 185 250 296 361 435
#     4  11  23  44  72  98 141 196 236 290 363 437
#
# _framework density 21.917598999999999
#
# number of rings (size 3 to 8) (size 9 to 14) (size 15 to 20)
#    0.000    0.857    2.857    5.143    2.000    5.143 
#    0.000    2.143    0.000    0.000    0.000    0.000 
#    0.000    0.000    0.000    0.000    0.000    0.000 
#
# Total GULP energy -78269.365739 kJ/mol
# GULP energy per Si atom -5590.668981 kJ/mol
# Density = 2.186771 g / cm^3
# Si number density = 21.917599 Si / 1000 Ang^3
#
#
#
# Elastic Constant Matrix: (Units=GPa)
#
#
# Indices 1 2 3 4 5 6 
#
# 1 101.2234 48.9201 23.4334 -6.9483 -1.6274 -15.8910
# 2 48.9201 140.4922 19.4841 -27.5437 -13.4451 -10.2188
# 3 23.4334 19.4841 112.8632 -7.1139 -6.0801 -8.2338
# 4 -6.9483 -27.5437 -7.1139 45.2240 1.8134 -6.9119
# 5 -1.6274 -13.4451 -6.0801 1.8134 40.0386 1.2023
# 6 -15.8910 -10.2188 -8.2338 -6.9119 1.2023 40.7435
#
#
#
# Elastic Compliance Matrix: (Units=1/GPa)
#
#
# Indices 1 2 3 4 5 6 
#
# 1 0.012807 -0.004111 -0.001766 -0.000214 -0.001227 0.003607
# 2 -0.004111 0.010089 -0.000251 0.005625 0.002876 0.001746
# 3 -0.001766 -0.000251 0.009510 0.001229 0.001192 0.001344
# 4 -0.000214 0.005625 0.001229 0.026599 0.000680 0.006068
# 5 -0.001227 0.002876 0.001192 0.000680 0.026047 -0.000170
# 6 0.003607 0.001746 0.001344 0.006068 -0.000170 0.027694
#
#
# Mechanical properties :
#
#
# Convention : Reuss Voigt Hill
#
# Bulk Modulus (GPa) = 49.62990 59.80601 54.71795
# Shear Modulus (GPa) = 37.95950 42.71732 40.33841
#
# Velocity S-wave (km/s) = 4.16615 4.41953 4.29471
# Velocity P-wave (km/s) = 6.77018 7.30678 7.04359
#
# Compressibility (1/GPa) = 0.02014914
#
# Stress axis : x y z
#
# Youngs Moduli (GPa) = 78.08374 99.11504 105.15281
#
# Poissons Ratio (x) = 0.40751 0.18567
# Poissons Ratio (y) = 0.32104 0.02642
# Poissons Ratio (z) = 0.13787 0.02491
#
# Static dielectric constant tensor:
#      x y z
#    x 1.842410 0.037690 0.004530 
#    y 0.037690 1.820690 0.025810 
#    z 0.004530 0.025810 1.853810 
# 
# From -- ./inp_files/343753.got.cif
#   From: 2010.05.17/outbox.cif.g08.bks.cpg/sg2_172_cif.got.tgz:343753.got - 2010.06.03 11:33:40.
