data_PCOD9106350
_publ_section_title
;
Structure prediction by ZEFSAII (Michael W. Deem and Ramdas Pophale) SiO2 
 PCOD9106350
Probable space group: P -1
;
_chemical_formula_sum "Si O2"
_cell_formula_units_Z 12
_cell_length_a 19.913061
_cell_length_b 6.111917
_cell_length_c 5.525145
_cell_angle_alpha 72.462426
_cell_angle_beta 68.374113
_cell_angle_gamma 50.479174
_cell_volume 480.112536
_symmetry_space_group_name_H-M "P -1"
_symmetry_group_IT_number 2
_symmetry_cell_setting 'triclinic'
loop_
_space_group_symop_operation_xyz
x,y,z
-x,-y,-z
loop_
_atom_site_type_symbol
_atom_site_label
_atom_site_fract_x
_atom_site_fract_y
_atom_site_fract_z
Si Si1 0.051456 0.449861 0.697627
Si Si2 0.797227 0.055625 0.096839
Si Si3 0.331569 0.554810 0.509070
Si Si4 0.708496 0.911421 0.926969
Si Si5 0.178932 0.610635 0.408921
Si Si6 0.489821 0.806712 0.874979
O O1 0.092763 0.627300 0.588217
O O2 0.000000 0.500000 0.500000
O O3 0.136608 0.116005 0.713201
O O4 0.000000 0.500000 0.000000
O O5 0.748447 0.459583 0.463253
O O6 0.775264 0.858319 0.066404
O O7 0.843146 0.127336 0.812581
O O8 0.315473 0.816278 0.286047
O O9 0.301591 0.671144 0.782167
O O10 0.431692 0.296600 0.389669
O O11 0.762038 0.650726 0.765177
O O12 0.615205 0.983925 0.119373
O O13 0.500000 0.500000 0.000000
O O14 0.500000 0.000000 0.000000
#
# Coordination Sequence:
#
# PCOD9106350 Si02
#       6
#     2   2   2   2   2   2
#     4  12  29  51  76 110 149 193 255 332 401 484
#     4  11  26  44  73 109 142 200 258 310 397 469
#     4  10  22  41  71 104 144 203 252 309 379 463
#     4  10  21  43  69 103 155 198 253 309 375 460
#     4  11  24  45  75 100 149 199 244 317 391 466
#     4  10  20  39  69 110 156 207 266 315 378 461
#
# _framework density 24.994140999999999
#
# number of rings (size 3 to 8) (size 9 to 14) (size 15 to 20)
#    0.000    1.333    3.333    1.000    7.000    2.000 
#    0.000    0.833    0.000    0.000    0.000    0.000 
#    0.000    0.000    0.000    0.000    0.000    0.000 
#
# Total GULP energy -67034.006918 kJ/mol
# GULP energy per Si atom -5586.167243 kJ/mol
# Density = 2.493725 g / cm^3
# Si number density = 24.994141 Si / 1000 Ang^3
#
#
#
# Elastic Constant Matrix: (Units=GPa)
#
#
# Indices 1 2 3 4 5 6 
#
# 1 155.7860 31.1172 53.1483 -17.1746 -31.7292 8.0073
# 2 31.1172 96.3098 27.2686 6.1554 -2.3817 1.6926
# 3 53.1483 27.2686 108.0111 -3.8115 -43.8009 3.7595
# 4 -17.1746 6.1554 -3.8115 50.4271 1.6062 -3.6279
# 5 -31.7292 -2.3817 -43.8009 1.6062 59.7839 -1.4786
# 6 8.0073 1.6926 3.7595 -3.6279 -1.4786 45.3298
#
#
#
# Elastic Compliance Matrix: (Units=1/GPa)
#
#
# Indices 1 2 3 4 5 6 
#
# 1 0.008588 -0.002164 -0.002524 0.002852 0.002523 -0.000916
# 2 -0.002164 0.012093 -0.003293 -0.002372 -0.003017 -0.000084
# 3 -0.002524 -0.003293 0.015298 0.000364 0.009719 -0.000354
# 4 0.002852 -0.002372 0.000364 0.021175 0.001148 0.001287
# 5 0.002523 -0.003017 0.009719 0.001148 0.025030 -0.000231
# 6 -0.000916 -0.000084 -0.000354 0.001287 -0.000231 0.022350
#
#
# Mechanical properties :
#
#
# Convention : Reuss Voigt Hill
#
# Bulk Modulus (GPa) = 49.95453 64.79722 57.37588
# Shear Modulus (GPa) = 39.31853 47.67969 43.49911
#
# Velocity S-wave (km/s) = 3.97055 4.37239 4.17630
# Velocity P-wave (km/s) = 6.40704 7.17437 6.80154
#
# Compressibility (1/GPa) = 0.02001820
#
# Stress axis : x y z
#
# Youngs Moduli (GPa) = 116.44600 82.69238 65.36934
#
# Poissons Ratio (x) = 0.17894 0.16496
# Poissons Ratio (y) = 0.25198 0.21524
# Poissons Ratio (z) = 0.29386 0.27227
#
# Static dielectric constant tensor:
#      x y z
#    x 1.963940 0.048110 -0.002700 
#    y 0.048110 2.111280 -0.062430 
#    z -0.002700 -0.062430 1.992670 
# 
# From -- ./inp_files/113975.got.cif
#   From: 2010.05.17/outbox.cif.g08.bks.cpg/sg2_57_cif.got.tgz:113975.got - 2010.06.03 11:33:40.
