data_PCOD9106076
_publ_section_title
;
Structure prediction by ZEFSAII (Michael W. Deem and Ramdas Pophale) SiO2 
 PCOD9106076
Probable space group: P -1
;
_chemical_formula_sum "Si O2"
_cell_formula_units_Z 14
_cell_length_a 24.926551
_cell_length_b 5.499636
_cell_length_c 5.343088
_cell_angle_alpha 96.123665
_cell_angle_beta 122.711141
_cell_angle_gamma 116.075114
_cell_volume 492.827699
_symmetry_space_group_name_H-M "P -1"
_symmetry_group_IT_number 2
_symmetry_cell_setting 'triclinic'
loop_
_space_group_symop_operation_xyz
x,y,z
-x,-y,-z
loop_
_atom_site_type_symbol
_atom_site_label
_atom_site_fract_x
_atom_site_fract_y
_atom_site_fract_z
Si Si1 0.829327 0.948796 0.506014
Si Si2 0.759042 0.296298 0.515414
Si Si3 0.879503 0.699374 0.240357
Si Si4 0.538332 0.365297 0.928632
Si Si5 0.015862 0.750589 0.767513
Si Si6 0.632036 0.614379 0.682819
Si Si7 0.362309 0.852849 0.438876
O O1 0.791983 0.623917 0.516034
O O2 0.848334 0.889178 0.274501
O O3 0.777345 0.076260 0.411559
O O4 0.919158 0.199447 0.868544
O O5 0.669539 0.142495 0.367763
O O6 0.808664 0.386127 0.910775
O O7 0.928208 0.667221 0.574092
O O8 0.938971 0.908445 0.192655
O O9 0.571771 0.485008 0.751421
O O10 0.457658 0.025278 0.665499
O O11 0.500000 0.500000 0.000000
O O12 0.607275 0.473459 0.316290
O O13 0.000000 0.500000 0.500000
O O14 0.680027 0.475202 0.832072
O O15 0.655792 0.946193 0.745075
#
# Coordination Sequence:
#
# PCOD9106076 Si02
#       7
#     2   2   2   2   2   2   2
#     4  11  24  42  67  93 133 172 225 269 337 397
#     4  11  25  45  61  94 139 174 220 272 328 421
#     4  10  23  41  62  97 127 172 217 279 332 395
#     4  10  22  44  71 104 137 176 233 298 344 403
#     4  10  20  39  67  92 128 164 222 281 329 391
#     4  11  24  44  72 101 138 176 236 295 344 404
#     4  11  23  44  66  96 135 178 224 276 350 411
#
# _framework density 28.407494
#
# number of rings (size 3 to 8) (size 9 to 14) (size 15 to 20)
#    0.000    1.429    1.429    3.857    2.000    2.857 
#   15.429    0.000    0.000    0.000    0.000    0.000 
#    0.000    0.000    0.000    0.000    0.000    0.000 
#
# Total GULP energy -78166.956364 kJ/mol
# GULP energy per Si atom -5583.354026 kJ/mol
# Density = 2.834284 g / cm^3
# Si number density = 28.407494 Si / 1000 Ang^3
#
#
#
# Elastic Constant Matrix: (Units=GPa)
#
#
# Indices 1 2 3 4 5 6 
#
# 1 146.2088 32.1061 29.5172 6.0846 -18.1559 -27.3426
# 2 32.1061 133.0710 10.1340 8.3754 -12.2987 -17.9523
# 3 29.5172 10.1340 105.7545 -12.2518 2.3329 -2.8934
# 4 6.0846 8.3754 -12.2518 27.6032 -9.3718 -8.2146
# 5 -18.1559 -12.2987 2.3329 -9.3718 47.5935 14.7535
# 6 -27.3426 -17.9523 -2.8934 -8.2146 14.7535 59.9947
#
#
#
# Elastic Compliance Matrix: (Units=1/GPa)
#
#
# Indices 1 2 3 4 5 6 
#
# 1 0.008367 -0.001233 -0.002305 -0.001026 0.001943 0.002715
# 2 -0.001233 0.008246 -0.000634 -0.001786 0.000903 0.001408
# 3 -0.002305 -0.000634 0.010796 0.005345 -0.000567 0.000152
# 4 -0.001026 -0.001786 0.005345 0.042518 0.006153 0.003565
# 5 0.001943 0.000903 -0.000567 0.006153 0.024480 -0.004049
# 6 0.002715 0.001408 0.000152 0.003565 -0.004049 0.019818
#
#
# Mechanical properties :
#
#
# Convention : Reuss Voigt Hill
#
# Bulk Modulus (GPa) = 52.45048 58.72765 55.58906
# Shear Modulus (GPa) = 38.78227 47.92340 43.35283
#
# Velocity S-wave (km/s) = 3.69889 4.11176 3.91078
# Velocity P-wave (km/s) = 6.06185 6.57726 6.32481
#
# Compressibility (1/GPa) = 0.01906560
#
# Stress axis : x y z
#
# Youngs Moduli (GPa) = 119.51427 121.26391 92.62878
#
# Poissons Ratio (x) = 0.14950 0.21347
# Poissons Ratio (y) = 0.14734 0.05877
# Poissons Ratio (z) = 0.27544 0.07694
#
# Static dielectric constant tensor:
#      x y z
#    x 2.260020 -0.085310 0.205020 
#    y -0.085310 2.389510 -0.121950 
#    z 0.205020 -0.121950 2.683530 
# 
# From -- ./inp_files/121023.got.cif
#   From: 2010.05.17/outbox.cif.g08.bks.cpg/sg2_61_cif.got.tgz:121023.got - 2010.06.03 11:33:40.
