data_PCOD9106983
_publ_section_title
;
Structure prediction by ZEFSAII (Michael W. Deem and Ramdas Pophale) SiO2 
 PCOD9106983
Probable space group: P -1
;
_chemical_formula_sum "Si O2"
_cell_formula_units_Z 16
_cell_length_a 10.499163
_cell_length_b 16.638018
_cell_length_c 7.236928
_cell_angle_alpha 58.925994
_cell_angle_beta 131.440999
_cell_angle_gamma 128.720959
_cell_volume 728.019600
_symmetry_space_group_name_H-M "P -1"
_symmetry_group_IT_number 2
_symmetry_cell_setting 'triclinic'
loop_
_space_group_symop_operation_xyz
x,y,z
-x,-y,-z
loop_
_atom_site_type_symbol
_atom_site_label
_atom_site_fract_x
_atom_site_fract_y
_atom_site_fract_z
Si Si1 0.845904 0.176214 0.701626
Si Si2 0.073758 0.499167 0.279529
Si Si3 0.199595 0.043034 0.038480
Si Si4 0.904007 0.648578 0.009010
Si Si5 0.464331 0.755086 0.756859
Si Si6 0.962597 0.715505 0.571478
Si Si7 0.506502 0.628820 0.638567
Si Si8 0.632376 0.769362 0.256675
O O1 0.763898 0.057952 0.830752
O O2 0.696448 0.222965 0.516510
O O3 0.900737 0.182128 0.530658
O O4 0.028915 0.255969 0.895699
O O5 0.018002 0.378310 0.405136
O O6 0.301080 0.553424 0.452345
O O7 0.000000 0.500000 0.000000
O O8 0.982140 0.563526 0.226318
O O9 0.347182 0.135183 0.199637
O O10 0.234559 0.108557 0.803419
O O11 0.000000 0.000000 0.000000
O O12 0.991242 0.702585 0.830858
O O13 0.676179 0.595131 0.835759
O O14 0.482773 0.662188 0.781116
O O15 0.450656 0.736630 0.987218
O O16 0.754319 0.710703 0.369006
O O17 0.579316 0.732607 0.456505
#
# Coordination Sequence:
#
# PCOD9106983 Si02
#       8
#     2   2   2   2   2   2   2   2
#     4  12  21  41  63  90 133 156 209 259 301 371
#     4  10  23  40  64  95 124 162 209 254 310 363
#     4  10  20  40  62  90 124 159 208 254 305 372
#     4  10  23  40  64  91 124 166 205 254 308 360
#     4  10  23  38  63  92 123 166 201 259 305 362
#     4  10  22  41  62  91 121 168 204 250 316 360
#     4  11  21  45  62  90 133 157 209 259 298 376
#     4   9  22  39  64  91 118 170 201 247 320 353
#
# _framework density 21.977430999999999
#
# number of rings (size 3 to 8) (size 9 to 14) (size 15 to 20)
#    0.750    1.000    2.500    1.875    3.500    5.000 
#    2.250    3.750    0.000    0.000    0.000    0.000 
#    0.000    0.000    0.000    0.000    0.000    0.000 
#
# Total GULP energy -89214.366540 kJ/mol
# GULP energy per Si atom -5575.897909 kJ/mol
# Density = 2.192741 g / cm^3
# Si number density = 21.977431 Si / 1000 Ang^3
#
#
#
# Elastic Constant Matrix: (Units=GPa)
#
#
# Indices 1 2 3 4 5 6 
#
# 1 36.0926 -1.9905 6.2887 0.2992 1.3377 3.1318
# 2 -1.9905 65.1482 26.7460 -9.3388 1.9647 6.2617
# 3 6.2887 26.7460 75.1140 -3.2286 8.7550 6.3158
# 4 0.2992 -9.3388 -3.2286 41.3144 4.1566 4.9412
# 5 1.3377 1.9647 8.7550 4.1566 31.9811 3.0991
# 6 3.1318 6.2617 6.3158 4.9412 3.0991 28.7035
#
#
#
# Elastic Compliance Matrix: (Units=1/GPa)
#
#
# Indices 1 2 3 4 5 6 
#
# 1 0.028632 0.002468 -0.002960 0.000517 -0.000309 -0.003067
# 2 0.002468 0.019060 -0.006537 0.004194 0.000333 -0.003747
# 3 -0.002960 -0.006537 0.016488 0.000407 -0.003893 -0.001529
# 4 0.000517 0.004194 0.000407 0.026134 -0.003283 -0.005205
# 5 -0.000309 0.000333 -0.003893 -0.003283 0.032964 -0.002176
# 6 -0.003067 -0.003747 -0.001529 -0.005205 -0.002176 0.037458
#
#
# Mechanical properties :
#
#
# Convention : Reuss Voigt Hill
#
# Bulk Modulus (GPa) = 19.95102 26.49369 23.22236
# Shear Modulus (GPa) = 26.10954 30.08717 28.09835
#
# Velocity S-wave (km/s) = 3.45050 3.70402 3.57950
# Velocity P-wave (km/s) = 4.99723 5.51127 5.26053
#
# Compressibility (1/GPa) = 0.05012274
#
# Stress axis : x y z
#
# Youngs Moduli (GPa) = 34.92645 52.46589 60.64904
#
# Poissons Ratio (x) = -0.12949 0.17951
# Poissons Ratio (y) = -0.08620 0.39646
# Poissons Ratio (z) = 0.10338 0.34296
#
# Static dielectric constant tensor:
#      x y z
#    x 1.829430 -0.012960 0.013710 
#    y -0.012960 1.812220 -0.010510 
#    z 0.013710 -0.010510 1.850860 
# 
# From -- ./inp_files/276441.got.cif
#   From: 2010.05.17/outbox.cif.g08.bks.cpg/sg2_139_cif.got.tgz:276441.got - 2010.06.03 11:33:40.
