data_PCOD9106321
_publ_section_title
;
Structure prediction by ZEFSAII (Michael W. Deem and Ramdas Pophale) SiO2 
 PCOD9106321
Probable space group: P -1
;
_chemical_formula_sum "Si O2"
_cell_formula_units_Z 14
_cell_length_a 14.759942
_cell_length_b 11.957165
_cell_length_c 20.108999
_cell_angle_alpha 26.755654
_cell_angle_beta 159.055814
_cell_angle_gamma 150.983746
_cell_volume 552.687998
_symmetry_space_group_name_H-M "P -1"
_symmetry_group_IT_number 2
_symmetry_cell_setting 'triclinic'
loop_
_space_group_symop_operation_xyz
x,y,z
-x,-y,-z
loop_
_atom_site_type_symbol
_atom_site_label
_atom_site_fract_x
_atom_site_fract_y
_atom_site_fract_z
Si Si1 0.670368 0.879901 0.452529
Si Si2 0.258095 0.406920 0.471985
Si Si3 0.848565 0.302274 0.056164
Si Si4 0.216915 0.144415 0.838262
Si Si5 0.209607 0.970637 0.286102
Si Si6 0.273116 0.496777 0.997008
Si Si7 0.020619 0.377891 0.454623
O O1 0.437507 0.693629 0.432218
O O2 0.639810 0.781558 0.407648
O O3 0.927226 0.803431 0.697216
O O4 0.740186 0.184051 0.349229
O O5 0.222209 0.316242 0.570898
O O6 0.969873 0.418988 0.245047
O O7 0.686848 0.063419 0.029467
O O8 0.715988 0.429954 0.955299
O O9 0.000000 0.500000 0.000000
O O10 0.455820 0.340376 0.933154
O O11 0.093007 0.311323 0.613458
O O12 0.991968 0.996741 0.811687
O O13 0.076687 0.682517 0.324144
O O14 0.500000 0.000000 0.500000
O O15 0.232762 0.192523 0.129999
#
# Coordination Sequence:
#
# PCOD9106321 Si02
#       7
#     2   2   2   2   2   2   2
#     4   9  22  42  67  95 134 170 218 267 329 387
#     4  10  23  44  65  97 132 174 214 273 325 391
#     4  10  20  39  68  99 126 167 219 277 330 376
#     4  11  24  42  68  97 129 170 223 276 327 384
#     4  12  26  43  68  96 134 175 221 273 320 390
#     4  11  24  43  65  99 132 171 217 275 328 382
#     4  11  24  39  69  93 126 175 219 260 323 394
#
# _framework density 25.330746999999999
#
# number of rings (size 3 to 8) (size 9 to 14) (size 15 to 20)
#    0.000    1.429    2.857    1.286    6.000    1.714 
#    2.571    1.429    0.000    0.000    0.000    0.000 
#    0.000    0.000    0.000    0.000    0.000    0.000 
#
# Total GULP energy -78388.261224 kJ/mol
# GULP energy per Si atom -5599.161516 kJ/mol
# Density = 2.527309 g / cm^3
# Si number density = 25.330747 Si / 1000 Ang^3
#
#
#
# Elastic Constant Matrix: (Units=GPa)
#
#
# Indices 1 2 3 4 5 6 
#
# 1 59.5393 24.9788 10.8339 8.1177 4.4014 10.2714
# 2 24.9788 206.0149 20.8188 4.0531 9.2659 17.7463
# 3 10.8339 20.8188 45.3311 8.0502 -1.0847 4.0139
# 4 8.1177 4.0531 8.0502 35.7807 5.7741 10.9275
# 5 4.4014 9.2659 -1.0847 5.7741 27.0407 3.5264
# 6 10.2714 17.7463 4.0139 10.9275 3.5264 36.8085
#
#
#
# Elastic Compliance Matrix: (Units=1/GPa)
#
#
# Indices 1 2 3 4 5 6 
#
# 1 0.019043 -0.001569 -0.003200 -0.002089 -0.001799 -0.003416
# 2 -0.001569 0.005507 -0.002209 0.001161 -0.001686 -0.002159
# 3 -0.003200 -0.002209 0.024816 -0.005300 0.003339 0.000506
# 4 -0.002089 0.001161 -0.005300 0.033124 -0.006217 -0.008637
# 5 -0.001799 -0.001686 0.003339 -0.006217 0.039441 -0.000982
# 6 -0.003416 -0.002159 0.000506 -0.008637 -0.000982 0.031765
#
#
# Mechanical properties :
#
#
# Convention : Reuss Voigt Hill
#
# Bulk Modulus (GPa) = 28.24189 47.12758 37.68473
# Shear Modulus (GPa) = 27.86199 36.87625 32.36912
#
# Velocity S-wave (km/s) = 3.32011 3.81962 3.57859
# Velocity P-wave (km/s) = 5.08635 6.17235 5.65548
#
# Compressibility (1/GPa) = 0.03540839
#
# Stress axis : x y z
#
# Youngs Moduli (GPa) = 52.51153 181.60231 40.29705
#
# Poissons Ratio (x) = 0.28499 0.12896
# Poissons Ratio (y) = 0.08241 0.08902
# Poissons Ratio (z) = 0.16804 0.40120
#
# Static dielectric constant tensor:
#      x y z
#    x 2.048660 -0.083040 -0.010820 
#    y -0.083040 2.045090 -0.016590 
#    z -0.010820 -0.016590 1.963080 
# 
# From -- ./inp_files/75874.got.cif
#   From: 2010.05.17/outbox.cif.g08.bks.cpg/sg2_38_cif.got.tgz:75874.got - 2010.06.03 11:33:40.
