data_PCOD9106696
_publ_section_title
;
Structure prediction by ZEFSAII (Michael W. Deem and Ramdas Pophale) SiO2 
 PCOD9106696
Probable space group: P -1
;
_chemical_formula_sum "Si O2"
_cell_formula_units_Z 16
_cell_length_a 19.582539
_cell_length_b 16.885185
_cell_length_c 8.594599
_cell_angle_alpha 59.290032
_cell_angle_beta 48.584041
_cell_angle_gamma 20.201363
_cell_volume 666.067492
_symmetry_space_group_name_H-M "P -1"
_symmetry_group_IT_number 2
_symmetry_cell_setting 'triclinic'
loop_
_space_group_symop_operation_xyz
x,y,z
-x,-y,-z
loop_
_atom_site_type_symbol
_atom_site_label
_atom_site_fract_x
_atom_site_fract_y
_atom_site_fract_z
Si Si1 0.726440 0.772861 0.264633
Si Si2 0.818756 0.054409 0.742207
Si Si3 0.473929 0.930386 0.209781
Si Si4 0.678031 0.396875 0.076565
Si Si5 0.267666 0.548732 0.381337
Si Si6 0.805777 0.077653 0.093874
Si Si7 0.432913 0.899197 0.980458
Si Si8 0.067370 0.558304 0.501963
O O1 0.937548 0.528991 0.297187
O O2 0.500000 0.000000 0.500000
O O3 0.658787 0.762622 0.243110
O O4 0.743190 0.852856 0.067452
O O5 0.601206 0.320642 0.720840
O O6 0.856362 0.054625 0.859942
O O7 0.678642 0.088520 0.929800
O O8 0.079253 0.784574 0.537144
O O9 0.195723 0.187386 0.440838
O O10 0.500000 0.000000 0.000000
O O11 0.470562 0.858798 0.149674
O O12 0.676487 0.438794 0.862702
O O13 0.735292 0.235057 0.140310
O O14 0.923534 0.213353 0.965894
O O15 0.547745 0.262192 0.310158
O O16 0.126694 0.590642 0.489014
O O17 0.704607 0.662127 0.738457
#
# Coordination Sequence:
#
# PCOD9106696 Si02
#       8
#     2   2   2   2   2   2   2   2
#     4   9  22  39  61  86 119 163 208 253 306 361
#     4  11  21  41  62  96 128 168 203 264 313 372
#     4  10  22  39  59  87 119 158 209 259 310 366
#     4  10  23  43  66  92 131 162 207 255 320 380
#     4  11  22  39  66  93 129 163 211 258 315 369
#     4  10  23  43  66  95 123 167 206 258 313 387
#     4  10  20  40  60  87 124 161 212 253 312 364
#     4  11  21  41  61  86 125 164 208 263 305 369
#
# _framework density 24.02159
#
# number of rings (size 3 to 8) (size 9 to 14) (size 15 to 20)
#    0.000    1.750    3.750    1.500    0.000   10.500 
#    2.250    5.000    0.000    0.000    0.000    0.000 
#    0.000    0.000    0.000    0.000    0.000    0.000 
#
# Total GULP energy -89335.341236 kJ/mol
# GULP energy per Si atom -5583.458827 kJ/mol
# Density = 2.396692 g / cm^3
# Si number density = 24.021590 Si / 1000 Ang^3
#
#
#
# Elastic Constant Matrix: (Units=GPa)
#
#
# Indices 1 2 3 4 5 6 
#
# 1 50.9972 9.0333 -0.7989 4.0828 -0.0604 -2.7698
# 2 9.0333 65.5539 20.0910 28.0705 22.7920 -10.0973
# 3 -0.7989 20.0910 60.9242 29.5829 8.7298 -5.0547
# 4 4.0828 28.0705 29.5829 41.0195 5.2636 -4.2439
# 5 -0.0604 22.7920 8.7298 5.2636 26.7937 -1.4508
# 6 -2.7698 -10.0973 -5.0547 -4.2439 -1.4508 33.9137
#
#
#
# Elastic Compliance Matrix: (Units=1/GPa)
#
#
# Indices 1 2 3 4 5 6 
#
# 1 0.020433 -0.003884 0.001577 -0.000823 0.003040 0.000774
# 2 -0.003884 0.033495 0.003212 -0.020967 -0.025081 0.006437
# 3 0.001577 0.003212 0.026433 -0.020264 -0.007242 0.002179
# 4 -0.000823 -0.020967 -0.020264 0.051360 0.014222 -0.002295
# 5 0.003040 -0.025081 -0.007242 0.014222 0.058011 -0.004037
# 6 0.000774 0.006437 0.002179 -0.002295 -0.004037 0.031332
#
#
# Mechanical properties :
#
#
# Convention : Reuss Voigt Hill
#
# Bulk Modulus (GPa) = 12.16961 26.01403 19.09182
# Shear Modulus (GPa) = 20.27204 30.28871 25.28037
#
# Velocity S-wave (km/s) = 2.90816 3.55476 3.24759
# Velocity P-wave (km/s) = 4.04397 5.26321 4.69335
#
# Compressibility (1/GPa) = 0.08217192
#
# Stress axis : x y z
#
# Youngs Moduli (GPa) = 48.93992 29.85493 37.83114
#
# Poissons Ratio (x) = 0.11596 -0.05967
# Poissons Ratio (y) = 0.19010 -0.12152
# Poissons Ratio (z) = -0.07719 -0.09590
#
# Static dielectric constant tensor:
#      x y z
#    x 1.947230 0.018620 0.008730 
#    y 0.018620 1.964370 0.031880 
#    z 0.008730 0.031880 1.939690 
# 
# From -- ./inp_files/348407.got.cif
#   From: 2010.05.17/outbox.cif.g08.bks.cpg/sg2_175_cif.got.tgz:348407.got - 2010.06.03 11:33:40.
