data_PCOD9106925
_publ_section_title
;
Structure prediction by ZEFSAII (Michael W. Deem and Ramdas Pophale) SiO2 
 PCOD9106925
Probable space group: P -1
;
_chemical_formula_sum "Si O2"
_cell_formula_units_Z 16
_cell_length_a 13.270361
_cell_length_b 8.936722
_cell_length_c 12.755869
_cell_angle_alpha 126.989054
_cell_angle_beta 57.898276
_cell_angle_gamma 78.260657
_cell_volume 649.057384
_symmetry_space_group_name_H-M "P -1"
_symmetry_group_IT_number 2
_symmetry_cell_setting 'triclinic'
loop_
_space_group_symop_operation_xyz
x,y,z
-x,-y,-z
loop_
_atom_site_type_symbol
_atom_site_label
_atom_site_fract_x
_atom_site_fract_y
_atom_site_fract_z
Si Si1 0.825928 0.377837 0.174169
Si Si2 0.806095 0.999923 0.053597
Si Si3 0.647223 0.193345 0.851837
Si Si4 0.746141 0.658066 0.990502
Si Si5 0.363951 0.330018 0.177321
Si Si6 0.377056 0.992140 0.418169
Si Si7 0.031394 0.237679 0.361416
Si Si8 0.047975 0.242256 0.809530
O O1 0.689498 0.720280 0.391555
O O2 0.989656 0.230550 0.103064
O O3 0.946525 0.218560 0.931786
O O4 0.726041 0.307666 0.234582
O O5 0.847030 0.923299 0.877181
O O6 0.715485 0.920662 0.115275
O O7 0.678688 0.986944 0.663314
O O8 0.848765 0.992642 0.704965
O O9 0.500000 0.500000 0.000000
O O10 0.514284 0.308694 0.071968
O O11 0.600200 0.731191 0.178544
O O12 0.715246 0.622064 0.875064
O O13 0.947067 0.370549 0.807035
O O14 0.178637 0.588532 0.455786
O O15 0.500000 0.000000 0.000000
O O16 0.268335 0.982191 0.551037
O O17 0.000000 0.500000 0.500000
O O18 0.000000 0.500000 0.000000
#
# Coordination Sequence:
#
# PCOD9106925 Si02
#       8
#     2   2   2   2   2   2   2   2
#     4  10  23  41  62  90 129 169 221 274 320 388
#     4  11  22  39  63  96 126 167 226 269 318 397
#     4  11  25  43  66 105 137 164 224 285 324 403
#     4  11  21  37  66  96 124 168 216 270 328 399
#     4  11  23  40  68 103 131 174 225 268 336 411
#     4  10  22  40  69  87 129 175 211 263 343 382
#     4  12  22  41  73  93 133 182 213 266 351 390
#     4  10  20  40  62  87 126 171 218 263 326 393
#
# _framework density 24.651133000000002
#
# number of rings (size 3 to 8) (size 9 to 14) (size 15 to 20)
#    0.000    1.250    5.000    1.500    1.750    6.000 
#    0.000    0.000    0.000    0.000    0.000    0.000 
#    0.000    0.000    0.000    0.000    0.000    0.000 
#
# Total GULP energy -89322.810621 kJ/mol
# GULP energy per Si atom -5582.675664 kJ/mol
# Density = 2.459503 g / cm^3
# Si number density = 24.651133 Si / 1000 Ang^3
#
#
#
# Elastic Constant Matrix: (Units=GPa)
#
#
# Indices 1 2 3 4 5 6 
#
# 1 63.5657 15.8023 23.4973 -4.1270 -8.7133 -7.9726
# 2 15.8023 86.5884 15.6574 2.8367 -14.4334 -8.1388
# 3 23.4973 15.6574 83.4466 -0.6915 -21.2838 1.6890
# 4 -4.1270 2.8367 -0.6915 32.2984 6.8646 -6.2746
# 5 -8.7133 -14.4334 -21.2838 6.8646 40.8793 -7.8135
# 6 -7.9726 -8.1388 1.6890 -6.2746 -7.8135 45.7612
#
#
#
# Elastic Compliance Matrix: (Units=1/GPa)
#
#
# Indices 1 2 3 4 5 6 
#
# 1 0.018788 -0.002173 -0.004678 0.002987 0.000996 0.003639
# 2 -0.002173 0.013145 -0.000750 -0.001937 0.004592 0.002506
# 3 -0.004678 -0.000750 0.015180 -0.001772 0.006827 -0.000586
# 4 0.002987 -0.001937 -0.001772 0.033464 -0.005857 0.003829
# 5 0.000996 0.004592 0.006827 -0.005857 0.031861 0.005375
# 6 0.003639 0.002506 -0.000586 0.003829 0.005375 0.024397
#
#
# Mechanical properties :
#
#
# Convention : Reuss Voigt Hill
#
# Bulk Modulus (GPa) = 31.33589 38.16830 34.75210
# Shear Modulus (GPa) = 30.73632 35.69735 33.21683
#
# Velocity S-wave (km/s) = 3.53491 3.80952 3.67478
# Velocity P-wave (km/s) = 5.42219 5.90482 5.66864
#
# Compressibility (1/GPa) = 0.03191229
#
# Stress axis : x y z
#
# Youngs Moduli (GPa) = 53.22597 76.07192 65.87560
#
# Poissons Ratio (x) = 0.16528 0.30814
# Poissons Ratio (y) = 0.11564 0.04943
# Poissons Ratio (z) = 0.24897 0.05708
#
# Static dielectric constant tensor:
#      x y z
#    x 1.955130 0.113610 0.036720 
#    y 0.113610 1.936510 -0.027040 
#    z 0.036720 -0.027040 1.952790 
# 
# From -- ./inp_files/448028.got.cif
#   From: 2010.05.17/outbox.cif.g08.bks.cpg/sg2_225_cif.got.tgz:448028.got - 2010.06.03 11:33:40.
