data_PCOD9106090
_publ_section_title
;
Structure prediction by ZEFSAII (Michael W. Deem and Ramdas Pophale) SiO2 
 PCOD9106090
Probable space group: P -1
;
_chemical_formula_sum "Si O2"
_cell_formula_units_Z 14
_cell_length_a 5.326278
_cell_length_b 5.083800
_cell_length_c 20.577411
_cell_angle_alpha 119.695007
_cell_angle_beta 106.686821
_cell_angle_gamma 87.788089
_cell_volume 460.022920
_symmetry_space_group_name_H-M "P -1"
_symmetry_group_IT_number 2
_symmetry_cell_setting 'triclinic'
loop_
_space_group_symop_operation_xyz
x,y,z
-x,-y,-z
loop_
_atom_site_type_symbol
_atom_site_label
_atom_site_fract_x
_atom_site_fract_y
_atom_site_fract_z
Si Si1 0.393469 0.821734 0.375783
Si Si2 0.051874 0.867191 0.668051
Si Si3 0.827533 0.791407 0.025267
Si Si4 0.424297 0.397358 0.150027
Si Si5 0.193262 0.738056 0.487355
Si Si6 0.889725 0.519173 0.125353
Si Si7 0.372920 0.181669 0.253085
O O1 0.386739 0.722651 0.437668
O O2 0.467992 0.553212 0.304455
O O3 0.096841 0.878362 0.345860
O O4 0.593399 0.131254 0.426799
O O5 0.984529 0.583336 0.577417
O O6 0.880030 0.825898 0.718368
O O7 0.358982 0.926345 0.714058
O O8 0.762947 0.732116 0.089574
O O9 0.904636 0.156887 0.065638
O O10 0.618435 0.718717 0.942785
O O11 0.000000 0.500000 0.000000
O O12 0.732214 0.508788 0.179251
O O13 0.350978 0.144269 0.168594
O O14 0.204791 0.632078 0.169315
O O15 0.000000 0.000000 0.500000
#
# Coordination Sequence:
#
# PCOD9106090 Si02
#       7
#     2   2   2   2   2   2   2
#     4  10  23  41  63  96 129 171 219 280 333 396
#     4  11  24  42  67  94 132 174 226 269 338 400
#     4  10  22  44  72 104 137 177 233 299 345 405
#     4  11  23  44  66  96 136 178 224 278 350 413
#     4  10  20  39  67  93 128 165 222 283 330 393
#     4  11  24  44  72 102 138 176 237 295 346 405
#     4  11  25  45  61  94 139 175 221 272 330 421
#
# _framework density 30.433267000000001
#
# number of rings (size 3 to 8) (size 9 to 14) (size 15 to 20)
#    0.000    1.429    1.429    3.857    2.000    2.857 
#   15.429    0.000    0.000    0.000    0.000    0.000 
#    0.000    0.000    0.000    0.000    0.000    0.000 
#
# Total GULP energy -78275.235901 kJ/mol
# GULP energy per Si atom -5591.088279 kJ/mol
# Density = 3.036400 g / cm^3
# Si number density = 30.433267 Si / 1000 Ang^3
#
#
#
# Elastic Constant Matrix: (Units=GPa)
#
#
# Indices 1 2 3 4 5 6 
#
# 1 165.9131 9.0140 3.2165 -14.8435 1.5417 -0.3885
# 2 9.0140 104.2463 -11.6313 -5.9342 -12.2612 -17.0769
# 3 3.2165 -11.6313 77.6170 -8.0749 9.0388 -35.7895
# 4 -14.8435 -5.9342 -8.0749 57.3178 -9.7349 -18.5263
# 5 1.5417 -12.2612 9.0388 -9.7349 50.2613 -3.0632
# 6 -0.3885 -17.0769 -35.7895 -18.5263 -3.0632 68.7075
#
#
#
# Elastic Compliance Matrix: (Units=1/GPa)
#
#
# Indices 1 2 3 4 5 6 
#
# 1 0.006201 -0.000343 0.000078 0.001745 0.000078 0.000465
# 2 -0.000343 0.012044 0.005220 0.004777 0.003371 0.007149
# 3 0.000078 0.005220 0.021261 0.008264 -0.000062 0.014598
# 4 0.001745 0.004777 0.008264 0.024402 0.005102 0.012309
# 5 0.000078 0.003371 -0.000062 0.005102 0.021908 0.003158
# 6 0.000465 0.007149 0.014598 0.012309 0.003158 0.027398
#
#
# Mechanical properties :
#
#
# Convention : Reuss Voigt Hill
#
# Bulk Modulus (GPa) = 20.23605 38.77498 29.50552
# Shear Modulus (GPa) = 41.74484 58.40247 50.07366
#
# Velocity S-wave (km/s) = 3.70764 4.38543 4.06070
# Velocity P-wave (km/s) = 4.99926 6.19769 5.63045
#
# Compressibility (1/GPa) = 0.04941675
#
# Stress axis : x y z
#
# Youngs Moduli (GPa) = 161.26896 83.02766 47.03457
#
# Poissons Ratio (x) = 0.02846 -0.00368
# Poissons Ratio (y) = 0.05528 -0.24551
# Poissons Ratio (z) = -0.01263 -0.43339
#
# Static dielectric constant tensor:
#      x y z
#    x 2.578620 0.307190 -0.008430 
#    y 0.307190 2.797910 0.030450 
#    z -0.008430 0.030450 2.589400 
# 
# From -- ./inp_files/581275.got.cif
#   From: 2010.05.17/outbox.cif.g08.bks.cpg/sg2_291_cif.got.tgz:581275.got - 2010.06.03 11:33:40.
