data_PCOD9106826
_publ_section_title
;
Structure prediction by ZEFSAII (Michael W. Deem and Ramdas Pophale) SiO2 
 PCOD9106826
Probable space group: P -1
;
_chemical_formula_sum "Si O2"
_cell_formula_units_Z 16
_cell_length_a 12.121494
_cell_length_b 7.895822
_cell_length_c 7.988944
_cell_angle_alpha 109.478521
_cell_angle_beta 80.354192
_cell_angle_gamma 110.162172
_cell_volume 675.482922
_symmetry_space_group_name_H-M "P -1"
_symmetry_group_IT_number 2
_symmetry_cell_setting 'triclinic'
loop_
_space_group_symop_operation_xyz
x,y,z
-x,-y,-z
loop_
_atom_site_type_symbol
_atom_site_label
_atom_site_fract_x
_atom_site_fract_y
_atom_site_fract_z
Si Si1 0.797826 0.377187 0.101380
Si Si2 0.598673 0.652347 0.837730
Si Si3 0.842922 0.762587 0.671868
Si Si4 0.260402 0.270844 0.674467
Si Si5 0.037406 0.093858 0.843160
Si Si6 0.945385 0.544771 0.838896
Si Si7 0.482428 0.239594 0.743235
Si Si8 0.552098 0.124405 0.189398
O O1 0.732927 0.537560 0.166427
O O2 0.693309 0.204838 0.149726
O O3 0.916335 0.435276 0.205942
O O4 0.846687 0.367788 0.894788
O O5 0.732868 0.772505 0.812759
O O6 0.588778 0.430916 0.743786
O O7 0.511174 0.713107 0.752662
O O8 0.565064 0.700675 0.048107
O O9 0.790484 0.703612 0.484092
O O10 0.899423 0.621723 0.710291
O O11 0.938905 0.968498 0.705106
O O12 0.163267 0.105289 0.742253
O O13 0.382809 0.233034 0.631602
O O14 0.045629 0.305073 0.961447
O O15 0.000000 0.000000 0.000000
O O16 0.488093 0.030042 0.704205
O O17 0.500000 0.000000 0.000000
#
# Coordination Sequence:
#
# PCOD9106826 Si02
#       8
#     2   2   2   2   2   2   2   2
#     4  10  20  40  61  90 122 155 215 257 310 363
#     4  10  21  40  62  91 120 160 216 257 305 364
#     4  11  23  36  61  90 128 166 200 248 320 381
#     4  11  22  39  60  90 130 165 196 250 320 381
#     4   9  19  36  60  89 113 152 208 251 294 358
#     4   9  21  36  64  89 117 161 206 269 301 360
#     4  10  21  38  64  89 118 163 209 265 303 358
#     4  10  22  35  66  93 117 157 212 272 301 355
#
# _framework density 23.68676
#
# number of rings (size 3 to 8) (size 9 to 14) (size 15 to 20)
#    0.000    2.000    1.250    2.625   10.500    1.000 
#    0.000    0.625    0.000    0.000    0.000    0.000 
#    0.000    0.000    0.000    0.000    0.000    0.000 
#
# Total GULP energy -89140.629934 kJ/mol
# GULP energy per Si atom -5571.289371 kJ/mol
# Density = 2.363285 g / cm^3
# Si number density = 23.686760 Si / 1000 Ang^3
#
#
#
# Elastic Constant Matrix: (Units=GPa)
#
#
# Indices 1 2 3 4 5 6 
#
# 1 94.4378 24.2470 15.8128 -6.2215 20.5846 -11.1328
# 2 24.2470 92.1840 7.3367 -6.1797 5.2887 2.3229
# 3 15.8128 7.3367 49.2480 -22.3824 12.6587 -6.5658
# 4 -6.2215 -6.1797 -22.3824 13.8429 -7.5387 7.7546
# 5 20.5846 5.2887 12.6587 -7.5387 27.5445 -9.0511
# 6 -11.1328 2.3229 -6.5658 7.7546 -9.0511 40.8264
#
#
#
# Elastic Compliance Matrix: (Units=1/GPa)
#
#
# Indices 1 2 3 4 5 6 
#
# 1 0.014383 -0.003749 -0.008488 -0.016109 -0.009298 0.003768
# 2 -0.003749 0.012469 0.005801 0.015750 0.000870 -0.003597
# 3 -0.008488 0.005801 0.089389 0.153206 0.000402 -0.017280
# 4 -0.016109 0.015750 0.153206 0.355921 0.021746 -0.043433
# 5 -0.009298 0.000870 0.000402 0.021746 0.050335 0.004508
# 6 0.003768 -0.003597 -0.017280 -0.043433 0.004508 0.032196
#
#
# Mechanical properties :
#
#
# Convention : Reuss Voigt Hill
#
# Bulk Modulus (GPa) = 9.67418 36.74032 23.20725
# Shear Modulus (GPa) = 8.30536 29.00763 18.65650
#
# Velocity S-wave (km/s) = 1.87455 3.50327 2.80953
# Velocity P-wave (km/s) = 2.96283 5.64876 4.51037
#
# Compressibility (1/GPa) = 0.10336795
#
# Stress axis : x y z
#
# Youngs Moduli (GPa) = 69.52889 80.20014 11.18707
#
# Poissons Ratio (x) = 0.30066 0.09496
# Poissons Ratio (y) = 0.26065 -0.06490
# Poissons Ratio (z) = 0.59019 -0.46525
#
# Static dielectric constant tensor:
#      x y z
#    x 1.936800 -0.001220 0.009960 
#    y -0.001220 2.105030 -0.012980 
#    z 0.009960 -0.012980 1.934680 
# 
# From -- ./inp_files/245040.got.cif
#   From: 2010.05.17/outbox.cif.g08.bks.cpg/sg2_123_cif.got.tgz:245040.got - 2010.06.03 11:33:40.
