data_PCOD9106514
_publ_section_title
;
Structure prediction by ZEFSAII (Michael W. Deem and Ramdas Pophale) SiO2 
 PCOD9106514
Probable space group: P -1
;
_chemical_formula_sum "Si O2"
_cell_formula_units_Z 16
_cell_length_a 14.235881
_cell_length_b 10.958494
_cell_length_c 19.161497
_cell_angle_alpha 29.763518
_cell_angle_beta 149.092860
_cell_angle_gamma 149.134454
_cell_volume 682.458442
_symmetry_space_group_name_H-M "P -1"
_symmetry_group_IT_number 2
_symmetry_cell_setting 'triclinic'
loop_
_space_group_symop_operation_xyz
x,y,z
-x,-y,-z
loop_
_atom_site_type_symbol
_atom_site_label
_atom_site_fract_x
_atom_site_fract_y
_atom_site_fract_z
Si Si1 0.394002 0.861410 0.848798
Si Si2 0.359230 0.124713 0.556946
Si Si3 0.078754 0.998403 0.663526
Si Si4 0.783605 0.426364 0.612270
Si Si5 0.907312 0.700044 0.055085
Si Si6 0.847978 0.020059 0.745527
Si Si7 0.749955 0.793190 0.177856
Si Si8 0.235342 0.720970 0.556302
O O1 0.425541 0.061020 0.705413
O O2 0.284080 0.545766 0.908253
O O3 0.229724 0.889202 0.781425
O O4 0.592592 0.900940 0.997849
O O5 0.274639 0.844501 0.596543
O O6 0.164081 0.185035 0.407100
O O7 0.554756 0.340134 0.533838
O O8 0.120430 0.274723 0.509434
O O9 0.137821 0.068853 0.747234
O O10 0.911617 0.386974 0.777214
O O11 0.798564 0.215721 0.669124
O O12 0.826976 0.747576 0.905861
O O13 0.000000 0.000000 0.000000
O O14 0.723539 0.026469 0.594411
O O15 0.083581 0.149389 0.805618
O O16 0.647835 0.463812 0.289261
O O17 0.000000 0.500000 0.500000
#
# Coordination Sequence:
#
# PCOD9106514 Si02
#       8
#     2   2   2   2   2   2   2   2
#     4  12  28  45  73 100 145 198 231 283 358 413
#     4  12  25  44  73 108 134 194 237 285 364 410
#     4  12  24  52  70 102 147 187 241 286 336 437
#     4  11  24  43  73 106 140 181 234 298 350 414
#     4  10  24  42  63 105 149 172 233 303 339 412
#     4  10  20  43  65 101 141 170 225 299 348 402
#     4  11  23  44  72 103 143 184 230 291 359 412
#     4  10  20  39  71  97 140 178 229 295 350 406
#
# _framework density 23.444651
#
# number of rings (size 3 to 8) (size 9 to 14) (size 15 to 20)
#    0.000    1.000    5.000    2.250    7.000    2.500 
#    2.250    0.625    0.000    0.000    0.000    0.000 
#    0.000    0.000    0.000    0.000    0.000    0.000 
#
# Total GULP energy -89422.373118 kJ/mol
# GULP energy per Si atom -5588.898320 kJ/mol
# Density = 2.339129 g / cm^3
# Si number density = 23.444651 Si / 1000 Ang^3
#
#
#
# Elastic Constant Matrix: (Units=GPa)
#
#
# Indices 1 2 3 4 5 6 
#
# 1 114.6335 33.0360 67.7700 9.3360 4.8604 15.9027
# 2 33.0360 65.7276 31.5655 9.8802 6.1999 11.8393
# 3 67.7700 31.5655 180.5970 34.5415 4.7105 1.6135
# 4 9.3360 9.8802 34.5415 27.9183 1.5947 9.9694
# 5 4.8604 6.1999 4.7105 1.5947 32.6302 7.5422
# 6 15.9027 11.8393 1.6135 9.9694 7.5422 37.0820
#
#
#
# Elastic Compliance Matrix: (Units=1/GPa)
#
#
# Indices 1 2 3 4 5 6 
#
# 1 0.013373 -0.003996 -0.005362 0.005635 0.000622 -0.005868
# 2 -0.003996 0.018968 -0.001241 -0.002589 -0.001965 -0.003193
# 3 -0.005362 -0.001241 0.010087 -0.012248 -0.001160 0.005785
# 4 0.005635 -0.002589 -0.012248 0.055775 0.002524 -0.016566
# 5 0.000622 -0.001965 -0.001160 0.002524 0.032564 -0.006891
# 6 -0.005868 -0.003193 0.005785 -0.016566 -0.006891 0.036106
#
#
# Mechanical properties :
#
#
# Convention : Reuss Voigt Hill
#
# Bulk Modulus (GPa) = 47.09848 69.52235 58.31042
# Shear Modulus (GPa) = 25.62149 34.76522 30.19335
#
# Velocity S-wave (km/s) = 3.30941 3.85497 3.59257
# Velocity P-wave (km/s) = 5.89371 7.03794 6.49109
#
# Compressibility (1/GPa) = 0.02123211
#
# Stress axis : x y z
#
# Youngs Moduli (GPa) = 74.77519 52.71969 99.13508
#
# Poissons Ratio (x) = 0.21065 0.53154
# Poissons Ratio (y) = 0.29878 0.12303
# Poissons Ratio (z) = 0.40092 0.06543
#
# Static dielectric constant tensor:
#      x y z
#    x 1.917470 -0.003450 -0.011760 
#    y -0.003450 1.935800 -0.008560 
#    z -0.011760 -0.008560 1.911700 
# 
# From -- ./inp_files/597957.got.cif
#   From: 2010.05.17/outbox.cif.g08.bks.cpg/sg2_299_cif.got.tgz:597957.got - 2010.06.03 11:33:40.
