data_PCOD9106571
_publ_section_title
;
Structure prediction by ZEFSAII (Michael W. Deem and Ramdas Pophale) SiO2 
 PCOD9106571
Probable space group: P -1
;
_chemical_formula_sum "Si O2"
_cell_formula_units_Z 14
_cell_length_a 20.359514
_cell_length_b 16.676643
_cell_length_c 10.302408
_cell_angle_alpha 30.392936
_cell_angle_beta 139.094252
_cell_angle_gamma 159.510836
_cell_volume 591.908774
_symmetry_space_group_name_H-M "P -1"
_symmetry_group_IT_number 2
_symmetry_cell_setting 'triclinic'
loop_
_space_group_symop_operation_xyz
x,y,z
-x,-y,-z
loop_
_atom_site_type_symbol
_atom_site_label
_atom_site_fract_x
_atom_site_fract_y
_atom_site_fract_z
Si Si1 0.114074 0.066564 0.718684
Si Si2 0.744619 0.481296 0.380807
Si Si3 0.534511 0.905809 0.857230
Si Si4 0.471701 0.556164 0.746366
Si Si5 0.174152 0.640236 0.126957
Si Si6 0.244669 0.277840 0.171724
Si Si7 0.794930 0.498589 0.887283
O O1 0.272560 0.230260 0.831737
O O2 0.223176 0.342507 0.406096
O O3 0.933637 0.918498 0.724426
O O4 0.014848 0.795965 0.860639
O O5 0.583687 0.342955 0.429323
O O6 0.888322 0.586024 0.549557
O O7 0.656328 0.212668 0.543880
O O8 0.809302 0.703925 0.068008
O O9 0.672461 0.055071 0.980303
O O10 0.442436 0.638302 0.013990
O O11 0.345489 0.729314 0.886526
O O12 0.665065 0.774315 0.647036
O O13 0.500000 0.500000 0.000000
O O14 0.258583 0.672390 0.080044
O O15 0.000000 0.500000 0.000000
#
# Coordination Sequence:
#
# PCOD9106571 Si02
#       7
#     2   2   2   2   2   2   2
#     4  10  21  39  61  85 123 154 199 245 292 357
#     4   9  20  38  61  85 120 153 196 249 297 344
#     4   9  20  38  63  81 119 158 198 246 292 351
#     4  10  21  39  60  88 121 157 193 246 299 350
#     4  10  21  36  58  89 115 156 198 241 297 356
#     4  10  21  39  63  90 115 160 199 243 299 349
#     4  10  20  40  55  84 120 161 191 248 294 343
#
# _framework density 23.652293
#
# number of rings (size 3 to 8) (size 9 to 14) (size 15 to 20)
#    0.857    1.429    1.429    0.857    2.000    2.286 
#    5.143    3.571    0.000    9.429    0.000    0.000 
#    0.000    0.000    0.000    0.000    0.000    0.000 
#
# Total GULP energy -77940.200311 kJ/mol
# GULP energy per Si atom -5567.157165 kJ/mol
# Density = 2.359846 g / cm^3
# Si number density = 23.652293 Si / 1000 Ang^3
#
#
#
# Elastic Constant Matrix: (Units=GPa)
#
#
# Indices 1 2 3 4 5 6 
#
# 1 70.0200 30.8481 2.8768 7.9420 -1.6393 -2.9987
# 2 30.8481 163.9970 21.1940 13.9590 12.6783 -25.3161
# 3 2.8768 21.1940 36.6172 9.5991 -3.1259 0.1186
# 4 7.9420 13.9590 9.5991 28.5566 -5.8682 -2.2281
# 5 -1.6393 12.6783 -3.1259 -5.8682 23.2714 -0.3098
# 6 -2.9987 -25.3161 0.1186 -2.2281 -0.3098 41.3721
#
#
#
# Elastic Compliance Matrix: (Units=1/GPa)
#
#
# Indices 1 2 3 4 5 6 
#
# 1 0.016025 -0.003315 0.001648 -0.002978 0.002392 -0.001014
# 2 -0.003315 0.008810 -0.004679 -0.002714 -0.006280 0.004971
# 3 0.001648 -0.004679 0.032504 -0.008347 0.004883 -0.003250
# 4 -0.002978 -0.002714 -0.008347 0.042239 0.010806 0.000503
# 5 0.002392 -0.006280 0.004883 0.010806 0.049906 -0.002728
# 6 -0.001014 0.004971 -0.003250 0.000503 -0.002728 0.027155
#
#
# Mechanical properties :
#
#
# Convention : Reuss Voigt Hill
#
# Bulk Modulus (GPa) = 22.39871 42.27466 32.33668
# Shear Modulus (GPa) = 24.48421 33.02103 28.75262
#
# Velocity S-wave (km/s) = 3.22090 3.74050 3.49038
# Velocity P-wave (km/s) = 4.82937 6.04709 5.47221
#
# Compressibility (1/GPa) = 0.04464544
#
# Stress axis : x y z
#
# Youngs Moduli (GPa) = 62.40309 113.50893 30.76536
#
# Poissons Ratio (x) = 0.37632 -0.05070
# Poissons Ratio (y) = 0.20689 0.14396
# Poissons Ratio (z) = -0.10284 0.53115
#
# Static dielectric constant tensor:
#      x y z
#    x 1.993120 -0.027150 0.026780 
#    y -0.027150 1.973630 -0.023660 
#    z 0.026780 -0.023660 1.950010 
# 
# From -- ./inp_files/464173.got.cif
#   From: 2010.05.17/outbox.cif.g08.bks.cpg/sg2_233_cif.got.tgz:464173.got - 2010.06.03 11:33:40.
