data_PCOD9106792
_publ_section_title
;
Structure prediction by ZEFSAII (Michael W. Deem and Ramdas Pophale) SiO2 
 PCOD9106792
Probable space group: P -1
;
_chemical_formula_sum "Si O2"
_cell_formula_units_Z 16
_cell_length_a 18.272618
_cell_length_b 4.987657
_cell_length_c 7.802980
_cell_angle_alpha 115.752498
_cell_angle_beta 92.971002
_cell_angle_gamma 110.734071
_cell_volume 580.902572
_symmetry_space_group_name_H-M "P -1"
_symmetry_group_IT_number 2
_symmetry_cell_setting 'triclinic'
loop_
_space_group_symop_operation_xyz
x,y,z
-x,-y,-z
loop_
_atom_site_type_symbol
_atom_site_label
_atom_site_fract_x
_atom_site_fract_y
_atom_site_fract_z
Si Si1 0.216385 0.946956 0.524036
Si Si2 0.547495 0.151487 0.772520
Si Si3 0.925514 0.307697 0.305580
Si Si4 0.830912 0.759918 0.705253
Si Si5 0.618928 0.781568 0.484726
Si Si6 0.601105 0.092737 0.144939
Si Si7 0.694201 0.843071 0.885316
Si Si8 0.014646 0.207144 0.835928
O O1 0.158508 0.878780 0.659439
O O2 0.177901 0.592224 0.330106
O O3 0.212448 0.225099 0.476149
O O4 0.309187 0.004244 0.575585
O O5 0.624827 0.486183 0.831534
O O6 0.547538 0.883822 0.558652
O O7 0.462703 0.177698 0.809311
O O8 0.564839 0.050435 0.935798
O O9 0.000000 0.500000 0.500000
O O10 0.930123 0.598120 0.262623
O O11 0.946144 0.021780 0.143061
O O12 0.783970 0.873618 0.873761
O O13 0.922718 0.963393 0.722017
O O14 0.601774 0.417846 0.322700
O O15 0.666155 0.875425 0.699099
O O16 0.684252 0.081225 0.092044
O O17 0.000000 0.500000 0.000000
#
# Coordination Sequence:
#
# PCOD9106792 Si02
#       8
#     2   2   2   2   2   2   2   2
#     4  11  22  39  67  91 123 167 215 259 313 377
#     4  10  20  40  61  87 124 165 200 262 323 373
#     4  12  22  41  67  90 121 171 215 254 309 381
#     4  11  21  41  64  88 129 170 201 261 325 375
#     4  10  22  39  59  92 121 162 214 257 314 380
#     4  10  22  38  61  91 123 157 213 263 307 384
#     4  10  22  38  61  86 124 165 206 255 327 373
#     4  12  25  41  62  98 130 163 210 265 319 373
#
# _framework density 27.543341000000002
#
# number of rings (size 3 to 8) (size 9 to 14) (size 15 to 20)
#    0.000    1.250    3.750    2.250    0.000    2.500 
#    2.250    0.000    0.000    0.000    0.000    0.000 
#    0.000    0.000    0.000    0.000    0.000    0.000 
#
# Total GULP energy -89388.754633 kJ/mol
# GULP energy per Si atom -5586.797165 kJ/mol
# Density = 2.748065 g / cm^3
# Si number density = 27.543341 Si / 1000 Ang^3
#
#
#
# Elastic Constant Matrix: (Units=GPa)
#
#
# Indices 1 2 3 4 5 6 
#
# 1 147.4164 33.5840 54.1475 -7.9515 -62.5072 25.0948
# 2 33.5840 133.7562 21.9054 -6.9951 -21.6539 17.5859
# 3 54.1475 21.9054 144.5637 -3.0711 -45.7776 1.4585
# 4 -7.9515 -6.9951 -3.0711 54.9109 2.6007 -11.4201
# 5 -62.5072 -21.6539 -45.7776 2.6007 54.8163 -13.3961
# 6 25.0948 17.5859 1.4585 -11.4201 -13.3961 50.9350
#
#
#
# Elastic Compliance Matrix: (Units=1/GPa)
#
#
# Indices 1 2 3 4 5 6 
#
# 1 0.013598 -0.000668 -0.000455 0.000650 0.014202 -0.002575
# 2 -0.000668 0.008265 -0.000463 0.000440 0.001609 -0.001989
# 3 -0.000455 -0.000463 0.009644 0.000519 0.007889 0.002299
# 4 0.000650 0.000440 0.000519 0.019195 0.001465 0.004202
# 5 0.014202 0.001609 0.007889 0.001465 0.042503 0.003728
# 6 -0.002575 -0.001989 0.002299 0.004202 0.003728 0.023445
#
#
# Mechanical properties :
#
#
# Convention : Reuss Voigt Hill
#
# Bulk Modulus (GPa) = 35.29241 71.66778 53.48010
# Shear Modulus (GPa) = 38.67945 53.20572 45.94259
#
# Velocity S-wave (km/s) = 3.75148 4.39989 4.08856
# Velocity P-wave (km/s) = 5.62192 7.20337 6.46121
#
# Compressibility (1/GPa) = 0.02833470
#
# Stress axis : x y z
#
# Youngs Moduli (GPa) = 73.53952 120.99268 103.69110
#
# Poissons Ratio (x) = 0.08083 0.04719
# Poissons Ratio (y) = 0.04913 0.04802
# Poissons Ratio (z) = 0.03347 0.05603
#
# Static dielectric constant tensor:
#      x y z
#    x 2.337670 -0.067980 -0.008790 
#    y -0.067980 2.244460 0.066670 
#    z -0.008790 0.066670 2.307350 
# 
# From -- ./inp_files/53367.got.cif
#   From: 2010.05.17/outbox.cif.g08.bks.cpg/sg2_27_cif.got.tgz:53367.got - 2010.06.03 11:33:40.
