data_PCOD9106251
_publ_section_title
;
Structure prediction by ZEFSAII (Michael W. Deem and Ramdas Pophale) SiO2 
 PCOD9106251
Probable space group: P -1
;
_chemical_formula_sum "Si O2"
_cell_formula_units_Z 16
_cell_length_a 10.062767
_cell_length_b 13.597867
_cell_length_c 8.045378
_cell_angle_alpha 120.136859
_cell_angle_beta 46.664113
_cell_angle_gamma 95.981174
_cell_volume 639.929285
_symmetry_space_group_name_H-M "P -1"
_symmetry_group_IT_number 2
_symmetry_cell_setting 'triclinic'
loop_
_space_group_symop_operation_xyz
x,y,z
-x,-y,-z
loop_
_atom_site_type_symbol
_atom_site_label
_atom_site_fract_x
_atom_site_fract_y
_atom_site_fract_z
Si Si1 0.514303 0.296551 0.692491
Si Si2 0.986329 0.971137 0.728635
Si Si3 0.150719 0.357826 0.258071
Si Si4 0.912269 0.668469 0.339021
Si Si5 0.426798 0.140278 0.378381
Si Si6 0.688074 0.508026 0.254424
Si Si7 0.965538 0.193098 0.147652
Si Si8 0.669644 0.076122 0.817048
O O1 0.505049 0.174491 0.509159
O O2 0.394469 0.404467 0.758616
O O3 0.742865 0.275519 0.468059
O O4 0.379937 0.332133 0.002573
O O5 0.941045 0.907297 0.873097
O O6 0.207255 0.893510 0.406915
O O7 0.838413 0.984963 0.716918
O O8 0.967470 0.107595 0.916787
O O9 0.123793 0.303717 0.412398
O O10 0.000000 0.500000 0.500000
O O11 0.082771 0.282508 0.114578
O O12 0.796297 0.774768 0.400809
O O13 0.814818 0.566572 0.306200
O O14 0.144085 0.618016 0.058499
O O15 0.449021 0.000019 0.226393
O O16 0.536976 0.169658 0.147328
O O17 0.500000 0.500000 0.500000
#
# Coordination Sequence:
#
# PCOD9106251 Si02
#       8
#     2   2   2   2   2   2   2   2
#     4  11  24  43  64  97 128 176 220 265 332 391
#     4  10  22  43  63 100 127 170 220 270 332 389
#     4  12  26  44  66  94 136 177 219 267 324 394
#     4  10  23  43  61  96 127 167 221 264 321 391
#     4  10  21  40  64  96 127 168 219 270 332 383
#     4  10  23  42  68  91 124 166 219 274 319 377
#     4  11  25  43  66  95 137 172 214 274 331 388
#     4  10  20  39  68  93 128 166 218 276 322 394
#
# _framework density 25.002762000000001
#
# number of rings (size 3 to 8) (size 9 to 14) (size 15 to 20)
#    0.000    1.500    2.500    1.500    3.500    2.500 
#    4.500    1.875    0.000    0.000    0.000    0.000 
#    0.000    0.000    0.000    0.000    0.000    0.000 
#
# Total GULP energy -89501.968402 kJ/mol
# GULP energy per Si atom -5593.873025 kJ/mol
# Density = 2.494585 g / cm^3
# Si number density = 25.002762 Si / 1000 Ang^3
#
#
#
# Elastic Constant Matrix: (Units=GPa)
#
#
# Indices 1 2 3 4 5 6 
#
# 1 45.1802 4.1349 9.3580 -6.6765 -8.7957 4.7462
# 2 4.1349 38.7865 12.1316 -4.9701 1.8327 13.6052
# 3 9.3580 12.1316 147.1828 -26.7701 -20.8754 6.8978
# 4 -6.6765 -4.9701 -26.7701 31.1644 1.8312 -1.8190
# 5 -8.7957 1.8327 -20.8754 1.8312 45.9016 -1.0479
# 6 4.7462 13.6052 6.8978 -1.8190 -1.0479 24.9562
#
#
#
# Elastic Compliance Matrix: (Units=1/GPa)
#
#
# Indices 1 2 3 4 5 6 
#
# 1 0.024127 -0.000992 0.000210 0.004719 0.004489 -0.003574
# 2 -0.000992 0.032952 -0.001754 0.002697 -0.002804 -0.017212
# 3 0.000210 -0.001754 0.008785 0.007039 0.003806 -0.000839
# 4 0.004719 0.002697 0.007039 0.039356 0.002397 -0.001344
# 5 0.004489 -0.002804 0.003806 0.002397 0.024412 0.000823
# 6 -0.003574 -0.017212 -0.000839 -0.001344 0.000823 0.050302
#
#
# Mechanical properties :
#
#
# Convention : Reuss Voigt Hill
#
# Bulk Modulus (GPa) = 16.44907 31.37760 23.91334
# Shear Modulus (GPa) = 24.35833 34.10611 29.23222
#
# Velocity S-wave (km/s) = 3.12464 3.69737 3.42301
# Velocity P-wave (km/s) = 4.42844 5.55016 5.02072
#
# Compressibility (1/GPa) = 0.06079371
#
# Stress axis : x y z
#
# Youngs Moduli (GPa) = 41.44659 30.34721 113.83333
#
# Poissons Ratio (x) = 0.03010 -0.02392
# Poissons Ratio (y) = 0.04110 0.19962
# Poissons Ratio (z) = -0.00871 0.05322
#
# Static dielectric constant tensor:
#      x y z
#    x 1.942820 0.034180 0.006640 
#    y 0.034180 2.007150 0.010870 
#    z 0.006640 0.010870 2.065410 
# 
# From -- ./inp_files/270795.got.cif
#   From: 2010.05.17/outbox.cif.g08.bks.cpg/sg2_136_cif.got.tgz:270795.got - 2010.06.03 11:33:40.
