data_PCOD9106155
_publ_section_title
;
Structure prediction by ZEFSAII (Michael W. Deem and Ramdas Pophale) SiO2 
 PCOD9106155
Probable space group: P -1
;
_chemical_formula_sum "Si O2"
_cell_formula_units_Z 15
_cell_length_a 9.042977
_cell_length_b 7.311967
_cell_length_c 16.103594
_cell_angle_alpha 116.001650
_cell_angle_beta 38.842928
_cell_angle_gamma 102.412363
_cell_volume 584.922483
_symmetry_space_group_name_H-M "P -1"
_symmetry_group_IT_number 2
_symmetry_cell_setting 'triclinic'
loop_
_space_group_symop_operation_xyz
x,y,z
-x,-y,-z
loop_
_atom_site_type_symbol
_atom_site_label
_atom_site_fract_x
_atom_site_fract_y
_atom_site_fract_z
Si Si1 0.673846 0.483006 0.266784
Si Si2 0.339942 0.651732 0.218777
Si Si3 0.150966 0.825758 0.738679
Si Si4 0.805141 0.753387 0.728172
Si Si5 0.500000 0.000000 0.500000
Si Si6 0.830802 0.389582 0.897461
Si Si7 0.766478 0.153101 0.533248
Si Si8 0.716976 0.121958 0.040257
O O1 0.674316 0.366559 0.330397
O O2 0.452892 0.681682 0.387200
O O3 0.689270 0.309089 0.155184
O O4 0.915726 0.567292 0.179125
O O5 0.274570 0.464711 0.265957
O O6 0.202549 0.654412 0.193011
O O7 0.285578 0.840601 0.345229
O O8 0.619868 0.587719 0.057139
O O9 0.969978 0.763943 0.738227
O O10 0.314392 0.957455 0.646859
O O11 0.955982 0.943797 0.915109
O O12 0.550977 0.920784 0.859660
O O13 0.985162 0.778871 0.580711
O O14 0.730664 0.954198 0.458437
O O15 0.774346 0.206820 0.942159
#
# Coordination Sequence:
#
# PCOD9106155 Si02
#       8
#     2   2   2   2   1   2   2   2
#     4  12  23  39  69  99 130 180 220 275 330 395
#     4  10  20  39  67  96 132 171 221 271 324 402
#     4  11  24  44  64  95 139 172 223 274 330 399
#     4  10  21  42  64  95 129 176 222 270 331 388
#     4  10  26  44  64  98 134 174 210 280 340 382
#     4  10  21  38  64 102 130 171 224 268 334 387
#     4  11  23  43  71  95 137 173 222 277 331 404
#     4  11  23  41  66  99 134 177 222 280 325 388
#
# _framework density 25.644424000000001
#
# number of rings (size 3 to 8) (size 9 to 14) (size 15 to 20)
#    0.000    1.333    4.000    2.400    1.867    2.133 
#    2.400    0.000    0.000    5.600    0.000    0.000 
#    0.000    0.000    0.000    0.000    0.000    0.000 
#
# Total GULP energy -83731.020900 kJ/mol
# GULP energy per Si atom -5582.068060 kJ/mol
# Density = 2.558606 g / cm^3
# Si number density = 25.644424 Si / 1000 Ang^3
#
#
#
# Elastic Constant Matrix: (Units=GPa)
#
#
# Indices 1 2 3 4 5 6 
#
# 1 117.9777 37.0102 79.8923 -17.4513 3.2826 -4.3114
# 2 37.0102 40.6184 30.4929 -11.4654 -27.5062 -4.9078
# 3 79.8923 30.4929 151.8063 -20.2658 -25.6441 -5.7504
# 4 -17.4513 -11.4654 -20.2658 26.0035 6.9344 -8.0989
# 5 3.2826 -27.5062 -25.6441 6.9344 51.7331 -0.4179
# 6 -4.3114 -4.9078 -5.7504 -8.0989 -0.4179 33.9947
#
#
#
# Elastic Compliance Matrix: (Units=1/GPa)
#
#
# Indices 1 2 3 4 5 6 
#
# 1 0.028939 -0.035730 -0.012849 -0.000369 -0.027187 -0.004084
# 2 -0.035730 0.091526 0.012461 0.016176 0.055064 0.015321
# 3 -0.012849 0.012461 0.014034 0.005398 0.013706 0.003998
# 4 -0.000369 0.016176 0.005398 0.053383 0.004273 0.015972
# 5 -0.027187 0.055064 0.013706 0.004273 0.056622 0.008534
# 6 -0.004084 0.015321 0.003998 0.015972 0.008534 0.035697
#
#
# Mechanical properties :
#
#
# Convention : Reuss Voigt Hill
#
# Bulk Modulus (GPa) = 16.06112 67.24369 41.65241
# Shear Modulus (GPa) = 13.39790 33.21338 23.30564
#
# Velocity S-wave (km/s) = 2.28819 3.60272 3.01790
# Velocity P-wave (km/s) = 3.64111 6.60187 5.33115
#
# Compressibility (1/GPa) = 0.06226214
#
# Stress axis : x y z
#
# Youngs Moduli (GPa) = 34.55563 10.92581 71.25468
#
# Poissons Ratio (x) = 0.39038 0.91558
# Poissons Ratio (y) = 1.23467 -0.88788
# Poissons Ratio (z) = 0.44402 -0.13614
#
# Static dielectric constant tensor:
#      x y z
#    x 1.649160 -0.527430 -0.306890 
#    y -0.527430 1.339130 -0.341100 
#    z -0.306890 -0.341100 1.782000 
# 
# From -- ./inp_files/338890.got.cif
#   From: 2010.05.17/outbox.cif.g08.bks.cpg/sg2_170_cif.got.tgz:338890.got - 2010.06.03 11:33:40.
