data_PCOD9106810
_publ_section_title
;
Structure prediction by ZEFSAII (Michael W. Deem and Ramdas Pophale) SiO2 
 PCOD9106810
Probable space group: P -1
;
_chemical_formula_sum "Si O2"
_cell_formula_units_Z 16
_cell_length_a 15.737528
_cell_length_b 12.339183
_cell_length_c 15.728021
_cell_angle_alpha 40.277497
_cell_angle_beta 26.669699
_cell_angle_gamma 58.486131
_cell_volume 741.262969
_symmetry_space_group_name_H-M "P -1"
_symmetry_group_IT_number 2
_symmetry_cell_setting 'triclinic'
loop_
_space_group_symop_operation_xyz
x,y,z
-x,-y,-z
loop_
_atom_site_type_symbol
_atom_site_label
_atom_site_fract_x
_atom_site_fract_y
_atom_site_fract_z
Si Si1 0.013331 0.677773 0.827123
Si Si2 0.221283 0.327258 0.611133
Si Si3 0.199792 0.366169 0.415642
Si Si4 0.251375 0.035947 0.525707
Si Si5 0.472232 0.930850 0.163105
Si Si6 0.547219 0.591108 0.307811
Si Si7 0.700418 0.206357 0.949226
Si Si8 0.740467 0.029272 0.252259
O O1 0.212199 0.776995 0.519633
O O2 0.082076 0.861211 0.719554
O O3 0.000000 0.500000 0.000000
O O4 0.760075 0.596722 0.073709
O O5 0.299984 0.409105 0.395973
O O6 0.342937 0.471519 0.495243
O O7 0.265465 0.148544 0.686670
O O8 0.952782 0.238447 0.904081
O O9 0.282882 0.249696 0.355562
O O10 0.239994 0.570800 0.222310
O O11 0.927714 0.213146 0.752981
O O12 0.175601 0.981948 0.721930
O O13 0.493399 0.062345 0.282169
O O14 0.591219 0.810077 0.143634
O O15 0.500000 0.000000 0.000000
O O16 0.593461 0.122298 0.002358
O O17 0.500000 0.500000 0.500000
O O18 0.500000 0.000000 0.500000
#
# Coordination Sequence:
#
# PCOD9106810 Si02
#       8
#     2   2   2   2   2   2   2   2
#     4  11  24  42  65  99 129 180 230 273 331 412
#     4  10  23  37  56  91 124 156 214 265 317 387
#     4  10  20  40  61  89 120 164 210 264 329 381
#     4  10  21  37  59  87 121 154 213 261 316 382
#     4  11  25  44  66 100 137 174 225 279 336 402
#     4  12  24  41  67  94 134 181 220 276 336 397
#     4  10  21  38  65  87 121 166 213 260 322 398
#     4  10  21  35  57  83 119 159 197 259 322 371
#
# _framework density 21.584783000000002
#
# number of rings (size 3 to 8) (size 9 to 14) (size 15 to 20)
#    0.000    1.500    1.250    3.375    1.750    2.500 
#    0.000    6.250    0.000    0.000    0.000    0.000 
#    0.000    0.000    0.000    0.000    0.000    0.000 
#
# Total GULP energy -89314.091123 kJ/mol
# GULP energy per Si atom -5582.130695 kJ/mol
# Density = 2.153565 g / cm^3
# Si number density = 21.584783 Si / 1000 Ang^3
#
#
#
# Elastic Constant Matrix: (Units=GPa)
#
#
# Indices 1 2 3 4 5 6 
#
# 1 65.2240 12.3537 25.9877 1.7719 9.1782 11.2883
# 2 12.3537 90.7316 20.4826 5.5643 -4.4210 -3.0052
# 3 25.9877 20.4826 74.4819 18.3751 -8.8359 -2.7299
# 4 1.7719 5.5643 18.3751 38.4617 -5.5031 -8.6379
# 5 9.1782 -4.4210 -8.8359 -5.5031 38.8356 3.9161
# 6 11.2883 -3.0052 -2.7299 -8.6379 3.9161 41.0160
#
#
#
# Elastic Compliance Matrix: (Units=1/GPa)
#
#
# Indices 1 2 3 4 5 6 
#
# 1 0.020575 -0.001555 -0.007915 0.000939 -0.006151 -0.005518
# 2 -0.001555 0.011898 -0.002557 -0.000051 0.001030 0.001020
# 3 -0.007915 -0.002557 0.019369 -0.007557 0.004791 0.001231
# 4 0.000939 -0.000051 -0.007557 0.031104 0.001895 0.005604
# 5 -0.006151 0.001030 0.004791 0.001895 0.028705 -0.000254
# 6 -0.005518 0.001020 0.001231 0.005604 -0.000254 0.027261
#
#
# Mechanical properties :
#
#
# Convention : Reuss Voigt Hill
#
# Bulk Modulus (GPa) = 35.98705 38.67616 37.33160
# Shear Modulus (GPa) = 29.03145 35.10356 32.06750
#
# Velocity S-wave (km/s) = 3.67140 4.03713 3.85860
# Velocity P-wave (km/s) = 5.88904 6.29987 6.09792
#
# Compressibility (1/GPa) = 0.02778778
#
# Stress axis : x y z
#
# Youngs Moduli (GPa) = 48.60288 84.05058 51.62960
#
# Poissons Ratio (x) = 0.13067 0.40864
# Poissons Ratio (y) = 0.07556 0.13202
# Poissons Ratio (z) = 0.38469 0.21493
#
# Static dielectric constant tensor:
#      x y z
#    x 1.829150 -0.004490 0.000710 
#    y -0.004490 1.814800 0.005120 
#    z 0.000710 0.005120 1.867430 
# 
# From -- ./inp_files/532324.got.cif
#   From: 2010.05.17/outbox.cif.g08.bks.cpg/sg2_267_cif.got.tgz:532324.got - 2010.06.03 11:33:40.
