data_PCOD9106477
_publ_section_title
;
Structure prediction by ZEFSAII (Michael W. Deem and Ramdas Pophale) SiO2 
 PCOD9106477
Probable space group: P -1
;
_chemical_formula_sum "Si O2"
_cell_formula_units_Z 16
_cell_length_a 17.541700
_cell_length_b 14.816056
_cell_length_c 8.916586
_cell_angle_alpha 41.425234
_cell_angle_beta 30.480029
_cell_angle_gamma 41.736771
_cell_volume 742.409794
_symmetry_space_group_name_H-M "P -1"
_symmetry_group_IT_number 2
_symmetry_cell_setting 'triclinic'
loop_
_space_group_symop_operation_xyz
x,y,z
-x,-y,-z
loop_
_atom_site_type_symbol
_atom_site_label
_atom_site_fract_x
_atom_site_fract_y
_atom_site_fract_z
Si Si1 0.336246 0.777418 0.770839
Si Si2 0.232522 0.014518 0.164920
Si Si3 0.643092 0.731187 0.482897
Si Si4 0.498506 0.149020 0.886983
Si Si5 0.897819 0.382517 0.743580
Si Si6 0.898271 0.114027 0.735851
Si Si7 0.219697 0.295860 0.386298
Si Si8 0.111151 0.563262 0.633522
O O1 0.461537 0.754108 0.722767
O O2 0.439007 0.783715 0.443232
O O3 0.247739 0.667192 0.002086
O O4 0.186985 0.898162 0.946894
O O5 0.373211 0.887900 0.152355
O O6 0.171129 0.962799 0.180591
O O7 0.087027 0.053024 0.480466
O O8 0.293095 0.152000 0.858604
O O9 0.687000 0.746383 0.563089
O O10 0.731768 0.568964 0.485918
O O11 0.330914 0.225234 0.149275
O O12 0.500000 0.000000 0.000000
O O13 0.827629 0.532025 0.758622
O O14 0.967145 0.409209 0.432181
O O15 0.045311 0.274806 0.712297
O O16 0.865333 0.285574 0.546444
O O17 0.000000 0.500000 0.000000
#
# Coordination Sequence:
#
# PCOD9106477 Si02
#       8
#     2   2   2   2   2   2   2   2
#     4  11  25  42  67  98 131 171 222 274 334 382
#     4  11  24  44  64  98 133 175 222 266 339 393
#     4  11  23  42  72  96 128 178 219 275 333 391
#     4  12  27  41  63  96 134 180 214 269 330 396
#     4   9  23  45  69 100 127 173 219 280 331 388
#     4  10  24  42  67  98 131 168 227 273 322 409
#     4  10  24  45  69  95 137 170 225 268 335 396
#     4  10  20  39  70  97 126 169 217 274 328 389
#
# _framework density 21.551438999999998
#
# number of rings (size 3 to 8) (size 9 to 14) (size 15 to 20)
#    0.000    1.500    2.500    0.750    7.000    9.500 
#    2.250    0.000    0.000    0.000    0.000    0.000 
#    0.000    0.000    0.000    0.000    0.000    0.000 
#
# Total GULP energy -89208.682529 kJ/mol
# GULP energy per Si atom -5575.542658 kJ/mol
# Density = 2.150239 g / cm^3
# Si number density = 21.551439 Si / 1000 Ang^3
#
#
#
# Elastic Constant Matrix: (Units=GPa)
#
#
# Indices 1 2 3 4 5 6 
#
# 1 89.1606 20.9887 44.4021 -0.8877 -23.0293 -8.2787
# 2 20.9887 87.1497 23.6557 24.4014 -9.6557 8.0623
# 3 44.4021 23.6557 79.9941 23.3509 -13.5355 -3.9218
# 4 -0.8877 24.4014 23.3509 31.4740 6.5703 -1.1506
# 5 -23.0293 -9.6557 -13.5355 6.5703 34.2233 -1.0556
# 6 -8.2787 8.0623 -3.9218 -1.1506 -1.0556 25.3703
#
#
#
# Elastic Compliance Matrix: (Units=1/GPa)
#
#
# Indices 1 2 3 4 5 6 
#
# 1 0.021023 -0.005499 -0.012736 0.013493 0.005198 0.007467
# 2 -0.005499 0.018489 0.003830 -0.018954 0.006433 -0.007670
# 3 -0.012736 0.003830 0.027013 -0.025103 0.007951 -0.002005
# 4 0.013493 -0.018954 -0.025103 0.069832 -0.019328 0.008909
# 5 0.005198 0.006433 0.007951 -0.019328 0.041441 0.001729
# 6 0.007467 -0.007670 -0.002005 0.008909 0.001729 0.044456
#
#
# Mechanical properties :
#
#
# Convention : Reuss Voigt Hill
#
# Bulk Modulus (GPa) = 26.51523 48.26636 37.39079
# Shear Modulus (GPa) = 18.96557 29.36404 24.16480
#
# Velocity S-wave (km/s) = 2.96972 3.69522 3.35216
# Velocity P-wave (km/s) = 4.90805 6.37579 5.68945
#
# Compressibility (1/GPa) = 0.03771418
#
# Stress axis : x y z
#
# Youngs Moduli (GPa) = 47.56667 54.08760 37.01973
#
# Poissons Ratio (x) = 0.29743 0.47150
# Poissons Ratio (y) = 0.26157 -0.14180
# Poissons Ratio (z) = 0.60583 -0.20717
#
# Static dielectric constant tensor:
#      x y z
#    x 1.861700 -0.026340 -0.102500 
#    y -0.026340 1.793190 0.058100 
#    z -0.102500 0.058100 1.543060 
# 
# From -- ./inp_files/335601.got.cif
#   From: 2010.05.17/outbox.cif.g08.bks.cpg/sg2_168_cif.got.tgz:335601.got - 2010.06.03 11:33:40.
