data_PCOD9106710
_publ_section_title
;
Structure prediction by ZEFSAII (Michael W. Deem and Ramdas Pophale) SiO2 
 PCOD9106710
Probable space group: P -1
;
_chemical_formula_sum "Si O2"
_cell_formula_units_Z 13
_cell_length_a 8.420157
_cell_length_b 16.447374
_cell_length_c 16.476145
_cell_angle_alpha 18.194109
_cell_angle_beta 45.805373
_cell_angle_gamma 45.578107
_cell_volume 503.521037
_symmetry_space_group_name_H-M "P -1"
_symmetry_group_IT_number 2
_symmetry_cell_setting 'triclinic'
loop_
_space_group_symop_operation_xyz
x,y,z
-x,-y,-z
loop_
_atom_site_type_symbol
_atom_site_label
_atom_site_fract_x
_atom_site_fract_y
_atom_site_fract_z
Si Si1 0.845532 0.021647 0.954099
Si Si2 0.771937 0.474427 0.423862
Si Si3 0.394631 0.790047 0.848072
Si Si4 0.824189 0.344426 0.341627
Si Si5 0.000000 0.500000 0.000000
Si Si6 0.689541 0.215148 0.283296
Si Si7 0.462788 0.121387 0.118022
O O1 0.595224 0.111067 0.996507
O O2 0.844939 0.742895 0.175093
O O3 0.878093 0.242378 0.667622
O O4 0.000000 0.000000 0.000000
O O5 0.500000 0.500000 0.500000
O O6 0.836591 0.413446 0.365508
O O7 0.216936 0.823818 0.805572
O O8 0.365544 0.865292 0.881658
O O9 0.552265 0.992187 0.570632
O O10 0.504581 0.483713 0.098652
O O11 0.058034 0.322443 0.234192
O O12 0.663633 0.128105 0.595714
O O13 0.718194 0.605890 0.074794
O O14 0.883161 0.259377 0.232026
#
# Coordination Sequence:
#
# PCOD9106710 Si02
#       7
#     2   2   2   2   1   2   2
#     4  12  26  44  74 107 140 174 235 298 348 411
#     4  12  23  47  72 105 136 188 233 283 353 423
#     4  10  20  40  60  89 121 180 215 263 333 411
#     4  12  26  39  72  99 138 181 229 286 340 414
#     4  12  24  44  62 108 130 178 232 288 326 402
#     4  10  22  37  62  86 130 168 222 269 325 390
#     4  12  21  43  67  99 132 186 224 276 359 413
#
# _framework density 25.818186000000001
#
# number of rings (size 3 to 8) (size 9 to 14) (size 15 to 20)
#    0.000    0.615    6.154    1.846    0.000    3.692 
#    0.000    4.615    0.000    0.000    0.000    0.000 
#    0.000    0.000    0.000    0.000    0.000    0.000 
#
# Total GULP energy -72596.956988 kJ/mol
# GULP energy per Si atom -5584.381307 kJ/mol
# Density = 2.575942 g / cm^3
# Si number density = 25.818186 Si / 1000 Ang^3
#
#
#
# Elastic Constant Matrix: (Units=GPa)
#
#
# Indices 1 2 3 4 5 6 
#
# 1 105.2003 43.7012 39.7388 -11.0544 4.0388 41.4470
# 2 43.7012 129.4626 58.6636 17.4327 11.6910 53.9915
# 3 39.7388 58.6636 166.4140 -10.9898 4.7465 12.3110
# 4 -11.0544 17.4327 -10.9898 46.1431 12.5961 3.6996
# 5 4.0388 11.6910 4.7465 12.5961 31.0757 4.9392
# 6 41.4470 53.9915 12.3110 3.6996 4.9392 55.0572
#
#
#
# Elastic Compliance Matrix: (Units=1/GPa)
#
#
# Indices 1 2 3 4 5 6 
#
# 1 0.015389 0.000351 -0.002618 0.004302 -0.001651 -0.011484
# 2 0.000351 0.017654 -0.005540 -0.006441 -0.000713 -0.015841
# 3 -0.002618 -0.005540 0.008440 0.003337 -0.001074 0.005389
# 4 0.004302 -0.006441 0.003337 0.028685 -0.010487 0.001344
# 5 -0.001651 -0.000713 -0.001074 -0.010487 0.037148 -0.000446
# 6 -0.011484 -0.015841 0.005389 0.001344 -0.000446 0.041088
#
#
# Mechanical properties :
#
#
# Convention : Reuss Voigt Hill
#
# Bulk Modulus (GPa) = 38.65724 76.14267 57.39996
# Shear Modulus (GPa) = 28.96189 43.72010 36.34100
#
# Velocity S-wave (km/s) = 3.35291 4.11954 3.75583
# Velocity P-wave (km/s) = 5.47674 7.22381 6.41007
#
# Compressibility (1/GPa) = 0.02586838
#
# Stress axis : x y z
#
# Youngs Moduli (GPa) = 64.98226 56.64305 118.48897
#
# Poissons Ratio (x) = -0.01987 0.31016
# Poissons Ratio (y) = -0.02279 0.65647
# Poissons Ratio (z) = 0.17010 0.31382
#
# Static dielectric constant tensor:
#      x y z
#    x 1.802720 0.454210 0.130920 
#    y 0.454210 1.150230 -0.228970 
#    z 0.130920 -0.228970 2.022900 
# 
# From -- ./inp_files/202364.got.cif
#   From: 2010.05.17/outbox.cif.g08.bks.cpg/sg2_102_cif.got.tgz:202364.got - 2010.06.03 11:33:40.
