data_PCOD9106575
_publ_section_title
;
Structure prediction by ZEFSAII (Michael W. Deem and Ramdas Pophale) SiO2 
 PCOD9106575
Probable space group: P -1
;
_chemical_formula_sum "Si O2"
_cell_formula_units_Z 15
_cell_length_a 14.157204
_cell_length_b 13.666843
_cell_length_c 7.802683
_cell_angle_alpha 73.866439
_cell_angle_beta 89.026080
_cell_angle_gamma 27.522113
_cell_volume 573.685829
_symmetry_space_group_name_H-M "P -1"
_symmetry_group_IT_number 2
_symmetry_cell_setting 'triclinic'
loop_
_space_group_symop_operation_xyz
x,y,z
-x,-y,-z
loop_
_atom_site_type_symbol
_atom_site_label
_atom_site_fract_x
_atom_site_fract_y
_atom_site_fract_z
Si Si1 0.823369 0.551043 0.644768
Si Si2 0.264813 0.876301 0.799700
Si Si3 0.247694 0.590430 0.470358
Si Si4 0.500000 0.000000 0.500000
Si Si5 0.728778 0.748527 0.221922
Si Si6 0.764566 0.027452 0.881119
Si Si7 0.246144 0.674544 0.080137
Si Si8 0.938604 0.666196 0.822166
O O1 0.789026 0.475663 0.608055
O O2 0.671561 0.778368 0.407038
O O3 0.078735 0.351468 0.728144
O O4 0.661073 0.740037 0.715762
O O5 0.518023 0.624824 0.822566
O O6 0.264715 0.953893 0.921800
O O7 0.260608 0.769050 0.943180
O O8 0.018502 0.132143 0.573486
O O9 0.503633 0.325102 0.682497
O O10 0.255895 0.670971 0.287948
O O11 0.278379 0.140762 0.391026
O O12 0.846608 0.535101 0.224934
O O13 0.500000 0.000000 0.000000
O O14 0.852807 0.839231 0.869147
O O15 0.999210 0.866713 0.936677
O O16 0.000000 0.500000 0.000000
#
# Coordination Sequence:
#
# PCOD9106575 Si02
#       8
#     2   2   2   1   2   2   2   2
#     4  10  22  39  58  88 124 169 218 269 320 382
#     4  10  25  48  69  99 143 171 221 284 356 415
#     4  11  23  41  70 100 135 173 225 280 340 400
#     4  10  20  40  56  82 130 168 208 262 318 374
#     4  10  23  39  59  85 124 175 222 269 323 380
#     4  11  24  41  69 106 132 176 234 279 334 410
#     4  10  25  47  70 101 135 180 217 284 355 418
#     4  11  24  38  62  88 129 175 219 266 325 383
#
# _framework density 26.146716999999999
#
# number of rings (size 3 to 8) (size 9 to 14) (size 15 to 20)
#    0.000    1.600    1.333    2.400    7.467    6.400 
#    2.400    2.667    0.000    0.000    0.000    0.000 
#    0.000    0.000    0.000    0.000    0.000    0.000 
#
# Total GULP energy -83624.604182 kJ/mol
# GULP energy per Si atom -5574.973612 kJ/mol
# Density = 2.608721 g / cm^3
# Si number density = 26.146717 Si / 1000 Ang^3
#
#
#
# Elastic Constant Matrix: (Units=GPa)
#
#
# Indices 1 2 3 4 5 6 
#
# 1 51.0642 25.2136 33.6530 -17.1672 5.0699 1.8257
# 2 25.2136 186.4665 54.5569 -38.2842 16.6963 -3.6229
# 3 33.6530 54.5569 159.7148 -47.0044 25.1337 -15.9964
# 4 -17.1672 -38.2842 -47.0044 66.5201 -7.3983 11.2226
# 5 5.0699 16.6963 25.1337 -7.3983 35.7210 -9.5576
# 6 1.8257 -3.6229 -15.9964 11.2226 -9.5576 36.6186
#
#
#
# Elastic Compliance Matrix: (Units=1/GPa)
#
#
# Indices 1 2 3 4 5 6 
#
# 1 0.024233 -0.001489 -0.004007 0.003231 -0.000377 -0.004195
# 2 -0.001489 0.006538 -0.000933 0.002677 -0.001902 -0.001003
# 3 -0.004007 -0.000933 0.009589 0.004416 -0.004343 0.001809
# 4 0.003231 0.002677 0.004416 0.021162 -0.001748 -0.004909
# 5 -0.000377 -0.001902 -0.004343 -0.001748 0.033566 0.007230
# 6 -0.004195 -0.001003 0.001809 -0.004909 0.007230 0.031600
#
#
# Mechanical properties :
#
#
# Convention : Reuss Voigt Hill
#
# Bulk Modulus (GPa) = 36.36176 69.34362 52.85269
# Shear Modulus (GPa) = 33.62219 46.69340 40.15779
#
# Velocity S-wave (km/s) = 3.58984 4.23048 3.92326
# Velocity P-wave (km/s) = 5.57850 7.10220 6.38595
#
# Compressibility (1/GPa) = 0.02750142
#
# Stress axis : x y z
#
# Youngs Moduli (GPa) = 41.26622 152.96276 104.29134
#
# Poissons Ratio (x) = 0.22769 0.41794
# Poissons Ratio (y) = 0.06143 0.09729
# Poissons Ratio (z) = 0.16537 0.14269
#
# Static dielectric constant tensor:
#      x y z
#    x 2.126720 0.077800 -0.098820 
#    y 0.077800 2.413600 0.016100 
#    z -0.098820 0.016100 2.202230 
# 
# From -- ./inp_files/314921.got.cif
#   From: 2010.05.17/outbox.cif.g08.bks.cpg/sg2_158_cif.got.tgz:314921.got - 2010.06.03 11:33:40.
