data_PCOD9106995
_publ_section_title
;
Structure prediction by ZEFSAII (Michael W. Deem and Ramdas Pophale) SiO2 
 PCOD9106995
Probable space group: P -1
;
_chemical_formula_sum "Si O2"
_cell_formula_units_Z 16
_cell_length_a 8.077757
_cell_length_b 20.291902
_cell_length_c 23.023746
_cell_angle_alpha 159.345562
_cell_angle_beta 151.122355
_cell_angle_gamma 32.783795
_cell_volume 637.806566
_symmetry_space_group_name_H-M "P -1"
_symmetry_group_IT_number 2
_symmetry_cell_setting 'triclinic'
loop_
_space_group_symop_operation_xyz
x,y,z
-x,-y,-z
loop_
_atom_site_type_symbol
_atom_site_label
_atom_site_fract_x
_atom_site_fract_y
_atom_site_fract_z
Si Si1 0.565382 0.926723 0.326018
Si Si2 0.790769 0.593676 0.200046
Si Si3 0.180008 0.212832 0.020428
Si Si4 0.198955 0.714443 0.858581
Si Si5 0.870354 0.297936 0.306712
Si Si6 0.603722 0.173693 0.298291
Si Si7 0.270875 0.326968 0.617648
Si Si8 0.538485 0.039711 0.293322
O O1 0.787078 0.784770 0.320731
O O2 0.743454 0.957961 0.344976
O O3 0.457636 0.123750 0.488733
O O4 0.211017 0.831151 0.119710
O O5 0.690232 0.632063 0.268065
O O6 0.113941 0.431783 0.160053
O O7 0.500000 0.500000 0.000000
O O8 0.531405 0.237349 0.185503
O O9 0.276765 0.032289 0.860488
O O10 0.209343 0.756387 0.828435
O O11 0.348900 0.504653 0.750444
O O12 0.790462 0.757191 0.781244
O O13 0.400375 0.862774 0.074705
O O14 0.000000 0.500000 0.500000
O O15 0.210791 0.171269 0.328405
O O16 0.864794 0.313274 0.472650
O O17 0.654462 0.155991 0.369808
#
# Coordination Sequence:
#
# PCOD9106995 Si02
#       8
#     2   2   2   2   2   2   2   2
#     4  10  23  42  65  89 122 164 217 257 305 360
#     4  10  22  42  65  89 121 163 212 263 304 358
#     4  10  20  40  62  91 123 166 205 250 314 363
#     4  11  20  38  61  93 131 165 200 246 313 376
#     4  11  22  36  61  93 135 163 199 254 314 372
#     4  10  21  40  61  95 131 160 201 253 312 372
#     4  11  23  40  66  92 119 164 212 258 304 370
#     4  11  21  41  63  91 133 166 197 255 314 367
#
# _framework density 25.085974
#
# number of rings (size 3 to 8) (size 9 to 14) (size 15 to 20)
#    0.000    1.500    2.500    3.750    3.500    0.500 
#    6.750    1.250    5.500    0.000    0.000    0.000 
#    0.000    0.000    0.000    0.000    0.000    0.000 
#
# Total GULP energy -89335.848747 kJ/mol
# GULP energy per Si atom -5583.490547 kJ/mol
# Density = 2.502888 g / cm^3
# Si number density = 25.085974 Si / 1000 Ang^3
#
#
#
# Elastic Constant Matrix: (Units=GPa)
#
#
# Indices 1 2 3 4 5 6 
#
# 1 54.4350 14.6574 22.0298 1.8476 1.2200 10.4379
# 2 14.6574 68.6732 11.7454 30.4777 -14.5579 18.4920
# 3 22.0298 11.7454 106.7114 10.0649 -1.4108 2.2290
# 4 1.8476 30.4777 10.0649 51.5725 8.4001 1.8296
# 5 1.2200 -14.5579 -1.4108 8.4001 47.7307 -8.2480
# 6 10.4379 18.4920 2.2290 1.8296 -8.2480 38.3326
#
#
#
# Elastic Compliance Matrix: (Units=1/GPa)
#
#
# Indices 1 2 3 4 5 6 
#
# 1 0.022374 -0.005528 -0.004359 0.004089 -0.003831 -0.004192
# 2 -0.005528 0.028329 0.000040 -0.017918 0.010368 -0.009077
# 3 -0.004359 0.000040 0.010459 -0.002094 0.000951 0.000864
# 4 0.004089 -0.017918 -0.002094 0.031825 -0.010565 0.003860
# 5 -0.003831 0.010368 0.000951 -0.010565 0.026476 0.002188
# 6 -0.004192 -0.009077 0.000864 0.003860 0.002188 0.031844
#
#
# Mechanical properties :
#
#
# Convention : Reuss Voigt Hill
#
# Bulk Modulus (GPa) = 24.11548 36.29831 30.20690
# Shear Modulus (GPa) = 27.05279 39.61964 33.33622
#
# Velocity S-wave (km/s) = 3.28747 3.97842 3.64933
# Velocity P-wave (km/s) = 4.90346 5.96697 5.46117
#
# Compressibility (1/GPa) = 0.04146714
#
# Stress axis : x y z
#
# Youngs Moduli (GPa) = 44.69489 35.29959 95.61482
#
# Poissons Ratio (x) = 0.19513 0.41681
# Poissons Ratio (y) = 0.24706 -0.00380
# Poissons Ratio (z) = 0.19483 -0.00140
#
# Static dielectric constant tensor:
#      x y z
#    x 2.054780 -0.017580 0.038510 
#    y -0.017580 2.025720 -0.042590 
#    z 0.038510 -0.042590 2.010750 
# 
# From -- ./inp_files/178776.got.cif
#   From: 2010.05.17/outbox.cif.g08.bks.cpg/sg2_90_cif.got.tgz:178776.got - 2010.06.03 11:33:40.
