data_PCOD9106274
_publ_section_title
;
Structure prediction by ZEFSAII (Michael W. Deem and Ramdas Pophale) SiO2 
 PCOD9106274
Probable space group: P -1
;
_chemical_formula_sum "Si O2"
_cell_formula_units_Z 12
_cell_length_a 17.837374
_cell_length_b 15.364661
_cell_length_c 13.026721
_cell_angle_alpha 155.000083
_cell_angle_beta 156.981591
_cell_angle_gamma 22.494330
_cell_volume 495.346704
_symmetry_space_group_name_H-M "P -1"
_symmetry_group_IT_number 2
_symmetry_cell_setting 'triclinic'
loop_
_space_group_symop_operation_xyz
x,y,z
-x,-y,-z
loop_
_atom_site_type_symbol
_atom_site_label
_atom_site_fract_x
_atom_site_fract_y
_atom_site_fract_z
Si Si1 0.854363 0.580648 0.123192
Si Si2 0.400636 0.850880 0.166263
Si Si3 0.994662 0.169470 0.276459
Si Si4 0.801715 0.372958 0.051671
Si Si5 0.078780 0.067543 0.801273
Si Si6 0.380044 0.785272 0.685959
O O1 0.996098 0.683291 0.459306
O O2 0.813735 0.469116 0.057347
O O3 0.607923 0.789366 0.990579
O O4 0.988730 0.353011 0.971065
O O5 0.500000 0.000000 0.500000
O O6 0.250835 0.798704 0.997172
O O7 0.589310 0.603203 0.084481
O O8 0.217209 0.011256 0.019388
O O9 0.001426 0.277452 0.289489
O O10 0.185988 0.881603 0.220972
O O11 0.250574 0.873962 0.727272
O O12 0.846007 0.069013 0.513927
O O13 0.500000 0.500000 0.500000
#
# Coordination Sequence:
#
# PCOD9106274 Si02
#       6
#     2   2   2   2   2   2
#     4  11  21  41  68  93 129 170 215 266 321 375
#     4  12  25  41  65  97 134 173 212 264 326 386
#     4  11  26  40  61  98 132 173 216 261 319 386
#     4  11  24  40  64  93 134 173 215 260 319 385
#     4  10  20  39  68  95 130 165 216 267 321 379
#     4   9  20  38  69  97 119 173 218 262 325 377
#
# _framework density 24.225453999999999
#
# number of rings (size 3 to 8) (size 9 to 14) (size 15 to 20)
#    0.000    1.333    3.333    2.000    4.667    1.333 
#    0.000    0.833    0.000    6.000    0.000    0.000 
#    0.000    0.000    0.000    0.000    0.000    0.000 
#
# Total GULP energy -66928.324231 kJ/mol
# GULP energy per Si atom -5577.360353 kJ/mol
# Density = 2.417032 g / cm^3
# Si number density = 24.225454 Si / 1000 Ang^3
#
#
#
# Elastic Constant Matrix: (Units=GPa)
#
#
# Indices 1 2 3 4 5 6 
#
# 1 73.7353 41.8492 36.9147 9.4801 -17.3045 -10.3183
# 2 41.8492 156.5140 35.4961 -2.7889 -2.6321 -22.7484
# 3 36.9147 35.4961 150.5174 -14.7794 -9.9790 -6.1440
# 4 9.4801 -2.7889 -14.7794 44.3488 2.9896 -18.3460
# 5 -17.3045 -2.6321 -9.9790 2.9896 34.6921 -0.5132
# 6 -10.3183 -22.7484 -6.1440 -18.3460 -0.5132 55.2236
#
#
#
# Elastic Compliance Matrix: (Units=1/GPa)
#
#
# Indices 1 2 3 4 5 6 
#
# 1 0.021594 -0.004893 -0.004245 -0.007328 0.009799 -0.000796
# 2 -0.004893 0.008320 -0.000473 0.002975 -0.002151 0.003429
# 3 -0.004245 -0.000473 0.008253 0.004181 -0.000120 0.001318
# 4 -0.007328 0.002975 0.004181 0.030289 -0.004684 0.010340
# 5 0.009799 -0.002151 -0.000120 -0.004684 0.033914 -0.000309
# 6 -0.000796 0.003429 0.001318 0.010340 -0.000309 0.022951
#
#
# Mechanical properties :
#
#
# Convention : Reuss Voigt Hill
#
# Bulk Modulus (GPa) = 52.77967 67.69856 60.23912
# Shear Modulus (GPa) = 33.14407 44.62001 38.88204
#
# Velocity S-wave (km/s) = 3.70286 4.29635 4.01060
# Velocity P-wave (km/s) = 6.33370 7.25378 6.80930
#
# Compressibility (1/GPa) = 0.01894669
#
# Stress axis : x y z
#
# Youngs Moduli (GPa) = 46.30815 120.19441 121.17356
#
# Poissons Ratio (x) = 0.58810 0.51434
# Poissons Ratio (y) = 0.22658 0.05726
# Poissons Ratio (z) = 0.19656 0.05680
#
# Static dielectric constant tensor:
#      x y z
#    x 2.022590 0.064220 0.030970 
#    y 0.064220 1.986080 0.028670 
#    z 0.030970 0.028670 2.013900 
# 
# From -- ./inp_files/335468.got.cif
#   From: 2010.05.17/outbox.cif.g08.bks.cpg/sg2_168_cif.got.tgz:335468.got - 2010.06.03 11:33:40.
