data_PCOD9106122
_publ_section_title
;
Structure prediction by ZEFSAII (Michael W. Deem and Ramdas Pophale) SiO2 
 PCOD9106122
Probable space group: P -1
;
_chemical_formula_sum "Si O2"
_cell_formula_units_Z 16
_cell_length_a 9.632403
_cell_length_b 15.853112
_cell_length_c 11.150808
_cell_angle_alpha 71.635779
_cell_angle_beta 136.125592
_cell_angle_gamma 134.049467
_cell_volume 786.778987
_symmetry_space_group_name_H-M "P -1"
_symmetry_group_IT_number 2
_symmetry_cell_setting 'triclinic'
loop_
_space_group_symop_operation_xyz
x,y,z
-x,-y,-z
loop_
_atom_site_type_symbol
_atom_site_label
_atom_site_fract_x
_atom_site_fract_y
_atom_site_fract_z
Si Si1 0.186572 0.209850 0.648177
Si Si2 0.431857 0.119200 0.943399
Si Si3 0.125069 0.752266 0.208784
Si Si4 0.065067 0.358121 0.602836
Si Si5 0.503680 0.597706 0.896138
Si Si6 0.861676 0.368017 0.228615
Si Si7 0.432542 0.997516 0.761746
Si Si8 0.787171 0.401962 0.805510
O O1 0.207349 0.128009 0.779985
O O2 0.207216 0.307171 0.692369
O O3 0.463020 0.295990 0.695841
O O4 0.890690 0.117793 0.432383
O O5 0.431775 0.062907 0.846719
O O6 0.728442 0.263723 0.090187
O O7 0.415969 0.044353 0.076415
O O8 0.388737 0.898219 0.277381
O O9 0.130243 0.668188 0.163386
O O10 0.115589 0.711860 0.356833
O O11 0.833462 0.715040 0.020280
O O12 0.288413 0.509270 0.692936
O O13 0.898149 0.326667 0.392532
O O14 0.362911 0.625825 0.880813
O O15 0.500000 0.500000 0.000000
O O16 0.147706 0.505267 0.299001
O O17 0.000000 0.500000 0.000000
#
# Coordination Sequence:
#
# PCOD9106122 Si02
#       8
#     2   2   2   2   2   2   2   2
#     4  12  24  45  71  99 139 183 224 279 347 390
#     4  11  23  44  70  95 137 178 229 287 328 393
#     4  11  23  44  68  97 135 181 228 272 344 405
#     4  11  24  42  67 103 141 176 221 286 339 415
#     4  10  20  39  67  94 132 177 214 278 348 391
#     4  12  22  44  66 103 140 168 231 285 342 407
#     4  11  25  47  67  99 136 184 235 276 327 412
#     4  12  23  39  74 102 131 179 224 280 345 409
#
# _framework density 20.336079999999999
#
# number of rings (size 3 to 8) (size 9 to 14) (size 15 to 20)
#    0.000    0.750    6.250    3.000    0.000    1.000 
#    6.750    1.250    0.000    0.000    0.000    0.000 
#    0.000    0.000    0.000    0.000    0.000    0.000 
#
# Total GULP energy -89305.824758 kJ/mol
# GULP energy per Si atom -5581.614047 kJ/mol
# Density = 2.028979 g / cm^3
# Si number density = 20.336080 Si / 1000 Ang^3
#
#
#
# Elastic Constant Matrix: (Units=GPa)
#
#
# Indices 1 2 3 4 5 6 
#
# 1 87.0999 40.6421 33.7426 5.3345 0.4460 9.3141
# 2 40.6421 100.4520 43.7832 1.6813 1.6832 9.8802
# 3 33.7426 43.7832 109.6275 -0.4444 -10.8918 13.3234
# 4 5.3345 1.6813 -0.4444 44.7926 -1.6689 4.5093
# 5 0.4460 1.6832 -10.8918 -1.6689 28.1431 0.5010
# 6 9.3141 9.8802 13.3234 4.5093 0.5010 35.0876
#
#
#
# Elastic Compliance Matrix: (Units=1/GPa)
#
#
# Indices 1 2 3 4 5 6 
#
# 1 0.014961 -0.004710 -0.002661 -0.001527 -0.001051 -0.001423
# 2 -0.004710 0.013822 -0.004180 0.000016 -0.002351 -0.001023
# 3 -0.002661 -0.004180 0.012512 0.001104 0.005255 -0.003084
# 4 -0.001527 0.000016 0.001104 0.022887 0.001861 -0.002986
# 5 -0.001051 -0.002351 0.005255 0.001861 0.037867 -0.001834
# 6 -0.001423 -0.001023 -0.003084 -0.002986 -0.001834 0.030747
#
#
# Mechanical properties :
#
#
# Convention : Reuss Voigt Hill
#
# Bulk Modulus (GPa) = 54.96727 59.27947 57.12337
# Shear Modulus (GPa) = 30.87137 33.53876 32.20506
#
# Velocity S-wave (km/s) = 3.90045 4.06547 3.98382
# Velocity P-wave (km/s) = 6.88279 7.15895 7.02223
#
# Compressibility (1/GPa) = 0.01819264
#
# Stress axis : x y z
#
# Youngs Moduli (GPa) = 66.84077 72.34762 79.92517
#
# Poissons Ratio (x) = 0.34075 0.21271
# Poissons Ratio (y) = 0.31481 0.33407
# Poissons Ratio (z) = 0.17789 0.30239
#
# Static dielectric constant tensor:
#      x y z
#    x 1.712230 -0.008820 -0.018530 
#    y -0.008820 1.751250 0.000180 
#    z -0.018530 0.000180 1.783670 
# 
# From -- ./inp_files/399010.got.cif
#   From: 2010.05.17/outbox.cif.g08.bks.cpg/sg2_200_cif.got.tgz:399010.got - 2010.06.03 11:33:40.
