data_PCOD9106475
_publ_section_title
;
Structure prediction by ZEFSAII (Michael W. Deem and Ramdas Pophale) SiO2 
 PCOD9106475
Probable space group: P -1
;
_chemical_formula_sum "Si O2"
_cell_formula_units_Z 16
_cell_length_a 13.202805
_cell_length_b 11.675222
_cell_length_c 9.060284
_cell_angle_alpha 115.341032
_cell_angle_beta 52.980846
_cell_angle_gamma 71.605870
_cell_volume 612.126970
_symmetry_space_group_name_H-M "P -1"
_symmetry_group_IT_number 2
_symmetry_cell_setting 'triclinic'
loop_
_space_group_symop_operation_xyz
x,y,z
-x,-y,-z
loop_
_atom_site_type_symbol
_atom_site_label
_atom_site_fract_x
_atom_site_fract_y
_atom_site_fract_z
Si Si1 0.531196 0.330254 0.341323
Si Si2 0.289453 0.716026 0.373090
Si Si3 0.309700 0.229168 0.210861
Si Si4 0.957513 0.656586 0.954300
Si Si5 0.009326 0.249436 0.466169
Si Si6 0.648067 0.144116 0.836382
Si Si7 0.795039 0.535137 0.082044
Si Si8 0.171821 0.971130 0.857489
O O1 0.500000 0.500000 0.500000
O O2 0.523885 0.323609 0.168995
O O3 0.373659 0.375564 0.603306
O O4 0.745920 0.103661 0.090723
O O5 0.341930 0.761732 0.492637
O O6 0.124769 0.730442 0.519448
O O7 0.500000 0.500000 0.000000
O O8 0.220916 0.876725 0.403652
O O9 0.154684 0.432666 0.569988
O O10 0.145645 0.262849 0.294873
O O11 0.460338 0.204589 0.972808
O O12 0.500000 0.000000 0.000000
O O13 0.006263 0.635020 0.074361
O O14 0.776693 0.695197 0.137062
O O15 0.891122 0.843351 0.047602
O O16 0.834208 0.430911 0.839595
O O17 0.178832 0.060260 0.328608
O O18 0.000000 0.000000 0.000000
#
# Coordination Sequence:
#
# PCOD9106475 Si02
#       8
#     2   2   2   2   2   2   2   2
#     4  12  24  42  69 101 137 186 239 285 347 426
#     4  12  26  44  67 100 143 184 232 290 355 415
#     4   9  20  40  72 100 133 178 233 289 348 422
#     4  10  21  40  68 103 138 182 230 294 351 421
#     4  10  21  41  66  96 131 180 231 279 338 423
#     4  11  22  42  69 101 130 178 236 283 344 422
#     4  10  20  39  70  96 137 180 235 279 352 426
#     4  12  27  44  69 101 146 186 234 297 354 409
#
# _framework density 26.138366000000001
#
# number of rings (size 3 to 8) (size 9 to 14) (size 15 to 20)
#    0.000    1.250    1.250    4.875    1.750    1.500 
#    0.000    0.625    2.750    0.000    0.000    0.000 
#    0.000    0.000    0.000    0.000    0.000    0.000 
#
# Total GULP energy -89270.970485 kJ/mol
# GULP energy per Si atom -5579.435655 kJ/mol
# Density = 2.607887 g / cm^3
# Si number density = 26.138366 Si / 1000 Ang^3
#
#
#
# Elastic Constant Matrix: (Units=GPa)
#
#
# Indices 1 2 3 4 5 6 
#
# 1 127.6522 33.1603 14.6559 -11.2954 -1.6873 13.1702
# 2 33.1603 131.8933 1.4639 1.8362 -2.4360 18.2433
# 3 14.6559 1.4639 63.4461 6.8164 -9.7625 10.7952
# 4 -11.2954 1.8362 6.8164 41.7710 7.2517 -0.3115
# 5 -1.6873 -2.4360 -9.7625 7.2517 38.2798 -12.3581
# 6 13.1702 18.2433 10.7952 -0.3115 -12.3581 35.8901
#
#
#
# Elastic Compliance Matrix: (Units=1/GPa)
#
#
# Indices 1 2 3 4 5 6 
#
# 1 0.009108 -0.002042 -0.002282 0.003188 -0.001606 -0.002143
# 2 -0.002042 0.008660 0.001023 -0.001060 -0.000403 -0.004108
# 3 -0.002282 0.001023 0.018006 -0.004355 0.004189 -0.003694
# 4 0.003188 -0.001060 -0.004355 0.026682 -0.006523 -0.001336
# 5 -0.001606 -0.000403 0.004189 -0.006523 0.031685 0.010388
# 6 -0.002143 -0.004108 -0.003694 -0.001336 0.010388 0.035414
#
#
# Mechanical properties :
#
#
# Convention : Reuss Voigt Hill
#
# Bulk Modulus (GPa) = 34.28059 46.83910 40.55985
# Shear Modulus (GPa) = 34.27461 41.43559 37.85510
#
# Velocity S-wave (km/s) = 3.62508 3.98583 3.80973
# Velocity P-wave (km/s) = 5.53761 6.25628 5.90788
#
# Compressibility (1/GPa) = 0.02917102
#
# Stress axis : x y z
#
# Youngs Moduli (GPa) = 109.79015 115.47980 55.53743
#
# Poissons Ratio (x) = 0.23584 0.12673
# Poissons Ratio (y) = 0.22422 -0.05680
# Poissons Ratio (z) = 0.25053 -0.11811
#
# Static dielectric constant tensor:
#      x y z
#    x 2.043020 0.042930 0.002630 
#    y 0.042930 2.203240 -0.125340 
#    z 0.002630 -0.125340 2.869980 
# 
# From -- ./inp_files/307914.got.cif
#   From: 2010.05.17/outbox.cif.g08.bks.cpg/sg2_154_cif.got.tgz:307914.got - 2010.06.03 11:33:40.
