data_PCOD9106300
_publ_section_title
;
Structure prediction by ZEFSAII (Michael W. Deem and Ramdas Pophale) SiO2 
 PCOD9106300
Probable space group: P -1
;
_chemical_formula_sum "Si O2"
_cell_formula_units_Z 16
_cell_length_a 8.707106
_cell_length_b 10.714521
_cell_length_c 8.866676
_cell_angle_alpha 78.440371
_cell_angle_beta 63.710892
_cell_angle_gamma 58.951653
_cell_volume 634.961664
_symmetry_space_group_name_H-M "P -1"
_symmetry_group_IT_number 2
_symmetry_cell_setting 'triclinic'
loop_
_space_group_symop_operation_xyz
x,y,z
-x,-y,-z
loop_
_atom_site_type_symbol
_atom_site_label
_atom_site_fract_x
_atom_site_fract_y
_atom_site_fract_z
Si Si1 0.270661 0.324349 0.047504
Si Si2 0.057041 0.182511 0.017910
Si Si3 0.555458 0.050531 0.191381
Si Si4 0.788303 0.631901 0.510888
Si Si5 0.327720 0.516409 0.180245
Si Si6 0.988060 0.805639 0.326648
Si Si7 0.768123 0.124917 0.342630
Si Si8 0.469768 0.244433 0.683612
O O1 0.420575 0.310662 0.854178
O O2 0.108167 0.297333 0.045021
O O3 0.389714 0.188622 0.142485
O O4 0.200493 0.473002 0.131798
O O5 0.870006 0.190155 0.175782
O O6 0.034688 0.193730 0.845371
O O7 0.251902 0.023198 0.983873
O O8 0.622607 0.091973 0.308934
O O9 0.512986 0.916469 0.270304
O O10 0.632988 0.601859 0.678149
O O11 0.714634 0.652480 0.367021
O O12 0.000000 0.500000 0.500000
O O13 0.830735 0.767311 0.481165
O O14 0.203862 0.670223 0.278271
O O15 0.500000 0.500000 0.000000
O O16 0.938146 0.965211 0.357281
O O17 0.656805 0.218464 0.512646
#
# Coordination Sequence:
#
# PCOD9106300 Si02
#       8
#     2   2   2   2   2   2   2   2
#     4  11  24  44  67  96 141 175 221 272 346 404
#     4  10  21  39  65 101 132 172 212 283 339 392
#     4  10  20  39  68  97 133 177 222 270 336 405
#     4  10  21  43  67  95 131 177 233 266 323 405
#     4  11  27  43  70  95 128 182 233 278 321 406
#     4  10  21  42  65  98 131 175 225 263 331 395
#     4  11  22  36  73 104 136 167 225 281 329 402
#     4  11  21  40  66 105 134 176 216 280 346 389
#
# _framework density 25.198371000000002
#
# number of rings (size 3 to 8) (size 9 to 14) (size 15 to 20)
#    0.000    1.500    3.750    4.125    7.000    0.500 
#    0.000    6.875    0.000    0.000    0.000    0.000 
#    0.000    0.000    0.000    0.000    0.000    0.000 
#
# Total GULP energy -89430.842785 kJ/mol
# GULP energy per Si atom -5589.427674 kJ/mol
# Density = 2.514102 g / cm^3
# Si number density = 25.198371 Si / 1000 Ang^3
#
#
#
# Elastic Constant Matrix: (Units=GPa)
#
#
# Indices 1 2 3 4 5 6 
#
# 1 53.9552 17.3641 31.3125 -2.9107 -1.6178 5.8970
# 2 17.3641 74.9753 22.1707 3.6232 13.1373 -19.3612
# 3 31.3125 22.1707 186.1731 -3.4522 -20.1582 -7.5743
# 4 -2.9107 3.6232 -3.4522 37.1808 2.4570 9.3613
# 5 -1.6178 13.1373 -20.1582 2.4570 49.2218 5.0813
# 6 5.8970 -19.3612 -7.5743 9.3613 5.0813 22.5396
#
#
#
# Elastic Compliance Matrix: (Units=1/GPa)
#
#
# Indices 1 2 3 4 5 6 
#
# 1 0.028168 -0.013277 -0.003439 0.009101 0.005175 -0.024876
# 2 -0.013277 0.028421 -0.001196 -0.011986 -0.011533 0.035063
# 3 -0.003439 -0.001196 0.006442 -0.000103 0.002698 0.001472
# 4 0.009101 -0.011986 -0.000103 0.035652 0.004625 -0.028561
# 5 0.005175 -0.011533 0.002698 0.004625 0.026318 -0.018208
# 6 -0.024876 0.035063 0.001472 -0.028561 -0.018208 0.097454
#
#
# Mechanical properties :
#
#
# Convention : Reuss Voigt Hill
#
# Bulk Modulus (GPa) = 36.75657 50.75536 43.75597
# Shear Modulus (GPa) = 18.70218 38.07220 28.38719
#
# Velocity S-wave (km/s) = 2.72729 3.89125 3.36005
# Velocity P-wave (km/s) = 4.95338 6.35414 5.69698
#
# Compressibility (1/GPa) = 0.02720602
#
# Stress axis : x y z
#
# Youngs Moduli (GPa) = 35.50159 35.18568 155.22330
#
# Poissons Ratio (x) = 0.46716 0.53389
# Poissons Ratio (y) = 0.47135 0.18564
# Poissons Ratio (z) = 0.12211 0.04208
#
# Static dielectric constant tensor:
#      x y z
#    x 2.025750 -0.058460 -0.049980 
#    y -0.058460 2.049730 0.018310 
#    z -0.049980 0.018310 2.001170 
# 
# From -- ./inp_files/185685.got.cif
#   From: 2010.05.17/outbox.cif.g08.bks.cpg/sg2_93_cif.got.tgz:185685.got - 2010.06.03 11:33:40.
