data_PCOD9106963
_publ_section_title
;
Structure prediction by ZEFSAII (Michael W. Deem and Ramdas Pophale) SiO2 
 PCOD9106963
Probable space group: P -1
;
_chemical_formula_sum "Si O2"
_cell_formula_units_Z 16
_cell_length_a 9.426571
_cell_length_b 7.934107
_cell_length_c 14.126657
_cell_angle_alpha 132.312412
_cell_angle_beta 66.402752
_cell_angle_gamma 103.904921
_cell_volume 715.310700
_symmetry_space_group_name_H-M "P -1"
_symmetry_group_IT_number 2
_symmetry_cell_setting 'triclinic'
loop_
_space_group_symop_operation_xyz
x,y,z
-x,-y,-z
loop_
_atom_site_type_symbol
_atom_site_label
_atom_site_fract_x
_atom_site_fract_y
_atom_site_fract_z
Si Si1 0.318482 0.026554 0.552613
Si Si2 0.000629 0.363651 0.303192
Si Si3 0.687195 0.454801 0.722228
Si Si4 0.136038 0.160168 0.480299
Si Si5 0.922948 0.858175 0.193451
Si Si6 0.599568 0.228729 0.057532
Si Si7 0.234776 0.769760 0.183398
Si Si8 0.935904 0.241876 0.069847
O O1 0.276132 0.767978 0.436482
O O2 0.240151 0.134745 0.707969
O O3 0.500000 0.000000 0.500000
O O4 0.255015 0.181831 0.542529
O O5 0.185011 0.362259 0.262738
O O6 0.931723 0.602085 0.451905
O O7 0.946331 0.125905 0.267017
O O8 0.953981 0.389754 0.214401
O O9 0.516519 0.566047 0.799771
O O10 0.717431 0.382957 0.796763
O O11 0.231249 0.023909 0.323097
O O12 0.000000 0.000000 0.500000
O O13 0.057557 0.765188 0.192522
O O14 0.952655 0.723502 0.037110
O O15 0.760206 0.223014 0.072198
O O16 0.654379 0.266046 0.949018
O O17 0.500000 0.000000 0.000000
O O18 0.000000 0.000000 0.000000
#
# Coordination Sequence:
#
# PCOD9106963 Si02
#       8
#     2   2   2   2   2   2   2   2
#     4  11  24  42  60  88 131 159 203 257 307 366
#     4  11  21  39  69  90 122 161 211 257 294 367
#     4  11  22  41  62  93 124 163 199 253 317 359
#     4  11  20  42  63  88 121 163 207 251 298 369
#     4  10  20  40  65  92 118 164 211 249 303 359
#     4  11  23  40  63  92 128 160 201 259 303 364
#     4  10  20  40  62  89 122 160 212 238 303 371
#     4   9  21  40  60  91 122 158 204 252 302 357
#
# _framework density 22.367903999999999
#
# number of rings (size 3 to 8) (size 9 to 14) (size 15 to 20)
#    0.000    1.500    3.750    2.625    1.750    3.000 
#   15.750    2.500    0.000    0.000    0.000    0.000 
#    0.000    0.000    0.000    0.000    0.000    0.000 
#
# Total GULP energy -89379.687041 kJ/mol
# GULP energy per Si atom -5586.230440 kJ/mol
# Density = 2.231699 g / cm^3
# Si number density = 22.367904 Si / 1000 Ang^3
#
#
#
# Elastic Constant Matrix: (Units=GPa)
#
#
# Indices 1 2 3 4 5 6 
#
# 1 125.1493 20.2799 29.0490 -11.9018 -23.4565 -9.3318
# 2 20.2799 70.3431 5.8450 11.0240 -5.1496 -11.9376
# 3 29.0490 5.8450 73.1676 0.9583 -21.6014 -5.9518
# 4 -11.9018 11.0240 0.9583 36.3100 -7.1520 -5.8549
# 5 -23.4565 -5.1496 -21.6014 -7.1520 38.8553 2.8234
# 6 -9.3318 -11.9376 -5.9518 -5.8549 2.8234 31.7078
#
#
#
# Elastic Compliance Matrix: (Units=1/GPa)
#
#
# Indices 1 2 3 4 5 6 
#
# 1 0.010847 -0.003088 -0.002231 0.006061 0.005854 0.002209
# 2 -0.003088 0.016653 0.000040 -0.005547 -0.000978 0.004431
# 3 -0.002231 0.000040 0.017111 0.000732 0.008162 0.001979
# 4 0.006061 -0.005547 0.000732 0.033849 0.009178 0.005266
# 5 0.005854 -0.000978 0.008162 0.009178 0.035263 0.001441
# 6 0.002209 0.004431 0.001979 0.005266 0.001441 0.035072
#
#
# Mechanical properties :
#
#
# Convention : Reuss Voigt Hill
#
# Bulk Modulus (GPa) = 29.36702 42.11200 35.73951
# Shear Modulus (GPa) = 29.29040 35.60701 32.44871
#
# Velocity S-wave (km/s) = 3.62260 3.99417 3.81291
# Velocity P-wave (km/s) = 5.53672 6.33553 5.94955
#
# Compressibility (1/GPa) = 0.03405180
#
# Stress axis : x y z
#
# Youngs Moduli (GPa) = 92.19063 60.05000 58.44204
#
# Poissons Ratio (x) = 0.18545 0.13040
# Poissons Ratio (y) = 0.28471 -0.00235
# Poissons Ratio (z) = 0.20571 -0.00241
#
# Static dielectric constant tensor:
#      x y z
#    x 1.822990 0.026610 0.042030 
#    y 0.026610 1.847580 0.007510 
#    z 0.042030 0.007510 1.920830 
# 
# From -- ./inp_files/298943.got.cif
#   From: 2010.05.17/outbox.cif.g08.bks.cpg/sg2_150_cif.got.tgz:298943.got - 2010.06.03 11:33:40.
