data_PCOD9106563
_publ_section_title
;
Structure prediction by ZEFSAII (Michael W. Deem and Ramdas Pophale) SiO2 
 PCOD9106563
Probable space group: P -1
;
_chemical_formula_sum "Si O2"
_cell_formula_units_Z 14
_cell_length_a 7.844398
_cell_length_b 17.494919
_cell_length_c 6.986972
_cell_angle_alpha 40.810758
_cell_angle_beta 123.646447
_cell_angle_gamma 124.322049
_cell_volume 502.963742
_symmetry_space_group_name_H-M "P -1"
_symmetry_group_IT_number 2
_symmetry_cell_setting 'triclinic'
loop_
_space_group_symop_operation_xyz
x,y,z
-x,-y,-z
loop_
_atom_site_type_symbol
_atom_site_label
_atom_site_fract_x
_atom_site_fract_y
_atom_site_fract_z
Si Si1 0.695244 0.619406 0.876303
Si Si2 0.121587 0.671225 0.271492
Si Si3 0.028406 0.653558 0.698133
Si Si4 0.912752 0.099397 0.857555
Si Si5 0.621472 0.397407 0.743251
Si Si6 0.780604 0.044296 0.254960
Si Si7 0.666843 0.811808 0.802360
O O1 0.691115 0.376341 0.613798
O O2 0.500000 0.500000 0.000000
O O3 0.647472 0.736474 0.732101
O O4 0.802058 0.640387 0.691078
O O5 0.082434 0.645134 0.521696
O O6 0.892113 0.828018 0.021016
O O7 0.898150 0.610514 0.147120
O O8 0.186338 0.812571 0.971802
O O9 0.129693 0.800823 0.499003
O O10 0.162951 0.578695 0.042163
O O11 0.733653 0.032138 0.022092
O O12 0.000000 0.000000 0.000000
O O13 0.500000 0.500000 0.500000
O O14 0.486759 0.274395 0.984593
O O15 0.635732 0.943882 0.491229
O O16 0.000000 0.000000 0.500000
#
# Coordination Sequence:
#
# PCOD9106563 Si02
#       7
#     2   2   2   2   2   2   2
#     4  11  23  44  80 116 166 216 273 335 414 506
#     4  10  22  50  79 120 162 216 279 341 421 506
#     4  10  23  49  80 115 161 218 273 339 425 488
#     4  10  20  39  78 116 154 208 265 335 427 504
#     4  11  28  51  77 112 167 224 288 345 404 485
#     4   9  17  38  77 109 158 200 257 341 418 494
#     4  11  23  46  73 119 164 207 273 344 414 492
#
# _framework density 27.835008999999999
#
# number of rings (size 3 to 8) (size 9 to 14) (size 15 to 20)
#    0.000    1.714    4.286    0.857    6.000    2.857 
#    7.714   10.714    0.000    0.000    0.000    0.000 
#    0.000    0.000    0.000    0.429    0.000    0.000 
#
# Total GULP energy -78314.159289 kJ/mol
# GULP energy per Si atom -5593.868521 kJ/mol
# Density = 2.777165 g / cm^3
# Si number density = 27.835009 Si / 1000 Ang^3
#
#
#
# Elastic Constant Matrix: (Units=GPa)
#
#
# Indices 1 2 3 4 5 6 
#
# 1 190.3700 62.9771 111.6339 -23.8537 -37.4258 -19.0003
# 2 62.9771 111.7535 67.2853 -16.8086 -7.6175 -21.0309
# 3 111.6339 67.2853 224.8996 -29.0730 -19.1619 -7.6792
# 4 -23.8537 -16.8086 -29.0730 55.9686 5.3059 -4.5623
# 5 -37.4258 -7.6175 -19.1619 5.3059 63.4911 -1.7933
# 6 -19.0003 -21.0309 -7.6792 -4.5623 -1.7933 49.1717
#
#
#
# Elastic Compliance Matrix: (Units=1/GPa)
#
#
# Indices 1 2 3 4 5 6 
#
# 1 0.009100 -0.002265 -0.003244 0.001316 0.004069 0.002311
# 2 -0.002265 0.012710 -0.002310 0.002061 -0.000556 0.004371
# 3 -0.003244 -0.002310 0.006875 0.001435 -0.000264 -0.001044
# 4 0.001316 0.002061 0.001435 0.020087 -0.000125 0.003473
# 5 0.004069 -0.000556 -0.000264 -0.000125 0.018067 0.001941
# 6 0.002311 0.004371 -0.001044 0.003473 0.001941 0.023330
#
#
# Mechanical properties :
#
#
# Convention : Reuss Voigt Hill
#
# Bulk Modulus (GPa) = 76.64151 112.31285 94.47718
# Shear Modulus (GPa) = 45.39046 52.73473 49.06260
#
# Velocity S-wave (km/s) = 4.04257 4.35736 4.20291
# Velocity P-wave (km/s) = 7.02736 8.10879 7.58737
#
# Compressibility (1/GPa) = 0.01304776
#
# Stress axis : x y z
#
# Youngs Moduli (GPa) = 109.89438 78.67721 145.45567
#
# Poissons Ratio (x) = 0.17819 0.47179
# Poissons Ratio (y) = 0.24889 0.33602
# Poissons Ratio (z) = 0.35645 0.18175
#
# Static dielectric constant tensor:
#      x y z
#    x 2.359820 0.042140 0.017270 
#    y 0.042140 2.430660 0.032810 
#    z 0.017270 0.032810 2.223200 
# 
# From -- ./inp_files/224760.got.cif
#   From: 2010.05.17/outbox.cif.g08.bks.cpg/sg2_113_cif.got.tgz:224760.got - 2010.06.03 11:33:40.
