data_PCOD9106036
_publ_section_title
;
Structure prediction by ZEFSAII (Michael W. Deem and Ramdas Pophale) SiO2 
 PCOD9106036
Probable space group: P -1
;
_chemical_formula_sum "Si O2"
_cell_formula_units_Z 16
_cell_length_a 9.717473
_cell_length_b 8.950933
_cell_length_c 11.163798
_cell_angle_alpha 108.253119
_cell_angle_beta 95.122945
_cell_angle_gamma 64.543160
_cell_volume 831.472946
_symmetry_space_group_name_H-M "P -1"
_symmetry_group_IT_number 2
_symmetry_cell_setting 'triclinic'
loop_
_space_group_symop_operation_xyz
x,y,z
-x,-y,-z
loop_
_atom_site_type_symbol
_atom_site_label
_atom_site_fract_x
_atom_site_fract_y
_atom_site_fract_z
Si Si1 0.824644 0.110049 0.884387
Si Si2 0.774014 0.343764 0.479315
Si Si3 0.376374 0.594768 0.912274
Si Si4 0.652059 0.641820 0.360951
Si Si5 0.684812 0.152163 0.624153
Si Si6 0.899567 0.789376 0.425755
Si Si7 0.637232 0.049977 0.048262
Si Si8 0.134361 0.000218 0.755277
O O1 0.729938 0.160857 0.766571
O O2 0.000554 0.016074 0.839806
O O3 0.781718 0.285161 0.002328
O O4 0.754829 0.004377 0.933798
O O5 0.677712 0.524358 0.452142
O O6 0.703381 0.298879 0.580904
O O7 0.942791 0.320918 0.522716
O O8 0.798783 0.187781 0.349046
O O9 0.358816 0.469648 0.781408
O O10 0.420794 0.741336 0.894123
O O11 0.500000 0.500000 0.000000
O O12 0.491313 0.810342 0.393100
O O13 0.793786 0.690359 0.373966
O O14 0.801264 0.965145 0.536586
O O15 0.932853 0.859031 0.319640
O O16 0.734209 0.972816 0.155589
O O17 0.500000 0.000000 0.000000
#
# Coordination Sequence:
#
# PCOD9106036 Si02
#       8
#     2   2   2   2   2   2   2   2
#     4  10  20  39  67  84 123 159 206 242 311 367
#     4  11  21  42  62  91 121 168 204 255 309 364
#     4  10  22  39  64  84 123 165 193 251 324 352
#     4  12  23  40  61  92 130 158 206 261 311 352
#     4  11  21  40  64  90 121 168 206 247 311 371
#     4  11  24  38  66  91 124 166 210 252 299 371
#     4  10  23  38  64  93 115 155 212 255 294 361
#     4  11  20  41  66  87 123 163 210 246 308 368
#
# _framework density 19.242961000000001
#
# number of rings (size 3 to 8) (size 9 to 14) (size 15 to 20)
#    0.750    0.500    5.000    2.250    3.500    0.000 
#    0.000    0.625    5.500    0.000    0.000    0.000 
#    0.000    0.000    0.000    0.000    0.000    0.000 
#
# Total GULP energy -89278.644924 kJ/mol
# GULP energy per Si atom -5579.915308 kJ/mol
# Density = 1.919916 g / cm^3
# Si number density = 19.242961 Si / 1000 Ang^3
#
#
#
# Elastic Constant Matrix: (Units=GPa)
#
#
# Indices 1 2 3 4 5 6 
#
# 1 96.2720 -5.9806 29.9637 -2.8715 26.5001 -1.5603
# 2 -5.9806 35.7107 11.7028 -10.5447 13.8792 -5.9528
# 3 29.9637 11.7028 77.0244 -13.7308 10.3650 -1.1792
# 4 -2.8715 -10.5447 -13.7308 20.2728 -5.4896 8.0517
# 5 26.5001 13.8792 10.3650 -5.4896 29.9231 -4.1510
# 6 -1.5603 -5.9528 -1.1792 8.0517 -4.1510 33.5339
#
#
#
# Elastic Compliance Matrix: (Units=1/GPa)
#
#
# Indices 1 2 3 4 5 6 
#
# 1 0.019017 0.013326 -0.006770 -0.000833 -0.020741 0.000645
# 2 0.013326 0.048024 -0.006010 0.014140 -0.029133 0.001932
# 3 -0.006770 -0.006010 0.017736 0.010106 0.004123 -0.002674
# 4 -0.000833 0.014140 0.010106 0.069217 0.001489 -0.013608
# 5 -0.020741 -0.029133 0.004123 0.001489 0.064369 0.001619
# 6 0.000645 0.001932 -0.002674 -0.013608 0.001619 0.033567
#
#
# Mechanical properties :
#
#
# Convention : Reuss Voigt Hill
#
# Bulk Modulus (GPa) = 11.64574 31.15319 21.39947
# Shear Modulus (GPa) = 17.89159 28.30071 23.09615
#
# Velocity S-wave (km/s) = 3.05253 3.83914 3.46820
# Velocity P-wave (km/s) = 4.29988 5.98970 5.21371
#
# Compressibility (1/GPa) = 0.08586831
#
# Stress axis : x y z
#
# Youngs Moduli (GPa) = 52.58450 20.82287 56.38403
#
# Poissons Ratio (x) = -0.27749 0.38173
# Poissons Ratio (y) = -0.70075 0.33887
# Poissons Ratio (z) = 0.35601 0.12515
#
# Static dielectric constant tensor:
#      x y z
#    x 1.667170 -0.014800 -0.017820 
#    y -0.014800 1.674540 -0.017300 
#    z -0.017820 -0.017300 1.673530 
# 
# From -- ./inp_files/382941.got.cif
#   From: 2010.05.17/outbox.cif.g08.bks.cpg/sg2_192_cif.got.tgz:382941.got - 2010.06.03 11:33:40.
