data_PCOD9106805
_publ_section_title
;
Structure prediction by ZEFSAII (Michael W. Deem and Ramdas Pophale) SiO2 
 PCOD9106805
Probable space group: P -1
;
_chemical_formula_sum "Si O2"
_cell_formula_units_Z 14
_cell_length_a 5.120631
_cell_length_b 19.012401
_cell_length_c 8.829394
_cell_angle_alpha 124.544073
_cell_angle_beta 118.445929
_cell_angle_gamma 76.169049
_cell_volume 621.980589
_symmetry_space_group_name_H-M "P -1"
_symmetry_group_IT_number 2
_symmetry_cell_setting 'triclinic'
loop_
_space_group_symop_operation_xyz
x,y,z
-x,-y,-z
loop_
_atom_site_type_symbol
_atom_site_label
_atom_site_fract_x
_atom_site_fract_y
_atom_site_fract_z
Si Si1 0.273186 0.896084 0.956246
Si Si2 0.293364 0.765475 0.297037
Si Si3 0.395010 0.249600 0.954732
Si Si4 0.124653 0.622752 0.304941
Si Si5 0.574906 0.544148 0.919428
Si Si6 0.592078 0.910220 0.744766
Si Si7 0.640356 0.413664 0.369959
O O1 0.365970 0.899195 0.809157
O O2 0.918590 0.883863 0.855213
O O3 0.441774 0.822097 0.993426
O O4 0.369974 0.989620 0.162076
O O5 0.413297 0.740423 0.135138
O O6 0.316543 0.693409 0.348711
O O7 0.475716 0.849549 0.504983
O O8 0.943740 0.780312 0.205967
O O9 0.405890 0.335991 0.166670
O O10 0.244423 0.528852 0.200533
O O11 0.139965 0.627518 0.498022
O O12 0.808933 0.618821 0.128362
O O13 0.289172 0.560709 0.755016
O O14 0.500000 0.500000 0.000000
O O15 0.500000 0.500000 0.500000
#
# Coordination Sequence:
#
# PCOD9106805 Si02
#       7
#     2   2   2   2   2   2   2
#     4  10  22  43  70 102 137 182 231 285 336 428
#     4  12  25  42  67  99 140 180 227 294 343 410
#     4  12  25  43  66  99 140 176 238 289 343 415
#     4  10  22  38  62  86 127 173 220 279 341 402
#     4  10  20  40  61  88 125 164 225 282 337 403
#     4  10  22  43  70 100 140 181 230 280 352 408
#     4  10  22  43  63  94 130 182 228 285 347 409
#
# _framework density 22.508742000000002
#
# number of rings (size 3 to 8) (size 9 to 14) (size 15 to 20)
#    0.000    1.429    1.429    3.429    0.000    1.714 
#    5.143    0.000    0.000    0.000    0.000    0.000 
#    0.000    0.000    0.000    0.000    0.000    0.000 
#
# Total GULP energy -78061.620757 kJ/mol
# GULP energy per Si atom -5575.830054 kJ/mol
# Density = 2.245751 g / cm^3
# Si number density = 22.508742 Si / 1000 Ang^3
#
#
#
# Elastic Constant Matrix: (Units=GPa)
#
#
# Indices 1 2 3 4 5 6 
#
# 1 60.4166 10.0525 13.8378 2.8723 -1.2850 -0.1374
# 2 10.0525 103.6682 52.6556 -7.2411 -1.4719 -14.0221
# 3 13.8378 52.6556 131.2097 6.5077 -7.3739 -2.7294
# 4 2.8723 -7.2411 6.5077 37.5117 8.6916 -1.6175
# 5 -1.2850 -1.4719 -7.3739 8.6916 16.2568 -4.6683
# 6 -0.1374 -14.0221 -2.7294 -1.6175 -4.6683 23.9584
#
#
#
# Elastic Compliance Matrix: (Units=1/GPa)
#
#
# Indices 1 2 3 4 5 6 
#
# 1 0.017136 -0.001260 -0.001146 -0.001723 0.001470 -0.000600
# 2 -0.001260 0.013917 -0.005608 0.004453 -0.001615 0.007485
# 3 -0.001146 -0.005608 0.010526 -0.004292 0.006131 -0.001185
# 4 -0.001723 0.004453 -0.004292 0.032837 -0.019061 0.000610
# 5 0.001470 -0.001615 0.006131 -0.019061 0.078404 0.013752
# 6 -0.000600 0.007485 -0.001185 0.000610 0.013752 0.048702
#
#
# Mechanical properties :
#
#
# Convention : Reuss Voigt Hill
#
# Bulk Modulus (GPa) = 39.13854 49.82068 44.47961
# Shear Modulus (GPa) = 22.11730 30.12862 26.12296
#
# Velocity S-wave (km/s) = 3.13806 3.66256 3.41041
# Velocity P-wave (km/s) = 5.52773 6.32991 5.94237
#
# Compressibility (1/GPa) = 0.02555027
#
# Stress axis : x y z
#
# Youngs Moduli (GPa) = 58.35774 71.85218 95.00606
#
# Poissons Ratio (x) = 0.09055 0.10887
# Poissons Ratio (y) = 0.07354 0.53281
# Poissons Ratio (z) = 0.06687 0.40296
#
# Static dielectric constant tensor:
#      x y z
#    x 1.806070 0.089270 0.048560 
#    y 0.089270 1.960060 -0.012730 
#    z 0.048560 -0.012730 1.799200 
# 
# From -- ./inp_files/141654.got.cif
#   From: 2010.05.17/outbox.cif.g08.bks.cpg/sg2_71_cif.got.tgz:141654.got - 2010.06.03 11:33:40.
