data_PCOD9106666
_publ_section_title
;
Structure prediction by ZEFSAII (Michael W. Deem and Ramdas Pophale) SiO2 
 PCOD9106666
Probable space group: P -1
;
_chemical_formula_sum "Si O2"
_cell_formula_units_Z 16
_cell_length_a 15.983547
_cell_length_b 13.043263
_cell_length_c 25.475182
_cell_angle_alpha 21.768121
_cell_angle_beta 19.370757
_cell_angle_gamma 27.697904
_cell_volume 651.408056
_symmetry_space_group_name_H-M "P -1"
_symmetry_group_IT_number 2
_symmetry_cell_setting 'triclinic'
loop_
_space_group_symop_operation_xyz
x,y,z
-x,-y,-z
loop_
_atom_site_type_symbol
_atom_site_label
_atom_site_fract_x
_atom_site_fract_y
_atom_site_fract_z
Si Si1 0.093985 0.633303 0.188996
Si Si2 0.527391 0.367233 0.367439
Si Si3 0.829677 0.301457 0.315188
Si Si4 0.147065 0.090153 0.667454
Si Si5 0.433622 0.389454 0.006189
Si Si6 0.927228 0.064776 0.571906
Si Si7 0.871200 0.211309 0.068613
Si Si8 0.752719 0.877273 0.935541
O O1 0.252978 0.524085 0.096007
O O2 0.917786 0.392633 0.424265
O O3 0.294212 0.661308 0.104590
O O4 0.944470 0.928390 0.129016
O O5 0.575007 0.350553 0.409565
O O6 0.267525 0.357454 0.492782
O O7 0.666250 0.073248 0.406298
O O8 0.681578 0.617486 0.136200
O O9 0.050730 0.226510 0.177016
O O10 0.855903 0.061223 0.457155
O O11 0.908268 0.577966 0.166144
O O12 0.137941 0.885795 0.819865
O O13 0.881100 0.100295 0.790187
O O14 0.381880 0.614486 0.883923
O O15 0.319945 0.102061 0.192329
O O16 0.000000 0.000000 0.500000
O O17 0.500000 0.000000 0.000000
#
# Coordination Sequence:
#
# PCOD9106666 Si02
#       8
#     2   2   2   2   2   2   2   2
#     4  10  21  39  60  88 122 159 207 256 304 372
#     4  10  20  40  60  81 122 159 203 245 300 371
#     4  10  20  40  64  87 124 167 201 255 319 359
#     4  10  21  37  58  86 113 159 202 245 301 364
#     4   9  21  40  61  84 123 164 200 254 313 360
#     4   9  20  39  61  90 123 155 202 256 303 365
#     4  11  20  37  62  91 121 159 207 251 312 369
#     4  11  22  39  61  87 124 159 205 257 307 365
#
# _framework density 24.562176999999998
#
# number of rings (size 3 to 8) (size 9 to 14) (size 15 to 20)
#    0.000    2.000    2.500    1.125    1.750    3.500 
#    2.250    0.000    0.000    8.250    0.000    0.000 
#    0.000    0.000    0.000    0.000    0.000    0.000 
#
# Total GULP energy -89466.044989 kJ/mol
# GULP energy per Si atom -5591.627812 kJ/mol
# Density = 2.450627 g / cm^3
# Si number density = 24.562177 Si / 1000 Ang^3
#
#
#
# Elastic Constant Matrix: (Units=GPa)
#
#
# Indices 1 2 3 4 5 6 
#
# 1 136.7156 17.3579 41.2508 7.9302 -9.8003 -24.1944
# 2 17.3579 71.5746 44.5772 -4.2328 -2.9241 -9.6011
# 3 41.2508 44.5772 81.1725 -4.6544 -22.7241 -10.6841
# 4 7.9302 -4.2328 -4.6544 24.3261 -10.3745 -14.1547
# 5 -9.8003 -2.9241 -22.7241 -10.3745 41.4966 -3.9896
# 6 -24.1944 -9.6011 -10.6841 -14.1547 -3.9896 38.1147
#
#
#
# Elastic Compliance Matrix: (Units=1/GPa)
#
#
# Indices 1 2 3 4 5 6 
#
# 1 0.009552 0.001470 -0.005358 -0.001652 -0.000578 0.004258
# 2 0.001470 0.022765 -0.014977 -0.001411 -0.006481 0.001267
# 3 -0.005358 -0.014977 0.032309 0.021882 0.022027 0.012315
# 4 -0.001652 -0.001411 0.021882 0.084296 0.036399 0.039845
# 5 -0.000578 -0.006481 0.022027 0.036399 0.046840 0.022595
# 6 0.004258 0.001267 0.012315 0.039845 0.022595 0.049873
#
#
# Mechanical properties :
#
#
# Convention : Reuss Voigt Hill
#
# Bulk Modulus (GPa) = 37.17981 55.09272 46.13627
# Shear Modulus (GPa) = 17.10390 33.20592 25.15491
#
# Velocity S-wave (km/s) = 2.64171 3.68083 3.20368
# Velocity P-wave (km/s) = 4.94719 6.36736 5.70166
#
# Compressibility (1/GPa) = 0.02689632
#
# Stress axis : x y z
#
# Youngs Moduli (GPa) = 104.68637 43.92801 30.95074
#
# Poissons Ratio (x) = -0.06458 0.16583
# Poissons Ratio (y) = -0.15391 0.46356
# Poissons Ratio (z) = 0.56091 0.65792
#
# Static dielectric constant tensor:
#      x y z
#    x 2.152700 0.408620 0.134940 
#    y 0.408620 2.705480 0.326840 
#    z 0.134940 0.326840 2.130220 
# 
# From -- ./inp_files/623870.got.cif
#   From: 2010.05.17/outbox.cif.g08.bks.cpg/sg2_312_cif.got.tgz:623870.got - 2010.06.03 11:33:40.
