data_PCOD9106322
_publ_section_title
;
Structure prediction by ZEFSAII (Michael W. Deem and Ramdas Pophale) SiO2 
 PCOD9106322
Probable space group: P -1
;
_chemical_formula_sum "Si O2"
_cell_formula_units_Z 16
_cell_length_a 8.243164
_cell_length_b 19.384831
_cell_length_c 5.246985
_cell_angle_alpha 69.500403
_cell_angle_beta 117.504083
_cell_angle_gamma 118.706756
_cell_volume 643.320102
_symmetry_space_group_name_H-M "P -1"
_symmetry_group_IT_number 2
_symmetry_cell_setting 'triclinic'
loop_
_space_group_symop_operation_xyz
x,y,z
-x,-y,-z
loop_
_atom_site_type_symbol
_atom_site_label
_atom_site_fract_x
_atom_site_fract_y
_atom_site_fract_z
Si Si1 0.437035 0.692510 0.928563
Si Si2 0.976999 0.444775 0.308576
Si Si3 0.348768 0.410313 0.516212
Si Si4 0.300244 0.930890 0.544992
Si Si5 0.365001 0.165778 0.798715
Si Si6 0.139267 0.855499 0.029339
Si Si7 0.773909 0.728895 0.736816
Si Si8 0.193699 0.071435 0.301430
O O1 0.226974 0.632312 0.755691
O O2 0.593390 0.734847 0.763062
O O3 0.539100 0.636707 0.196396
O O4 0.443411 0.758496 0.058925
O O5 0.000000 0.500000 0.500000
O O6 0.151041 0.412071 0.488041
O O7 0.000000 0.500000 0.000000
O O8 0.500000 0.500000 0.500000
O O9 0.286410 0.361780 0.270234
O O10 0.295299 0.892652 0.866890
O O11 0.500000 0.000000 0.500000
O O12 0.152480 0.978384 0.391684
O O13 0.234536 0.865454 0.361480
O O14 0.217186 0.213145 0.571899
O O15 0.331675 0.111468 0.593941
O O16 0.299738 0.108617 0.067009
O O17 0.984497 0.766888 0.974449
O O18 0.997575 0.905928 0.858263
#
# Coordination Sequence:
#
# PCOD9106322 Si02
#       8
#     2   2   2   2   2   2   2   2
#     4  11  23  45  75  98 148 179 233 292 352 415
#     4  12  28  46  69 107 140 180 238 291 343 417
#     4  11  24  45  74 104 141 190 235 285 352 414
#     4  12  26  43  64  98 137 178 221 288 341 400
#     4  10  20  39  68  99 129 170 224 281 336 405
#     4  11  22  43  69  94 132 174 231 273 337 415
#     4  10  23  42  71 103 132 181 226 287 350 412
#     4  11  21  41  70  97 124 174 235 267 334 414
#
# _framework density 24.870975000000001
#
# number of rings (size 3 to 8) (size 9 to 14) (size 15 to 20)
#    0.000    1.000    3.750    4.125    5.250    1.000 
#    4.500    0.000    0.000    0.000    0.000    0.000 
#    0.000    0.000    0.000    0.000    0.000    0.000 
#
# Total GULP energy -89556.954866 kJ/mol
# GULP energy per Si atom -5597.309679 kJ/mol
# Density = 2.481437 g / cm^3
# Si number density = 24.870975 Si / 1000 Ang^3
#
#
#
# Elastic Constant Matrix: (Units=GPa)
#
#
# Indices 1 2 3 4 5 6 
#
# 1 91.1649 25.2224 31.6550 16.3705 -2.6017 8.5369
# 2 25.2224 140.3560 59.8978 36.4946 -18.2234 2.8169
# 3 31.6550 59.8978 127.0178 24.6457 -29.9511 1.7886
# 4 16.3705 36.4946 24.6457 62.1560 -4.2329 -1.3777
# 5 -2.6017 -18.2234 -29.9511 -4.2329 46.9202 2.0825
# 6 8.5369 2.8169 1.7886 -1.3777 2.0825 47.4294
#
#
#
# Elastic Compliance Matrix: (Units=1/GPa)
#
#
# Indices 1 2 3 4 5 6 
#
# 1 0.012628 -0.000740 -0.002720 -0.001956 -0.001406 -0.002122
# 2 -0.000740 0.009988 -0.003383 -0.004250 0.001318 -0.000514
# 3 -0.002720 -0.003383 0.011864 -0.001597 0.005967 -0.000065
# 4 -0.001956 -0.004250 -0.001597 0.019688 -0.001059 0.001283
# 5 -0.001406 0.001318 0.005967 -0.001059 0.025514 -0.001201
# 6 -0.002122 -0.000514 -0.000065 0.001283 -0.001201 0.021589
#
#
# Mechanical properties :
#
#
# Convention : Reuss Voigt Hill
#
# Bulk Modulus (GPa) = 48.09192 65.78768 56.93980
# Shear Modulus (GPa) = 41.02113 47.41868 44.21990
#
# Velocity S-wave (km/s) = 4.06563 4.37119 4.22118
# Velocity P-wave (km/s) = 6.43566 7.21009 6.83385
#
# Compressibility (1/GPa) = 0.02079351
#
# Stress axis : x y z
#
# Youngs Moduli (GPa) = 79.18814 100.12203 84.28848
#
# Poissons Ratio (x) = 0.07407 0.22930
# Poissons Ratio (y) = 0.05858 0.28514
# Poissons Ratio (z) = 0.21543 0.33871
#
# Static dielectric constant tensor:
#      x y z
#    x 2.048720 -0.002550 -0.011410 
#    y -0.002550 2.003170 0.015160 
#    z -0.011410 0.015160 2.017860 
# 
# From -- ./inp_files/52809.got.cif
#   From: 2010.05.17/outbox.cif.g08.bks.cpg/sg2_27_cif.got.tgz:52809.got - 2010.06.03 11:33:40.
