data_PCOD9106713
_publ_section_title
;
Structure prediction by ZEFSAII (Michael W. Deem and Ramdas Pophale) SiO2 
 PCOD9106713
Probable space group: P -1
;
_chemical_formula_sum "Si O2"
_cell_formula_units_Z 12
_cell_length_a 5.018039
_cell_length_b 5.063151
_cell_length_c 21.671613
_cell_angle_alpha 70.451973
_cell_angle_beta 56.790979
_cell_angle_gamma 91.455131
_cell_volume 418.654989
_symmetry_space_group_name_H-M "P -1"
_symmetry_group_IT_number 2
_symmetry_cell_setting 'triclinic'
loop_
_space_group_symop_operation_xyz
x,y,z
-x,-y,-z
loop_
_atom_site_type_symbol
_atom_site_label
_atom_site_fract_x
_atom_site_fract_y
_atom_site_fract_z
Si Si1 0.670834 0.188187 0.525014
Si Si2 0.404230 0.244306 0.950945
Si Si3 0.331473 0.816387 0.904467
Si Si4 0.205266 0.304933 0.364448
Si Si5 0.631078 0.123335 0.245175
Si Si6 0.084378 0.270439 0.673069
O O1 0.607973 0.695347 0.415209
O O2 0.010523 0.402317 0.439693
O O3 0.500000 0.000000 0.500000
O O4 0.769308 0.984744 0.580356
O O5 0.538770 0.589977 0.915812
O O6 0.492885 0.146329 0.879686
O O7 0.019306 0.229419 0.012644
O O8 0.500000 0.000000 0.000000
O O9 0.261942 0.773505 0.844816
O O10 0.981945 0.413834 0.332721
O O11 0.556264 0.371322 0.279415
O O12 0.838174 0.929293 0.266670
O O13 0.260664 0.914538 0.297348
#
# Coordination Sequence:
#
# PCOD9106713 Si02
#       6
#     2   2   2   2   2   2
#     4  10  20  40  60  89 125 167 224 272 325 400
#     4  10  22  45  70 100 132 180 221 275 336 407
#     4  10  24  42  67 102 135 172 230 273 336 410
#     4  10  23  40  61  90 127 170 217 278 330 395
#     4  11  26  42  62  99 129 168 220 274 332 402
#     4  11  25  42  64  92 128 175 220 267 342 392
#
# _framework density 28.663219000000002
#
# number of rings (size 3 to 8) (size 9 to 14) (size 15 to 20)
#    0.000    1.667    1.667    1.000    7.000    0.667 
#    0.000    0.000    0.000    0.000    0.000    0.000 
#    0.000    0.000    0.000    0.000    0.000    0.000 
#
# Total GULP energy -66885.470824 kJ/mol
# GULP energy per Si atom -5573.789235 kJ/mol
# Density = 2.859798 g / cm^3
# Si number density = 28.663219 Si / 1000 Ang^3
#
#
#
# Elastic Constant Matrix: (Units=GPa)
#
#
# Indices 1 2 3 4 5 6 
#
# 1 156.5533 66.3346 27.2133 -14.1949 22.2698 -35.6340
# 2 66.3346 222.8170 53.5886 -3.2796 20.6395 -65.0868
# 3 27.2133 53.5886 126.1340 10.6516 31.1441 -20.5705
# 4 -14.1949 -3.2796 10.6516 30.7112 -8.3028 3.6358
# 5 22.2698 20.6395 31.1441 -8.3028 49.9862 -21.0920
# 6 -35.6340 -65.0868 -20.5705 3.6358 -21.0920 61.4171
#
#
#
# Elastic Compliance Matrix: (Units=1/GPa)
#
#
# Indices 1 2 3 4 5 6 
#
# 1 0.008104 -0.001359 -0.000817 0.003336 -0.000946 0.002465
# 2 -0.001359 0.007229 -0.002213 0.000640 0.001961 0.006767
# 3 -0.000817 -0.002213 0.011168 -0.006301 -0.007228 -0.001188
# 4 0.003336 0.000640 -0.006301 0.038676 0.009175 0.001365
# 5 -0.000946 0.001961 -0.007228 0.009175 0.029283 0.008622
# 6 0.002465 0.006767 -0.001188 0.001365 0.008622 0.027366
#
#
# Mechanical properties :
#
#
# Convention : Reuss Voigt Hill
#
# Bulk Modulus (GPa) = 56.42578 88.86417 72.64497
# Shear Modulus (GPa) = 36.62704 52.31408 44.47056
#
# Velocity S-wave (km/s) = 3.57857 4.27679 3.94316
# Velocity P-wave (km/s) = 6.06658 7.44702 6.79196
#
# Compressibility (1/GPa) = 0.01772239
#
# Stress axis : x y z
#
# Youngs Moduli (GPa) = 123.39982 138.32553 89.54521
#
# Poissons Ratio (x) = 0.18800 0.07317
# Poissons Ratio (y) = 0.16772 0.19815
# Poissons Ratio (z) = 0.10083 0.30609
#
# Static dielectric constant tensor:
#      x y z
#    x 2.480810 0.365040 -0.012010 
#    y 0.365040 2.662950 -0.036830 
#    z -0.012010 -0.036830 2.294090 
# 
# From -- ./inp_files/602658.got.cif
#   From: 2010.05.17/outbox.cif.g08.bks.cpg/sg2_302_cif.got.tgz:602658.got - 2010.06.03 11:33:40.
