data_PCOD9106900
_publ_section_title
;
Structure prediction by ZEFSAII (Michael W. Deem and Ramdas Pophale) SiO2 
 PCOD9106900
Probable space group: P -1
;
_chemical_formula_sum "Si O2"
_cell_formula_units_Z 16
_cell_length_a 8.077318
_cell_length_b 15.142609
_cell_length_c 8.456086
_cell_angle_alpha 90.107161
_cell_angle_beta 53.975586
_cell_angle_gamma 117.143543
_cell_volume 691.471484
_symmetry_space_group_name_H-M "P -1"
_symmetry_group_IT_number 2
_symmetry_cell_setting 'triclinic'
loop_
_space_group_symop_operation_xyz
x,y,z
-x,-y,-z
loop_
_atom_site_type_symbol
_atom_site_label
_atom_site_fract_x
_atom_site_fract_y
_atom_site_fract_z
Si Si1 0.778905 0.838967 0.267285
Si Si2 0.201076 0.504326 0.706866
Si Si3 0.765474 0.968333 0.844455
Si Si4 0.606877 0.175018 0.724756
Si Si5 0.681464 0.363656 0.859870
Si Si6 0.382506 0.388563 0.775506
Si Si7 0.543866 0.728509 0.689115
Si Si8 0.957461 0.123629 0.450231
O O1 0.656468 0.868091 0.203721
O O2 0.732130 0.727039 0.239687
O O3 0.611479 0.816372 0.518491
O O4 0.058831 0.929383 0.144862
O O5 0.195785 0.422496 0.836211
O O6 0.370478 0.522959 0.459424
O O7 0.355892 0.616859 0.709465
O O8 0.936206 0.465261 0.783338
O O9 0.900696 0.904593 0.752361
O O10 0.485806 0.895515 0.063526
O O11 0.805453 0.020656 0.649411
O O12 0.727145 0.298145 0.703795
O O13 0.767666 0.154709 0.518028
O O14 0.485701 0.384344 0.890085
O O15 0.569858 0.286891 0.074952
O O16 0.828325 0.771833 0.571383
#
# Coordination Sequence:
#
# PCOD9106900 Si02
#       8
#     2   2   2   2   2   2   2   2
#     4   9  21  39  60  85 126 157 196 261 306 353
#     4  10  21  38  63  86 121 165 204 249 316 363
#     4  10  20  40  62  85 124 161 197 256 306 361
#     4  11  22  38  62  93 116 164 208 245 311 372
#     4  11  22  38  63  90 124 162 207 252 309 368
#     4   9  21  39  59  94 120 157 209 257 300 368
#     4  10  21  42  57  86 128 157 198 260 302 360
#     4  10  22  38  61  90 122 157 203 253 306 362
#
# _framework density 23.139060000000001
#
# number of rings (size 3 to 8) (size 9 to 14) (size 15 to 20)
#    0.000    2.000    1.250    1.500    7.000    1.000 
#    2.250    0.000    0.000    0.000    0.000    0.000 
#    0.000    0.000    0.000    0.000    0.000    0.000 
#
# Total GULP energy -89104.852537 kJ/mol
# GULP energy per Si atom -5569.053284 kJ/mol
# Density = 2.308639 g / cm^3
# Si number density = 23.139060 Si / 1000 Ang^3
#
#
#
# Elastic Constant Matrix: (Units=GPa)
#
#
# Indices 1 2 3 4 5 6 
#
# 1 79.0273 42.2253 2.8383 -2.3708 6.2629 14.3142
# 2 42.2253 73.8989 6.3197 -14.7801 -6.1456 14.9664
# 3 2.8383 6.3197 53.7638 0.2175 5.7298 1.7693
# 4 -2.3708 -14.7801 0.2175 27.9330 3.5058 -8.3481
# 5 6.2629 -6.1456 5.7298 3.5058 24.9441 0.0242
# 6 14.3142 14.9664 1.7693 -8.3481 0.0242 27.4368
#
#
#
# Elastic Compliance Matrix: (Units=1/GPa)
#
#
# Indices 1 2 3 4 5 6 
#
# 1 0.020878 -0.012672 0.001442 -0.005686 -0.007890 -0.005796
# 2 -0.012672 0.024407 -0.003031 0.009730 0.008527 -0.003554
# 3 0.001442 -0.003031 0.019486 -0.001163 -0.005421 -0.000705
# 4 -0.005686 0.009730 -0.001163 0.044071 -0.002113 0.011145
# 5 -0.007890 0.008527 -0.005421 -0.002113 0.045715 -0.000869
# 6 -0.005796 -0.003554 -0.000705 0.011145 -0.000869 0.044847
#
#
# Mechanical properties :
#
#
# Convention : Reuss Voigt Hill
#
# Bulk Modulus (GPa) = 27.58813 34.38407 30.98610
# Shear Modulus (GPa) = 20.83263 26.41656 23.62459
#
# Velocity S-wave (km/s) = 3.00379 3.38249 3.19875
# Velocity P-wave (km/s) = 4.89684 5.49063 5.20221
#
# Compressibility (1/GPa) = 0.03624747
#
# Stress axis : x y z
#
# Youngs Moduli (GPa) = 47.89837 40.97178 51.31984
#
# Poissons Ratio (x) = 0.51921 -0.07401
# Poissons Ratio (y) = 0.60698 0.15556
# Poissons Ratio (z) = -0.06907 0.12419
#
# Static dielectric constant tensor:
#      x y z
#    x 1.905320 -0.022740 0.035000 
#    y -0.022740 1.880280 0.018200 
#    z 0.035000 0.018200 1.926050 
# 
# From -- ./inp_files/206790.got.cif
#   From: 2010.05.17/outbox.cif.g08.bks.cpg/sg2_104_cif.got.tgz:206790.got - 2010.06.03 11:33:40.
