data_PCOD9106998
_publ_section_title
;
Structure prediction by ZEFSAII (Michael W. Deem and Ramdas Pophale) SiO2 
 PCOD9106998
Probable space group: P -1
;
_chemical_formula_sum "Si O2"
_cell_formula_units_Z 16
_cell_length_a 14.725592
_cell_length_b 8.556013
_cell_length_c 9.920370
_cell_angle_alpha 117.826741
_cell_angle_beta 111.283617
_cell_angle_gamma 116.246321
_cell_volume 690.170310
_symmetry_space_group_name_H-M "P -1"
_symmetry_group_IT_number 2
_symmetry_cell_setting 'triclinic'
loop_
_space_group_symop_operation_xyz
x,y,z
-x,-y,-z
loop_
_atom_site_type_symbol
_atom_site_label
_atom_site_fract_x
_atom_site_fract_y
_atom_site_fract_z
Si Si1 0.551664 0.382269 0.537181
Si Si2 0.827269 0.808270 0.459606
Si Si3 0.131661 0.570511 0.169203
Si Si4 0.651638 0.092422 0.956980
Si Si5 0.416556 0.060246 0.867247
Si Si6 0.389934 0.193105 0.630384
Si Si7 0.810605 0.545416 0.594555
Si Si8 0.121842 0.384216 0.823940
O O1 0.500000 0.500000 0.500000
O O2 0.526187 0.348673 0.669258
O O3 0.705970 0.533053 0.620884
O O4 0.435574 0.089597 0.292430
O O5 0.680881 0.709404 0.383927
O O6 0.871386 0.735016 0.575657
O O7 0.822680 0.703513 0.271957
O O8 0.950053 0.123054 0.633821
O O9 0.090261 0.417134 0.224860
O O10 0.267678 0.882648 0.397030
O O11 0.174227 0.482367 0.044000
O O12 0.000000 0.500000 0.000000
O O13 0.568531 0.159271 0.986193
O O14 0.625148 0.928844 0.002884
O O15 0.815657 0.361088 0.118062
O O16 0.293317 0.748056 0.639336
O O17 0.419472 0.201772 0.806137
#
# Coordination Sequence:
#
# PCOD9106998 Si02
#       8
#     2   2   2   2   2   2   2   2
#     4  11  22  38  66  98 128 164 209 270 317 377
#     4  11  23  43  61  93 135 164 206 272 314 367
#     4  11  23  43  65  91 123 175 219 258 308 388
#     4  10  20  40  62  91 124 168 219 249 315 388
#     4   9  21  38  65  89 122 169 205 264 315 378
#     4  11  22  40  64  95 130 162 214 261 325 370
#     4  10  22  40  66  92 130 165 210 264 325 367
#     4  11  23  40  66  90 126 171 209 258 316 376
#
# _framework density 23.182683000000001
#
# number of rings (size 3 to 8) (size 9 to 14) (size 15 to 20)
#    0.000    1.500    5.000    0.000    1.750    2.000 
#    2.250    5.000    0.000    0.000    0.000    0.000 
#    0.000    0.000    0.000    0.000    0.000    0.000 
#
# Total GULP energy -89374.530208 kJ/mol
# GULP energy per Si atom -5585.908138 kJ/mol
# Density = 2.312992 g / cm^3
# Si number density = 23.182683 Si / 1000 Ang^3
#
#
#
# Elastic Constant Matrix: (Units=GPa)
#
#
# Indices 1 2 3 4 5 6 
#
# 1 61.0080 14.5115 22.9995 -7.2441 -5.1595 4.7979
# 2 14.5115 111.9377 31.3046 -25.6120 10.7850 12.7643
# 3 22.9995 31.3046 69.6470 -19.6233 -7.4838 1.7074
# 4 -7.2441 -25.6120 -19.6233 47.3670 1.4253 3.4361
# 5 -5.1595 10.7850 -7.4838 1.4253 33.8179 -6.4248
# 6 4.7979 12.7643 1.7074 3.4361 -6.4248 32.3114
#
#
#
# Elastic Compliance Matrix: (Units=1/GPa)
#
#
# Indices 1 2 3 4 5 6 
#
# 1 0.019015 -0.000744 -0.005663 0.000257 0.001502 -0.001959
# 2 -0.000744 0.013051 -0.004567 0.005747 -0.006815 -0.006770
# 3 -0.005663 -0.004567 0.020113 0.004684 0.005250 0.002128
# 4 0.000257 0.005747 0.004684 0.026725 -0.003023 -0.005999
# 5 0.001502 -0.006815 0.005250 -0.003023 0.035064 0.009485
# 6 -0.001959 -0.006770 0.002128 -0.005999 0.009485 0.036326
#
#
# Mechanical properties :
#
#
# Convention : Reuss Voigt Hill
#
# Bulk Modulus (GPa) = 33.08018 42.24710 37.66364
# Shear Modulus (GPa) = 27.42444 34.28438 30.85441
#
# Velocity S-wave (km/s) = 3.44317 3.84979 3.65214
# Velocity P-wave (km/s) = 5.48703 6.16639 5.83660
#
# Compressibility (1/GPa) = 0.03022958
#
# Stress axis : x y z
#
# Youngs Moduli (GPa) = 52.59067 76.62354 49.71894
#
# Poissons Ratio (x) = 0.05700 0.28157
# Poissons Ratio (y) = 0.03912 0.22709
# Poissons Ratio (z) = 0.29783 0.34997
#
# Static dielectric constant tensor:
#      x y z
#    x 1.891800 -0.013460 -0.064710 
#    y -0.013460 1.900930 0.009050 
#    z -0.064710 0.009050 1.968290 
# 
# From -- ./inp_files/205399.got.cif
#   From: 2010.05.17/outbox.cif.g08.bks.cpg/sg2_103_cif.got.tgz:205399.got - 2010.06.03 11:33:40.
