data_PCOD9106252
_publ_section_title
;
Structure prediction by ZEFSAII (Michael W. Deem and Ramdas Pophale) SiO2 
 PCOD9106252
Probable space group: P -1
;
_chemical_formula_sum "Si O2"
_cell_formula_units_Z 15
_cell_length_a 15.038234
_cell_length_b 8.383628
_cell_length_c 8.578160
_cell_angle_alpha 76.552471
_cell_angle_beta 108.522829
_cell_angle_gamma 52.090308
_cell_volume 663.775776
_symmetry_space_group_name_H-M "P -1"
_symmetry_group_IT_number 2
_symmetry_cell_setting 'triclinic'
loop_
_space_group_symop_operation_xyz
x,y,z
-x,-y,-z
loop_
_atom_site_type_symbol
_atom_site_label
_atom_site_fract_x
_atom_site_fract_y
_atom_site_fract_z
Si Si1 0.325434 0.094880 0.804191
Si Si2 0.520052 0.777999 0.722839
Si Si3 0.319379 0.938221 0.316514
Si Si4 0.943447 0.899876 0.790831
Si Si5 0.225071 0.374316 0.988644
Si Si6 0.000000 0.500000 0.500000
Si Si7 0.037675 0.131094 0.818149
Si Si8 0.631485 0.290103 0.912348
O O1 0.170072 0.249565 0.627292
O O2 0.425852 0.005743 0.737807
O O3 0.295207 0.268661 0.881332
O O4 0.392435 0.849245 0.982219
O O5 0.438422 0.875197 0.493412
O O6 0.677659 0.640929 0.844887
O O7 0.534860 0.569779 0.833312
O O8 0.383239 0.731084 0.273835
O O9 0.207404 0.985488 0.347663
O O10 0.230840 0.187008 0.110536
O O11 0.976816 0.834690 0.009769
O O12 0.951829 0.083076 0.725750
O O13 0.066738 0.645638 0.824499
O O14 0.996089 0.349369 0.656849
O O15 0.203468 0.880293 0.935995
#
# Coordination Sequence:
#
# PCOD9106252 Si02
#       8
#     2   2   2   2   2   1   2   2
#     4  10  24  39  62  88 129 172 212 259 330 383
#     4  12  22  39  64  92 125 171 217 264 322 381
#     4  10  23  37  63  98 124 164 217 270 316 376
#     4  10  20  39  68  93 129 170 220 254 330 379
#     4  11  23  41  61  90 136 168 216 264 323 382
#     4  10  22  42  64  96 134 156 218 280 314 370
#     4   9  19  39  67  98 125 170 211 266 322 389
#     4   9  19  42  60  89 127 167 205 265 326 388
#
# _framework density 22.597992000000001
#
# number of rings (size 3 to 8) (size 9 to 14) (size 15 to 20)
#    0.000    1.867    1.333    2.800    3.733    0.000 
#    0.000    4.667    0.000    0.000    0.000    0.000 
#    0.000    0.000    0.000    0.000    0.000    0.000 
#
# Total GULP energy -83575.257052 kJ/mol
# GULP energy per Si atom -5571.683803 kJ/mol
# Density = 2.254656 g / cm^3
# Si number density = 22.597992 Si / 1000 Ang^3
#
#
#
# Elastic Constant Matrix: (Units=GPa)
#
#
# Indices 1 2 3 4 5 6 
#
# 1 61.3559 2.0695 18.8712 9.4193 1.2014 5.9392
# 2 2.0695 86.6133 23.4175 -0.6390 0.5667 -1.2629
# 3 18.8712 23.4175 54.3350 -6.4566 -6.2709 -0.3140
# 4 9.4193 -0.6390 -6.4566 17.0261 16.2342 -1.0432
# 5 1.2014 0.5667 -6.2709 16.2342 35.2468 -12.5199
# 6 5.9392 -1.2629 -0.3140 -1.0432 -12.5199 26.1318
#
#
#
# Elastic Compliance Matrix: (Units=1/GPa)
#
#
# Indices 1 2 3 4 5 6 
#
# 1 0.023542 0.002191 -0.011183 -0.024452 0.007444 -0.002789
# 2 0.002191 0.013335 -0.006905 -0.003320 -0.000015 -0.000077
# 3 -0.011183 -0.006905 0.027216 0.018906 -0.002657 0.002017
# 4 -0.024452 -0.003320 0.018906 0.145265 -0.070617 -0.022410
# 5 0.007444 -0.000015 -0.002657 -0.070617 0.070566 0.029265
# 6 -0.002789 -0.000077 0.002017 -0.022410 0.029265 0.052048
#
#
# Mechanical properties :
#
#
# Convention : Reuss Voigt Hill
#
# Bulk Modulus (GPa) = 30.96092 32.33559 31.64826
# Shear Modulus (GPa) = 13.35001 26.21066 19.78033
#
# Velocity S-wave (km/s) = 2.43319 3.40938 2.96178
# Velocity P-wave (km/s) = 4.65020 5.46247 5.07262
#
# Compressibility (1/GPa) = 0.03229878
#
# Stress axis : x y z
#
# Youngs Moduli (GPa) = 42.47710 74.99313 36.74320
#
# Poissons Ratio (x) = -0.16434 0.41092
# Poissons Ratio (y) = -0.09308 0.25371
# Poissons Ratio (z) = 0.47504 0.51782
#
# Static dielectric constant tensor:
#      x y z
#    x 1.842360 0.016000 0.017810 
#    y 0.016000 1.837200 0.058210 
#    z 0.017810 0.058210 1.852050 
# 
# From -- ./inp_files/199736.got.cif
#   From: 2010.05.17/outbox.cif.g08.bks.cpg/sg2_100_cif.got.tgz:199736.got - 2010.06.03 11:33:40.
