data_PCOD9106579
_publ_section_title
;
Structure prediction by ZEFSAII (Michael W. Deem and Ramdas Pophale) SiO2 
 PCOD9106579
Probable space group: P -1
;
_chemical_formula_sum "Si O2"
_cell_formula_units_Z 15
_cell_length_a 6.866127
_cell_length_b 7.085932
_cell_length_c 17.010026
_cell_angle_alpha 65.945073
_cell_angle_beta 84.893498
_cell_angle_gamma 120.185059
_cell_volume 606.257425
_symmetry_space_group_name_H-M "P -1"
_symmetry_group_IT_number 2
_symmetry_cell_setting 'triclinic'
loop_
_space_group_symop_operation_xyz
x,y,z
-x,-y,-z
loop_
_atom_site_type_symbol
_atom_site_label
_atom_site_fract_x
_atom_site_fract_y
_atom_site_fract_z
Si Si1 0.520103 0.924060 0.354958
Si Si2 0.746409 0.782124 0.937521
Si Si3 0.728306 0.905763 0.093155
Si Si4 0.502664 0.412237 0.288733
Si Si5 0.000000 0.500000 0.500000
Si Si6 0.116155 0.443255 0.640833
Si Si7 0.341577 0.885344 0.200153
Si Si8 0.976513 0.155296 0.407288
O O1 0.514544 0.171527 0.322865
O O2 0.761501 0.007799 0.377466
O O3 0.299459 0.659697 0.445399
O O4 0.491131 0.892816 0.267473
O O5 0.696194 0.894352 0.845192
O O6 0.500000 0.500000 0.000000
O O7 0.763675 0.915658 0.996953
O O8 0.020553 0.862252 0.913186
O O9 0.647654 0.633604 0.180020
O O10 0.498475 0.905521 0.119068
O O11 0.648268 0.523855 0.346818
O O12 0.232469 0.324777 0.324667
O O13 0.992354 0.279160 0.596390
O O14 0.937825 0.352142 0.736814
O O15 0.091566 0.669990 0.571438
O O16 0.000000 0.000000 0.500000
#
# Coordination Sequence:
#
# PCOD9106579 Si02
#       8
#     2   2   2   2   1   2   2   2
#     4  10  24  39  64  94 130 176 224 271 334 392
#     4  11  25  45  69 102 134 171 221 273 338 405
#     4  11  24  43  70 100 133 176 218 274 339 397
#     4  11  21  42  65  90 129 173 215 272 328 394
#     4  10  20  40  56  88 132 170 212 274 326 374
#     4  10  21  39  62  89 127 170 215 263 327 384
#     4  11  22  44  64  96 132 169 216 272 326 402
#     4  11  22  39  63  95 125 171 227 273 322 389
#
# _framework density 24.741965
#
# number of rings (size 3 to 8) (size 9 to 14) (size 15 to 20)
#    0.000    1.333    2.667    2.800    0.000    4.800 
#    2.400    4.000    0.000    0.000    0.000    0.000 
#    0.000    0.000    0.000    0.000    0.000    0.000 
#
# Total GULP energy -83573.497839 kJ/mol
# GULP energy per Si atom -5571.566523 kJ/mol
# Density = 2.468565 g / cm^3
# Si number density = 24.741965 Si / 1000 Ang^3
#
#
#
# Elastic Constant Matrix: (Units=GPa)
#
#
# Indices 1 2 3 4 5 6 
#
# 1 137.4361 39.4036 36.9875 0.3677 8.4680 46.9988
# 2 39.4036 72.0183 2.0525 -1.9762 8.9832 40.5872
# 3 36.9875 2.0525 76.4064 -9.7137 7.8204 20.7596
# 4 0.3677 -1.9762 -9.7137 37.6788 0.1945 0.8139
# 5 8.4680 8.9832 7.8204 0.1945 52.5509 0.4815
# 6 46.9988 40.5872 20.7596 0.8139 0.4815 54.1547
#
#
#
# Elastic Compliance Matrix: (Units=1/GPa)
#
#
# Indices 1 2 3 4 5 6 
#
# 1 0.011212 -0.002182 -0.003592 -0.001001 -0.000834 -0.006696
# 2 -0.002182 0.027967 0.007284 0.003866 -0.005327 -0.021870
# 3 -0.003592 0.007284 0.018191 0.005326 -0.003307 -0.009366
# 4 -0.001001 0.003866 0.005326 0.028230 -0.001356 -0.004483
# 5 -0.000834 -0.005327 -0.003307 -0.001356 0.020518 0.005822
# 6 -0.006696 -0.021870 -0.009366 -0.004483 0.005822 0.044274
#
#
# Mechanical properties :
#
#
# Convention : Reuss Voigt Hill
#
# Bulk Modulus (GPa) = 16.55873 49.19421 32.87647
# Shear Modulus (GPa) = 29.85037 42.70468 36.27753
#
# Velocity S-wave (km/s) = 3.47719 4.15903 3.83330
# Velocity P-wave (km/s) = 4.77789 6.55663 5.73662
#
# Compressibility (1/GPa) = 0.06039110
#
# Stress axis : x y z
#
# Youngs Moduli (GPa) = 89.18853 35.75608 54.97136
#
# Poissons Ratio (x) = 0.07802 0.19744
# Poissons Ratio (y) = 0.19460 -0.40039
# Poissons Ratio (z) = 0.32033 -0.26044
#
# Static dielectric constant tensor:
#      x y z
#    x 2.010560 -0.128320 -0.047720 
#    y -0.128320 2.548630 0.206770 
#    z -0.047720 0.206770 2.138710 
# 
# From -- ./inp_files/314965.got.cif
#   From: 2010.05.17/outbox.cif.g08.bks.cpg/sg2_158_cif.got.tgz:314965.got - 2010.06.03 11:33:40.
