data_PCOD9106217
_publ_section_title
;
Structure prediction by ZEFSAII (Michael W. Deem and Ramdas Pophale) SiO2 
 PCOD9106217
Probable space group: P -1
;
_chemical_formula_sum "Si O2"
_cell_formula_units_Z 12
_cell_length_a 15.656431
_cell_length_b 10.350152
_cell_length_c 7.204905
_cell_angle_alpha 63.233587
_cell_angle_beta 124.776728
_cell_angle_gamma 153.035649
_cell_volume 429.530348
_symmetry_space_group_name_H-M "P -1"
_symmetry_group_IT_number 2
_symmetry_cell_setting 'triclinic'
loop_
_space_group_symop_operation_xyz
x,y,z
-x,-y,-z
loop_
_atom_site_type_symbol
_atom_site_label
_atom_site_fract_x
_atom_site_fract_y
_atom_site_fract_z
Si Si1 0.758816 0.957319 0.588887
Si Si2 0.767801 0.280848 0.471968
Si Si3 0.352596 0.553040 0.881895
Si Si4 0.296326 0.353823 0.560191
Si Si5 0.691754 0.178204 0.849599
Si Si6 0.117341 0.329583 0.066890
O O1 0.526963 0.669627 0.569503
O O2 0.765352 0.870056 0.468009
O O3 0.824138 0.204004 0.479673
O O4 0.904637 0.073043 0.859639
O O5 0.790228 0.476509 0.322443
O O6 0.819516 0.321702 0.726058
O O7 0.513618 0.972053 0.348143
O O8 0.312143 0.389789 0.777597
O O9 0.280896 0.435938 0.075526
O O10 0.585933 0.897832 0.947065
O O11 0.137867 0.281664 0.324232
O O12 0.804806 0.411331 0.989408
#
# Coordination Sequence:
#
# PCOD9106217 Si02
#       6
#     2   2   2   2   2   2
#     4  11  23  37  67  87 117 165 197 245 296 352
#     4   9  16  38  62  86 113 164 190 233 312 335
#     4  10  20  39  68  84 121 163 189 248 306 344
#     4  11  22  47  58  81 132 158 194 247 296 354
#     4   9  16  36  62  85 118 152 191 242 296 350
#     4  12  22  37  66  93 114 157 208 237 300 355
#
# _framework density 27.937488999999999
#
# number of rings (size 3 to 8) (size 9 to 14) (size 15 to 20)
#    1.000    0.667    5.000    1.000    0.000    2.000 
#    0.000    5.000    3.667    0.000    0.000    0.000 
#    0.000    0.000    0.000    0.000    0.000    0.000 
#
# Total GULP energy -67186.141229 kJ/mol
# GULP energy per Si atom -5598.845102 kJ/mol
# Density = 2.787390 g / cm^3
# Si number density = 27.937489 Si / 1000 Ang^3
#
#
#
# Elastic Constant Matrix: (Units=GPa)
#
#
# Indices 1 2 3 4 5 6 
#
# 1 115.9852 25.0089 39.6212 21.6783 -26.7872 -38.3969
# 2 25.0089 117.7890 32.2465 24.8526 -14.0143 -40.3274
# 3 39.6212 32.2465 116.8680 21.4557 -16.0690 -6.3973
# 4 21.6783 24.8526 21.4557 31.5037 -12.9389 -10.5160
# 5 -26.7872 -14.0143 -16.0690 -12.9389 49.7441 17.5784
# 6 -38.3969 -40.3274 -6.3973 -10.5160 17.5784 42.2279
#
#
#
# Elastic Compliance Matrix: (Units=1/GPa)
#
#
# Indices 1 2 3 4 5 6 
#
# 1 0.015986 0.004911 -0.004666 -0.005681 0.001129 0.016635
# 2 0.004911 0.016340 -0.003979 -0.008531 -0.002796 0.018507
# 3 -0.004666 -0.003979 0.011717 -0.003444 0.002079 -0.007991
# 4 -0.005681 -0.008531 -0.003444 0.045904 0.007286 -0.005435
# 5 0.001129 -0.002796 0.002079 0.007286 0.026168 -0.010407
# 6 0.016635 0.018507 -0.007991 -0.005435 -0.010407 0.058249
#
#
# Mechanical properties :
#
#
# Convention : Reuss Voigt Hill
#
# Bulk Modulus (GPa) = 27.34051 60.48839 43.91445
# Shear Modulus (GPa) = 25.77017 41.61285 33.69151
#
# Velocity S-wave (km/s) = 3.04044 3.86359 3.47646
# Velocity P-wave (km/s) = 4.70460 6.44992 5.64512
#
# Compressibility (1/GPa) = 0.03657577
#
# Stress axis : x y z
#
# Youngs Moduli (GPa) = 62.55401 61.20085 85.34493
#
# Poissons Ratio (x) = -0.30058 0.39823
# Poissons Ratio (y) = -0.30723 0.33957
# Poissons Ratio (z) = 0.29189 0.24351
#
# Static dielectric constant tensor:
#      x y z
#    x 2.170010 0.065790 0.030830 
#    y 0.065790 2.238110 -0.051360 
#    z 0.030830 -0.051360 2.131630 
# 
# From -- ./inp_files/330892.got.cif
#   From: 2010.05.17/outbox.cif.g08.bks.cpg/sg2_166_cif.got.tgz:330892.got - 2010.06.03 11:33:40.
