data_PCOD9106231
_publ_section_title
;
Structure prediction by ZEFSAII (Michael W. Deem and Ramdas Pophale) SiO2 
 PCOD9106231
Probable space group: P -1
;
_chemical_formula_sum "Si O2"
_cell_formula_units_Z 16
_cell_length_a 23.260455
_cell_length_b 5.499309
_cell_length_c 5.764477
_cell_angle_alpha 104.095155
_cell_angle_beta 69.647442
_cell_angle_gamma 114.124480
_cell_volume 626.511558
_symmetry_space_group_name_H-M "P -1"
_symmetry_group_IT_number 2
_symmetry_cell_setting 'triclinic'
loop_
_space_group_symop_operation_xyz
x,y,z
-x,-y,-z
loop_
_atom_site_type_symbol
_atom_site_label
_atom_site_fract_x
_atom_site_fract_y
_atom_site_fract_z
Si Si1 0.540453 0.870089 0.127067
Si Si2 0.355270 0.837122 0.255595
Si Si3 0.412771 0.648132 0.495440
Si Si4 0.343168 0.295913 0.869876
Si Si5 0.008911 0.161090 0.275690
Si Si6 0.876117 0.196356 0.356776
Si Si7 0.857332 0.599051 0.077180
Si Si8 0.237110 0.854500 0.147218
O O1 0.469567 0.657951 0.237326
O O2 0.598424 0.783829 0.125079
O O3 0.548288 0.149844 0.311403
O O4 0.570223 0.963405 0.855203
O O5 0.359600 0.762828 0.495300
O O6 0.294136 0.902936 0.268336
O O7 0.345661 0.565199 0.060148
O O8 0.368180 0.365400 0.590376
O O9 0.272181 0.078744 0.960761
O O10 0.951406 0.282365 0.358253
O O11 0.083676 0.355364 0.180109
O O12 0.000000 0.000000 0.500000
O O13 0.000000 0.000000 0.000000
O O14 0.867786 0.416197 0.235967
O O15 0.825751 0.138676 0.627201
O O16 0.860305 0.896767 0.204581
O O17 0.788960 0.428727 0.012834
#
# Coordination Sequence:
#
# PCOD9106231 Si02
#       8
#     2   2   2   2   2   2   2   2
#     4   9  20  39  61  97 125 175 226 303 368 449
#     4  10  23  40  61  97 134 181 234 298 367 449
#     4  10  20  39  68  89 132 171 238 294 376 439
#     4  10  23  40  60  96 132 181 234 295 366 446
#     4  10  25  49  84 121 164 203 269 332 402 461
#     4  11  28  49  80 116 150 210 255 318 392 458
#     4  11  28  50  79 114 154 205 258 321 383 465
#     4  11  28  46  70  98 156 190 257 299 379 464
#
# _framework density 25.538236999999999
#
# number of rings (size 3 to 8) (size 9 to 14) (size 15 to 20)
#    0.000    1.750    0.000    1.125   10.500    7.000 
#    0.000    0.000    0.000    0.000    0.000    0.000 
#    0.000    0.000    0.000    0.000    0.000    0.000 
#
# Total GULP energy -89397.354076 kJ/mol
# GULP energy per Si atom -5587.334630 kJ/mol
# Density = 2.548011 g / cm^3
# Si number density = 25.538237 Si / 1000 Ang^3
#
#
#
# Elastic Constant Matrix: (Units=GPa)
#
#
# Indices 1 2 3 4 5 6 
#
# 1 102.6391 23.6242 39.5175 -19.0980 -0.4700 19.9791
# 2 23.6242 110.6261 42.2643 -17.0470 -11.9951 25.9010
# 3 39.5175 42.2643 110.5243 -30.0395 -17.8620 9.0496
# 4 -19.0980 -17.0470 -30.0395 61.4554 3.1771 -2.1314
# 5 -0.4700 -11.9951 -17.8620 3.1771 50.0364 -4.9813
# 6 19.9791 25.9010 9.0496 -2.1314 -4.9813 50.8821
#
#
#
# Elastic Compliance Matrix: (Units=1/GPa)
#
#
# Indices 1 2 3 4 5 6 
#
# 1 0.012411 -0.000098 -0.003829 0.001905 -0.001817 -0.004240
# 2 -0.000098 0.011976 -0.003603 0.001297 0.000977 -0.005267
# 3 -0.003829 -0.003603 0.013433 0.004233 0.003776 0.001495
# 4 0.001905 0.001297 0.004233 0.019222 0.000489 -0.001308
# 5 -0.001817 0.000977 0.003776 0.000489 0.021687 0.001688
# 6 -0.004240 -0.005267 0.001495 -0.001308 0.001688 0.023844
#
#
# Mechanical properties :
#
#
# Convention : Reuss Voigt Hill
#
# Bulk Modulus (GPa) = 43.93566 59.40017 51.66792
# Shear Modulus (GPa) = 39.92993 47.03367 43.48180
#
# Velocity S-wave (km/s) = 3.95845 4.29615 4.13075
# Velocity P-wave (km/s) = 6.17524 6.92236 6.55945
#
# Compressibility (1/GPa) = 0.02276055
#
# Stress axis : x y z
#
# Youngs Moduli (GPa) = 80.57290 83.50175 74.44517
#
# Poissons Ratio (x) = 0.00821 0.28502
# Poissons Ratio (y) = 0.00792 0.26820
# Poissons Ratio (z) = 0.30848 0.30082
#
# Static dielectric constant tensor:
#      x y z
#    x 1.986960 -0.022110 0.042010 
#    y -0.022110 2.157720 0.051220 
#    z 0.042010 0.051220 2.084570 
# 
# From -- ./inp_files/114814.got.cif
#   From: 2010.05.17/outbox.cif.g08.bks.cpg/sg2_58_cif.got.tgz:114814.got - 2010.06.03 11:33:40.
