data_PCOD9106087
_publ_section_title
;
Structure prediction by ZEFSAII (Michael W. Deem and Ramdas Pophale) SiO2 
 PCOD9106087
Probable space group: P -1
;
_chemical_formula_sum "Si O2"
_cell_formula_units_Z 14
_cell_length_a 8.882507
_cell_length_b 6.200417
_cell_length_c 15.173844
_cell_angle_alpha 99.214726
_cell_angle_beta 117.621540
_cell_angle_gamma 111.842731
_cell_volume 628.574459
_symmetry_space_group_name_H-M "P -1"
_symmetry_group_IT_number 2
_symmetry_cell_setting 'triclinic'
loop_
_space_group_symop_operation_xyz
x,y,z
-x,-y,-z
loop_
_atom_site_type_symbol
_atom_site_label
_atom_site_fract_x
_atom_site_fract_y
_atom_site_fract_z
Si Si1 0.880868 0.878175 0.246440
Si Si2 0.779054 0.589615 0.636557
Si Si3 0.276764 0.877184 0.901060
Si Si4 0.543173 0.245948 0.400979
Si Si5 0.170396 0.932147 0.055740
Si Si6 0.382656 0.615208 0.765742
Si Si7 0.821289 0.274968 0.766116
O O1 0.772452 0.916771 0.136334
O O2 0.036436 0.162053 0.339867
O O3 0.714925 0.679535 0.254057
O O4 0.023421 0.781316 0.243883
O O5 0.693349 0.356697 0.530059
O O6 0.610273 0.654694 0.618215
O O7 0.842894 0.523277 0.741727
O O8 0.269916 0.710451 0.805478
O O9 0.500000 0.000000 0.000000
O O10 0.168623 0.779263 0.958498
O O11 0.646122 0.351242 0.342118
O O12 0.402916 0.944463 0.334760
O O13 0.382612 0.198532 0.139384
O O14 0.158442 0.774214 0.129060
O O15 0.000000 0.000000 0.000000
#
# Coordination Sequence:
#
# PCOD9106087 Si02
#       7
#     2   2   2   2   2   2   2
#     4  11  22  40  58  90 133 164 209 261 313 379
#     4  10  21  40  66  94 124 170 211 264 317 372
#     4  10  22  40  62  89 128 167 207 256 322 370
#     4   9  21  40  65  94 128 163 217 262 313 376
#     4  10  20  41  67  95 122 165 218 260 311 371
#     4  10  23  40  63  92 129 168 202 267 316 380
#     4  10  20  39  67  93 127 163 214 267 309 374
#
# _framework density 22.27262
#
# number of rings (size 3 to 8) (size 9 to 14) (size 15 to 20)
#    0.000    2.000    1.429    1.286    0.000    6.286 
#    2.571    8.571    0.000    0.000    0.000    0.000 
#    0.000    0.000    0.000    0.000    0.000    0.000 
#
# Total GULP energy -78143.457105 kJ/mol
# GULP energy per Si atom -5581.675508 kJ/mol
# Density = 2.222193 g / cm^3
# Si number density = 22.272620 Si / 1000 Ang^3
#
#
#
# Elastic Constant Matrix: (Units=GPa)
#
#
# Indices 1 2 3 4 5 6 
#
# 1 59.1988 25.0766 31.8641 4.2203 3.6219 18.2136
# 2 25.0766 125.0880 37.0361 -16.8497 -0.9581 41.3690
# 3 31.8641 37.0361 126.2959 -13.2175 -11.8915 23.3684
# 4 4.2203 -16.8497 -13.2175 16.9618 -1.9873 -2.2966
# 5 3.6219 -0.9581 -11.8915 -1.9873 33.0161 -9.5246
# 6 18.2136 41.3690 23.3684 -2.2966 -9.5246 34.9345
#
#
#
# Elastic Compliance Matrix: (Units=1/GPa)
#
#
# Indices 1 2 3 4 5 6 
#
# 1 0.026322 -0.002173 -0.006694 -0.016410 -0.009319 -0.010292
# 2 -0.002173 0.016308 0.000308 0.014053 -0.003656 -0.018458
# 3 -0.006694 0.000308 0.011631 0.011254 0.004863 -0.002589
# 4 -0.016410 0.014053 0.011254 0.085850 0.009283 -0.007440
# 5 -0.009319 -0.003656 0.004863 0.009283 0.038425 0.017022
# 6 -0.010292 -0.018458 -0.002589 -0.007440 0.017022 0.061732
#
#
# Mechanical properties :
#
#
# Convention : Reuss Voigt Hill
#
# Bulk Modulus (GPa) = 26.92323 55.39292 41.15807
# Shear Modulus (GPa) = 18.53435 31.42286 24.97861
#
# Velocity S-wave (km/s) = 2.88785 3.76018 3.35250
# Velocity P-wave (km/s) = 4.82015 6.61637 5.78835
#
# Compressibility (1/GPa) = 0.03714265
#
# Stress axis : x y z
#
# Youngs Moduli (GPa) = 37.99043 61.31834 85.97423
#
# Poissons Ratio (x) = 0.13324 0.57554
# Poissons Ratio (y) = 0.08255 -0.02644
# Poissons Ratio (z) = 0.25432 -0.01886
#
# Static dielectric constant tensor:
#      x y z
#    x 1.771160 -0.039050 -0.020720 
#    y -0.039050 1.815110 0.036730 
#    z -0.020720 0.036730 1.824390 
# 
# From -- ./inp_files/46563.got.cif
#   From: 2010.05.17/outbox.cif.g08.bks.cpg/sg2_24_cif.got.tgz:46563.got - 2010.06.03 11:33:40.
