data_PCOD9106677
_publ_section_title
;
Structure prediction by ZEFSAII (Michael W. Deem and Ramdas Pophale) SiO2 
 PCOD9106677
Probable space group: P -1
;
_chemical_formula_sum "Si O2"
_cell_formula_units_Z 15
_cell_length_a 7.170167
_cell_length_b 8.347795
_cell_length_c 15.162094
_cell_angle_alpha 104.011255
_cell_angle_beta 133.117803
_cell_angle_gamma 53.656713
_cell_volume 512.690641
_symmetry_space_group_name_H-M "P -1"
_symmetry_group_IT_number 2
_symmetry_cell_setting 'triclinic'
loop_
_space_group_symop_operation_xyz
x,y,z
-x,-y,-z
loop_
_atom_site_type_symbol
_atom_site_label
_atom_site_fract_x
_atom_site_fract_y
_atom_site_fract_z
Si Si1 0.759229 0.985266 0.760221
Si Si2 0.160382 0.591523 0.291295
Si Si3 0.458787 0.327380 0.035580
Si Si4 0.104117 0.580869 0.466315
Si Si5 0.590934 0.754957 0.802845
Si Si6 0.323924 0.763061 0.086351
Si Si7 0.128411 0.947982 0.368735
Si Si8 0.000000 0.000000 0.500000
O O1 0.670082 0.880690 0.787084
O O2 0.150361 0.816946 0.854491
O O3 0.623571 0.206119 0.791390
O O4 0.688514 0.019738 0.638527
O O5 0.067359 0.539826 0.346449
O O6 0.522304 0.524881 0.411370
O O7 0.187769 0.472931 0.196943
O O8 0.994032 0.834757 0.264579
O O9 0.366194 0.253526 0.079834
O O10 0.325372 0.564228 0.045035
O O11 0.428356 0.281485 0.917665
O O12 0.000000 0.500000 0.500000
O O13 0.920193 0.826834 0.442958
O O14 0.215280 0.857333 0.672312
O O15 0.000000 0.000000 0.000000
O O16 0.292846 0.859458 0.503122
#
# Coordination Sequence:
#
# PCOD9106677 Si02
#       8
#     2   2   2   2   2   2   2   1
#     4  10  22  36  59  89 113 160 202 232 307 360
#     4  10  22  39  55  84 116 148 203 246 300 366
#     4   9  20  38  60  84 123 155 188 250 287 348
#     4  10  22  39  61  84 114 159 199 256 314 361
#     4  11  22  37  59  87 121 154 197 249 297 359
#     4   9  18  39  62  86 119 156 194 235 296 356
#     4  10  22  39  58  82 120 154 197 257 298 354
#     4  10  20  40  60  84 120 152 206 260 302 362
#
# _framework density 29.257408000000002
#
# number of rings (size 3 to 8) (size 9 to 14) (size 15 to 20)
#    0.000    2.133    1.333    0.800    1.867    3.733 
#    0.000    8.667    0.000    0.000    0.000    0.000 
#    0.000    0.000    0.000    0.000    0.000    0.000 
#
# Total GULP energy -83712.278414 kJ/mol
# GULP energy per Si atom -5580.818561 kJ/mol
# Density = 2.919082 g / cm^3
# Si number density = 29.257408 Si / 1000 Ang^3
#
#
#
# Elastic Constant Matrix: (Units=GPa)
#
#
# Indices 1 2 3 4 5 6 
#
# 1 235.4304 53.2386 66.5992 21.2084 -83.2669 -16.4335
# 2 53.2386 196.7116 44.6208 17.6213 -26.0133 -18.2234
# 3 66.5992 44.6208 127.7329 27.1201 -54.6908 -3.6065
# 4 21.2084 17.6213 27.1201 58.2191 -18.4853 -4.0276
# 5 -83.2669 -26.0133 -54.6908 -18.4853 64.6088 -0.9056
# 6 -16.4335 -18.2234 -3.6065 -4.0276 -0.9056 51.3937
#
#
#
# Elastic Compliance Matrix: (Units=1/GPa)
#
#
# Indices 1 2 3 4 5 6 
#
# 1 0.008320 -0.000725 0.000655 0.000627 0.011202 0.002696
# 2 -0.000725 0.005830 -0.001463 -0.000704 -0.000004 0.001677
# 3 0.000655 -0.001463 0.013098 -0.002476 0.010642 0.000603
# 4 0.000627 -0.000704 -0.002476 0.019709 0.004087 0.001394
# 5 0.011202 -0.000004 0.010642 0.004087 0.040166 0.005355
# 6 0.002696 0.001677 0.000603 0.001394 0.005355 0.021160
#
#
# Mechanical properties :
#
#
# Convention : Reuss Voigt Hill
#
# Bulk Modulus (GPa) = 41.35696 98.75466 70.05581
# Shear Modulus (GPa) = 41.87262 61.20539 51.53901
#
# Velocity S-wave (km/s) = 3.78720 4.57876 4.20166
# Velocity P-wave (km/s) = 5.76975 7.86005 6.89458
#
# Compressibility (1/GPa) = 0.02417973
#
# Stress axis : x y z
#
# Youngs Moduli (GPa) = 120.19328 171.53551 76.34817
#
# Poissons Ratio (x) = 0.12442 -0.04998
# Poissons Ratio (y) = 0.08718 0.11172
# Poissons Ratio (z) = -0.07869 0.25100
#
# Static dielectric constant tensor:
#      x y z
#    x 2.344030 0.060600 0.264500 
#    y 0.060600 2.402790 -0.108080 
#    z 0.264500 -0.108080 1.773820 
# 
# From -- ./inp_files/141320.got.cif
#   From: 2010.05.17/outbox.cif.g08.bks.cpg/sg2_71_cif.got.tgz:141320.got - 2010.06.03 11:33:40.
