data_PCOD9106705
_publ_section_title
;
Structure prediction by ZEFSAII (Michael W. Deem and Ramdas Pophale) SiO2 
 PCOD9106705
Probable space group: P -1
;
_chemical_formula_sum "Si O2"
_cell_formula_units_Z 16
_cell_length_a 17.625644
_cell_length_b 10.339292
_cell_length_c 9.583328
_cell_angle_alpha 43.607349
_cell_angle_beta 38.747542
_cell_angle_gamma 51.819489
_cell_volume 748.112957
_symmetry_space_group_name_H-M "P -1"
_symmetry_group_IT_number 2
_symmetry_cell_setting 'triclinic'
loop_
_space_group_symop_operation_xyz
x,y,z
-x,-y,-z
loop_
_atom_site_type_symbol
_atom_site_label
_atom_site_fract_x
_atom_site_fract_y
_atom_site_fract_z
Si Si1 0.494551 0.564319 0.746445
Si Si2 0.663561 0.537442 0.196086
Si Si3 0.324304 0.892632 0.866826
Si Si4 0.310464 0.489940 0.286218
Si Si5 0.857069 0.053867 0.136177
Si Si6 0.857203 0.496427 0.722323
Si Si7 0.324010 0.893597 0.407534
Si Si8 0.413806 0.069504 0.871805
O O1 0.631300 0.709712 0.211570
O O2 0.449715 0.480879 0.732965
O O3 0.631467 0.562959 0.606619
O O4 0.426754 0.440165 0.053526
O O5 0.687453 0.330264 0.391294
O O6 0.776446 0.585205 0.898779
O O7 0.219521 0.015223 0.831370
O O8 0.418979 0.771751 0.718750
O O9 0.388983 0.002694 0.804886
O O10 0.277851 0.717574 0.154021
O O11 0.201807 0.426293 0.400204
O O12 0.788309 0.016225 0.407211
O O13 0.839965 0.277122 0.946949
O O14 0.000000 0.000000 0.000000
O O15 0.000000 0.500000 0.500000
O O16 0.445839 0.950538 0.263651
O O17 0.339122 0.957837 0.177568
#
# Coordination Sequence:
#
# PCOD9106705 Si02
#       8
#     2   2   2   2   2   2   2   2
#     4   8  14  31  59  80 118 160 195 244 318 348
#     4  10  20  40  60  88 128 167 198 254 314 374
#     4   9  18  38  58  92 121 159 206 267 300 366
#     4   7  14  27  53  82 116 146 198 252 301 345
#     4  10  21  42  64  83 124 167 212 257 306 353
#     4   9  18  34  60  88 113 159 216 255 290 369
#     4  10  23  41  59  93 130 169 197 260 310 382
#     4  11  24  35  67  93 129 161 207 245 334 380
#
# _framework density 21.387142999999998
#
# number of rings (size 3 to 8) (size 9 to 14) (size 15 to 20)
#    0.750    2.000    2.500    0.375    5.250    0.500 
#    0.000    0.625    5.500    1.500    0.000    0.000 
#    0.000    0.000    0.000    0.000    0.000    0.000 
#
# Total GULP energy -89128.466080 kJ/mol
# GULP energy per Si atom -5570.529130 kJ/mol
# Density = 2.133847 g / cm^3
# Si number density = 21.387143 Si / 1000 Ang^3
#
#
#
# Elastic Constant Matrix: (Units=GPa)
#
#
# Indices 1 2 3 4 5 6 
#
# 1 125.8585 38.7133 26.8289 17.1020 -1.9098 -8.9554
# 2 38.7133 64.1383 13.8045 5.5913 -0.2349 1.6422
# 3 26.8289 13.8045 108.3073 5.3912 -7.0812 -11.8323
# 4 17.1020 5.5913 5.3912 36.6807 -12.7148 -0.2669
# 5 -1.9098 -0.2349 -7.0812 -12.7148 31.4575 3.3317
# 6 -8.9554 1.6422 -11.8323 -0.2669 3.3317 40.7812
#
#
#
# Elastic Compliance Matrix: (Units=1/GPa)
#
#
# Indices 1 2 3 4 5 6 
#
# 1 0.010840 -0.005872 -0.001581 -0.004540 -0.001818 0.002277
# 2 -0.005872 0.019493 -0.001308 -0.000169 -0.000316 -0.002429
# 3 -0.001581 -0.001308 0.010187 0.000144 0.001981 0.002500
# 4 -0.004540 -0.000169 0.000144 0.034136 0.013749 -0.001848
# 5 -0.001818 -0.000316 0.001981 0.013749 0.037978 -0.002824
# 6 0.002277 -0.002429 0.002500 -0.001848 -0.002824 0.026063
#
#
# Mechanical properties :
#
#
# Convention : Reuss Voigt Hill
#
# Bulk Modulus (GPa) = 43.48062 50.77751 47.12907
# Shear Modulus (GPa) = 30.50952 36.38104 33.44528
#
# Velocity S-wave (km/s) = 3.78105 4.12888 3.95878
# Velocity P-wave (km/s) = 6.27982 6.82084 6.55591
#
# Compressibility (1/GPa) = 0.02299875
#
# Stress axis : x y z
#
# Youngs Moduli (GPa) = 92.25167 51.30139 98.16700
#
# Poissons Ratio (x) = 0.30123 0.15519
# Poissons Ratio (y) = 0.54168 0.12836
# Poissons Ratio (z) = 0.14584 0.06708
#
# Static dielectric constant tensor:
#      x y z
#    x 1.831200 0.002860 0.043090 
#    y 0.002860 1.849970 -0.046060 
#    z 0.043090 -0.046060 1.913650 
# 
# From -- ./inp_files/312482.got.cif
#   From: 2010.05.17/outbox.cif.g08.bks.cpg/sg2_157_cif.got.tgz:312482.got - 2010.06.03 11:33:40.
