data_PCOD9106960
_publ_section_title
;
Structure prediction by ZEFSAII (Michael W. Deem and Ramdas Pophale) SiO2 
 PCOD9106960
Probable space group: P -1
;
_chemical_formula_sum "Si O2"
_cell_formula_units_Z 16
_cell_length_a 15.567218
_cell_length_b 8.808219
_cell_length_c 15.651370
_cell_angle_alpha 146.649816
_cell_angle_beta 129.415901
_cell_angle_gamma 48.608420
_cell_volume 867.175789
_symmetry_space_group_name_H-M "P -1"
_symmetry_group_IT_number 2
_symmetry_cell_setting 'triclinic'
loop_
_space_group_symop_operation_xyz
x,y,z
-x,-y,-z
loop_
_atom_site_type_symbol
_atom_site_label
_atom_site_fract_x
_atom_site_fract_y
_atom_site_fract_z
Si Si1 0.910378 0.814724 0.347905
Si Si2 0.640403 0.140332 0.300861
Si Si3 0.919123 0.770626 0.524102
Si Si4 0.421804 0.186517 0.413382
Si Si5 0.948279 0.747651 0.152945
Si Si6 0.686769 0.148977 0.141678
Si Si7 0.538424 0.160257 0.887404
Si Si8 0.674974 0.813535 0.464598
O O1 0.915712 0.671639 0.376788
O O2 0.940530 0.641050 0.195957
O O3 0.778262 0.023559 0.351433
O O4 0.000000 0.000000 0.500000
O O5 0.593772 0.477220 0.455173
O O6 0.625599 0.123334 0.181162
O O7 0.573279 0.947872 0.215496
O O8 0.789374 0.873428 0.529414
O O9 0.000000 0.500000 0.500000
O O10 0.975339 0.031370 0.688776
O O11 0.341483 0.165880 0.433709
O O12 0.396004 0.024462 0.238309
O O13 0.555472 0.022379 0.447877
O O14 0.817835 0.934273 0.130076
O O15 0.000000 0.500000 0.000000
O O16 0.687792 0.480710 0.293457
O O17 0.617458 0.095688 0.991235
O O18 0.500000 0.500000 0.000000
#
# Coordination Sequence:
#
# PCOD9106960 Si02
#       8
#     2   2   2   2   2   2   2   2
#     4   9  21  39  65  88 119 159 206 250 299 365
#     4  10  22  40  63  87 119 163 207 243 303 367
#     4  11  21  39  68  86 115 163 211 245 305 361
#     4  10  22  38  62  89 122 155 204 253 296 365
#     4  10  22  41  58  91 122 157 201 258 304 355
#     4  10  21  40  60  82 126 162 196 247 311 362
#     4  12  23  37  59  91 125 158 198 248 309 356
#     4  10  20  40  62  89 119 160 205 253 301 360
#
# _framework density 18.450700000000001
#
# number of rings (size 3 to 8) (size 9 to 14) (size 15 to 20)
#    0.000    1.750    2.500    1.500    1.750    3.000 
#    4.500    0.625    0.000    0.000    0.000    0.000 
#    0.000    0.000    0.000    0.000    0.000    0.000 
#
# Total GULP energy -89308.203170 kJ/mol
# GULP energy per Si atom -5581.762698 kJ/mol
# Density = 1.840871 g / cm^3
# Si number density = 18.450700 Si / 1000 Ang^3
#
#
#
# Elastic Constant Matrix: (Units=GPa)
#
#
# Indices 1 2 3 4 5 6 
#
# 1 109.9397 41.4949 54.9305 -3.1373 -12.2123 5.3130
# 2 41.4949 90.9274 48.6019 -7.6551 -19.4959 13.9183
# 3 54.9305 48.6019 114.3561 -5.7188 -34.9412 9.4734
# 4 -3.1373 -7.6551 -5.7188 36.3441 0.7551 -1.2619
# 5 -12.2123 -19.4959 -34.9412 0.7551 33.3253 0.8715
# 6 5.3130 13.9183 9.4734 -1.2619 0.8715 26.5935
#
#
#
# Elastic Compliance Matrix: (Units=1/GPa)
#
#
# Indices 1 2 3 4 5 6 
#
# 1 0.012994 -0.003866 -0.005890 -0.000486 -0.003707 0.001624
# 2 -0.003866 0.016760 -0.002886 0.002384 0.005493 -0.007038
# 3 -0.005890 -0.002886 0.017724 0.001224 0.014815 -0.004054
# 4 -0.000486 0.002384 0.001224 0.028118 0.001871 -0.000314
# 5 -0.003707 0.005493 0.014815 0.001871 0.047586 -0.008883
# 6 0.001624 -0.007038 -0.004054 -0.000314 -0.008883 0.042683
#
#
# Mechanical properties :
#
#
# Convention : Reuss Voigt Hill
#
# Bulk Modulus (GPa) = 45.05475 67.25311 56.15393
# Shear Modulus (GPa) = 25.18311 30.59895 27.89103
#
# Velocity S-wave (km/s) = 3.69844 4.07678 3.89221
# Velocity P-wave (km/s) = 6.53529 7.66091 7.12038
#
# Compressibility (1/GPa) = 0.02219522
#
# Stress axis : x y z
#
# Youngs Moduli (GPa) = 76.96016 59.66545 56.42021
#
# Poissons Ratio (x) = 0.23065 0.33232
# Poissons Ratio (y) = 0.29751 0.16281
# Poissons Ratio (z) = 0.45330 0.17217
#
# Static dielectric constant tensor:
#      x y z
#    x 1.654230 0.029980 -0.013990 
#    y 0.029980 1.625170 -0.021700 
#    z -0.013990 -0.021700 1.615770 
# 
# From -- ./inp_files/177435.got.cif
#   From: 2010.05.17/outbox.cif.g08.bks.cpg/sg2_89_cif.got.tgz:177435.got - 2010.06.03 11:33:40.
