data_PCOD9106644
_publ_section_title
;
Structure prediction by ZEFSAII (Michael W. Deem and Ramdas Pophale) SiO2 
 PCOD9106644
Probable space group: P -1
;
_chemical_formula_sum "Si O2"
_cell_formula_units_Z 16
_cell_length_a 11.883594
_cell_length_b 10.106505
_cell_length_c 15.032944
_cell_angle_alpha 43.689280
_cell_angle_beta 36.289458
_cell_angle_gamma 51.550868
_cell_volume 734.770566
_symmetry_space_group_name_H-M "P -1"
_symmetry_group_IT_number 2
_symmetry_cell_setting 'triclinic'
loop_
_space_group_symop_operation_xyz
x,y,z
-x,-y,-z
loop_
_atom_site_type_symbol
_atom_site_label
_atom_site_fract_x
_atom_site_fract_y
_atom_site_fract_z
Si Si1 0.755816 0.651602 0.231837
Si Si2 0.395361 0.311330 0.182941
Si Si3 0.147859 0.423270 0.128318
Si Si4 0.298940 0.774616 0.262072
Si Si5 0.493728 0.381021 0.278968
Si Si6 0.598844 0.264328 0.452828
Si Si7 0.023651 0.955483 0.610992
Si Si8 0.427610 0.010385 0.900031
O O1 0.681708 0.472086 0.313204
O O2 0.597864 0.715276 0.376387
O O3 0.961887 0.574231 0.174046
O O4 0.751479 0.838418 0.081694
O O5 0.204402 0.354229 0.225697
O O6 0.398199 0.297462 0.293737
O O7 0.509632 0.126703 0.155092
O O8 0.500000 0.500000 0.000000
O O9 0.095720 0.229812 0.206069
O O10 0.322086 0.516044 0.924397
O O11 0.347665 0.548491 0.333433
O O12 0.406517 0.859567 0.236746
O O13 0.388812 0.868764 0.073266
O O14 0.080867 0.860522 0.363162
O O15 0.560702 0.239672 0.384984
O O16 0.762079 0.110995 0.463091
O O17 0.000000 0.000000 0.500000
#
# Coordination Sequence:
#
# PCOD9106644 Si02
#       8
#     2   2   2   2   2   2   2   2
#     4  10  22  37  61  86 124 157 201 251 308 352
#     4  10  20  40  59  89 125 162 194 250 307 356
#     4  10  21  38  62  88 119 164 197 244 308 358
#     4  11  20  34  62  94 115 152 207 254 293 351
#     4  11  22  40  62  90 128 155 202 250 304 359
#     4  10  23  38  57  92 126 156 195 257 310 352
#     4  11  23  36  62  93 125 152 203 254 308 354
#     4  11  19  36  61  90 119 155 206 247 298 357
#
# _framework density 21.775504999999999
#
# number of rings (size 3 to 8) (size 9 to 14) (size 15 to 20)
#    0.000    1.500    5.000    1.500    5.250    1.000 
#    0.000    5.000    0.000    0.000    0.000    0.000 
#    0.000    0.000    0.000    0.000    0.000    0.000 
#
# Total GULP energy -89433.580867 kJ/mol
# GULP energy per Si atom -5589.598804 kJ/mol
# Density = 2.172594 g / cm^3
# Si number density = 21.775505 Si / 1000 Ang^3
#
#
#
# Elastic Constant Matrix: (Units=GPa)
#
#
# Indices 1 2 3 4 5 6 
#
# 1 124.4102 64.2480 26.5463 19.1123 20.6738 -20.4306
# 2 64.2480 136.1684 15.8641 20.3736 -2.6279 -22.1280
# 3 26.5463 15.8641 26.7312 -0.1105 0.6680 1.6229
# 4 19.1123 20.3736 -0.1105 26.5068 -0.2481 -2.3942
# 5 20.6738 -2.6279 0.6680 -0.2481 30.8525 3.8992
# 6 -20.4306 -22.1280 1.6229 -2.3942 3.8992 52.0775
#
#
#
# Elastic Compliance Matrix: (Units=1/GPa)
#
#
# Indices 1 2 3 4 5 6 
#
# 1 0.018517 -0.004751 -0.015657 -0.009320 -0.013346 0.006304
# 2 -0.004751 0.011002 -0.002070 -0.004789 0.003828 0.002369
# 3 -0.015657 -0.002070 0.054521 0.012398 0.010363 -0.008927
# 4 -0.009320 -0.004789 0.012398 0.047846 0.006505 -0.004365
# 5 -0.013346 0.003828 0.010363 0.006505 0.042369 -0.006805
# 6 0.006304 0.002369 -0.008927 -0.004365 -0.006805 0.023269
#
#
# Mechanical properties :
#
#
# Convention : Reuss Voigt Hill
#
# Bulk Modulus (GPa) = 25.58647 55.62518 40.60583
# Shear Modulus (GPa) = 19.56871 33.93080 26.74976
#
# Velocity S-wave (km/s) = 3.00101 3.95170 3.50870
# Velocity P-wave (km/s) = 4.87686 6.81333 5.92475
#
# Compressibility (1/GPa) = 0.03908316
#
# Stress axis : x y z
#
# Youngs Moduli (GPa) = 54.00334 90.89025 18.34150
#
# Poissons Ratio (x) = 0.43186 0.28718
# Poissons Ratio (y) = 0.25659 0.03797
# Poissons Ratio (z) = 0.84554 0.18816
#
# Static dielectric constant tensor:
#      x y z
#    x 1.818690 -0.002350 0.003210 
#    y -0.002350 1.785290 -0.011330 
#    z 0.003210 -0.011330 1.835820 
# 
# From -- ./inp_files/445775.got.cif
#   From: 2010.05.17/outbox.cif.g08.bks.cpg/sg2_223_cif.got.tgz:445775.got - 2010.06.03 11:33:40.
