data_PCOD9106394
_publ_section_title
;
Structure prediction by ZEFSAII (Michael W. Deem and Ramdas Pophale) SiO2 
 PCOD9106394
Probable space group: P -1
;
_chemical_formula_sum "Si O2"
_cell_formula_units_Z 15
_cell_length_a 12.742797
_cell_length_b 17.639787
_cell_length_c 22.839789
_cell_angle_alpha 166.575339
_cell_angle_beta 143.667489
_cell_angle_gamma 45.580036
_cell_volume 560.520333
_symmetry_space_group_name_H-M "P -1"
_symmetry_group_IT_number 2
_symmetry_cell_setting 'triclinic'
loop_
_space_group_symop_operation_xyz
x,y,z
-x,-y,-z
loop_
_atom_site_type_symbol
_atom_site_label
_atom_site_fract_x
_atom_site_fract_y
_atom_site_fract_z
Si Si1 0.564789 0.083465 0.657689
Si Si2 0.000000 0.000000 0.500000
Si Si3 0.426817 0.830360 0.774704
Si Si4 0.779689 0.127863 0.391827
Si Si5 0.679261 0.910741 0.340623
Si Si6 0.620334 0.099198 0.883335
Si Si7 0.836029 0.086405 0.070705
Si Si8 0.803622 0.933690 0.736072
O O1 0.381587 0.017961 0.571164
O O2 0.500000 0.000000 0.500000
O O3 0.745223 0.595088 0.125028
O O4 0.655977 0.849029 0.549091
O O5 0.090596 0.727800 0.312884
O O6 0.837066 0.886003 0.276689
O O7 0.332429 0.021422 0.835445
O O8 0.642505 0.934078 0.915906
O O9 0.243116 0.336671 0.316471
O O10 0.500000 0.000000 0.000000
O O11 0.004321 0.579131 0.819301
O O12 0.600531 0.156048 0.367331
O O13 0.453923 0.697444 0.041564
O O14 0.822079 0.326658 0.190911
O O15 0.663325 0.868376 0.681500
O O16 0.063479 0.246820 0.326139
#
# Coordination Sequence:
#
# PCOD9106394 Si02
#       8
#     2   1   2   2   2   2   2   2
#     4  10  20  37  55  80 113 146 189 237 288 334
#     4  10  16  34  58  82 108 146 202 228 280 350
#     4   9  18  35  56  84 117 147 186 235 289 335
#     4   9  18  32  56  82 110 148 187 233 279 338
#     4   9  19  35  58  76 109 149 182 238 282 336
#     4   9  18  33  58  82 110 146 185 231 286 329
#     4   9  18  34  56  82 112 149 185 234 281 342
#     4  10  18  34  58  81 109 150 189 229 282 340
#
# _framework density 26.760850000000001
#
# number of rings (size 3 to 8) (size 9 to 14) (size 15 to 20)
#    0.000    2.667    1.333    1.200    0.000    0.000 
#    2.400    8.667    0.000   14.400    0.000    0.000 
#    0.000    0.000    0.000    0.000    0.000    0.000 
#
# Total GULP energy -83568.451216 kJ/mol
# GULP energy per Si atom -5571.230081 kJ/mol
# Density = 2.669994 g / cm^3
# Si number density = 26.760850 Si / 1000 Ang^3
#
#
#
# Elastic Constant Matrix: (Units=GPa)
#
#
# Indices 1 2 3 4 5 6 
#
# 1 162.2809 71.2093 46.1586 -48.4617 -21.3432 10.6356
# 2 71.2093 217.0937 40.1693 -66.0405 -12.2537 3.0299
# 3 46.1586 40.1693 83.3090 -23.2302 -12.1498 12.8079
# 4 -48.4617 -66.0405 -23.2302 66.4567 22.0330 -0.6067
# 5 -21.3432 -12.2537 -12.1498 22.0330 32.0171 -16.5771
# 6 10.6356 3.0299 12.8079 -0.6067 -16.5771 44.5872
#
#
#
# Elastic Compliance Matrix: (Units=1/GPa)
#
#
# Indices 1 2 3 4 5 6 
#
# 1 0.008876 -0.001088 -0.003018 0.003877 0.001369 -0.000615
# 2 -0.001088 0.007191 -0.001236 0.007277 -0.004128 -0.001310
# 3 -0.003018 -0.001236 0.015353 0.001805 0.000302 -0.003469
# 4 0.003877 0.007277 0.001805 0.032731 -0.021352 -0.009431
# 5 0.001369 -0.004128 0.000302 -0.021352 0.055920 0.020367
# 6 -0.000615 -0.001310 -0.003469 -0.009431 0.020367 0.031104
#
#
# Mechanical properties :
#
#
# Convention : Reuss Voigt Hill
#
# Bulk Modulus (GPa) = 48.22578 86.41756 67.32167
# Shear Modulus (GPa) = 29.62622 48.95528 39.29075
#
# Velocity S-wave (km/s) = 3.33088 4.28174 3.83589
# Velocity P-wave (km/s) = 5.73177 7.53705 6.69553
#
# Compressibility (1/GPa) = 0.02073580
#
# Stress axis : x y z
#
# Youngs Moduli (GPa) = 112.66207 139.06625 65.13541
#
# Poissons Ratio (x) = 0.15126 0.19659
# Poissons Ratio (y) = 0.12254 0.08051
# Poissons Ratio (z) = 0.34004 0.17189
#
# Static dielectric constant tensor:
#      x y z
#    x 2.114700 0.026360 0.010410 
#    y 0.026360 2.282440 0.015450 
#    z 0.010410 0.015450 2.308580 
# 
# From -- ./inp_files/595796.got.cif
#   From: 2010.05.17/outbox.cif.g08.bks.cpg/sg2_298_cif.got.tgz:595796.got - 2010.06.03 11:33:40.
