data_PCOD9106855
_publ_section_title
;
Structure prediction by ZEFSAII (Michael W. Deem and Ramdas Pophale) SiO2 
 PCOD9106855
Probable space group: P -1
;
_chemical_formula_sum "Si O2"
_cell_formula_units_Z 15
_cell_length_a 15.438302
_cell_length_b 11.903840
_cell_length_c 8.704131
_cell_angle_alpha 144.960788
_cell_angle_beta 132.863529
_cell_angle_gamma 45.168338
_cell_volume 630.118454
_symmetry_space_group_name_H-M "P -1"
_symmetry_group_IT_number 2
_symmetry_cell_setting 'triclinic'
loop_
_space_group_symop_operation_xyz
x,y,z
-x,-y,-z
loop_
_atom_site_type_symbol
_atom_site_label
_atom_site_fract_x
_atom_site_fract_y
_atom_site_fract_z
Si Si1 0.667462 0.853577 0.693406
Si Si2 0.373240 0.434855 0.904556
Si Si3 0.581895 0.303749 0.225218
Si Si4 0.897895 0.833799 0.757266
Si Si5 0.252785 0.216352 0.756531
Si Si6 0.236375 0.455919 0.285452
Si Si7 0.500000 0.000000 0.000000
Si Si8 0.140295 0.701544 0.741565
O O1 0.584826 0.765744 0.384905
O O2 0.806488 0.770260 0.690683
O O3 0.666452 0.755903 0.751769
O O4 0.636258 0.095392 0.952915
O O5 0.295249 0.366984 0.864887
O O6 0.279087 0.615846 0.890072
O O7 0.485524 0.462982 0.168001
O O8 0.686730 0.396934 0.506653
O O9 0.522102 0.213039 0.188969
O O10 0.829994 0.871477 0.550647
O O11 0.039160 0.683879 0.723761
O O12 0.900276 0.053520 0.065889
O O13 0.377684 0.043582 0.782185
O O14 0.181790 0.362679 0.976321
O O15 0.147879 0.581336 0.456138
#
# Coordination Sequence:
#
# PCOD9106855 Si02
#       8
#     2   2   2   2   2   2   1   2
#     4  10  20  40  61  93 127 167 203 267 308 373
#     4   9  22  37  62  93 126 164 212 248 321 369
#     4  11  21  40  62  96 131 165 203 262 310 388
#     4  10  22  43  68  86 133 165 216 262 320 361
#     4  10  22  39  59  96 125 172 198 264 313 376
#     4  11  23  38  66  96 129 163 216 253 320 370
#     4  10  22  40  64  92 136 168 198 256 328 372
#     4  10  22  42  65  98 117 174 216 264 307 376
#
# _framework density 23.805046999999998
#
# number of rings (size 3 to 8) (size 9 to 14) (size 15 to 20)
#    0.000    1.867    2.667    0.400    0.000   11.733 
#    2.400    0.000    0.000    4.000    0.000    0.000 
#    0.000    0.000    0.000    0.000    0.000    0.000 
#
# Total GULP energy -83540.367982 kJ/mol
# GULP energy per Si atom -5569.357865 kJ/mol
# Density = 2.375087 g / cm^3
# Si number density = 23.805047 Si / 1000 Ang^3
#
#
#
# Elastic Constant Matrix: (Units=GPa)
#
#
# Indices 1 2 3 4 5 6 
#
# 1 86.1885 19.5783 17.1923 -4.3151 -4.6120 17.7748
# 2 19.5783 60.5280 12.5382 2.1045 -4.7379 -3.2205
# 3 17.1923 12.5382 85.2657 1.8154 -17.3770 -0.2216
# 4 -4.3151 2.1045 1.8154 30.1138 1.9765 -0.9549
# 5 -4.6120 -4.7379 -17.3770 1.9765 44.2808 3.4491
# 6 17.7748 -3.2205 -0.2216 -0.9549 3.4491 31.9419
#
#
#
# Elastic Compliance Matrix: (Units=1/GPa)
#
#
# Indices 1 2 3 4 5 6 
#
# 1 0.015183 -0.004943 -0.002251 0.002322 0.000764 -0.008976
# 2 -0.004943 0.018801 -0.001595 -0.001822 0.000600 0.004516
# 3 -0.002251 -0.001595 0.013441 -0.001322 0.004880 0.000619
# 4 0.002322 -0.001822 -0.001322 0.033868 -0.001963 -0.000260
# 5 0.000764 0.000600 0.004880 -0.001963 0.024970 -0.003086
# 6 -0.008976 0.004516 0.000619 -0.000260 -0.003086 0.037087
#
#
# Mechanical properties :
#
#
# Convention : Reuss Voigt Hill
#
# Bulk Modulus (GPa) = 33.50575 36.73330 35.11953
# Shear Modulus (GPa) = 29.26082 33.44554 31.35318
#
# Velocity S-wave (km/s) = 3.50978 3.75237 3.63310
# Velocity P-wave (km/s) = 5.52543 5.85133 5.69071
#
# Compressibility (1/GPa) = 0.02984562
#
# Stress axis : x y z
#
# Youngs Moduli (GPa) = 65.86447 53.18805 74.39980
#
# Poissons Ratio (x) = 0.26291 0.16750
# Poissons Ratio (y) = 0.32557 0.11868
# Poissons Ratio (z) = 0.14829 0.08484
#
# Static dielectric constant tensor:
#      x y z
#    x 1.321780 0.266600 0.337210 
#    y 0.266600 1.748920 -0.167940 
#    z 0.337210 -0.167940 1.676750 
# 
# From -- ./inp_files/332583.got.cif
#   From: 2010.05.17/outbox.cif.g08.bks.cpg/sg2_167_cif.got.tgz:332583.got - 2010.06.03 11:33:40.
