data_PCOD9106665
_publ_section_title
;
Structure prediction by ZEFSAII (Michael W. Deem and Ramdas Pophale) SiO2 
 PCOD9106665
Probable space group: P -1
;
_chemical_formula_sum "Si O2"
_cell_formula_units_Z 16
_cell_length_a 24.191972
_cell_length_b 30.196459
_cell_length_c 8.275772
_cell_angle_alpha 42.115748
_cell_angle_beta 43.085820
_cell_angle_gamma 10.171936
_cell_volume 716.004466
_symmetry_space_group_name_H-M "P -1"
_symmetry_group_IT_number 2
_symmetry_cell_setting 'triclinic'
loop_
_space_group_symop_operation_xyz
x,y,z
-x,-y,-z
loop_
_atom_site_type_symbol
_atom_site_label
_atom_site_fract_x
_atom_site_fract_y
_atom_site_fract_z
Si Si1 0.108498 0.522985 0.110980
Si Si2 0.804392 0.096095 0.244652
Si Si3 0.225615 0.647460 0.476702
Si Si4 0.168304 0.344192 0.903512
Si Si5 0.469354 0.053102 0.603023
Si Si6 0.576690 0.250724 0.986809
Si Si7 0.256454 0.071446 0.396557
Si Si8 0.210197 0.798519 0.729831
O O1 0.100175 0.469988 0.145975
O O2 0.890302 0.669868 0.324706
O O3 0.422751 0.307147 0.089138
O O4 0.940836 0.714906 0.850923
O O5 0.678606 0.230262 0.310274
O O6 0.549766 0.275050 0.172202
O O7 0.044615 0.845682 0.430328
O O8 0.000000 0.000000 0.000000
O O9 0.399178 0.454882 0.737301
O O10 0.497343 0.463251 0.279758
O O11 0.967746 0.813846 0.466213
O O12 0.421051 0.188964 0.689600
O O13 0.000000 0.500000 0.000000
O O14 0.372776 0.123008 0.133854
O O15 0.500000 0.000000 0.500000
O O16 0.638664 0.986168 0.492372
O O17 0.945713 0.963241 0.935182
O O18 0.000000 0.000000 0.500000
#
# Coordination Sequence:
#
# PCOD9106665 Si02
#       8
#     2   2   2   2   2   2   2   2
#     4   8  16  34  56  70 112 149 177 232 278 336
#     4  10  22  38  59  87 114 150 200 237 291 348
#     4  10  20  40  60  81 122 152 188 248 286 336
#     4   9  17  34  54  77 107 146 183 223 279 341
#     4   9  17  32  54  79 107 145 186 226 284 340
#     4   9  19  37  58  83 112 152 194 234 289 343
#     4   8  17  35  54  76 108 153 185 219 292 342
#     4   9  20  37  60  84 112 150 194 229 293 345
#
# _framework density 22.346228
#
# number of rings (size 3 to 8) (size 9 to 14) (size 15 to 20)
#    0.000    3.000    0.000    1.500    0.000    7.500 
#   13.500    2.500    5.500    0.000    0.000    0.000 
#    0.000    0.000    0.000    0.000    0.000    0.000 
#
# Total GULP energy -89197.042329 kJ/mol
# GULP energy per Si atom -5574.815146 kJ/mol
# Density = 2.229537 g / cm^3
# Si number density = 22.346228 Si / 1000 Ang^3
#
#
#
# Elastic Constant Matrix: (Units=GPa)
#
#
# Indices 1 2 3 4 5 6 
#
# 1 134.0357 46.3082 22.2380 22.9052 19.5480 -12.7428
# 2 46.3082 90.4207 13.0029 -8.1614 2.0814 -16.9377
# 3 22.2380 13.0029 57.1175 -15.2788 -0.8932 -5.9657
# 4 22.9052 -8.1614 -15.2788 33.1096 0.5790 2.6264
# 5 19.5480 2.0814 -0.8932 0.5790 40.6039 -0.4796
# 6 -12.7428 -16.9377 -5.9657 2.6264 -0.4796 39.3046
#
#
#
# Elastic Compliance Matrix: (Units=1/GPa)
#
#
# Indices 1 2 3 4 5 6 
#
# 1 0.015668 -0.007855 -0.008774 -0.016812 -0.007077 0.001400
# 2 -0.007855 0.016368 0.002567 0.010266 0.002903 0.004246
# 3 -0.008774 0.002567 0.025394 0.018268 0.004402 0.000949
# 4 -0.016812 0.010266 0.018268 0.052802 0.007196 -0.001694
# 5 -0.007077 0.002903 0.004402 0.007196 0.027875 -0.000516
# 6 0.001400 0.004246 0.000949 -0.001694 -0.000516 0.027977
#
#
# Mechanical properties :
#
#
# Convention : Reuss Voigt Hill
#
# Bulk Modulus (GPa) = 34.12107 49.40799 41.76453
# Shear Modulus (GPa) = 24.51259 35.93861 30.22560
#
# Velocity S-wave (km/s) = 3.31561 4.01467 3.68177
# Velocity P-wave (km/s) = 5.47358 6.60668 6.06665
#
# Compressibility (1/GPa) = 0.02930740
#
# Stress axis : x y z
#
# Youngs Moduli (GPa) = 63.82305 61.09382 39.37938
#
# Poissons Ratio (x) = 0.47989 0.34550
# Poissons Ratio (y) = 0.50133 -0.10108
# Poissons Ratio (z) = 0.55996 -0.15682
#
# Static dielectric constant tensor:
#      x y z
#    x 2.007180 0.188130 -0.064500 
#    y 0.188130 2.059180 -0.103640 
#    z -0.064500 -0.103640 1.904100 
# 
# From -- ./inp_files/355687.got.cif
#   From: 2010.05.17/outbox.cif.g08.bks.cpg/sg2_178_cif.got.tgz:355687.got - 2010.06.03 11:33:40.
