data_PCOD9106721
_publ_section_title
;
Structure prediction by ZEFSAII (Michael W. Deem and Ramdas Pophale) SiO2 
 PCOD9106721
Probable space group: P -1
;
_chemical_formula_sum "Si O2"
_cell_formula_units_Z 14
_cell_length_a 11.344407
_cell_length_b 11.663608
_cell_length_c 14.418520
_cell_angle_alpha 62.956605
_cell_angle_beta 30.010904
_cell_angle_gamma 84.575920
_cell_volume 629.696198
_symmetry_space_group_name_H-M "P -1"
_symmetry_group_IT_number 2
_symmetry_cell_setting 'triclinic'
loop_
_space_group_symop_operation_xyz
x,y,z
-x,-y,-z
loop_
_atom_site_type_symbol
_atom_site_label
_atom_site_fract_x
_atom_site_fract_y
_atom_site_fract_z
Si Si1 0.981409 0.163241 0.564483
Si Si2 0.386544 0.259105 0.432018
Si Si3 0.520767 0.221768 0.869939
Si Si4 0.965204 0.368959 0.179852
Si Si5 0.000947 0.132554 0.119270
Si Si6 0.335056 0.352078 0.089437
Si Si7 0.344721 0.311006 0.640004
O O1 0.823953 0.246691 0.632269
O O2 0.234010 0.253249 0.443011
O O3 0.134255 0.185469 0.354141
O O4 0.717318 0.964663 0.848297
O O5 0.760561 0.427997 0.109821
O O6 0.250543 0.283440 0.606216
O O7 0.270443 0.069849 0.595012
O O8 0.328749 0.201494 0.918321
O O9 0.557131 0.353735 0.867376
O O10 0.628696 0.311172 0.447604
O O11 0.941071 0.247951 0.164375
O O12 0.099508 0.347648 0.187337
O O13 0.065638 0.169973 0.952324
O O14 0.500000 0.500000 0.000000
O O15 0.500000 0.500000 0.500000
#
# Coordination Sequence:
#
# PCOD9106721 Si02
#       7
#     2   2   2   2   2   2   2
#     4  10  20  40  60  90 123 157 201 251 298 361
#     4  11  23  43  65  92 127 164 211 250 308 372
#     4   9  21  38  63  88 122 157 199 252 302 359
#     4  11  24  45  62  93 128 161 206 262 308 361
#     4  10  23  45  65  92 124 165 207 257 308 366
#     4  11  21  36  61  89 120 158 197 241 307 365
#     4  12  25  43  67  90 125 165 208 260 312 364
#
# _framework density 22.232942999999999
#
# number of rings (size 3 to 8) (size 9 to 14) (size 15 to 20)
#    0.000    1.429    2.857    2.143    0.000    2.286 
#    2.571    0.000    0.000    0.000    0.000    0.000 
#    0.000    0.000    0.000    0.000    0.000    0.000 
#
# Total GULP energy -78290.516895 kJ/mol
# GULP energy per Si atom -5592.179778 kJ/mol
# Density = 2.218234 g / cm^3
# Si number density = 22.232943 Si / 1000 Ang^3
#
#
#
# Elastic Constant Matrix: (Units=GPa)
#
#
# Indices 1 2 3 4 5 6 
#
# 1 109.8592 27.5837 22.9754 8.3983 13.4482 9.2304
# 2 27.5837 109.1803 27.8980 -4.1371 -8.8136 1.4652
# 3 22.9754 27.8980 72.3147 -5.4837 7.3685 6.1404
# 4 8.3983 -4.1371 -5.4837 36.4379 -0.7437 1.0969
# 5 13.4482 -8.8136 7.3685 -0.7437 40.0525 5.8055
# 6 9.2304 1.4652 6.1404 1.0969 5.8055 31.2136
#
#
#
# Elastic Compliance Matrix: (Units=1/GPa)
#
#
# Indices 1 2 3 4 5 6 
#
# 1 0.011080 -0.002626 -0.002213 -0.003202 -0.003672 -0.001923
# 2 -0.002626 0.011168 -0.003798 0.001378 0.004035 0.000201
# 3 -0.002213 -0.003798 0.016651 0.002588 -0.002817 -0.002010
# 4 -0.003202 0.001378 0.002588 0.028788 0.001572 -0.000931
# 5 -0.003672 0.004035 -0.002817 0.001572 0.028193 -0.003848
# 6 -0.001923 0.000201 -0.002010 -0.000931 -0.003848 0.033740
#
#
# Mechanical properties :
#
#
# Convention : Reuss Voigt Hill
#
# Bulk Modulus (GPa) = 46.24056 49.80760 48.02408
# Shear Modulus (GPa) = 32.44593 35.73395 34.08994
#
# Velocity S-wave (km/s) = 3.82431 4.01340 3.92000
# Velocity P-wave (km/s) = 6.35168 6.62781 6.49121
#
# Compressibility (1/GPa) = 0.02162604
#
# Stress axis : x y z
#
# Youngs Moduli (GPa) = 90.24879 89.53951 60.05812
#
# Poissons Ratio (x) = 0.23513 0.13289
# Poissons Ratio (y) = 0.23699 0.22809
# Poissons Ratio (z) = 0.19970 0.34006
#
# Static dielectric constant tensor:
#      x y z
#    x 1.817820 -0.009220 0.017200 
#    y -0.009220 1.811420 -0.052750 
#    z 0.017200 -0.052750 1.825350 
# 
# From -- ./inp_files/470207.got.cif
#   From: 2010.05.17/outbox.cif.g08.bks.cpg/sg2_236_cif.got.tgz:470207.got - 2010.06.03 11:33:40.
