data_PCOD9106470
_publ_section_title
;
Structure prediction by ZEFSAII (Michael W. Deem and Ramdas Pophale) SiO2 
 PCOD9106470
Probable space group: P -1
;
_chemical_formula_sum "Si O2"
_cell_formula_units_Z 16
_cell_length_a 12.061381
_cell_length_b 21.096030
_cell_length_c 9.262844
_cell_angle_alpha 47.594427
_cell_angle_beta 49.799570
_cell_angle_gamma 25.979027
_cell_volume 756.702633
_symmetry_space_group_name_H-M "P -1"
_symmetry_group_IT_number 2
_symmetry_cell_setting 'triclinic'
loop_
_space_group_symop_operation_xyz
x,y,z
-x,-y,-z
loop_
_atom_site_type_symbol
_atom_site_label
_atom_site_fract_x
_atom_site_fract_y
_atom_site_fract_z
Si Si1 0.430535 0.082799 0.281355
Si Si2 0.541231 0.374643 0.778039
Si Si3 0.841295 0.558971 0.401815
Si Si4 0.613783 0.100720 0.848789
Si Si5 0.047560 0.928389 0.216515
Si Si6 0.880397 0.911543 0.619659
Si Si7 0.517466 0.413790 0.408755
Si Si8 0.776979 0.635145 0.872694
O O1 0.228896 0.122486 0.303424
O O2 0.338707 0.220290 0.198757
O O3 0.500000 0.000000 0.500000
O O4 0.614373 0.023185 0.085174
O O5 0.830747 0.218053 0.725219
O O6 0.425539 0.445254 0.605944
O O7 0.509179 0.471028 0.760025
O O8 0.425294 0.344289 0.987502
O O9 0.660399 0.724755 0.237745
O O10 0.657269 0.566228 0.562898
O O11 0.000000 0.500000 0.500000
O O12 0.070073 0.426148 0.306287
O O13 0.756226 0.110112 0.795301
O O14 0.756880 0.999931 0.738369
O O15 0.830388 0.007941 0.389389
O O16 0.000000 0.000000 0.000000
O O17 0.187496 0.753380 0.612096
O O18 0.000000 0.500000 0.000000
#
# Coordination Sequence:
#
# PCOD9106470 Si02
#       8
#     2   2   2   2   2   2   2   2
#     4  12  26  44  71 108 139 187 246 295 355 429
#     4  10  20  39  70  96 131 172 235 293 336 409
#     4  12  27  44  72 103 144 187 234 289 362 430
#     4  12  24  49  65 103 148 187 236 290 367 433
#     4  11  22  41  70 102 134 183 238 289 351 425
#     4  11  25  41  71  98 146 189 222 299 365 416
#     4  10  21  43  66 104 129 180 235 285 348 415
#     4  12  21  45  72  95 134 186 238 289 348 418
#
# _framework density 21.144369999999999
#
# number of rings (size 3 to 8) (size 9 to 14) (size 15 to 20)
#    0.000    0.750    6.250    2.250    5.250    0.000 
#    0.000    0.625    0.000    0.000    0.000    0.000 
#    0.000    0.000    0.000    0.000    0.000    0.000 
#
# Total GULP energy -89196.093520 kJ/mol
# GULP energy per Si atom -5574.755845 kJ/mol
# Density = 2.109624 g / cm^3
# Si number density = 21.144370 Si / 1000 Ang^3
#
#
#
# Elastic Constant Matrix: (Units=GPa)
#
#
# Indices 1 2 3 4 5 6 
#
# 1 139.1071 46.0525 53.5314 4.3474 -4.0821 8.6066
# 2 46.0525 82.1321 51.0873 18.0379 3.5536 23.0017
# 3 53.5314 51.0873 125.9507 8.4255 -4.1969 17.3220
# 4 4.3474 18.0379 8.4255 40.4313 3.4902 0.6619
# 5 -4.0821 3.5536 -4.1969 3.4902 39.9083 3.2893
# 6 8.6066 23.0017 17.3220 0.6619 3.2893 21.1822
#
#
#
# Elastic Compliance Matrix: (Units=1/GPa)
#
#
# Indices 1 2 3 4 5 6 
#
# 1 0.009661 -0.005275 -0.002572 0.001726 0.000728 0.003739
# 2 -0.005275 0.026605 -0.004836 -0.009867 -0.000710 -0.022374
# 3 -0.002572 -0.004836 0.011518 -0.000054 0.001662 -0.003379
# 4 0.001726 -0.009867 -0.000054 0.029001 -0.002270 0.009504
# 5 0.000728 -0.000710 0.001662 -0.002270 0.025968 -0.004845
# 6 0.003739 -0.022374 -0.003379 0.009504 -0.004845 0.073204
#
#
# Mechanical properties :
#
#
# Convention : Reuss Voigt Hill
#
# Bulk Modulus (GPa) = 44.60680 72.05914 58.33297
# Shear Modulus (GPa) = 23.94690 33.40562 28.67626
#
# Velocity S-wave (km/s) = 3.36898 3.97909 3.68667
# Velocity P-wave (km/s) = 6.02291 7.43400 6.76535
#
# Compressibility (1/GPa) = 0.02241810
#
# Stress axis : x y z
#
# Youngs Moduli (GPa) = 103.51078 37.58718 86.82112
#
# Poissons Ratio (x) = 0.19827 0.22329
# Poissons Ratio (y) = 0.54602 0.41986
# Poissons Ratio (z) = 0.26621 0.18177
#
# Static dielectric constant tensor:
#      x y z
#    x 1.735070 -0.049740 -0.015790 
#    y -0.049740 1.802250 -0.043510 
#    z -0.015790 -0.043510 1.833450 
# 
# From -- ./inp_files/282873.got.cif
#   From: 2010.05.17/outbox.cif.g08.bks.cpg/sg2_142_cif.got.tgz:282873.got - 2010.06.03 11:33:40.
