data_PCOD9106715
_publ_section_title
;
Structure prediction by ZEFSAII (Michael W. Deem and Ramdas Pophale) SiO2 
 PCOD9106715
Probable space group: P -1
;
_chemical_formula_sum "Si O2"
_cell_formula_units_Z 12
_cell_length_a 10.074660
_cell_length_b 5.265839
_cell_length_c 9.670471
_cell_angle_alpha 89.121582
_cell_angle_beta 100.790982
_cell_angle_gamma 111.206123
_cell_volume 469.066051
_symmetry_space_group_name_H-M "P -1"
_symmetry_group_IT_number 2
_symmetry_cell_setting 'triclinic'
loop_
_space_group_symop_operation_xyz
x,y,z
-x,-y,-z
loop_
_atom_site_type_symbol
_atom_site_label
_atom_site_fract_x
_atom_site_fract_y
_atom_site_fract_z
Si Si1 0.529595 0.382219 0.224870
Si Si2 0.440951 0.109165 0.618580
Si Si3 0.178674 0.226129 0.634334
Si Si4 0.003090 0.689798 0.128336
Si Si5 0.067630 0.327434 0.334192
Si Si6 0.777227 0.775117 0.895371
O O1 0.529978 0.081767 0.256272
O O2 0.697880 0.574602 0.242237
O O3 0.391830 0.340575 0.101505
O O4 0.494542 0.566004 0.339799
O O5 0.500000 0.000000 0.500000
O O6 0.270293 0.057464 0.580523
O O7 0.141409 0.384002 0.497203
O O8 0.039836 0.989122 0.673631
O O9 0.979959 0.514507 0.264803
O O10 0.879297 0.794800 0.046821
O O11 0.163349 0.918203 0.154332
O O12 0.000000 0.500000 0.000000
O O13 0.178638 0.365325 0.227970
#
# Coordination Sequence:
#
# PCOD9106715 Si02
#       6
#     2   2   2   2   2   2
#     4  10  23  37  62  90 124 158 210 254 307 363
#     4  10  21  37  58  90 127 163 204 250 306 366
#     4   9  23  37  59  96 128 164 200 247 314 376
#     4   9  21  38  62  87 120 158 213 257 311 361
#     4  10  20  40  60  89 128 164 199 252 309 375
#     4  10  21  38  64  92 115 163 211 265 302 364
#
# _framework density 25.582750999999998
#
# number of rings (size 3 to 8) (size 9 to 14) (size 15 to 20)
#    1.000    1.333    0.000    1.500    7.000    2.667 
#    0.000    4.167    0.000   10.000    0.000    0.000 
#    0.000    0.000    0.000    0.000    0.000    0.000 
#
# Total GULP energy -66853.720092 kJ/mol
# GULP energy per Si atom -5571.143341 kJ/mol
# Density = 2.552452 g / cm^3
# Si number density = 25.582751 Si / 1000 Ang^3
#
#
#
# Elastic Constant Matrix: (Units=GPa)
#
#
# Indices 1 2 3 4 5 6 
#
# 1 91.1407 12.6966 49.4949 -7.1585 17.2953 32.6147
# 2 12.6966 76.5326 43.2134 -17.4729 28.1799 -0.2878
# 3 49.4949 43.2134 127.4126 -17.1585 19.1156 17.1555
# 4 -7.1585 -17.4729 -17.1585 35.8478 0.0508 9.0695
# 5 17.2953 28.1799 19.1156 0.0508 41.6151 9.9901
# 6 32.6147 -0.2878 17.1555 9.0695 9.9901 45.8312
#
#
#
# Elastic Compliance Matrix: (Units=1/GPa)
#
#
# Indices 1 2 3 4 5 6 
#
# 1 0.018881 0.002719 -0.005288 0.005492 -0.004494 -0.011547
# 2 0.002719 0.023308 -0.005847 0.008647 -0.014692 0.001892
# 3 -0.005288 -0.005847 0.012276 0.002355 0.000882 -0.001527
# 4 0.005492 0.008647 0.002355 0.037025 -0.006721 -0.010598
# 5 -0.004494 -0.014692 0.000882 -0.006721 0.036366 -0.003821
# 6 -0.011547 0.001892 -0.001527 -0.010598 -0.003821 0.033550
#
#
# Mechanical properties :
#
#
# Convention : Reuss Voigt Hill
#
# Bulk Modulus (GPa) = 26.57303 56.21064 41.39183
# Shear Modulus (GPa) = 26.20751 37.30422 31.75586
#
# Velocity S-wave (km/s) = 3.20413 3.82275 3.52703
# Velocity P-wave (km/s) = 4.90900 6.44239 5.72724
#
# Compressibility (1/GPa) = 0.03763215
#
# Stress axis : x y z
#
# Youngs Moduli (GPa) = 52.96196 42.90414 81.45718
#
# Poissons Ratio (x) = -0.11664 0.43076
# Poissons Ratio (y) = -0.14399 0.47630
# Poissons Ratio (z) = 0.28007 0.25087
#
# Static dielectric constant tensor:
#      x y z
#    x 2.210850 -0.110930 -0.070310 
#    y -0.110930 2.055980 0.012770 
#    z -0.070310 0.012770 2.053040 
# 
# From -- ./inp_files/365389.got.cif
#   From: 2010.05.17/outbox.cif.g08.bks.cpg/sg2_183_cif.got.tgz:365389.got - 2010.06.03 11:33:40.
