data_PCOD9106409
_publ_section_title
;
Structure prediction by ZEFSAII (Michael W. Deem and Ramdas Pophale) SiO2 
 PCOD9106409
Probable space group: P -1
;
_chemical_formula_sum "Si O2"
_cell_formula_units_Z 14
_cell_length_a 15.632709
_cell_length_b 11.875097
_cell_length_c 5.437468
_cell_angle_alpha 68.656444
_cell_angle_beta 99.912843
_cell_angle_gamma 47.692072
_cell_volume 553.306128
_symmetry_space_group_name_H-M "P -1"
_symmetry_group_IT_number 2
_symmetry_cell_setting 'triclinic'
loop_
_space_group_symop_operation_xyz
x,y,z
-x,-y,-z
loop_
_atom_site_type_symbol
_atom_site_label
_atom_site_fract_x
_atom_site_fract_y
_atom_site_fract_z
Si Si1 0.115816 0.289851 0.367284
Si Si2 0.616607 0.694276 0.872883
Si Si3 0.295086 0.306005 0.586439
Si Si4 0.675495 0.126583 0.430260
Si Si5 0.668868 0.281957 0.794447
Si Si6 0.948709 0.243980 0.429253
Si Si7 0.102243 0.762939 0.093623
O O1 0.215600 0.266485 0.596367
O O2 0.026080 0.286140 0.462827
O O3 0.219698 0.104038 0.377454
O O4 0.000000 0.500000 0.000000
O O5 0.607603 0.773460 0.065676
O O6 0.774681 0.453534 0.155407
O O7 0.624604 0.769136 0.575890
O O8 0.488745 0.741085 0.747553
O O9 0.171303 0.549419 0.319922
O O10 0.708226 0.156139 0.678159
O O11 0.687575 0.194897 0.135329
O O12 0.500000 0.500000 0.500000
O O13 0.762286 0.299410 0.818132
O O14 0.977936 0.132269 0.770080
O O15 0.993834 0.136333 0.278180
#
# Coordination Sequence:
#
# PCOD9106409 Si02
#       7
#     2   2   2   2   2   2   2
#     4  12  26  50  72 106 156 196 237 303 362 437
#     4  10  20  41  65 100 138 176 244 290 343 426
#     4  10  22  40  71 101 137 189 234 290 365 421
#     4  12  28  45  74 117 141 191 251 294 367 442
#     4  12  24  48  77 106 149 189 239 314 366 425
#     4  10  21  40  68 100 137 189 235 284 363 425
#     4  10  20  39  69  99 131 185 240 281 359 421
#
# _framework density 25.302451000000001
#
# number of rings (size 3 to 8) (size 9 to 14) (size 15 to 20)
#    0.000    1.143    2.857    5.571    0.000    6.857 
#    0.000    4.286    0.000    0.000    0.000    0.000 
#    0.000    0.000    0.000    0.000    0.000    0.000 
#
# Total GULP energy -78539.936200 kJ/mol
# GULP energy per Si atom -5609.995443 kJ/mol
# Density = 2.524486 g / cm^3
# Si number density = 25.302451 Si / 1000 Ang^3
#
#
#
# Elastic Constant Matrix: (Units=GPa)
#
#
# Indices 1 2 3 4 5 6 
#
# 1 223.0247 49.0415 56.8912 34.5789 6.9698 10.2038
# 2 49.0415 98.7098 51.0657 16.2211 0.3563 -0.9228
# 3 56.8912 51.0657 130.5877 32.8840 -4.3021 -10.9901
# 4 34.5789 16.2211 32.8840 70.6884 -6.8773 0.6112
# 5 6.9698 0.3563 -4.3021 -6.8773 35.3201 7.3276
# 6 10.2038 -0.9228 -10.9901 0.6112 7.3276 38.9967
#
#
#
# Elastic Compliance Matrix: (Units=1/GPa)
#
#
# Indices 1 2 3 4 5 6 
#
# 1 0.005644 -0.001740 -0.001517 -0.001765 -0.001277 -0.001678
# 2 -0.001740 0.013324 -0.004459 -0.000155 -0.000275 -0.000432
# 3 -0.001517 -0.004459 0.011234 -0.003459 0.000323 0.003451
# 4 -0.001765 -0.000155 -0.003459 0.017012 0.003542 -0.001449
# 5 -0.001277 -0.000275 0.000323 0.003542 0.030406 -0.005350
# 6 -0.001678 -0.000432 0.003451 -0.001449 -0.005350 0.028073
#
#
# Mechanical properties :
#
#
# Convention : Reuss Voigt Hill
#
# Bulk Modulus (GPa) = 67.70060 85.14656 76.42358
# Shear Modulus (GPa) = 39.66728 48.68929 44.17829
#
# Velocity S-wave (km/s) = 3.96375 4.39143 4.18306
# Velocity P-wave (km/s) = 6.91108 7.70957 7.32122
#
# Compressibility (1/GPa) = 0.01477092
#
# Stress axis : x y z
#
# Youngs Moduli (GPa) = 177.18523 75.05080 89.01323
#
# Poissons Ratio (x) = 0.13060 0.13503
# Poissons Ratio (y) = 0.30833 0.39688
# Poissons Ratio (z) = 0.26878 0.33462
#
# Static dielectric constant tensor:
#      x y z
#    x 1.946240 0.002890 -0.013800 
#    y 0.002890 2.089160 0.024110 
#    z -0.013800 0.024110 1.986010 
# 
# From -- ./inp_files/94415.got.cif
#   From: 2010.05.17/outbox.cif.g08.bks.cpg/sg2_48_cif.got.tgz:94415.got - 2010.06.03 11:33:40.
