data_PCOD9106061
_publ_section_title
;
Structure prediction by ZEFSAII (Michael W. Deem and Ramdas Pophale) SiO2 
 PCOD9106061
Probable space group: P -1
;
_chemical_formula_sum "Si O2"
_cell_formula_units_Z 16
_cell_length_a 9.185323
_cell_length_b 11.196255
_cell_length_c 8.966133
_cell_angle_alpha 81.984711
_cell_angle_beta 99.786613
_cell_angle_gamma 124.952442
_cell_volume 743.760500
_symmetry_space_group_name_H-M "P -1"
_symmetry_group_IT_number 2
_symmetry_cell_setting 'triclinic'
loop_
_space_group_symop_operation_xyz
x,y,z
-x,-y,-z
loop_
_atom_site_type_symbol
_atom_site_label
_atom_site_fract_x
_atom_site_fract_y
_atom_site_fract_z
Si Si1 0.592535 0.526420 0.173424
Si Si2 0.833646 0.499535 0.804174
Si Si3 0.915684 0.757561 0.335104
Si Si4 0.267695 0.042257 0.425704
Si Si5 0.389119 0.896349 0.670253
Si Si6 0.155618 0.648941 0.427389
Si Si7 0.716775 0.664984 0.628532
Si Si8 0.249183 0.639594 0.878994
O O1 0.759879 0.693208 0.196947
O O2 0.464805 0.472690 0.306211
O O3 0.668173 0.424903 0.200689
O O4 0.500000 0.500000 0.000000
O O5 0.749113 0.395989 0.663218
O O6 0.845650 0.649344 0.765569
O O7 0.037543 0.550300 0.834877
O O8 0.729599 0.401831 0.944336
O O9 0.806730 0.678340 0.482127
O O10 0.049162 0.710374 0.323213
O O11 0.059066 0.926312 0.370493
O O12 0.403054 0.033988 0.338692
O O13 0.300849 0.199499 0.395247
O O14 0.321577 0.999737 0.598595
O O15 0.282077 0.765958 0.552099
O O16 0.333912 0.808335 0.829728
O O17 0.000000 0.500000 0.500000
#
# Coordination Sequence:
#
# PCOD9106061 Si02
#       8
#     2   2   2   2   2   2   2   2
#     4  12  24  42  64  96 132 162 211 272 325 376
#     4  11  22  35  64 100 128 163 209 269 323 374
#     4  11  23  40  63  92 129 170 214 262 318 378
#     4  10  23  40  64  94 132 170 215 258 318 382
#     4  10  20  39  67  90 128 173 211 261 318 379
#     4  11  18  35  63  98 123 159 216 269 312 366
#     4  12  23  39  66 100 129 164 212 267 321 376
#     4  11  21  39  62  93 127 166 209 261 323 374
#
# _framework density 21.512301000000001
#
# number of rings (size 3 to 8) (size 9 to 14) (size 15 to 20)
#    0.000    1.000    6.250    1.500    0.000    1.000 
#    0.000    0.625    0.000    9.750    0.000    0.000 
#    0.000    0.000    0.000    0.000    0.000    0.000 
#
# Total GULP energy -89143.249968 kJ/mol
# GULP energy per Si atom -5571.453123 kJ/mol
# Density = 2.146334 g / cm^3
# Si number density = 21.512301 Si / 1000 Ang^3
#
#
#
# Elastic Constant Matrix: (Units=GPa)
#
#
# Indices 1 2 3 4 5 6 
#
# 1 94.5473 29.8805 22.7084 -0.7132 1.8851 0.5306
# 2 29.8805 75.9871 34.1787 -16.9893 14.5606 5.4346
# 3 22.7084 34.1787 82.7945 -21.7461 6.2336 4.9104
# 4 -0.7132 -16.9893 -21.7461 26.1468 2.4834 12.6065
# 5 1.8851 14.5606 6.2336 2.4834 33.2666 -6.6703
# 6 0.5306 5.4346 4.9104 12.6065 -6.6703 46.2295
#
#
#
# Elastic Compliance Matrix: (Units=1/GPa)
#
#
# Indices 1 2 3 4 5 6 
#
# 1 0.013607 -0.007039 -0.004189 -0.010379 0.004800 0.004639
# 2 -0.007039 0.024534 -0.000907 0.021398 -0.013882 -0.010545
# 3 -0.004189 -0.000907 0.020010 0.020652 -0.006365 -0.008521
# 4 -0.010379 0.021398 0.020652 0.086881 -0.025543 -0.031968
# 5 0.004800 -0.013882 -0.006365 -0.025543 0.042028 0.015282
# 6 0.004639 -0.010545 -0.008521 -0.031968 0.015282 0.034645
#
#
# Mechanical properties :
#
#
# Convention : Reuss Voigt Hill
#
# Bulk Modulus (GPa) = 29.51329 47.42933 38.47131
# Shear Modulus (GPa) = 19.43492 32.23266 25.83379
#
# Velocity S-wave (km/s) = 3.00898 3.87503 3.46914
# Velocity P-wave (km/s) = 5.08143 6.48973 5.82827
#
# Compressibility (1/GPa) = 0.03388304
#
# Stress axis : x y z
#
# Youngs Moduli (GPa) = 73.49014 40.75947 49.97457
#
# Poissons Ratio (x) = 0.28689 0.20934
# Poissons Ratio (y) = 0.51727 0.04531
# Poissons Ratio (z) = 0.30785 0.03696
#
# Static dielectric constant tensor:
#      x y z
#    x 1.846250 0.011840 0.017420 
#    y 0.011840 1.811410 0.014090 
#    z 0.017420 0.014090 1.838920 
# 
# From -- ./inp_files/177968.got.cif
#   From: 2010.05.17/outbox.cif.g08.bks.cpg/sg2_89_cif.got.tgz:177968.got - 2010.06.03 11:33:40.
