data_PCOD9106294
_publ_section_title
;
Structure prediction by ZEFSAII (Michael W. Deem and Ramdas Pophale) SiO2 
 PCOD9106294
Probable space group: P -1
;
_chemical_formula_sum "Si O2"
_cell_formula_units_Z 16
_cell_length_a 7.747531
_cell_length_b 17.171703
_cell_length_c 10.451822
_cell_angle_alpha 143.288028
_cell_angle_beta 69.001024
_cell_angle_gamma 119.555660
_cell_volume 721.224155
_symmetry_space_group_name_H-M "P -1"
_symmetry_group_IT_number 2
_symmetry_cell_setting 'triclinic'
loop_
_space_group_symop_operation_xyz
x,y,z
-x,-y,-z
loop_
_atom_site_type_symbol
_atom_site_label
_atom_site_fract_x
_atom_site_fract_y
_atom_site_fract_z
Si Si1 0.264342 0.442877 0.518055
Si Si2 0.994430 0.882292 0.515934
Si Si3 0.945403 0.532954 0.851466
Si Si4 0.331446 0.422770 0.835546
Si Si5 0.978488 0.143731 0.234309
Si Si6 0.345305 0.849941 0.874500
Si Si7 0.893532 0.151162 0.826601
Si Si8 0.651138 0.425520 0.576787
O O1 0.500000 0.500000 0.500000
O O2 0.201865 0.472422 0.430432
O O3 0.149954 0.511033 0.736419
O O4 0.179033 0.278820 0.349903
O O5 0.786568 0.747808 0.367532
O O6 0.074344 0.866446 0.613865
O O7 0.137623 0.880116 0.357397
O O8 0.963788 0.030243 0.705433
O O9 0.778943 0.422296 0.663112
O O10 0.846669 0.526749 0.009237
O O11 0.960280 0.686064 0.997124
O O12 0.464494 0.461937 0.723772
O O13 0.500000 0.500000 0.000000
O O14 0.833883 0.169632 0.202316
O O15 0.000000 0.000000 0.000000
O O16 0.423333 0.727117 0.665553
O O17 0.283541 0.849651 0.037433
O O18 0.500000 0.000000 0.000000
#
# Coordination Sequence:
#
# PCOD9106294 Si02
#       8
#     2   2   2   2   2   2   2   2
#     4  12  25  40  67 100 136 175 232 292 345 408
#     4  10  21  40  65  99 140 177 234 281 352 416
#     4  10  20  40  66  94 129 179 230 275 342 412
#     4   9  20  38  67  97 134 176 227 284 336 415
#     4  12  26  43  66 103 146 185 228 299 356 406
#     4  12  24  40  71  99 138 186 238 288 352 419
#     4  10  20  39  68  97 127 187 227 280 345 426
#     4  11  21  40  66  97 132 175 242 277 335 426
#
# _framework density 22.184502999999999
#
# number of rings (size 3 to 8) (size 9 to 14) (size 15 to 20)
#    0.000    1.250    3.750    2.625    1.750    0.000 
#    0.000    6.250    0.000    0.000    0.000    0.000 
#    0.000    0.000    0.000    0.000    0.000    0.000 
#
# Total GULP energy -89156.652591 kJ/mol
# GULP energy per Si atom -5572.290787 kJ/mol
# Density = 2.213401 g / cm^3
# Si number density = 22.184503 Si / 1000 Ang^3
#
#
#
# Elastic Constant Matrix: (Units=GPa)
#
#
# Indices 1 2 3 4 5 6 
#
# 1 99.4343 26.0414 32.2992 -8.5217 -11.8783 16.3790
# 2 26.0414 146.7926 65.9871 -38.3910 -8.1543 10.4215
# 3 32.2992 65.9871 149.9097 -16.5745 -19.9818 9.7486
# 4 -8.5217 -38.3910 -16.5745 57.2752 7.5435 -6.1656
# 5 -11.8783 -8.1543 -19.9818 7.5435 26.1863 -4.3336
# 6 16.3790 10.4215 9.7486 -6.1656 -4.3336 27.7645
#
#
#
# Elastic Compliance Matrix: (Units=1/GPa)
#
#
# Indices 1 2 3 4 5 6 
#
# 1 0.012092 -0.001018 -0.001383 -0.000339 0.003245 -0.005835
# 2 -0.001018 0.010164 -0.003832 0.005720 -0.002020 -0.000914
# 3 -0.001383 -0.003832 0.009315 -0.000837 0.005471 -0.000348
# 4 -0.000339 0.005720 -0.000837 0.021912 -0.004919 0.002445
# 5 0.003245 -0.002020 0.005471 -0.004919 0.045097 0.002870
# 6 -0.005835 -0.000914 -0.000348 0.002445 0.002870 0.040916
#
#
# Mechanical properties :
#
#
# Convention : Reuss Voigt Hill
#
# Bulk Modulus (GPa) = 52.33965 71.64355 61.99160
# Shear Modulus (GPa) = 31.57956 40.36580 35.97268
#
# Velocity S-wave (km/s) = 3.77702 4.27025 4.03118
# Velocity P-wave (km/s) = 6.53186 7.52847 7.04780
#
# Compressibility (1/GPa) = 0.01910598
#
# Stress axis : x y z
#
# Youngs Moduli (GPa) = 82.69690 98.38408 107.35611
#
# Poissons Ratio (x) = 0.10012 0.14847
# Poissons Ratio (y) = 0.08415 0.41141
# Poissons Ratio (z) = 0.11436 0.37702
#
# Static dielectric constant tensor:
#      x y z
#    x 1.937330 -0.052900 0.061110 
#    y -0.052900 1.818950 -0.074910 
#    z 0.061110 -0.074910 1.833240 
# 
# From -- ./inp_files/405681.got.cif
#   From: 2010.05.17/outbox.cif.g08.bks.cpg/sg2_203_cif.got.tgz:405681.got - 2010.06.03 11:33:40.
