data_PCOD9106659
_publ_section_title
;
Structure prediction by ZEFSAII (Michael W. Deem and Ramdas Pophale) SiO2 
 PCOD9106659
Probable space group: P -1
;
_chemical_formula_sum "Si O2"
_cell_formula_units_Z 16
_cell_length_a 10.154723
_cell_length_b 11.002061
_cell_length_c 12.481819
_cell_angle_alpha 62.863872
_cell_angle_beta 105.410512
_cell_angle_gamma 144.050164
_cell_volume 714.126140
_symmetry_space_group_name_H-M "P -1"
_symmetry_group_IT_number 2
_symmetry_cell_setting 'triclinic'
loop_
_space_group_symop_operation_xyz
x,y,z
-x,-y,-z
loop_
_atom_site_type_symbol
_atom_site_label
_atom_site_fract_x
_atom_site_fract_y
_atom_site_fract_z
Si Si1 0.188801 0.765446 0.412290
Si Si2 0.717162 0.120581 0.384051
Si Si3 0.068613 0.621350 0.214055
Si Si4 0.781202 0.807244 0.675224
Si Si5 0.283290 0.233730 0.090083
Si Si6 0.397724 0.626494 0.245610
Si Si7 0.170742 0.960007 0.972874
Si Si8 0.283202 0.158082 0.586916
O O1 0.187414 0.846672 0.491110
O O2 0.129780 0.755041 0.281731
O O3 0.000000 0.500000 0.500000
O O4 0.444635 0.911243 0.409618
O O5 0.823107 0.351928 0.283564
O O6 0.779111 0.052827 0.341897
O O7 0.234536 0.623511 0.235772
O O8 0.098840 0.748597 0.071595
O O9 0.692834 0.800643 0.769333
O O10 0.718357 0.594713 0.750373
O O11 0.671530 0.770560 0.555564
O O12 0.054139 0.047255 0.623433
O O13 0.250365 0.098087 0.043923
O O14 0.500000 0.500000 0.000000
O O15 0.050918 0.137268 0.078378
O O16 0.497784 0.648749 0.369754
O O17 0.617962 0.856215 0.135733
#
# Coordination Sequence:
#
# PCOD9106659 Si02
#       8
#     2   2   2   2   2   2   2   2
#     4   9  20  38  59  88 130 168 209 262 319 383
#     4  10  20  40  59  93 135 166 213 265 317 400
#     4  11  23  40  65  97 131 177 211 266 338 388
#     4  11  24  43  68  95 126 175 220 273 339 384
#     4  11  24  49  67  92 132 174 227 279 318 395
#     4  12  22  45  65  99 136 163 222 280 324 399
#     4  11  26  43  67  97 131 174 223 271 327 392
#     4  11  23  41  67  96 129 170 219 272 335 391
#
# _framework density 22.405004999999999
#
# number of rings (size 3 to 8) (size 9 to 14) (size 15 to 20)
#    0.000    1.250    5.000    0.750    1.750    1.000 
#    4.500    1.250    0.000    0.000    0.000    0.000 
#    0.000    0.000    0.000    0.000    0.000    0.000 
#
# Total GULP energy -89380.491445 kJ/mol
# GULP energy per Si atom -5586.280715 kJ/mol
# Density = 2.235401 g / cm^3
# Si number density = 22.405005 Si / 1000 Ang^3
#
#
#
# Elastic Constant Matrix: (Units=GPa)
#
#
# Indices 1 2 3 4 5 6 
#
# 1 40.3739 26.0648 8.3836 -6.7925 -9.8408 3.0245
# 2 26.0648 102.3157 25.6232 -10.2572 -8.8237 0.4585
# 3 8.3836 25.6232 116.5037 -5.2709 -8.4817 8.4772
# 4 -6.7925 -10.2572 -5.2709 33.3958 -4.9505 -10.4580
# 5 -9.8408 -8.8237 -8.4817 -4.9505 32.0475 -5.1701
# 6 3.0245 0.4585 8.4772 -10.4580 -5.1701 33.6364
#
#
#
# Elastic Compliance Matrix: (Units=1/GPa)
#
#
# Indices 1 2 3 4 5 6 
#
# 1 0.032379 -0.006895 0.000085 0.005949 0.009050 0.000402
# 2 -0.006895 0.012498 -0.002160 0.003007 0.001567 0.002170
# 3 0.000085 -0.002160 0.009335 0.000470 0.001663 -0.001929
# 4 0.005949 0.003007 0.000470 0.037694 0.010644 0.012662
# 5 0.009050 0.001567 0.001663 0.010644 0.037767 0.007860
# 6 0.000402 0.002170 -0.001929 0.012662 0.007860 0.035295
#
#
# Mechanical properties :
#
#
# Convention : Reuss Voigt Hill
#
# Bulk Modulus (GPa) = 27.56941 42.14851 34.85896
# Shear Modulus (GPa) = 25.64126 33.09073 29.36599
#
# Velocity S-wave (km/s) = 3.38663 3.84726 3.62427
# Velocity P-wave (km/s) = 5.25586 6.21194 5.75379
#
# Compressibility (1/GPa) = 0.03627208
#
# Stress axis : x y z
#
# Youngs Moduli (GPa) = 30.88456 80.01310 107.12216
#
# Poissons Ratio (x) = 0.55166 -0.00913
# Poissons Ratio (y) = 0.21294 0.23142
# Poissons Ratio (z) = -0.00263 0.17286
#
# Static dielectric constant tensor:
#      x y z
#    x 1.807690 -0.030000 0.005930 
#    y -0.030000 1.811820 0.020200 
#    z 0.005930 0.020200 1.855230 
# 
# From -- ./inp_files/83211.got.cif
#   From: 2010.05.17/outbox.cif.g08.bks.cpg/sg2_42_cif.got.tgz:83211.got - 2010.06.03 11:33:40.
