data_PCOD9106609
_publ_section_title
;
Structure prediction by ZEFSAII (Michael W. Deem and Ramdas Pophale) SiO2 
 PCOD9106609
Probable space group: P -1
;
_chemical_formula_sum "Si O2"
_cell_formula_units_Z 13
_cell_length_a 4.977498
_cell_length_b 8.231391
_cell_length_c 14.051775
_cell_angle_alpha 61.648758
_cell_angle_beta 112.878423
_cell_angle_gamma 93.718651
_cell_volume 461.689982
_symmetry_space_group_name_H-M "P -1"
_symmetry_group_IT_number 2
_symmetry_cell_setting 'triclinic'
loop_
_space_group_symop_operation_xyz
x,y,z
-x,-y,-z
loop_
_atom_site_type_symbol
_atom_site_label
_atom_site_fract_x
_atom_site_fract_y
_atom_site_fract_z
Si Si1 0.770298 0.367930 0.372075
Si Si2 0.374707 0.331557 0.581802
Si Si3 0.190932 0.049759 0.891429
Si Si4 0.412007 0.379575 0.143132
Si Si5 0.500000 0.000000 0.500000
Si Si6 0.140887 0.034686 0.286200
Si Si7 0.925028 0.714935 0.035798
O O1 0.673220 0.578335 0.344395
O O2 0.708113 0.375218 0.246674
O O3 0.079907 0.313462 0.486206
O O4 0.569770 0.213036 0.420806
O O5 0.500000 0.500000 0.500000
O O6 0.597855 0.138341 0.654496
O O7 0.076098 0.251986 0.861101
O O8 0.156505 0.019986 0.783321
O O9 0.500000 0.000000 0.000000
O O10 0.979854 0.909672 0.942375
O O11 0.199653 0.568347 0.084878
O O12 0.236761 0.220178 0.205996
O O13 0.372796 0.340080 0.035797
O O14 0.164945 0.046530 0.398325
#
# Coordination Sequence:
#
# PCOD9106609 Si02
#       7
#     2   2   2   2   1   2   2
#     4  10  22  39  62  89 125 163 208 255 305 371
#     4  11  22  40  60  88 125 168 207 249 306 376
#     4  10  21  39  62  89 115 159 203 253 306 375
#     4   9  19  38  62  87 118 161 198 260 314 357
#     4  10  20  40  58  90 122 158 204 252 302 362
#     4  10  21  39  59  86 125 157 205 252 303 368
#     4   9  19  40  61  85 121 152 202 255 312 362
#
# _framework density 28.157422
#
# number of rings (size 3 to 8) (size 9 to 14) (size 15 to 20)
#    0.000    2.154    1.538    0.923    0.000    3.692 
#   11.077    6.923    0.000    0.000    0.000    0.000 
#    0.000    0.000    0.000    0.000    0.000    0.000 
#
# Total GULP energy -72416.616497 kJ/mol
# GULP energy per Si atom -5570.508961 kJ/mol
# Density = 2.809333 g / cm^3
# Si number density = 28.157422 Si / 1000 Ang^3
#
#
#
# Elastic Constant Matrix: (Units=GPa)
#
#
# Indices 1 2 3 4 5 6 
#
# 1 69.8306 46.3018 18.3793 2.9342 13.2547 20.0529
# 2 46.3018 156.8692 58.7401 22.0785 7.1486 24.8448
# 3 18.3793 58.7401 127.5780 60.9691 38.8676 -7.1602
# 4 2.9342 22.0785 60.9691 91.6204 13.5412 13.2994
# 5 13.2547 7.1486 38.8676 13.5412 37.4714 -10.6786
# 6 20.0529 24.8448 -7.1602 13.2994 -10.6786 49.6166
#
#
#
# Elastic Compliance Matrix: (Units=1/GPa)
#
#
# Indices 1 2 3 4 5 6 
#
# 1 0.022491 -0.005245 0.000564 0.003282 -0.011501 -0.009737
# 2 -0.005245 0.010506 -0.006750 0.001871 0.005178 -0.003502
# 3 0.000564 -0.006750 0.021071 -0.011039 -0.015096 0.005902
# 4 0.003282 0.001871 -0.011039 0.018892 0.000600 -0.008791
# 5 -0.011501 0.005178 -0.015096 0.000600 0.048077 0.010063
# 6 -0.009737 -0.003502 0.005902 -0.008791 0.010063 0.031217
#
#
# Mechanical properties :
#
#
# Convention : Reuss Voigt Hill
#
# Bulk Modulus (GPa) = 32.04581 66.79114 49.41847
# Shear Modulus (GPa) = 26.95176 51.13213 39.04195
#
# Velocity S-wave (km/s) = 3.09719 4.26601 3.72769
# Velocity P-wave (km/s) = 4.91892 6.93089 6.00970
#
# Compressibility (1/GPa) = 0.03120533
#
# Stress axis : x y z
#
# Youngs Moduli (GPa) = 44.46222 95.18661 47.45949
#
# Poissons Ratio (x) = 0.49929 -0.02677
# Poissons Ratio (y) = 0.23322 0.32033
# Poissons Ratio (z) = -0.02508 0.64248
#
# Static dielectric constant tensor:
#      x y z
#    x 2.357900 -0.193190 -0.245320 
#    y -0.193190 2.294690 0.188490 
#    z -0.245320 0.188490 2.477540 
# 
# From -- ./inp_files/19339.got.cif
#   From: 2010.05.17/outbox.cif.g08.bks.cpg/sg2_10_cif.got.tgz:19339.got - 2010.06.03 11:33:40.
