data_PCOD9106764
_publ_section_title
;
Structure prediction by ZEFSAII (Michael W. Deem and Ramdas Pophale) SiO2 
 PCOD9106764
Probable space group: P -1
;
_chemical_formula_sum "Si O2"
_cell_formula_units_Z 16
_cell_length_a 9.412640
_cell_length_b 19.723603
_cell_length_c 7.719665
_cell_angle_alpha 139.937057
_cell_angle_beta 59.739767
_cell_angle_gamma 134.714891
_cell_volume 653.618727
_symmetry_space_group_name_H-M "P -1"
_symmetry_group_IT_number 2
_symmetry_cell_setting 'triclinic'
loop_
_space_group_symop_operation_xyz
x,y,z
-x,-y,-z
loop_
_atom_site_type_symbol
_atom_site_label
_atom_site_fract_x
_atom_site_fract_y
_atom_site_fract_z
Si Si1 0.684867 0.880342 0.568929
Si Si2 0.648599 0.505164 0.164721
Si Si3 0.700294 0.362787 0.541189
Si Si4 0.865935 0.460439 0.252405
Si Si5 0.980982 0.715289 0.191203
Si Si6 0.926943 0.916090 0.051395
Si Si7 0.670376 0.994387 0.467976
Si Si8 0.212652 0.297293 0.053733
O O1 0.487779 0.784624 0.615780
O O2 0.735347 0.791955 0.257804
O O3 0.634869 0.955876 0.614607
O O4 0.891893 0.986880 0.740602
O O5 0.758666 0.480107 0.199332
O O6 0.782860 0.652531 0.308672
O O7 0.645058 0.438038 0.853761
O O8 0.420075 0.433463 0.221059
O O9 0.742472 0.406921 0.402636
O O10 0.917105 0.409232 0.578858
O O11 0.913878 0.356645 0.967481
O O12 0.922522 0.690466 0.976043
O O13 0.128331 0.865982 0.413567
O O14 0.887383 0.779932 0.858792
O O15 0.712673 0.895507 0.169369
O O16 0.000000 0.000000 0.000000
O O17 0.500000 0.000000 0.500000
#
# Coordination Sequence:
#
# PCOD9106764 Si02
#       8
#     2   2   2   2   2   2   2   2
#     4  10  20  41  65  80 119 166 197 247 313 366
#     4  10  22  37  66  85 117 164 205 245 309 367
#     4   9  20  38  60  87 120 158 200 246 309 359
#     4  10  22  38  61  90 122 158 201 256 304 369
#     4  11  20  38  60  87 118 152 205 248 301 364
#     4  11  23  42  62  89 125 165 203 253 311 373
#     4  11  24  39  63  93 119 158 209 257 304 373
#     4  10  20  40  61  84 116 160 203 241 300 371
#
# _framework density 24.479102000000001
#
# number of rings (size 3 to 8) (size 9 to 14) (size 15 to 20)
#    0.000    1.750    2.500    2.625    8.750    0.000 
#    2.250    2.500    0.000    9.000    0.000    0.000 
#    0.000    0.000    0.000    0.000    0.000    0.000 
#
# Total GULP energy -89424.184268 kJ/mol
# GULP energy per Si atom -5589.011517 kJ/mol
# Density = 2.442339 g / cm^3
# Si number density = 24.479102 Si / 1000 Ang^3
#
#
#
# Elastic Constant Matrix: (Units=GPa)
#
#
# Indices 1 2 3 4 5 6 
#
# 1 118.1324 24.7956 4.1289 2.2549 1.8103 -24.1935
# 2 24.7956 166.7117 13.7778 8.3667 12.4469 -5.6344
# 3 4.1289 13.7778 39.1414 -2.5626 2.3609 -1.8410
# 4 2.2549 8.3667 -2.5626 31.7562 -7.5272 11.0439
# 5 1.8103 12.4469 2.3609 -7.5272 16.6079 2.6051
# 6 -24.1935 -5.6344 -1.8410 11.0439 2.6051 38.3181
#
#
#
# Elastic Compliance Matrix: (Units=1/GPa)
#
#
# Indices 1 2 3 4 5 6 
#
# 1 0.010390 -0.000757 -0.000514 -0.004176 -0.003620 0.007874
# 2 -0.000757 0.007148 -0.002181 -0.004549 -0.007384 0.002282
# 3 -0.000514 -0.002181 0.026592 0.002551 -0.000927 -0.000040
# 4 -0.004176 -0.004549 0.002551 0.046005 0.027222 -0.018293
# 5 -0.003620 -0.007384 -0.000927 0.027222 0.081244 -0.016785
# 6 0.007874 0.002282 -0.000040 -0.018293 -0.016785 0.037816
#
#
# Mechanical properties :
#
#
# Convention : Reuss Voigt Hill
#
# Bulk Modulus (GPa) = 26.86434 45.48781 36.17607
# Shear Modulus (GPa) = 21.88117 36.08867 28.98492
#
# Velocity S-wave (km/s) = 2.99301 3.84378 3.44476
# Velocity P-wave (km/s) = 4.78982 6.19049 5.53464
#
# Compressibility (1/GPa) = 0.03722407
#
# Stress axis : x y z
#
# Youngs Moduli (GPa) = 96.25020 139.89976 37.60598
#
# Poissons Ratio (x) = 0.10588 0.01934
# Poissons Ratio (y) = 0.07284 0.08203
# Poissons Ratio (z) = 0.04950 0.30518
#
# Static dielectric constant tensor:
#      x y z
#    x 1.925470 0.025490 -0.037600 
#    y 0.025490 1.993200 -0.043860 
#    z -0.037600 -0.043860 2.038890 
# 
# From -- ./inp_files/203264.got.cif
#   From: 2010.05.17/outbox.cif.g08.bks.cpg/sg2_102_cif.got.tgz:203264.got - 2010.06.03 11:33:40.
