data_PCOD9106313
_publ_section_title
;
Structure prediction by ZEFSAII (Michael W. Deem and Ramdas Pophale) SiO2 
 PCOD9106313
Probable space group: P -1
;
_chemical_formula_sum "Si O2"
_cell_formula_units_Z 15
_cell_length_a 16.244909
_cell_length_b 11.864132
_cell_length_c 8.536815
_cell_angle_alpha 39.725630
_cell_angle_beta 137.430566
_cell_angle_gamma 143.328372
_cell_volume 596.398053
_symmetry_space_group_name_H-M "P -1"
_symmetry_group_IT_number 2
_symmetry_cell_setting 'triclinic'
loop_
_space_group_symop_operation_xyz
x,y,z
-x,-y,-z
loop_
_atom_site_type_symbol
_atom_site_label
_atom_site_fract_x
_atom_site_fract_y
_atom_site_fract_z
Si Si1 0.352464 0.842170 0.135350
Si Si2 0.224674 0.018005 0.178113
Si Si3 0.060125 0.756504 0.777041
Si Si4 0.472545 0.683827 0.215627
Si Si5 0.935137 0.849353 0.757876
Si Si6 0.995724 0.648408 0.462864
Si Si7 0.720688 0.592522 0.015898
Si Si8 0.500000 0.000000 0.500000
O O1 0.374436 0.704738 0.185531
O O2 0.450895 0.889781 0.373699
O O3 0.187036 0.749163 0.043200
O O4 0.400976 0.070451 0.883651
O O5 0.120072 0.877416 0.326088
O O6 0.318333 0.258258 0.112752
O O7 0.335524 0.959531 0.337059
O O8 0.100364 0.976854 0.922032
O O9 0.032344 0.638702 0.701063
O O10 0.932705 0.703811 0.773522
O O11 0.100790 0.988346 0.533424
O O12 0.500000 0.500000 0.500000
O O13 0.406837 0.620744 0.012859
O O14 0.824036 0.713985 0.882571
O O15 0.000000 0.500000 0.500000
O O16 0.830757 0.584950 0.295113
#
# Coordination Sequence:
#
# PCOD9106313 Si02
#       8
#     2   2   2   2   2   2   2   1
#     4  11  26  45  70  99 143 185 232 291 341 419
#     4  11  22  44  66  93 136 183 224 280 344 416
#     4  11  20  40  67 102 131 172 227 293 348 396
#     4  11  25  46  72 103 136 189 240 281 347 418
#     4  10  20  39  68  98 133 169 229 288 349 404
#     4  11  23  38  68  99 130 173 223 278 342 408
#     4  11  21  43  67  97 129 175 225 277 345 415
#     4  12  26  44  68  98 144 190 228 280 352 414
#
# _framework density 25.150987000000001
#
# number of rings (size 3 to 8) (size 9 to 14) (size 15 to 20)
#    0.000    1.067    4.000    3.200    5.600    0.000 
#    2.400    4.667    2.933    0.000    0.000    0.000 
#    0.000    0.000    0.000    0.000    0.000    0.000 
#
# Total GULP energy -83641.892879 kJ/mol
# GULP energy per Si atom -5576.126192 kJ/mol
# Density = 2.509374 g / cm^3
# Si number density = 25.150987 Si / 1000 Ang^3
#
#
#
# Elastic Constant Matrix: (Units=GPa)
#
#
# Indices 1 2 3 4 5 6 
#
# 1 85.0478 34.7726 20.0382 2.6643 21.0944 -22.6173
# 2 34.7726 104.0479 38.0783 -2.5747 11.2507 -27.4588
# 3 20.0382 38.0783 96.8406 13.9403 24.6139 -2.6422
# 4 2.6643 -2.5747 13.9403 49.5582 -8.2405 -0.2025
# 5 21.0944 11.2507 24.6139 -8.2405 37.6000 6.8806
# 6 -22.6173 -27.4588 -2.6422 -0.2025 6.8806 39.9901
#
#
#
# Elastic Compliance Matrix: (Units=1/GPa)
#
#
# Indices 1 2 3 4 5 6 
#
# 1 0.019036 -0.002420 0.001381 -0.003786 -0.013803 0.011552
# 2 -0.002420 0.014700 -0.005197 0.002274 -0.000698 0.008513
# 3 0.001381 -0.005197 0.015862 -0.006649 -0.011085 0.000134
# 4 -0.003786 0.002274 -0.006649 0.024296 0.011651 -0.002900
# 5 -0.013803 -0.000698 -0.011085 0.011651 0.047494 -0.017132
# 6 0.011552 0.008513 0.000134 -0.002900 -0.017132 0.040327
#
#
# Mechanical properties :
#
#
# Convention : Reuss Voigt Hill
#
# Bulk Modulus (GPa) = 26.93445 52.41272 39.67359
# Shear Modulus (GPa) = 26.80053 38.29947 32.55000
#
# Velocity S-wave (km/s) = 3.26787 3.90652 3.60138
# Velocity P-wave (km/s) = 4.99710 6.42124 5.75340
#
# Compressibility (1/GPa) = 0.03712717
#
# Stress axis : x y z
#
# Youngs Moduli (GPa) = 52.53084 68.02642 63.04237
#
# Poissons Ratio (x) = 0.16461 -0.08706
# Poissons Ratio (y) = 0.12712 0.32764
# Poissons Ratio (z) = -0.07255 0.35354
#
# Static dielectric constant tensor:
#      x y z
#    x 1.952840 -0.020670 -0.022520 
#    y -0.020670 2.151490 -0.081860 
#    z -0.022520 -0.081860 2.032820 
# 
# From -- ./inp_files/332790.got.cif
#   From: 2010.05.17/outbox.cif.g08.bks.cpg/sg2_167_cif.got.tgz:332790.got - 2010.06.03 11:33:40.
