data_PCOD9106096
_publ_section_title
;
Structure prediction by ZEFSAII (Michael W. Deem and Ramdas Pophale) SiO2 
 PCOD9106096
Probable space group: P -1
;
_chemical_formula_sum "Si O2"
_cell_formula_units_Z 15
_cell_length_a 11.545903
_cell_length_b 13.263803
_cell_length_c 11.763250
_cell_angle_alpha 34.090113
_cell_angle_beta 144.514194
_cell_angle_gamma 136.096303
_cell_volume 580.205267
_symmetry_space_group_name_H-M "P -1"
_symmetry_group_IT_number 2
_symmetry_cell_setting 'triclinic'
loop_
_space_group_symop_operation_xyz
x,y,z
-x,-y,-z
loop_
_atom_site_type_symbol
_atom_site_label
_atom_site_fract_x
_atom_site_fract_y
_atom_site_fract_z
Si Si1 0.346751 0.108280 0.399524
Si Si2 0.904936 0.142449 0.021338
Si Si3 0.484602 0.495447 0.854980
Si Si4 0.314173 0.110722 0.101727
Si Si5 0.801590 0.516772 0.649169
Si Si6 0.375120 0.620400 0.135745
Si Si7 0.500000 0.000000 0.000000
Si Si8 0.840079 0.892096 0.394114
O O1 0.289119 0.093338 0.233164
O O2 0.462935 0.946199 0.680717
O O3 0.506004 0.292730 0.365981
O O4 0.127684 0.120921 0.263320
O O5 0.883128 0.352361 0.804353
O O6 0.838166 0.028978 0.962010
O O7 0.760160 0.035388 0.104377
O O8 0.313369 0.319034 0.867459
O O9 0.500000 0.500000 0.000000
O O10 0.663236 0.439485 0.969632
O O11 0.583288 0.539477 0.403593
O O12 0.781584 0.462246 0.817098
O O13 0.912383 0.723590 0.546987
O O14 0.416646 0.832838 0.994450
O O15 0.620149 0.845112 0.315182
O O16 0.000000 0.000000 0.500000
#
# Coordination Sequence:
#
# PCOD9106096 Si02
#       8
#     2   2   2   2   2   2   1   2
#     4  10  24  42  68 101 129 175 223 273 335 391
#     4  12  24  42  67  99 134 172 220 278 336 392
#     4  10  22  41  66  95 131 174 220 273 331 395
#     4  10  22  45  69  95 133 174 223 273 330 403
#     4  10  23  40  62  97 129 169 218 268 332 395
#     4  10  20  39  67  93 129 173 219 265 331 395
#     4  10  20  42  64  90 126 178 214 266 332 386
#     4  11  26  41  61  93 132 171 221 266 330 399
#
# _framework density 25.852917999999999
#
# number of rings (size 3 to 8) (size 9 to 14) (size 15 to 20)
#    0.000    1.600    1.333    2.800    1.867    4.800 
#    0.000    0.000    0.000    9.600    0.000    0.000 
#    0.000    0.000    0.000    0.000    0.000    0.000 
#
# Total GULP energy -83642.283383 kJ/mol
# GULP energy per Si atom -5576.152226 kJ/mol
# Density = 2.579408 g / cm^3
# Si number density = 25.852918 Si / 1000 Ang^3
#
#
#
# Elastic Constant Matrix: (Units=GPa)
#
#
# Indices 1 2 3 4 5 6 
#
# 1 71.8306 26.2287 27.3017 5.1504 -5.1800 -21.3383
# 2 26.2287 184.8336 60.1827 -19.3317 3.5335 -22.5444
# 3 27.3017 60.1827 78.6551 -9.3094 11.6263 11.5525
# 4 5.1504 -19.3317 -9.3094 44.1576 3.7354 7.1145
# 5 -5.1800 3.5335 11.6263 3.7354 40.0310 6.4501
# 6 -21.3383 -22.5444 11.5525 7.1145 6.4501 42.4304
#
#
#
# Elastic Compliance Matrix: (Units=1/GPa)
#
#
# Indices 1 2 3 4 5 6 
#
# 1 0.025563 0.002819 -0.015660 -0.008600 0.005308 0.019252
# 2 0.002819 0.009099 -0.009305 0.000232 0.000854 0.008617
# 3 -0.015660 -0.009305 0.030476 0.008247 -0.007381 -0.021377
# 4 -0.008600 0.000232 0.008247 0.027538 -0.004424 -0.010392
# 5 0.005308 0.000854 -0.007381 -0.004424 0.027885 0.001635
# 6 0.019252 0.008617 -0.021377 -0.010392 0.001635 0.045142
#
#
# Mechanical properties :
#
#
# Convention : Reuss Voigt Hill
#
# Bulk Modulus (GPa) = 47.97086 62.52727 55.24906
# Shear Modulus (GPa) = 23.04752 40.09754 31.57253
#
# Velocity S-wave (km/s) = 2.98902 3.94253 3.49841
# Velocity P-wave (km/s) = 5.52339 6.70545 6.14292
#
# Compressibility (1/GPa) = 0.02084599
#
# Stress axis : x y z
#
# Youngs Moduli (GPa) = 39.11916 109.90358 32.81306
#
# Poissons Ratio (x) = -0.30979 0.51385
# Poissons Ratio (y) = -0.11027 0.30531
# Poissons Ratio (z) = 0.61260 1.02261
#
# Static dielectric constant tensor:
#      x y z
#    x 2.318060 0.050670 0.012960 
#    y 0.050670 2.115350 0.029600 
#    z 0.012960 0.029600 2.056410 
# 
# From -- ./inp_files/425201.got.cif
#   From: 2010.05.17/outbox.cif.g08.bks.cpg/sg2_213_cif.got.tgz:425201.got - 2010.06.03 11:33:40.
