data_PCOD9106540
_publ_section_title
;
Structure prediction by ZEFSAII (Michael W. Deem and Ramdas Pophale) SiO2 
 PCOD9106540
Probable space group: P -1
;
_chemical_formula_sum "Si O2"
_cell_formula_units_Z 15
_cell_length_a 14.776896
_cell_length_b 7.553866
_cell_length_c 6.948420
_cell_angle_alpha 63.941692
_cell_angle_beta 66.569052
_cell_angle_gamma 101.640724
_cell_volume 568.735062
_symmetry_space_group_name_H-M "P -1"
_symmetry_group_IT_number 2
_symmetry_cell_setting 'triclinic'
loop_
_space_group_symop_operation_xyz
x,y,z
-x,-y,-z
loop_
_atom_site_type_symbol
_atom_site_label
_atom_site_fract_x
_atom_site_fract_y
_atom_site_fract_z
Si Si1 0.415594 0.053237 0.163954
Si Si2 0.252445 0.306018 0.683151
Si Si3 0.807858 0.069274 0.772325
Si Si4 0.510217 0.542305 0.705303
Si Si5 0.888758 0.363468 0.894834
Si Si6 0.339585 0.713998 0.701027
Si Si7 0.000000 0.000000 0.000000
Si Si8 0.966776 0.162280 0.267152
O O1 0.297724 0.915749 0.229363
O O2 0.400860 0.950772 0.435828
O O3 0.456177 0.312332 0.976363
O O4 0.500000 0.000000 0.000000
O O5 0.355722 0.343335 0.440012
O O6 0.283303 0.530482 0.667601
O O7 0.129465 0.209197 0.746489
O O8 0.244197 0.125855 0.935212
O O9 0.886478 0.295716 0.709781
O O10 0.863032 0.035024 0.548381
O O11 0.500000 0.500000 0.500000
O O12 0.428040 0.651453 0.755667
O O13 0.957617 0.607761 0.804657
O O14 0.761620 0.294032 0.086255
O O15 0.935890 0.214843 0.048725
O O16 0.973114 0.973865 0.797484
#
# Coordination Sequence:
#
# PCOD9106540 Si02
#       8
#     2   2   2   2   2   2   1   2
#     4  12  21  40  76 110 144 201 249 310 376 448
#     4  11  22  43  69 106 146 193 243 311 368 434
#     4  12  24  44  72 107 148 196 254 302 373 457
#     4  10  20  39  73 104 148 190 249 311 364 441
#     4  11  24  45  70 105 154 198 246 315 372 438
#     4  11  21  43  74 103 148 198 242 309 375 434
#     4  12  24  46  76 104 148 200 242 314 386 432
#     4  11  25  45  70 106 148 197 256 306 371 452
#
# _framework density 26.374317000000001
#
# number of rings (size 3 to 8) (size 9 to 14) (size 15 to 20)
#    0.000    0.800    9.333    0.400    0.000    0.533 
#    2.400    4.000    2.933    4.000    0.000    0.000 
#    0.000    0.000    0.000    0.000    0.000    0.000 
#
# Total GULP energy -83829.007788 kJ/mol
# GULP energy per Si atom -5588.600519 kJ/mol
# Density = 2.631429 g / cm^3
# Si number density = 26.374317 Si / 1000 Ang^3
#
#
#
# Elastic Constant Matrix: (Units=GPa)
#
#
# Indices 1 2 3 4 5 6 
#
# 1 129.3891 31.2821 49.0992 -10.9806 -6.0152 4.5030
# 2 31.2821 158.3089 36.5467 -8.9751 3.3129 13.6389
# 3 49.0992 36.5467 121.5485 5.5857 -26.9081 3.4313
# 4 -10.9806 -8.9751 5.5857 42.4918 -7.8903 -1.7681
# 5 -6.0152 3.3129 -26.9081 -7.8903 51.2277 -3.4845
# 6 4.5030 13.6389 3.4313 -1.7681 -3.4845 36.3689
#
#
#
# Elastic Compliance Matrix: (Units=1/GPa)
#
#
# Indices 1 2 3 4 5 6 
#
# 1 0.009610 -0.000809 -0.003852 0.002717 -0.000454 -0.000435
# 2 -0.000809 0.007317 -0.002240 0.001204 -0.001732 -0.002540
# 3 -0.003852 -0.002240 0.011772 -0.001945 0.005621 0.000650
# 4 0.002717 0.001204 -0.001945 0.025378 0.003192 0.000935
# 5 -0.000454 -0.001732 0.005621 0.003192 0.023197 0.002553
# 6 -0.000435 -0.002540 0.000650 0.000935 0.002553 0.028731
#
#
# Mechanical properties :
#
#
# Convention : Reuss Voigt Hill
#
# Bulk Modulus (GPa) = 67.12656 71.45584 69.29120
# Shear Modulus (GPa) = 40.07258 45.50559 42.78909
#
# Velocity S-wave (km/s) = 3.90215 4.15827 4.03224
# Velocity P-wave (km/s) = 6.76824 7.08567 6.92877
#
# Compressibility (1/GPa) = 0.01489723
#
# Stress axis : x y z
#
# Youngs Moduli (GPa) = 104.05348 136.66537 84.94646
#
# Poissons Ratio (x) = 0.11054 0.32721
# Poissons Ratio (y) = 0.08416 0.19032
# Poissons Ratio (z) = 0.40080 0.30620
#
# Static dielectric constant tensor:
#      x y z
#    x 1.761730 0.264000 0.116800 
#    y 0.264000 1.958520 -0.061140 
#    z 0.116800 -0.061140 1.976840 
# 
# From -- ./inp_files/88943.got.cif
#   From: 2010.05.17/outbox.cif.g08.bks.cpg/sg2_45_cif.got.tgz:88943.got - 2010.06.03 11:33:40.
