data_PCOD9106103
_publ_section_title
;
Structure prediction by ZEFSAII (Michael W. Deem and Ramdas Pophale) SiO2 
 PCOD9106103
Probable space group: P -1
;
_chemical_formula_sum "Si O2"
_cell_formula_units_Z 15
_cell_length_a 8.852881
_cell_length_b 6.732607
_cell_length_c 11.920458
_cell_angle_alpha 67.778532
_cell_angle_beta 115.592189
_cell_angle_gamma 107.111777
_cell_volume 585.863831
_symmetry_space_group_name_H-M "P -1"
_symmetry_group_IT_number 2
_symmetry_cell_setting 'triclinic'
loop_
_space_group_symop_operation_xyz
x,y,z
-x,-y,-z
loop_
_atom_site_type_symbol
_atom_site_label
_atom_site_fract_x
_atom_site_fract_y
_atom_site_fract_z
Si Si1 0.184546 0.446899 0.096236
Si Si2 0.500000 0.500000 0.500000
Si Si3 0.662440 0.080478 0.885107
Si Si4 0.005551 0.242544 0.534433
Si Si5 0.176161 0.772190 0.312724
Si Si6 0.209645 0.284454 0.380032
Si Si7 0.795634 0.706636 0.109424
Si Si8 0.369071 0.270433 0.737222
O O1 0.295530 0.668992 0.120877
O O2 0.171639 0.297883 0.234854
O O3 0.244248 0.377388 0.010223
O O4 0.000000 0.500000 0.000000
O O5 0.394426 0.245977 0.482585
O O6 0.450942 0.434269 0.633965
O O7 0.726305 0.068291 0.780907
O O8 0.461133 0.059063 0.827698
O O9 0.766188 0.953780 0.029145
O O10 0.046134 0.212147 0.422439
O O11 0.176289 0.189794 0.655352
O O12 0.000000 0.500000 0.500000
O O13 0.851784 0.141507 0.589183
O O14 0.264233 0.551684 0.386176
O O15 0.987986 0.699415 0.212856
O O16 0.661979 0.611618 0.180684
#
# Coordination Sequence:
#
# PCOD9106103 Si02
#       8
#     2   1   2   2   2   2   2   2
#     4  11  21  36  57  87 118 151 194 237 287 346
#     4  10  16  34  56  84 108 148 194 238 272 346
#     4  11  21  37  56  88 118 155 191 229 298 342
#     4   8  16  29  53  82 109 145 197 238 276 339
#     4   9  16  31  52  83 107 146 193 228 278 337
#     4   9  16  30  53  80 112 142 191 234 283 326
#     4  11  22  36  58  86 120 152 189 238 289 349
#     4  10  20  34  57  88 115 149 195 241 286 338
#
# _framework density 25.603217999999998
#
# number of rings (size 3 to 8) (size 9 to 14) (size 15 to 20)
#    0.000    2.133    5.333    0.800    0.000    0.533 
#    0.000    0.000    0.000    4.000    3.467    0.000 
#    0.000    0.000    0.000    0.000    0.000    0.000 
#
# Total GULP energy -83515.639913 kJ/mol
# GULP energy per Si atom -5567.709328 kJ/mol
# Density = 2.554494 g / cm^3
# Si number density = 25.603218 Si / 1000 Ang^3
#
#
#
# Elastic Constant Matrix: (Units=GPa)
#
#
# Indices 1 2 3 4 5 6 
#
# 1 137.8682 15.8282 55.6147 16.9532 -39.1760 -10.0558
# 2 15.8282 26.9046 25.4321 7.8088 -13.3389 -4.3892
# 3 55.6147 25.4321 167.1280 14.1149 -33.3800 -11.5648
# 4 16.9532 7.8088 14.1149 37.5983 -16.9385 -9.1533
# 5 -39.1760 -13.3389 -33.3800 -16.9385 79.9719 8.8229
# 6 -10.0558 -4.3892 -11.5648 -9.1533 8.8229 32.1852
#
#
#
# Elastic Compliance Matrix: (Units=1/GPa)
#
#
# Indices 1 2 3 4 5 6 
#
# 1 0.009386 -0.001432 -0.002111 -0.001595 0.003065 0.000685
# 2 -0.001432 0.046570 -0.005360 -0.005014 0.003594 0.001566
# 3 -0.002111 -0.005360 0.007822 -0.000068 0.001204 0.001071
# 4 -0.001595 -0.005014 -0.000068 0.031990 0.004392 0.006687
# 5 0.003065 0.003594 0.001204 0.004392 0.016182 -0.001307
# 6 0.000685 0.001566 0.001071 0.006687 -0.001307 0.034143
#
#
# Mechanical properties :
#
#
# Convention : Reuss Voigt Hill
#
# Bulk Modulus (GPa) = 21.75299 58.40565 40.07932
# Shear Modulus (GPa) = 27.89796 45.61946 36.75871
#
# Velocity S-wave (km/s) = 3.30453 4.22570 3.79318
# Velocity P-wave (km/s) = 4.80360 6.83155 5.90528
#
# Compressibility (1/GPa) = 0.04597068
#
# Stress axis : x y z
#
# Youngs Moduli (GPa) = 106.53808 21.47283 127.84413
#
# Poissons Ratio (x) = 0.03076 0.26992
# Poissons Ratio (y) = 0.15259 0.68530
# Poissons Ratio (z) = 0.22494 0.11510
#
# Static dielectric constant tensor:
#      x y z
#    x 1.437310 -0.557430 -0.687940 
#    y -0.557430 1.903690 -0.482690 
#    z -0.687940 -0.482690 1.447120 
# 
# From -- ./inp_files/378394.got.cif
#   From: 2010.05.17/outbox.cif.g08.bks.cpg/sg2_190_cif.got.tgz:378394.got - 2010.06.03 11:33:40.
