data_PCOD9106286
_publ_section_title
;
Structure prediction by ZEFSAII (Michael W. Deem and Ramdas Pophale) SiO2 
 PCOD9106286
Probable space group: P -1
;
_chemical_formula_sum "Si O2"
_cell_formula_units_Z 16
_cell_length_a 19.531881
_cell_length_b 22.718739
_cell_length_c 8.950991
_cell_angle_alpha 40.823468
_cell_angle_beta 149.362147
_cell_angle_gamma 159.374010
_cell_volume 686.486604
_symmetry_space_group_name_H-M "P -1"
_symmetry_group_IT_number 2
_symmetry_cell_setting 'triclinic'
loop_
_space_group_symop_operation_xyz
x,y,z
-x,-y,-z
loop_
_atom_site_type_symbol
_atom_site_label
_atom_site_fract_x
_atom_site_fract_y
_atom_site_fract_z
Si Si1 0.707432 0.676343 0.644078
Si Si2 0.761370 0.503305 0.749466
Si Si3 0.775151 0.676940 0.252467
Si Si4 0.916660 0.900013 0.331210
Si Si5 0.517780 0.815225 0.291137
Si Si6 0.244676 0.013217 0.287287
Si Si7 0.930524 0.268283 0.824042
Si Si8 0.552521 0.064558 0.266302
O O1 0.500000 0.500000 0.500000
O O2 0.530231 0.625754 0.525293
O O3 0.847254 0.825283 0.508627
O O4 0.900283 0.708102 0.992820
O O5 0.881273 0.646951 0.589272
O O6 0.715207 0.381536 0.821463
O O7 0.903008 0.584580 0.020364
O O8 0.759772 0.743471 0.225118
O O9 0.983092 0.832905 0.226375
O O10 0.500000 0.500000 0.000000
O O11 0.215217 0.056890 0.541208
O O12 0.825911 0.949621 0.033750
O O13 0.578984 0.842741 0.527465
O O14 0.456449 0.882128 0.001000
O O15 0.384147 0.003906 0.508195
O O16 0.763859 0.225173 0.471113
O O17 0.723224 0.092521 0.868121
#
# Coordination Sequence:
#
# PCOD9106286 Si02
#       8
#     2   2   2   2   2   2   2   2
#     4  10  20  39  68  96 129 166 212 280 327 380
#     4  11  23  40  69  98 135 169 219 280 335 377
#     4  11  21  38  63  96 136 171 211 279 327 383
#     4  11  21  41  65  97 130 167 228 272 324 388
#     4  11  23  43  63  99 132 178 218 271 325 397
#     4  11  25  42  68  98 133 176 226 267 324 399
#     4  10  22  43  65  93 133 177 220 270 331 394
#     4  11  24  43  68  91 137 182 218 267 331 397
#
# _framework density 23.307084
#
# number of rings (size 3 to 8) (size 9 to 14) (size 15 to 20)
#    0.000    1.250    3.750    4.125    3.500    3.000 
#    0.000    5.000    0.000    0.000    0.000    0.000 
#    0.000    0.000    0.000    0.000    0.000    0.000 
#
# Total GULP energy -89510.590359 kJ/mol
# GULP energy per Si atom -5594.411897 kJ/mol
# Density = 2.325404 g / cm^3
# Si number density = 23.307084 Si / 1000 Ang^3
#
#
#
# Elastic Constant Matrix: (Units=GPa)
#
#
# Indices 1 2 3 4 5 6 
#
# 1 42.3568 19.0885 12.2802 4.0013 -9.7712 -9.5712
# 2 19.0885 82.8089 27.0759 -1.4666 -7.0267 -25.4304
# 3 12.2802 27.0759 85.1747 -0.7227 -12.7537 -12.3479
# 4 4.0013 -1.4666 -0.7227 43.8232 -4.6706 -3.5330
# 5 -9.7712 -7.0267 -12.7537 -4.6706 37.6225 -0.7712
# 6 -9.5712 -25.4304 -12.3479 -3.5330 -0.7712 29.2054
#
#
#
# Elastic Compliance Matrix: (Units=1/GPa)
#
#
# Indices 1 2 3 4 5 6 
#
# 1 0.028558 -0.004099 -0.001142 -0.001682 0.006163 0.005266
# 2 -0.004099 0.018422 -0.002960 0.002258 0.001935 0.013770
# 3 -0.001142 -0.002960 0.013917 0.000920 0.004047 0.003151
# 4 -0.001682 0.002258 0.000920 0.023805 0.003350 0.004772
# 5 0.006163 0.001935 0.004047 0.003350 0.030466 0.006626
# 6 0.005266 0.013770 0.003151 0.004772 0.006626 0.050041
#
#
# Mechanical properties :
#
#
# Convention : Reuss Voigt Hill
#
# Bulk Modulus (GPa) = 22.47499 36.35886 29.41693
# Shear Modulus (GPa) = 25.45292 32.25663 28.85477
#
# Velocity S-wave (km/s) = 3.30823 3.72423 3.52238
# Velocity P-wave (km/s) = 4.92508 5.84183 5.40293
#
# Compressibility (1/GPa) = 0.04449390
#
# Stress axis : x y z
#
# Youngs Moduli (GPa) = 35.01638 54.28415 71.85632
#
# Poissons Ratio (x) = 0.22252 0.08208
# Poissons Ratio (y) = 0.14354 0.21268
# Poissons Ratio (z) = 0.04000 0.16067
#
# Static dielectric constant tensor:
#      x y z
#    x 1.884440 -0.024770 0.006010 
#    y -0.024770 1.888280 0.032160 
#    z 0.006010 0.032160 1.898040 
# 
# From -- ./inp_files/350000.got.cif
#   From: 2010.05.17/outbox.cif.g08.bks.cpg/sg2_175_cif.got.tgz:350000.got - 2010.06.03 11:33:40.
