data_PCOD9106282
_publ_section_title
;
Structure prediction by ZEFSAII (Michael W. Deem and Ramdas Pophale) SiO2 
 PCOD9106282
Probable space group: P -1
;
_chemical_formula_sum "Si O2"
_cell_formula_units_Z 12
_cell_length_a 11.863941
_cell_length_b 9.227109
_cell_length_c 12.893718
_cell_angle_alpha 74.965752
_cell_angle_beta 116.394649
_cell_angle_gamma 50.760200
_cell_volume 613.718084
_symmetry_space_group_name_H-M "P -1"
_symmetry_group_IT_number 2
_symmetry_cell_setting 'triclinic'
loop_
_space_group_symop_operation_xyz
x,y,z
-x,-y,-z
loop_
_atom_site_type_symbol
_atom_site_label
_atom_site_fract_x
_atom_site_fract_y
_atom_site_fract_z
Si Si1 0.148735 0.394148 0.978527
Si Si2 0.741548 0.788265 0.569009
Si Si3 0.283432 0.650384 0.664396
Si Si4 0.575064 0.182416 0.247470
Si Si5 0.565808 0.811740 0.149125
Si Si6 0.908859 0.392421 0.539055
O O1 0.959564 0.616050 0.766331
O O2 0.328648 0.350910 0.077612
O O3 0.000000 0.500000 0.000000
O O4 0.329612 0.069962 0.080735
O O5 0.837292 0.546426 0.586993
O O6 0.500000 0.000000 0.500000
O O7 0.670773 0.987940 0.420731
O O8 0.453424 0.618385 0.761084
O O9 0.373826 0.419664 0.817528
O O10 0.254115 0.591238 0.554052
O O11 0.000000 0.000000 0.500000
O O12 0.800283 0.943700 0.299292
O O13 0.500000 0.000000 0.000000
O O14 0.195591 0.399576 0.640095
#
# Coordination Sequence:
#
# PCOD9106282 Si02
#       6
#     2   2   2   2   2   2
#     4  12  25  39  63  94 126 170 223 261 315 381
#     4  12  23  40  66  89 128 172 218 266 314 376
#     4   8  19  39  65  94 135 162 202 263 334 374
#     4  11  20  41  65  92 131 165 207 271 315 379
#     4  10  20  39  68  96 124 160 218 260 309 387
#     4   9  20  39  65  92 128 163 211 259 321 378
#
# _framework density 19.552952000000001
#
# number of rings (size 3 to 8) (size 9 to 14) (size 15 to 20)
#    1.000    0.667    3.333    1.500    2.333    0.000 
#    0.000    4.167    0.000    0.000    0.000    0.000 
#    0.000    0.000    0.000    0.000    0.000    0.000 
#
# Total GULP energy -66872.126522 kJ/mol
# GULP energy per Si atom -5572.677210 kJ/mol
# Density = 1.950845 g / cm^3
# Si number density = 19.552952 Si / 1000 Ang^3
#
#
#
# Elastic Constant Matrix: (Units=GPa)
#
#
# Indices 1 2 3 4 5 6 
#
# 1 87.8725 80.8944 52.8093 2.2582 17.2992 15.5792
# 2 80.8944 132.1018 52.0868 9.0740 5.0779 10.0440
# 3 52.8093 52.0868 143.2609 17.3057 25.7134 15.3393
# 4 2.2582 9.0740 17.3057 35.2959 5.1935 6.4953
# 5 17.2992 5.0779 25.7134 5.1935 32.5512 1.5066
# 6 15.5792 10.0440 15.3393 6.4953 1.5066 44.9458
#
#
#
# Elastic Compliance Matrix: (Units=1/GPa)
#
#
# Indices 1 2 3 4 5 6 
#
# 1 0.035731 -0.019912 -0.003599 0.008016 -0.013976 -0.007397
# 2 -0.019912 0.020035 -0.001319 -0.005190 0.009173 0.003318
# 3 -0.003599 -0.001319 0.010315 -0.003452 -0.005419 -0.001298
# 4 0.008016 -0.005190 -0.003452 0.032597 -0.005694 -0.004960
# 5 -0.013976 0.009173 -0.005419 -0.005694 0.041718 0.004068
# 6 -0.007397 0.003318 -0.001298 -0.004960 0.004068 0.025095
#
#
# Mechanical properties :
#
#
# Convention : Reuss Voigt Hill
#
# Bulk Modulus (GPa) = 60.90013 81.64625 71.27319
# Shear Modulus (GPa) = 22.66281 34.38821 28.52551
#
# Velocity S-wave (km/s) = 3.40817 4.19826 3.82368
# Velocity P-wave (km/s) = 6.83384 8.08379 7.48495
#
# Compressibility (1/GPa) = 0.01642033
#
# Stress axis : x y z
#
# Youngs Moduli (GPa) = 27.98684 49.91222 96.94430
#
# Poissons Ratio (x) = 0.99386 0.34894
# Poissons Ratio (y) = 0.55728 0.12787
# Poissons Ratio (z) = 0.10074 0.06583
#
# Static dielectric constant tensor:
#      x y z
#    x 1.737080 0.016750 0.012700 
#    y 0.016750 1.736060 0.010180 
#    z 0.012700 0.010180 1.731630 
# 
# From -- ./inp_files/178305.got.cif
#   From: 2010.05.17/outbox.cif.g08.bks.cpg/sg2_90_cif.got.tgz:178305.got - 2010.06.03 11:33:40.
