data_PCOD9106219
_publ_section_title
;
Structure prediction by ZEFSAII (Michael W. Deem and Ramdas Pophale) SiO2 
 PCOD9106219
Probable space group: P -1
;
_chemical_formula_sum "Si O2"
_cell_formula_units_Z 16
_cell_length_a 10.509312
_cell_length_b 16.311928
_cell_length_c 8.498535
_cell_angle_alpha 92.128738
_cell_angle_beta 35.939746
_cell_angle_gamma 75.463494
_cell_volume 749.996825
_symmetry_space_group_name_H-M "P -1"
_symmetry_group_IT_number 2
_symmetry_cell_setting 'triclinic'
loop_
_space_group_symop_operation_xyz
x,y,z
-x,-y,-z
loop_
_atom_site_type_symbol
_atom_site_label
_atom_site_fract_x
_atom_site_fract_y
_atom_site_fract_z
Si Si1 0.388230 0.756716 0.781190
Si Si2 0.260482 0.921828 0.296590
Si Si3 0.329474 0.145610 0.386676
Si Si4 0.409385 0.421754 0.599267
Si Si5 0.994376 0.482846 0.753677
Si Si6 0.785813 0.425026 0.692844
Si Si7 0.899672 0.956204 0.233321
Si Si8 0.172663 0.755514 0.303115
O O1 0.614701 0.777477 0.582615
O O2 0.398943 0.686866 0.629318
O O3 0.360458 0.709903 0.966373
O O4 0.156026 0.861609 0.012483
O O5 0.252259 0.825325 0.307586
O O6 0.249282 0.961525 0.484274
O O7 0.455794 0.910727 0.963223
O O8 0.000000 0.000000 0.500000
O O9 0.286566 0.089100 0.569229
O O10 0.090925 0.188707 0.515067
O O11 0.500000 0.500000 0.500000
O O12 0.199677 0.439046 0.679658
O O13 0.265455 0.442829 0.907513
O O14 0.091735 0.535592 0.547275
O O15 0.930655 0.414079 0.711126
O O16 0.817835 0.325483 0.605409
O O17 0.500000 0.500000 0.000000
O O18 0.000000 0.000000 0.000000
#
# Coordination Sequence:
#
# PCOD9106219 Si02
#       8
#     2   2   2   2   2   2   2   2
#     4  10  21  39  62  90 118 164 208 243 312 374
#     4  11  20  41  63  91 117 161 219 246 304 381
#     4  10  20  39  68  86 125 163 210 257 301 373
#     4  11  22  42  64  89 126 169 206 261 308 377
#     4  10  23  38  63  92 126 160 217 243 322 377
#     4  11  22  42  62  93 130 161 201 270 312 364
#     4  11  24  41  58  94 125 161 203 262 315 364
#     4  10  21  36  65  92 115 162 210 249 303 369
#
# _framework density 21.333423
#
# number of rings (size 3 to 8) (size 9 to 14) (size 15 to 20)
#    0.000    1.500    3.750    3.375    0.000    6.500 
#    9.000    0.000    0.000    0.000    0.000    0.000 
#    0.000    0.000    0.000    0.000    0.000    0.000 
#
# Total GULP energy -89083.390768 kJ/mol
# GULP energy per Si atom -5567.711923 kJ/mol
# Density = 2.128487 g / cm^3
# Si number density = 21.333423 Si / 1000 Ang^3
#
#
#
# Elastic Constant Matrix: (Units=GPa)
#
#
# Indices 1 2 3 4 5 6 
#
# 1 29.6798 13.9456 15.2606 -6.9176 -3.9762 10.3431
# 2 13.9456 112.8352 55.8705 -13.9871 -0.8161 18.2990
# 3 15.2606 55.8705 126.9606 -19.2333 3.3517 17.6612
# 4 -6.9176 -13.9871 -19.2333 37.6178 6.1538 -1.3905
# 5 -3.9762 -0.8161 3.3517 6.1538 26.2557 1.2381
# 6 10.3431 18.2990 17.6612 -1.3905 1.2381 29.1297
#
#
#
# Elastic Compliance Matrix: (Units=1/GPa)
#
#
# Indices 1 2 3 4 5 6 
#
# 1 0.041754 -0.001461 -0.002071 0.004616 0.006059 -0.012689
# 2 -0.001461 0.012105 -0.004275 0.001803 0.000487 -0.004428
# 3 -0.002071 -0.004275 0.011106 0.004033 -0.002668 -0.003007
# 4 0.004616 0.001803 0.004033 0.031167 -0.006903 -0.003436
# 5 0.006059 0.000487 -0.002668 -0.006903 0.041116 -0.002917
# 6 -0.012689 -0.004428 -0.003007 -0.003436 -0.002917 0.043399
#
#
# Mechanical properties :
#
#
# Convention : Reuss Voigt Hill
#
# Bulk Modulus (GPa) = 20.26320 48.84767 34.55544
# Shear Modulus (GPa) = 23.50590 30.89390 27.19990
#
# Velocity S-wave (km/s) = 3.32299 3.80958 3.57457
# Velocity P-wave (km/s) = 4.92361 6.50365 5.76799
#
# Compressibility (1/GPa) = 0.04935055
#
# Stress axis : x y z
#
# Youngs Moduli (GPa) = 23.94980 82.61032 90.03780
#
# Poissons Ratio (x) = 0.12069 0.18651
# Poissons Ratio (y) = 0.03499 0.38492
# Poissons Ratio (z) = 0.04961 0.35316
#
# Static dielectric constant tensor:
#      x y z
#    x 1.947270 0.059760 0.124240 
#    y 0.059760 1.830590 0.063380 
#    z 0.124240 0.063380 1.966380 
# 
# From -- ./inp_files/44635.got.cif
#   From: 2010.05.17/outbox.cif.g08.bks.cpg/sg2_23_cif.got.tgz:44635.got - 2010.06.03 11:33:40.
