data_PCOD9106023
_publ_section_title
;
Structure prediction by ZEFSAII (Michael W. Deem and Ramdas Pophale) SiO2 
 PCOD9106023
Probable space group: P -1
;
_chemical_formula_sum "Si O2"
_cell_formula_units_Z 16
_cell_length_a 8.968532
_cell_length_b 11.798359
_cell_length_c 9.300808
_cell_angle_alpha 106.345399
_cell_angle_beta 130.057429
_cell_angle_gamma 73.924953
_cell_volume 716.654021
_symmetry_space_group_name_H-M "P -1"
_symmetry_group_IT_number 2
_symmetry_cell_setting 'triclinic'
loop_
_space_group_symop_operation_xyz
x,y,z
-x,-y,-z
loop_
_atom_site_type_symbol
_atom_site_label
_atom_site_fract_x
_atom_site_fract_y
_atom_site_fract_z
Si Si1 0.083864 0.322113 0.900042
Si Si2 0.738433 0.354891 0.917466
Si Si3 0.611928 0.513985 0.427906
Si Si4 0.024202 0.511101 0.688142
Si Si5 0.535717 0.270550 0.206346
Si Si6 0.325638 0.964703 0.632306
Si Si7 0.662454 0.126373 0.939222
Si Si8 0.949486 0.955933 0.234657
O O1 0.056616 0.388321 0.753919
O O2 0.062812 0.183304 0.832062
O O3 0.909966 0.375124 0.918078
O O4 0.307964 0.327324 0.087301
O O5 0.530166 0.412326 0.747333
O O6 0.724702 0.218035 0.894527
O O7 0.805796 0.416572 0.125573
O O8 0.500000 0.500000 0.500000
O O9 0.659454 0.379098 0.349087
O O10 0.804703 0.571980 0.609788
O O11 0.000000 0.500000 0.500000
O O12 0.579315 0.169928 0.320241
O O13 0.583334 0.204291 0.059451
O O14 0.173334 0.974193 0.410388
O O15 0.490721 0.051537 0.757159
O O16 0.188130 0.001386 0.698658
O O17 0.846976 0.033236 0.069608
#
# Coordination Sequence:
#
# PCOD9106023 Si02
#       8
#     2   2   2   2   2   2   2   2
#     4  12  22  45  70  95 138 182 218 279 349 398
#     4  12  28  44  66 100 146 180 219 280 345 405
#     4  12  25  45  69  98 137 180 223 276 343 411
#     4  12  27  45  71 103 132 177 236 282 337 398
#     4  11  21  41  73  94 129 177 230 278 334 395
#     4  10  20  39  67 102 128 173 228 282 330 392
#     4  11  23  43  63 101 134 176 225 280 331 394
#     4  10  21  39  69  97 134 172 227 279 330 399
#
# _framework density 22.325973999999999
#
# number of rings (size 3 to 8) (size 9 to 14) (size 15 to 20)
#    0.000    0.750    5.000    3.375    1.750    4.500 
#    0.000    0.625    0.000    0.000    0.000    0.000 
#    0.000    0.000    0.000    0.000    0.000    0.000 
#
# Total GULP energy -89500.716116 kJ/mol
# GULP energy per Si atom -5593.794757 kJ/mol
# Density = 2.227516 g / cm^3
# Si number density = 22.325974 Si / 1000 Ang^3
#
#
#
# Elastic Constant Matrix: (Units=GPa)
#
#
# Indices 1 2 3 4 5 6 
#
# 1 49.8846 17.6211 20.7970 -19.2562 4.6822 13.1098
# 2 17.6211 133.3656 63.3325 -16.4724 7.3152 25.3195
# 3 20.7970 63.3325 141.8060 -21.7836 31.0009 16.7308
# 4 -19.2562 -16.4724 -21.7836 24.8093 -6.1187 0.0440
# 5 4.6822 7.3152 31.0009 -6.1187 36.4909 1.5995
# 6 13.1098 25.3195 16.7308 0.0440 1.5995 37.1771
#
#
#
# Elastic Compliance Matrix: (Units=1/GPa)
#
#
# Indices 1 2 3 4 5 6 
#
# 1 0.033200 0.001267 0.000074 0.026814 0.000474 -0.012656
# 2 0.001267 0.010945 -0.004015 0.005281 0.002211 -0.006195
# 3 0.000074 -0.004015 0.011754 0.005709 -0.008134 -0.002238
# 4 0.026814 0.005281 0.005709 0.070446 0.003157 -0.015841
# 5 0.000474 0.002211 -0.008134 0.003157 0.034318 0.000507
# 6 -0.012656 -0.006195 -0.002238 -0.015841 0.000507 0.036584
#
#
# Mechanical properties :
#
#
# Convention : Reuss Voigt Hill
#
# Bulk Modulus (GPa) = 19.78259 58.72859 39.25559
# Shear Modulus (GPa) = 22.78473 34.58250 28.68361
#
# Velocity S-wave (km/s) = 3.19807 3.93998 3.58825
# Velocity P-wave (km/s) = 4.74520 6.86003 5.89818
#
# Compressibility (1/GPa) = 0.05054949
#
# Stress axis : x y z
#
# Youngs Moduli (GPa) = 30.12032 91.36926 85.07982
#
# Poissons Ratio (x) = -0.11576 -0.00627
# Poissons Ratio (y) = -0.03816 0.34160
# Poissons Ratio (z) = -0.00222 0.36686
#
# Static dielectric constant tensor:
#      x y z
#    x 1.937370 -0.023090 -0.030050 
#    y -0.023090 1.804590 0.019800 
#    z -0.030050 0.019800 1.832980 
# 
# From -- ./inp_files/188216.got.cif
#   From: 2010.05.17/outbox.cif.g08.bks.cpg/sg2_95_cif.got.tgz:188216.got - 2010.06.03 11:33:40.
