data_PCOD9106645
_publ_section_title
;
Structure prediction by ZEFSAII (Michael W. Deem and Ramdas Pophale) SiO2 
 PCOD9106645
Probable space group: P -1
;
_chemical_formula_sum "Si O2"
_cell_formula_units_Z 14
_cell_length_a 13.580820
_cell_length_b 22.039362
_cell_length_c 14.726604
_cell_angle_alpha 159.647828
_cell_angle_beta 148.737647
_cell_angle_gamma 20.974103
_cell_volume 541.130792
_symmetry_space_group_name_H-M "P -1"
_symmetry_group_IT_number 2
_symmetry_cell_setting 'triclinic'
loop_
_space_group_symop_operation_xyz
x,y,z
-x,-y,-z
loop_
_atom_site_type_symbol
_atom_site_label
_atom_site_fract_x
_atom_site_fract_y
_atom_site_fract_z
Si Si1 0.000733 0.645177 0.913934
Si Si2 0.518801 0.527695 0.423025
Si Si3 0.683219 0.278476 0.655978
Si Si4 0.325262 0.287774 0.899337
Si Si5 0.278411 0.297255 0.067851
Si Si6 0.112584 0.618505 0.767010
Si Si7 0.071653 0.183694 0.294902
O O1 0.004549 0.741818 0.955647
O O2 0.038351 0.415781 0.603407
O O3 0.742829 0.818507 0.025597
O O4 0.259245 0.556252 0.046541
O O5 0.452784 0.665473 0.469357
O O6 0.319675 0.494602 0.218944
O O7 0.533497 0.663502 0.702358
O O8 0.837807 0.255096 0.274566
O O9 0.449866 0.383995 0.693747
O O10 0.000000 0.000000 0.500000
O O11 0.357452 0.162302 0.844444
O O12 0.045115 0.431598 0.827927
O O13 0.622261 0.063597 0.774401
O O14 0.000000 0.500000 0.500000
O O15 0.996059 0.803131 0.847143
#
# Coordination Sequence:
#
# PCOD9106645 Si02
#       7
#     2   2   2   2   2   2   2
#     4  10  20  40  59  89 126 159 209 257 301 374
#     4  10  21  42  61  91 129 159 211 258 306 380
#     4  11  23  40  65  93 126 166 209 261 320 368
#     4  11  21  41  63  92 128 163 208 256 316 366
#     4  10  23  39  63  91 129 163 206 260 309 370
#     4   9  20  41  61  90 126 159 208 260 304 381
#     4   9  21  38  65  91 122 165 204 256 315 371
#
# _framework density 25.871748
#
# number of rings (size 3 to 8) (size 9 to 14) (size 15 to 20)
#    0.000    2.000    1.429    2.143    0.000    5.714 
#    5.143   10.714    0.000    0.000    0.000    0.000 
#    0.000    0.000    0.000    0.000    0.000    0.000 
#
# Total GULP energy -78113.519283 kJ/mol
# GULP energy per Si atom -5579.537092 kJ/mol
# Density = 2.581286 g / cm^3
# Si number density = 25.871748 Si / 1000 Ang^3
#
#
#
# Elastic Constant Matrix: (Units=GPa)
#
#
# Indices 1 2 3 4 5 6 
#
# 1 109.4175 17.3145 26.3108 -2.9541 -5.4438 0.7384
# 2 17.3145 121.4141 35.3566 -4.3629 0.9411 -16.8934
# 3 26.3108 35.3566 44.4359 -23.8089 8.1754 2.8902
# 4 -2.9541 -4.3629 -23.8089 45.5832 -2.8905 -6.7890
# 5 -5.4438 0.9411 8.1754 -2.8905 43.3083 -13.6597
# 6 0.7384 -16.8934 2.8902 -6.7890 -13.6597 54.1331
#
#
#
# Elastic Compliance Matrix: (Units=1/GPa)
#
#
# Indices 1 2 3 4 5 6 
#
# 1 0.011698 0.001681 -0.011540 -0.004674 0.003721 0.001334
# 2 0.001681 0.012986 -0.015473 -0.005699 0.004102 0.005176
# 3 -0.011540 -0.015473 0.058697 0.026462 -0.012868 -0.007733
# 4 -0.004674 -0.005699 0.026462 0.034794 -0.002984 0.000483
# 5 0.003721 0.004102 -0.012868 -0.002984 0.028449 0.008721
# 6 0.001334 0.005176 -0.007733 0.000483 0.008721 0.022744
#
#
# Mechanical properties :
#
#
# Convention : Reuss Voigt Hill
#
# Bulk Modulus (GPa) = 30.56382 48.13682 39.35032
# Shear Modulus (GPa) = 21.65092 41.69063 31.67077
#
# Velocity S-wave (km/s) = 2.89598 4.01862 3.50257
# Velocity P-wave (km/s) = 4.79808 6.33867 5.62140
#
# Compressibility (1/GPa) = 0.03271842
#
# Stress axis : x y z
#
# Youngs Moduli (GPa) = 85.48414 77.00628 17.03665
#
# Poissons Ratio (x) = -0.12945 0.19660
# Poissons Ratio (y) = -0.14370 0.26360
# Poissons Ratio (z) = 0.98645 1.19150
#
# Static dielectric constant tensor:
#      x y z
#    x 2.240330 0.025710 -0.028100 
#    y 0.025710 2.030040 0.036480 
#    z -0.028100 0.036480 2.093160 
# 
# From -- ./inp_files/382671.got.cif
#   From: 2010.05.17/outbox.cif.g08.bks.cpg/sg2_192_cif.got.tgz:382671.got - 2010.06.03 11:33:40.
