data_PCOD9106435
_publ_section_title
;
Structure prediction by ZEFSAII (Michael W. Deem and Ramdas Pophale) SiO2 
 PCOD9106435
Probable space group: P -1
;
_chemical_formula_sum "Si O2"
_cell_formula_units_Z 14
_cell_length_a 12.278063
_cell_length_b 12.732558
_cell_length_c 11.411559
_cell_angle_alpha 41.114800
_cell_angle_beta 33.746545
_cell_angle_gamma 32.508320
_cell_volume 524.408959
_symmetry_space_group_name_H-M "P -1"
_symmetry_group_IT_number 2
_symmetry_cell_setting 'triclinic'
loop_
_space_group_symop_operation_xyz
x,y,z
-x,-y,-z
loop_
_atom_site_type_symbol
_atom_site_label
_atom_site_fract_x
_atom_site_fract_y
_atom_site_fract_z
Si Si1 0.678243 0.186810 0.849167
Si Si2 0.878853 0.829568 0.794566
Si Si3 0.346592 0.742628 0.816734
Si Si4 0.345821 0.877919 0.467370
Si Si5 0.586245 0.841800 0.687396
Si Si6 0.881535 0.331599 0.711616
Si Si7 0.343678 0.407889 0.770072
O O1 0.877714 0.190970 0.737555
O O2 0.556461 0.346407 0.721042
O O3 0.771086 0.982932 0.870642
O O4 0.473698 0.254004 0.074769
O O5 0.829431 0.960562 0.612707
O O6 0.150798 0.641753 0.735486
O O7 0.755725 0.714528 0.987908
O O8 0.625097 0.543997 0.737874
O O9 0.387557 0.890686 0.725713
O O10 0.165527 0.722876 0.072836
O O11 0.265802 0.798851 0.709089
O O12 0.451500 0.974054 0.367092
O O13 0.556179 0.693634 0.359111
O O14 0.864478 0.701510 0.510468
#
# Coordination Sequence:
#
# PCOD9106435 Si02
#       7
#     2   2   2   2   2   2   2
#     4  10  20  44  71 102 142 173 225 286 336 411
#     4  10  20  39  70 106 134 182 228 274 347 413
#     4  10  24  44  68  99 140 179 231 287 334 406
#     4  11  21  39  70 100 138 177 229 281 336 411
#     4  11  21  42  73  99 132 185 226 277 347 402
#     4  10  24  44  69 103 137 179 233 283 340 406
#     4  10  20  39  71 104 137 180 226 279 343 411
#
# _framework density 26.696719999999999
#
# number of rings (size 3 to 8) (size 9 to 14) (size 15 to 20)
#    0.000    1.714    2.857    1.714    2.000    0.571 
#    2.571    5.714    0.000    0.000    0.000    0.000 
#    0.000    0.000    0.000    0.000    0.000    0.000 
#
# Total GULP energy -78415.836746 kJ/mol
# GULP energy per Si atom -5601.131196 kJ/mol
# Density = 2.663596 g / cm^3
# Si number density = 26.696720 Si / 1000 Ang^3
#
#
#
# Elastic Constant Matrix: (Units=GPa)
#
#
# Indices 1 2 3 4 5 6 
#
# 1 136.0487 44.2176 67.6638 0.6888 42.8790 -2.4079
# 2 44.2176 185.1951 49.1114 24.4375 25.8543 -11.8720
# 3 67.6638 49.1114 168.3960 8.8416 17.1037 -14.3981
# 4 0.6888 24.4375 8.8416 39.1037 2.9304 1.3860
# 5 42.8790 25.8543 17.1037 2.9304 47.0391 -3.0026
# 6 -2.4079 -11.8720 -14.3981 1.3860 -3.0026 30.4599
#
#
#
# Elastic Compliance Matrix: (Units=1/GPa)
#
#
# Indices 1 2 3 4 5 6 
#
# 1 0.012823 -0.001016 -0.004173 0.002181 -0.009905 -0.002430
# 2 -0.001016 0.006855 -0.000990 -0.003959 -0.002101 0.002096
# 3 -0.004173 -0.000990 0.008089 -0.001383 0.001706 0.003339
# 4 0.002181 -0.003959 -0.001383 0.028542 -0.001308 -0.003452
# 5 -0.009905 -0.002101 0.001706 -0.001308 0.031052 0.002325
# 6 -0.002430 0.002096 0.003339 -0.003452 0.002325 0.035419
#
#
# Mechanical properties :
#
#
# Convention : Reuss Voigt Hill
#
# Bulk Modulus (GPa) = 64.89766 90.18059 77.53913
# Shear Modulus (GPa) = 35.64435 45.23034 40.43734
#
# Velocity S-wave (km/s) = 3.65795 4.12057 3.89613
# Velocity P-wave (km/s) = 6.49636 7.51610 7.02476
#
# Compressibility (1/GPa) = 0.01540888
#
# Stress axis : x y z
#
# Youngs Moduli (GPa) = 77.98232 145.87727 123.63062
#
# Poissons Ratio (x) = 0.14822 0.51586
# Poissons Ratio (y) = 0.07923 0.12245
# Poissons Ratio (z) = 0.32539 0.14449
#
# Static dielectric constant tensor:
#      x y z
#    x 2.042630 0.019140 -0.052220 
#    y 0.019140 2.142750 -0.025100 
#    z -0.052220 -0.025100 2.164210 
# 
# From -- ./inp_files/578469.got.cif
#   From: 2010.05.17/outbox.cif.g08.bks.cpg/sg2_290_cif.got.tgz:578469.got - 2010.06.03 11:33:40.
