data_PCOD9106917
_publ_section_title
;
Structure prediction by ZEFSAII (Michael W. Deem and Ramdas Pophale) SiO2 
 PCOD9106917
Probable space group: P -1
;
_chemical_formula_sum "Si O2"
_cell_formula_units_Z 16
_cell_length_a 16.251514
_cell_length_b 18.485850
_cell_length_c 6.997448
_cell_angle_alpha 66.427963
_cell_angle_beta 58.214886
_cell_angle_gamma 25.142540
_cell_volume 741.792009
_symmetry_space_group_name_H-M "P -1"
_symmetry_group_IT_number 2
_symmetry_cell_setting 'triclinic'
loop_
_space_group_symop_operation_xyz
x,y,z
-x,-y,-z
loop_
_atom_site_type_symbol
_atom_site_label
_atom_site_fract_x
_atom_site_fract_y
_atom_site_fract_z
Si Si1 0.206367 0.400126 0.585269
Si Si2 0.687363 0.260396 0.273683
Si Si3 0.869684 0.999858 0.044608
Si Si4 0.432498 0.720148 0.200081
Si Si5 0.300953 0.507918 0.237811
Si Si6 0.277381 0.224809 0.356644
Si Si7 0.197844 0.104447 0.578519
Si Si8 0.475688 0.175683 0.849515
O O1 0.311770 0.408045 0.397385
O O2 0.286485 0.274935 0.474496
O O3 0.275244 0.326531 0.790579
O O4 0.955221 0.591914 0.650398
O O5 0.629654 0.286788 0.535213
O O6 0.470170 0.431841 0.240616
O O7 0.796111 0.102753 0.212726
O O8 0.875152 0.186607 0.091243
O O9 0.776016 0.980917 0.202316
O O10 0.768012 0.119193 0.864184
O O11 0.504349 0.753650 0.151689
O O12 0.616486 0.551049 0.018353
O O13 0.055686 0.709087 0.348157
O O14 0.278796 0.132132 0.506198
O O15 0.445089 0.130796 0.092530
O O16 0.323720 0.987258 0.359375
#
# Coordination Sequence:
#
# PCOD9106917 Si02
#       8
#     2   2   2   2   2   2   2   2
#     4  10  20  40  62  87 120 159 206 242 289 359
#     4  10  20  41  68  87 115 164 204 245 294 363
#     4  10  22  40  63  92 122 154 201 252 302 349
#     4  11  20  39  66  90 115 160 208 242 290 367
#     4  10  21  40  62  89 125 158 198 247 301 352
#     4  10  23  39  61  88 121 161 199 245 297 354
#     4  11  24  42  56  92 131 154 193 256 303 346
#     4  12  21  39  64  89 119 159 205 245 293 354
#
# _framework density 21.569389000000001
#
# number of rings (size 3 to 8) (size 9 to 14) (size 15 to 20)
#    0.000    1.500    3.750    1.875    0.000    1.000 
#    4.500    0.625    0.000    0.000    0.000    0.000 
#    0.000    0.000    0.000    0.000    0.000    0.000 
#
# Total GULP energy -89494.238073 kJ/mol
# GULP energy per Si atom -5593.389880 kJ/mol
# Density = 2.152030 g / cm^3
# Si number density = 21.569389 Si / 1000 Ang^3
#
#
#
# Elastic Constant Matrix: (Units=GPa)
#
#
# Indices 1 2 3 4 5 6 
#
# 1 62.7658 12.6382 28.8268 1.1489 -5.8620 -8.4093
# 2 12.6382 61.0420 -0.1352 16.5345 -1.8254 -3.8101
# 3 28.8268 -0.1352 109.3022 3.1556 -7.8627 6.3906
# 4 1.1489 16.5345 3.1556 23.8097 -1.8701 -11.3676
# 5 -5.8620 -1.8254 -7.8627 -1.8701 34.5460 -2.1673
# 6 -8.4093 -3.8101 6.3906 -11.3676 -2.1673 27.0911
#
#
#
# Elastic Compliance Matrix: (Units=1/GPa)
#
#
# Indices 1 2 3 4 5 6 
#
# 1 0.021995 -0.006524 -0.006583 0.010353 0.003207 0.012064
# 2 -0.006524 0.022489 0.002699 -0.019407 -0.000839 -0.007709
# 3 -0.006583 0.002699 0.011543 -0.006352 0.000871 -0.006982
# 4 0.010353 -0.019407 -0.006352 0.071747 0.005209 0.032505
# 5 0.003207 -0.000839 0.000871 0.005209 0.030258 0.005278
# 6 0.012064 -0.007709 -0.006982 0.032505 0.005278 0.055281
#
#
# Mechanical properties :
#
#
# Convention : Reuss Voigt Hill
#
# Bulk Modulus (GPa) = 28.39898 35.08551 31.74225
# Shear Modulus (GPa) = 20.33625 29.87471 25.10548
#
# Velocity S-wave (km/s) = 3.07388 3.72567 3.41536
# Velocity P-wave (km/s) = 5.07871 5.89992 5.50465
#
# Compressibility (1/GPa) = 0.03521253
#
# Stress axis : x y z
#
# Youngs Moduli (GPa) = 45.46412 44.46526 86.63574
#
# Poissons Ratio (x) = 0.29009 0.57029
# Poissons Ratio (y) = 0.29661 -0.23384
# Poissons Ratio (z) = 0.29927 -0.12002
#
# Static dielectric constant tensor:
#      x y z
#    x 1.773290 -0.008540 -0.023790 
#    y -0.008540 1.794350 0.001850 
#    z -0.023790 0.001850 1.739590 
# 
# From -- ./inp_files/38980.got.cif
#   From: 2010.05.17/outbox.cif.g08.bks.cpg/sg2_20_cif.got.tgz:38980.got - 2010.06.03 11:33:40.
