data_PCOD9106861
_publ_section_title
;
Structure prediction by ZEFSAII (Michael W. Deem and Ramdas Pophale) SiO2 
 PCOD9106861
Probable space group: P -1
;
_chemical_formula_sum "Si O2"
_cell_formula_units_Z 16
_cell_length_a 8.355535
_cell_length_b 20.375641
_cell_length_c 5.443991
_cell_angle_alpha 94.380095
_cell_angle_beta 92.775897
_cell_angle_gamma 44.962679
_cell_volume 653.011498
_symmetry_space_group_name_H-M "P -1"
_symmetry_group_IT_number 2
_symmetry_cell_setting 'triclinic'
loop_
_space_group_symop_operation_xyz
x,y,z
-x,-y,-z
loop_
_atom_site_type_symbol
_atom_site_label
_atom_site_fract_x
_atom_site_fract_y
_atom_site_fract_z
Si Si1 0.666315 0.408556 0.826527
Si Si2 0.985113 0.364017 0.477275
Si Si3 0.579851 0.732749 0.287760
Si Si4 0.316258 0.432455 0.527668
Si Si5 0.270274 0.689479 0.781208
Si Si6 0.128760 0.865944 0.606337
Si Si7 0.582098 0.128144 0.050471
Si Si8 0.382827 0.963140 0.486847
O O1 0.872418 0.391457 0.746903
O O2 0.501819 0.433742 0.609064
O O3 0.500000 0.500000 0.000000
O O4 0.744444 0.318695 0.932892
O O5 0.913018 0.458954 0.422916
O O6 0.864371 0.338731 0.321327
O O7 0.247410 0.280279 0.520496
O O8 0.663573 0.633840 0.304161
O O9 0.329087 0.811358 0.404429
O O10 0.580513 0.765245 0.029180
O O11 0.459115 0.373630 0.272739
O O12 0.138984 0.789357 0.693397
O O13 0.197514 0.895830 0.839898
O O14 0.889027 0.950783 0.494211
O O15 0.532309 0.097371 0.274762
O O16 0.587176 0.082767 0.787992
O O17 0.500000 0.000000 0.500000
#
# Coordination Sequence:
#
# PCOD9106861 Si02
#       8
#     2   2   2   2   2   2   2   2
#     4  11  18  36  61  90 129 190 242 302 354 415
#     4  11  22  38  64  97 142 192 245 305 351 423
#     4  11  26  42  68 103 145 193 243 298 366 430
#     4  10  20  40  61  94 135 189 246 290 359 423
#     4  10  21  39  67  97 139 184 245 297 361 415
#     4  11  26  46  76 107 148 190 241 296 372 443
#     4  12  26  54  78 109 153 186 239 295 377 443
#     4  12  29  51  84 114 143 188 238 303 368 449
#
# _framework density 24.501864000000001
#
# number of rings (size 3 to 8) (size 9 to 14) (size 15 to 20)
#    0.000    1.000    3.750    3.000    3.500    2.000 
#    0.000    0.625    0.000    0.000    0.000    0.000 
#    0.000    0.000    0.000    0.000    0.000    0.000 
#
# Total GULP energy -89187.440993 kJ/mol
# GULP energy per Si atom -5574.215062 kJ/mol
# Density = 2.444610 g / cm^3
# Si number density = 24.501864 Si / 1000 Ang^3
#
#
#
# Elastic Constant Matrix: (Units=GPa)
#
#
# Indices 1 2 3 4 5 6 
#
# 1 94.4827 56.4449 36.0649 -12.2867 20.0458 17.7419
# 2 56.4449 127.9099 61.5869 -30.3798 -11.8532 19.7603
# 3 36.0649 61.5869 111.3878 -25.8024 -1.7988 20.8421
# 4 -12.2867 -30.3798 -25.8024 38.3156 6.9898 -5.4628
# 5 20.0458 -11.8532 -1.7988 6.9898 30.2108 -10.2912
# 6 17.7419 19.7603 20.8421 -5.4628 -10.2912 48.9376
#
#
#
# Elastic Compliance Matrix: (Units=1/GPa)
#
#
# Indices 1 2 3 4 5 6 
#
# 1 0.024257 -0.011040 0.000081 0.002157 -0.024051 -0.009188
# 2 -0.011040 0.017051 -0.005098 0.004444 0.013584 0.002642
# 3 0.000081 -0.005098 0.013695 0.005334 -0.003840 -0.004016
# 4 0.002157 0.004444 0.005334 0.035054 -0.008401 -0.002702
# 5 -0.024051 0.013584 -0.003840 -0.008401 0.061876 0.016945
# 6 -0.009188 0.002642 -0.004016 -0.002702 0.016945 0.027670
#
#
# Mechanical properties :
#
#
# Convention : Reuss Voigt Hill
#
# Bulk Modulus (GPa) = 43.69174 71.33042 57.51108
# Shear Modulus (GPa) = 22.79467 35.47173 29.13320
#
# Velocity S-wave (km/s) = 3.05343 3.80901 3.45196
# Velocity P-wave (km/s) = 5.50472 6.96565 6.27783
#
# Compressibility (1/GPa) = 0.02288762
#
# Stress axis : x y z
#
# Youngs Moduli (GPa) = 41.22468 58.64753 73.01698
#
# Poissons Ratio (x) = 0.64749 -0.00589
# Poissons Ratio (y) = 0.45514 0.37227
# Poissons Ratio (z) = -0.00333 0.29901
#
# Static dielectric constant tensor:
#      x y z
#    x 1.926550 0.099860 0.090470 
#    y 0.099860 1.538260 -0.449990 
#    z 0.090470 -0.449990 1.599730 
# 
# From -- ./inp_files/53090.got.cif
#   From: 2010.05.17/outbox.cif.g08.bks.cpg/sg2_27_cif.got.tgz:53090.got - 2010.06.03 11:33:40.
