data_PCOD9106958
_publ_section_title
;
Structure prediction by ZEFSAII (Michael W. Deem and Ramdas Pophale) SiO2 
 PCOD9106958
Probable space group: P -1
;
_chemical_formula_sum "Si O2"
_cell_formula_units_Z 16
_cell_length_a 8.571691
_cell_length_b 21.536754
_cell_length_c 9.735645
_cell_angle_alpha 155.442420
_cell_angle_beta 104.236801
_cell_angle_gamma 72.559529
_cell_volume 711.002986
_symmetry_space_group_name_H-M "P -1"
_symmetry_group_IT_number 2
_symmetry_cell_setting 'triclinic'
loop_
_space_group_symop_operation_xyz
x,y,z
-x,-y,-z
loop_
_atom_site_type_symbol
_atom_site_label
_atom_site_fract_x
_atom_site_fract_y
_atom_site_fract_z
Si Si1 0.535439 0.172556 0.385214
Si Si2 0.365238 0.362363 0.491537
Si Si3 0.399402 0.663818 0.753299
Si Si4 0.078468 0.918127 0.713980
Si Si5 0.834745 0.880359 0.103052
Si Si6 0.496033 0.886683 0.442020
Si Si7 0.818277 0.495752 0.494371
Si Si8 0.837202 0.809914 0.259714
O O1 0.437583 0.310317 0.550308
O O2 0.730738 0.156724 0.376093
O O3 0.480980 0.204985 0.595320
O O4 0.500000 0.000000 0.000000
O O5 0.524519 0.308176 0.319503
O O6 0.281041 0.512291 0.687941
O O7 0.212393 0.275444 0.271068
O O8 0.500000 0.500000 0.500000
O O9 0.215101 0.637003 0.679552
O O10 0.428320 0.792810 0.121184
O O11 0.970139 0.803593 0.395188
O O12 0.079559 0.040925 0.838325
O O13 0.000000 0.000000 0.000000
O O14 0.905962 0.861898 0.235043
O O15 0.649837 0.975481 0.278003
O O16 0.671161 0.918347 0.495270
O O17 0.000000 0.500000 0.500000
O O18 0.775919 0.654761 0.890807
#
# Coordination Sequence:
#
# PCOD9106958 Si02
#       8
#     2   2   2   2   2   2   2   2
#     4  11  22  40  60  91 130 165 200 240 312 390
#     4  10  20  42  64  90 123 160 213 251 305 372
#     4  10  20  40  62  89 114 165 216 249 295 352
#     4  11  24  37  57  90 135 165 188 250 317 374
#     4  10  21  37  60  96 120 160 207 250 314 378
#     4  11  20  35  66  87 128 159 200 254 307 368
#     4  10  23  42  67  89 123 157 214 270 301 345
#     4  11  22  39  61  93 122 157 209 261 310 359
#
# _framework density 22.503419999999998
#
# number of rings (size 3 to 8) (size 9 to 14) (size 15 to 20)
#    0.000    1.500    6.250    1.500    3.500    0.000 
#    4.500    2.500    0.000    1.500    0.000    0.000 
#    0.000    0.000    0.000    0.000    0.000    0.000 
#
# Total GULP energy -89139.145226 kJ/mol
# GULP energy per Si atom -5571.196577 kJ/mol
# Density = 2.245220 g / cm^3
# Si number density = 22.503420 Si / 1000 Ang^3
#
#
#
# Elastic Constant Matrix: (Units=GPa)
#
#
# Indices 1 2 3 4 5 6 
#
# 1 93.8028 20.6769 19.9301 -11.4067 10.2580 13.8288
# 2 20.6769 115.2034 11.5890 -29.0887 0.5972 4.0372
# 3 19.9301 11.5890 17.5128 -8.4380 4.1701 -5.7354
# 4 -11.4067 -29.0887 -8.4380 29.5782 3.0172 -0.8103
# 5 10.2580 0.5972 4.1701 3.0172 31.4554 -6.3177
# 6 13.8288 4.0372 -5.7354 -0.8103 -6.3177 39.1731
#
#
#
# Elastic Compliance Matrix: (Units=1/GPa)
#
#
# Indices 1 2 3 4 5 6 
#
# 1 0.017354 -0.000510 -0.021373 0.000315 -0.004851 -0.009979
# 2 -0.000510 0.011778 -0.002158 0.010845 -0.001072 -0.001298
# 3 -0.021373 -0.002158 0.100275 0.019224 -0.003656 0.022257
# 4 0.000315 0.010845 0.019224 0.050879 -0.007449 0.001437
# 5 -0.004851 -0.001072 -0.003656 -0.007449 0.035986 0.006937
# 6 -0.009979 -0.001298 0.022257 0.001437 0.006937 0.033591
#
#
# Mechanical properties :
#
#
# Convention : Reuss Voigt Hill
#
# Bulk Modulus (GPa) = 12.29649 36.76790 24.53220
# Shear Modulus (GPa) = 15.38203 31.66285 23.52244
#
# Velocity S-wave (km/s) = 2.61730 3.75510 3.23659
# Velocity P-wave (km/s) = 3.82228 5.93088 4.98925
#
# Compressibility (1/GPa) = 0.08132401
#
# Stress axis : x y z
#
# Youngs Moduli (GPa) = 57.62322 84.90170 9.97259
#
# Poissons Ratio (x) = 0.04333 0.21315
# Poissons Ratio (y) = 0.02941 0.02152
# Poissons Ratio (z) = 1.23159 0.18323
#
# Static dielectric constant tensor:
#      x y z
#    x 1.977530 -0.028910 -0.036980 
#    y -0.028910 1.907140 0.054580 
#    z -0.036980 0.054580 1.891740 
# 
# From -- ./inp_files/223701.got.cif
#   From: 2010.05.17/outbox.cif.g08.bks.cpg/sg2_112_cif.got.tgz:223701.got - 2010.06.03 11:33:40.
