data_PCOD9106798
_publ_section_title
;
Structure prediction by ZEFSAII (Michael W. Deem and Ramdas Pophale) SiO2 
 PCOD9106798
Probable space group: P -1
;
_chemical_formula_sum "Si O2"
_cell_formula_units_Z 16
_cell_length_a 11.386877
_cell_length_b 11.151368
_cell_length_c 22.146764
_cell_angle_alpha 41.310773
_cell_angle_beta 157.000261
_cell_angle_gamma 139.266406
_cell_volume 700.972703
_symmetry_space_group_name_H-M "P -1"
_symmetry_group_IT_number 2
_symmetry_cell_setting 'triclinic'
loop_
_space_group_symop_operation_xyz
x,y,z
-x,-y,-z
loop_
_atom_site_type_symbol
_atom_site_label
_atom_site_fract_x
_atom_site_fract_y
_atom_site_fract_z
Si Si1 0.317095 0.959906 0.691621
Si Si2 0.445996 0.890814 0.371007
Si Si3 0.567510 0.827275 0.647191
Si Si4 0.433606 0.559033 0.169881
Si Si5 0.490078 0.644968 0.306294
Si Si6 0.902828 0.369548 0.606360
Si Si7 0.194161 0.860625 0.881419
Si Si8 0.972035 0.685466 0.717634
O O1 0.553274 0.999067 0.732156
O O2 0.445533 0.136971 0.729603
O O3 0.221203 0.754298 0.755313
O O4 0.000000 0.000000 0.500000
O O5 0.136443 0.755603 0.304297
O O6 0.676560 0.755969 0.528265
O O7 0.572586 0.045184 0.424080
O O8 0.645344 0.664222 0.785422
O O9 0.351363 0.733155 0.525343
O O10 0.900499 0.929416 0.739117
O O11 0.447785 0.619347 0.223925
O O12 0.770137 0.611028 0.277565
O O13 0.208739 0.659665 0.991164
O O14 0.789133 0.558958 0.493816
O O15 0.199178 0.516521 0.256605
O O16 0.139910 0.818537 0.801394
O O17 0.500000 0.000000 0.000000
#
# Coordination Sequence:
#
# PCOD9106798 Si02
#       8
#     2   2   2   2   2   2   2   2
#     4  10  23  35  60  92 119 162 211 252 300 356
#     4  10  21  37  58  89 121 156 201 252 302 348
#     4  11  21  37  60  88 129 150 195 260 305 366
#     4  11  23  36  63  94 122 158 200 240 323 369
#     4  10  20  40  61  87 129 160 199 258 302 360
#     4  10  21  35  63  90 122 158 195 254 317 356
#     4  12  23  37  61  92 124 163 198 250 310 376
#     4  10  22  39  59  89 123 163 203 252 304 362
#
# _framework density 22.825424999999999
#
# number of rings (size 3 to 8) (size 9 to 14) (size 15 to 20)
#    0.000    1.500    3.750    3.750    8.750    4.500 
#    0.000    0.000    0.000    7.500    0.000    0.000 
#    0.000    0.000    0.000    0.000    0.000    0.000 
#
# Total GULP energy -89248.434139 kJ/mol
# GULP energy per Si atom -5578.027134 kJ/mol
# Density = 2.277347 g / cm^3
# Si number density = 22.825425 Si / 1000 Ang^3
#
#
#
# Elastic Constant Matrix: (Units=GPa)
#
#
# Indices 1 2 3 4 5 6 
#
# 1 111.3185 22.2981 13.1801 -0.4475 -4.3197 40.3443
# 2 22.2981 65.0229 6.2089 1.5816 4.3519 20.4952
# 3 13.1801 6.2089 39.9089 5.3830 9.6141 14.2271
# 4 -0.4475 1.5816 5.3830 36.8065 8.0774 0.2781
# 5 -4.3197 4.3519 9.6141 8.0774 20.2946 -1.7685
# 6 40.3443 20.4952 14.2271 0.2781 -1.7685 40.2034
#
#
#
# Elastic Compliance Matrix: (Units=1/GPa)
#
#
# Indices 1 2 3 4 5 6 
#
# 1 0.014205 -0.000652 -0.000168 -0.000130 0.002095 -0.013770
# 2 -0.000652 0.018991 0.002362 0.000297 -0.006332 -0.010144
# 3 -0.000168 0.002362 0.034026 -0.001155 -0.017407 -0.013834
# 4 -0.000130 0.000297 -0.001155 0.029839 -0.011448 -0.000322
# 5 0.002095 -0.006332 -0.017407 -0.011448 0.064771 0.010214
# 6 -0.013770 -0.010144 -0.013834 -0.000322 0.010214 0.049210
#
#
# Mechanical properties :
#
#
# Convention : Reuss Voigt Hill
#
# Bulk Modulus (GPa) = 14.22343 33.29162 23.75753
# Shear Modulus (GPa) = 21.60827 31.09843 26.35335
#
# Velocity S-wave (km/s) = 3.08015 3.69514 3.40157
# Velocity P-wave (km/s) = 4.34680 5.72908 5.08513
#
# Compressibility (1/GPa) = 0.07030655
#
# Stress axis : x y z
#
# Youngs Moduli (GPa) = 70.39757 52.65626 29.38914
#
# Poissons Ratio (x) = 0.03433 0.00494
# Poissons Ratio (y) = 0.04590 -0.06943
# Poissons Ratio (z) = 0.01184 -0.12439
#
# Static dielectric constant tensor:
#      x y z
#    x 1.927480 0.072890 0.004660 
#    y 0.072890 1.952690 0.000480 
#    z 0.004660 0.000480 1.796960 
# 
# From -- ./inp_files/218945.got.cif
#   From: 2010.05.17/outbox.cif.g08.bks.cpg/sg2_110_cif.got.tgz:218945.got - 2010.06.03 11:33:40.
