data_PCOD9106436
_publ_section_title
;
Structure prediction by ZEFSAII (Michael W. Deem and Ramdas Pophale) SiO2 
 PCOD9106436
Probable space group: P -1
;
_chemical_formula_sum "Si O2"
_cell_formula_units_Z 16
_cell_length_a 13.565116
_cell_length_b 7.572371
_cell_length_c 9.541064
_cell_angle_alpha 97.775107
_cell_angle_beta 97.594506
_cell_angle_gamma 38.023299
_cell_volume 597.622595
_symmetry_space_group_name_H-M "P -1"
_symmetry_group_IT_number 2
_symmetry_cell_setting 'triclinic'
loop_
_space_group_symop_operation_xyz
x,y,z
-x,-y,-z
loop_
_atom_site_type_symbol
_atom_site_label
_atom_site_fract_x
_atom_site_fract_y
_atom_site_fract_z
Si Si1 0.412090 0.043428 0.664247
Si Si2 0.735111 0.417639 0.223067
Si Si3 0.379689 0.557513 0.383575
Si Si4 0.907614 0.346375 0.984620
Si Si5 0.775540 0.896040 0.887067
Si Si6 0.055560 0.883879 0.327158
Si Si7 0.140897 0.384036 0.420739
Si Si8 0.413942 0.749627 0.859513
O O1 0.410865 0.251738 0.722496
O O2 0.425671 0.283677 0.382080
O O3 0.287327 0.192836 0.534372
O O4 0.358998 0.999045 0.784644
O O5 0.799298 0.410569 0.090464
O O6 0.693552 0.270233 0.192960
O O7 0.882922 0.217765 0.337395
O O8 0.500000 0.500000 0.500000
O O9 0.192414 0.826223 0.398812
O O10 0.422411 0.524696 0.223489
O O11 0.823294 0.640780 0.940313
O O12 0.922634 0.189989 0.841628
O O13 0.081485 0.168034 0.051845
O O14 0.612937 0.174438 0.973596
O O15 0.074654 0.662201 0.374064
O O16 0.204915 0.172816 0.280685
O O17 0.000000 0.500000 0.500000
#
# Coordination Sequence:
#
# PCOD9106436 Si02
#       8
#     2   2   2   2   2   2   2   2
#     4  10  25  46  74 101 151 194 249 293 378 448
#     4  12  22  44  79 109 140 192 254 312 367 444
#     4  10  26  52  70 100 158 202 240 309 379 444
#     4  10  20  39  70 106 147 183 242 301 382 422
#     4  10  20  41  71 107 152 187 239 322 367 435
#     4  11  25  42  73 111 150 189 252 307 372 441
#     4  11  24  41  71 118 150 192 248 314 376 442
#     4  10  23  47  76 103 147 198 245 310 369 442
#
# _framework density 26.772749000000001
#
# number of rings (size 3 to 8) (size 9 to 14) (size 15 to 20)
#    0.750    0.750    2.500    1.875    3.500    3.000 
#    0.000    6.250    0.000    0.000    0.000    0.000 
#    0.000    0.000    0.000    0.000    0.000    0.000 
#
# Total GULP energy -89621.847667 kJ/mol
# GULP energy per Si atom -5601.365479 kJ/mol
# Density = 2.671181 g / cm^3
# Si number density = 26.772749 Si / 1000 Ang^3
#
#
#
# Elastic Constant Matrix: (Units=GPa)
#
#
# Indices 1 2 3 4 5 6 
#
# 1 103.0806 20.9509 43.4551 -0.4266 1.1192 5.9264
# 2 20.9509 111.7268 24.3664 -0.6219 -5.0067 18.5062
# 3 43.4551 24.3664 201.8488 3.9890 -6.7069 5.9309
# 4 -0.4266 -0.6219 3.9890 50.6736 9.6521 -2.1361
# 5 1.1192 -5.0067 -6.7069 9.6521 50.1186 -3.8384
# 6 5.9264 18.5062 5.9309 -2.1361 -3.8384 29.3554
#
#
#
# Elastic Compliance Matrix: (Units=1/GPa)
#
#
# Indices 1 2 3 4 5 6 
#
# 1 0.010988 -0.001462 -0.002196 0.000366 -0.000827 -0.000935
# 2 -0.001462 0.010414 -0.000743 -0.000185 0.000545 -0.006062
# 3 -0.002196 -0.000743 0.005561 -0.000630 0.000829 -0.000149
# 4 0.000366 -0.000185 -0.000630 0.020593 -0.003989 0.001147
# 5 -0.000827 0.000545 0.000829 -0.003989 0.021067 0.002120
# 6 -0.000935 -0.006062 -0.000149 0.001147 0.002120 0.038467
#
#
# Mechanical properties :
#
#
# Convention : Reuss Voigt Hill
#
# Bulk Modulus (GPa) = 55.05994 66.02233 60.54113
# Shear Modulus (GPa) = 41.00198 47.88845 44.44522
#
# Velocity S-wave (km/s) = 3.91766 4.23389 4.07884
# Velocity P-wave (km/s) = 6.40893 6.97244 6.69662
#
# Compressibility (1/GPa) = 0.01816203
#
# Stress axis : x y z
#
# Youngs Moduli (GPa) = 91.00497 96.02477 179.82137
#
# Poissons Ratio (x) = 0.14036 0.39497
# Poissons Ratio (y) = 0.13302 0.13353
# Poissons Ratio (z) = 0.19989 0.07130
#
# Static dielectric constant tensor:
#      x y z
#    x 2.057550 -0.037270 -0.026290 
#    y -0.037270 2.189800 0.033960 
#    z -0.026290 0.033960 2.108530 
# 
# From -- ./inp_files/79664.got.cif
#   From: 2010.05.17/outbox.cif.g08.bks.cpg/sg2_40_cif.got.tgz:79664.got - 2010.06.03 11:33:40.
