data_PCOD9106260
_publ_section_title
;
Structure prediction by ZEFSAII (Michael W. Deem and Ramdas Pophale) SiO2 
 PCOD9106260
Probable space group: P -1
;
_chemical_formula_sum "Si O2"
_cell_formula_units_Z 16
_cell_length_a 14.449051
_cell_length_b 9.329491
_cell_length_c 12.744696
_cell_angle_alpha 147.583859
_cell_angle_beta 47.895610
_cell_angle_gamma 118.772550
_cell_volume 667.623237
_symmetry_space_group_name_H-M "P -1"
_symmetry_group_IT_number 2
_symmetry_cell_setting 'triclinic'
loop_
_space_group_symop_operation_xyz
x,y,z
-x,-y,-z
loop_
_atom_site_type_symbol
_atom_site_label
_atom_site_fract_x
_atom_site_fract_y
_atom_site_fract_z
Si Si1 0.996695 0.783919 0.963334
Si Si2 0.155018 0.026067 0.596027
Si Si3 0.692426 0.899854 0.655085
Si Si4 0.471774 0.489692 0.848151
Si Si5 0.469161 0.631308 0.716606
Si Si6 0.212360 0.969369 0.025028
Si Si7 0.311752 0.411963 0.107346
Si Si8 0.946815 0.802097 0.532667
O O1 0.986294 0.495365 0.743395
O O2 0.133119 0.762425 0.906192
O O3 0.000000 0.000000 0.000000
O O4 0.890314 0.873986 0.191143
O O5 0.210978 0.698366 0.349443
O O6 0.028668 0.036198 0.626549
O O7 0.255294 0.170948 0.548192
O O8 0.594187 0.763202 0.711176
O O9 0.820372 0.888897 0.614429
O O10 0.612557 0.205076 0.894824
O O11 0.473441 0.428978 0.686412
O O12 0.604569 0.515900 0.814229
O O13 0.400850 0.336962 0.890921
O O14 0.500000 0.500000 0.500000
O O15 0.330348 0.826458 0.920904
O O16 0.262283 0.143349 0.005877
O O17 0.109672 0.195773 0.305798
#
# Coordination Sequence:
#
# PCOD9106260 Si02
#       8
#     2   2   2   2   2   2   2   2
#     4  11  24  42  64  96 132 173 219 270 326 385
#     4  10  24  41  63  98 131 168 221 269 322 390
#     4  11  21  42  66  92 129 171 214 268 327 389
#     4  10  21  40  67  92 128 176 217 267 325 394
#     4  12  24  41  63 100 133 170 216 269 333 393
#     4  11  22  41  68  97 130 169 222 267 319 400
#     4  10  20  39  68  94 128 174 222 263 329 386
#     4  11  22  41  69  93 129 175 216 268 329 380
#
# _framework density 23.965612
#
# number of rings (size 3 to 8) (size 9 to 14) (size 15 to 20)
#    0.000    1.250    2.500    3.750    0.000    3.500 
#    6.750    0.625    0.000    0.000    0.000    0.000 
#    0.000    0.000    0.000    0.000    0.000    0.000 
#
# Total GULP energy -89302.820857 kJ/mol
# GULP energy per Si atom -5581.426304 kJ/mol
# Density = 2.391106 g / cm^3
# Si number density = 23.965612 Si / 1000 Ang^3
#
#
#
# Elastic Constant Matrix: (Units=GPa)
#
#
# Indices 1 2 3 4 5 6 
#
# 1 99.0436 13.8059 23.0662 -9.9865 1.9646 -10.4955
# 2 13.8059 55.0129 7.7972 -18.9926 17.3375 -8.1381
# 3 23.0662 7.7972 93.9701 -16.6057 21.7752 -3.3859
# 4 -9.9865 -18.9926 -16.6057 43.9861 -5.8747 -5.5743
# 5 1.9646 17.3375 21.7752 -5.8747 38.3589 -6.2087
# 6 -10.4955 -8.1381 -3.3859 -5.5743 -6.2087 30.2653
#
#
#
# Elastic Compliance Matrix: (Units=1/GPa)
#
#
# Indices 1 2 3 4 5 6 
#
# 1 0.011616 -0.002384 -0.002965 0.001389 0.003015 0.003930
# 2 -0.002384 0.026749 0.003185 0.011589 -0.010930 0.006614
# 3 -0.002965 0.003185 0.013930 0.004919 -0.008348 0.000580
# 4 0.001389 0.011589 0.004919 0.030863 -0.001845 0.009454
# 5 0.003015 -0.010930 -0.008348 -0.001845 0.035994 0.004217
# 6 0.003930 0.006614 0.000580 0.009454 0.004217 0.038854
#
#
# Mechanical properties :
#
#
# Convention : Reuss Voigt Hill
#
# Bulk Modulus (GPa) = 20.84801 37.48502 29.16652
# Shear Modulus (GPa) = 28.03912 36.07921 32.05916
#
# Velocity S-wave (km/s) = 3.42420 3.88423 3.66145
# Velocity P-wave (km/s) = 4.93473 5.98260 5.48375
#
# Compressibility (1/GPa) = 0.04796621
#
# Stress axis : x y z
#
# Youngs Moduli (GPa) = 86.08738 37.38506 71.78834
#
# Poissons Ratio (x) = 0.08913 0.21285
# Poissons Ratio (y) = 0.20523 -0.22863
# Poissons Ratio (z) = 0.25525 -0.11906
#
# Static dielectric constant tensor:
#      x y z
#    x 2.028750 -0.008310 -0.049380 
#    y -0.008310 1.923180 -0.170950 
#    z -0.049380 -0.170950 1.909880 
# 
# From -- ./inp_files/272593.got.cif
#   From: 2010.05.17/outbox.cif.g08.bks.cpg/sg2_137_cif.got.tgz:272593.got - 2010.06.03 11:33:40.
