data_PCOD9106342
_publ_section_title
;
Structure prediction by ZEFSAII (Michael W. Deem and Ramdas Pophale) SiO2 
 PCOD9106342
Probable space group: P -1
;
_chemical_formula_sum "Si O2"
_cell_formula_units_Z 14
_cell_length_a 16.696652
_cell_length_b 13.438498
_cell_length_c 9.883717
_cell_angle_alpha 133.203877
_cell_angle_beta 57.265019
_cell_angle_gamma 155.548733
_cell_volume 643.645245
_symmetry_space_group_name_H-M "P -1"
_symmetry_group_IT_number 2
_symmetry_cell_setting 'triclinic'
loop_
_space_group_symop_operation_xyz
x,y,z
-x,-y,-z
loop_
_atom_site_type_symbol
_atom_site_label
_atom_site_fract_x
_atom_site_fract_y
_atom_site_fract_z
Si Si1 0.041050 0.404701 0.307376
Si Si2 0.587222 0.319143 0.710619
Si Si3 0.478973 0.798305 0.021359
Si Si4 0.843527 0.887263 0.946225
Si Si5 0.042082 0.161088 0.727779
Si Si6 0.833734 0.173120 0.851066
Si Si7 0.671284 0.111451 0.700844
O O1 0.219191 0.540249 0.341278
O O2 0.129031 0.554966 0.219381
O O3 0.000000 0.500000 0.500000
O O4 0.861154 0.067752 0.143841
O O5 0.644853 0.546902 0.831324
O O6 0.431213 0.066689 0.509190
O O7 0.519279 0.224857 0.840557
O O8 0.276464 0.475533 0.845157
O O9 0.673378 0.990070 0.946341
O O10 0.461807 0.940828 0.154280
O O11 0.922934 0.979400 0.806253
O O12 0.000000 0.000000 0.000000
O O13 0.951448 0.183732 0.770655
O O14 0.000000 0.000000 0.500000
O O15 0.716782 0.045847 0.697925
O O16 0.000000 0.500000 0.000000
#
# Coordination Sequence:
#
# PCOD9106342 Si02
#       7
#     2   2   2   2   2   2   2
#     4  10  20  39  69 103 139 180 233 289 352 417
#     4  10  23  43  72 101 142 183 232 298 355 412
#     4  11  23  49  72 101 146 184 237 303 351 415
#     4  10  20  44  71  97 140 185 232 285 355 416
#     4  12  27  46  72 104 147 188 234 298 356 422
#     4  12  27  46  73 100 139 192 240 286 358 430
#     4  11  23  43  70 106 137 188 237 288 357 416
#
# _framework density 21.751111999999999
#
# number of rings (size 3 to 8) (size 9 to 14) (size 15 to 20)
#    0.000    1.143    5.714    2.143    2.000    7.429 
#    0.000    1.429    0.000    0.000    0.000    0.000 
#    0.000    0.000    0.000    0.000    0.000    0.000 
#
# Total GULP energy -78288.268621 kJ/mol
# GULP energy per Si atom -5592.019187 kJ/mol
# Density = 2.170161 g / cm^3
# Si number density = 21.751112 Si / 1000 Ang^3
#
#
#
# Elastic Constant Matrix: (Units=GPa)
#
#
# Indices 1 2 3 4 5 6 
#
# 1 125.1560 47.0546 77.7360 3.5970 -1.1037 -14.2227
# 2 47.0546 99.2675 55.1939 8.3824 -7.9746 -4.4093
# 3 77.7360 55.1939 169.7487 7.8584 -1.7579 -4.8388
# 4 3.5970 8.3824 7.8584 22.7995 2.2821 -5.2550
# 5 -1.1037 -7.9746 -1.7579 2.2821 48.7499 2.3767
# 6 -14.2227 -4.4093 -4.8388 -5.2550 2.3767 33.9264
#
#
#
# Elastic Compliance Matrix: (Units=1/GPa)
#
#
# Indices 1 2 3 4 5 6 
#
# 1 0.012606 -0.003429 -0.004628 0.001990 -0.000757 0.004540
# 2 -0.003429 0.013680 -0.002693 -0.003979 0.002289 -0.000820
# 3 -0.004628 -0.002693 0.008925 -0.001639 -0.000085 -0.001265
# 4 0.001990 -0.003979 -0.001639 0.047676 -0.003272 0.007697
# 5 -0.000757 0.002289 -0.000085 -0.003272 0.021119 -0.002018
# 6 0.004540 -0.000820 -0.001265 0.007697 -0.002018 0.032425
#
#
# Mechanical properties :
#
#
# Convention : Reuss Voigt Hill
#
# Bulk Modulus (GPa) = 72.94027 83.79348 78.36688
# Shear Modulus (GPa) = 30.76854 35.37433 33.07144
#
# Velocity S-wave (km/s) = 3.76516 4.03714 3.90352
# Velocity P-wave (km/s) = 7.24629 7.76780 7.51158
#
# Compressibility (1/GPa) = 0.01370985
#
# Stress axis : x y z
#
# Youngs Moduli (GPa) = 79.32594 73.09840 112.04105
#
# Poissons Ratio (x) = 0.25067 0.51858
# Poissons Ratio (y) = 0.27203 0.30175
# Poissons Ratio (z) = 0.36716 0.19687
#
# Static dielectric constant tensor:
#      x y z
#    x 1.813340 0.043550 0.003410 
#    y 0.043550 1.824960 0.011300 
#    z 0.003410 0.011300 1.792930 
# 
# From -- ./inp_files/308494.got.cif
#   From: 2010.05.17/outbox.cif.g08.bks.cpg/sg2_155_cif.got.tgz:308494.got - 2010.06.03 11:33:40.
