data_PCOD9106014
_publ_section_title
;
Structure prediction by ZEFSAII (Michael W. Deem and Ramdas Pophale) SiO2 
 PCOD9106014
Probable space group: P -1
;
_chemical_formula_sum "Si O2"
_cell_formula_units_Z 13
_cell_length_a 7.669347
_cell_length_b 8.044230
_cell_length_c 13.051055
_cell_angle_alpha 57.030744
_cell_angle_beta 54.473854
_cell_angle_gamma 50.272552
_cell_volume 484.392064
_symmetry_space_group_name_H-M "P -1"
_symmetry_group_IT_number 2
_symmetry_cell_setting 'triclinic'
loop_
_space_group_symop_operation_xyz
x,y,z
-x,-y,-z
loop_
_atom_site_type_symbol
_atom_site_label
_atom_site_fract_x
_atom_site_fract_y
_atom_site_fract_z
Si Si1 0.710947 0.454555 0.861673
Si Si2 0.188894 0.820952 0.416743
Si Si3 0.000000 0.500000 0.000000
Si Si4 0.634932 0.660031 0.464742
Si Si5 0.355044 0.641270 0.755614
Si Si6 0.684751 0.857690 0.837064
Si Si7 0.203640 0.051198 0.813113
O O1 0.604590 0.462734 0.783899
O O2 0.772556 0.659534 0.786636
O O3 0.941325 0.222338 0.886302
O O4 0.500000 0.500000 0.000000
O O5 0.463131 0.702045 0.409689
O O6 0.163423 0.595745 0.493406
O O7 0.199288 0.976150 0.270263
O O8 0.000000 0.000000 0.500000
O O9 0.757127 0.718871 0.963249
O O10 0.167875 0.544657 0.840921
O O11 0.440647 0.730247 0.599903
O O12 0.750822 0.816649 0.341588
O O13 0.232369 0.828266 0.823448
O O14 0.401806 0.991748 0.855280
#
# Coordination Sequence:
#
# PCOD9106014 Si02
#       7
#     2   2   1   2   2   2   2
#     4  11  23  47  66  98 138 186 237 280 339 419
#     4  10  20  39  67 100 141 182 217 282 354 407
#     4  12  24  46  64 100 148 176 232 292 328 422
#     4  10  22  42  68 107 137 174 237 284 341 418
#     4  11  25  43  68 102 141 185 230 288 342 412
#     4  10  23  42  68  99 134 185 228 283 344 409
#     4  10  24  45  74  98 137 188 230 289 352 408
#
# _framework density 26.837764
#
# number of rings (size 3 to 8) (size 9 to 14) (size 15 to 20)
#    0.000    1.538    1.538    2.308    0.000    8.000 
#    2.769    3.846    0.000    0.000    0.000    0.000 
#    0.000    0.000    0.000    0.000    0.000    0.000 
#
# Total GULP energy -72468.881476 kJ/mol
# GULP energy per Si atom -5574.529344 kJ/mol
# Density = 2.677668 g / cm^3
# Si number density = 26.837764 Si / 1000 Ang^3
#
#
#
# Elastic Constant Matrix: (Units=GPa)
#
#
# Indices 1 2 3 4 5 6 
#
# 1 68.8535 23.9723 24.4534 -8.8027 5.7980 -26.2966
# 2 23.9723 163.3282 30.0059 -3.5458 -3.5208 -28.3623
# 3 24.4534 30.0059 159.1403 -2.4385 6.6185 -20.2792
# 4 -8.8027 -3.5458 -2.4385 44.8212 -14.4648 10.1239
# 5 5.7980 -3.5208 6.6185 -14.4648 28.2672 -8.6873
# 6 -26.2966 -28.3623 -20.2792 10.1239 -8.6873 40.4286
#
#
#
# Elastic Compliance Matrix: (Units=1/GPa)
#
#
# Indices 1 2 3 4 5 6 
#
# 1 0.019761 -0.000606 -0.001459 0.001293 0.000396 0.011457
# 2 -0.000606 0.007264 -0.000770 0.000225 0.002819 0.004865
# 3 -0.001459 -0.000770 0.006938 -0.000806 -0.001242 0.001926
# 4 0.001293 0.000225 -0.000806 0.027511 0.012950 -0.003512
# 5 0.000396 0.002819 -0.001242 0.012950 0.045037 0.008047
# 6 0.011457 0.004865 0.001926 -0.003512 0.008047 0.039175
#
#
# Mechanical properties :
#
#
# Convention : Reuss Voigt Hill
#
# Bulk Modulus (GPa) = 35.34626 60.90949 48.12788
# Shear Modulus (GPa) = 31.09723 43.56277 37.33000
#
# Velocity S-wave (km/s) = 3.40768 4.03325 3.73359
# Velocity P-wave (km/s) = 5.35555 6.66590 6.04633
#
# Compressibility (1/GPa) = 0.02829153
#
# Stress axis : x y z
#
# Youngs Moduli (GPa) = 50.60592 137.67426 144.13689
#
# Poissons Ratio (x) = 0.08345 0.21026
# Poissons Ratio (y) = 0.03067 0.11103
# Poissons Ratio (z) = 0.07382 0.10605
#
# Static dielectric constant tensor:
#      x y z
#    x 2.231520 0.086650 -0.063710 
#    y 0.086650 2.204240 -0.042500 
#    z -0.063710 -0.042500 2.127010 
# 
# From -- ./inp_files/297064.got.cif
#   From: 2010.05.17/outbox.cif.g08.bks.cpg/sg2_149_cif.got.tgz:297064.got - 2010.06.03 11:33:40.
