data_PCOD9106010
_publ_section_title
;
Structure prediction by ZEFSAII (Michael W. Deem and Ramdas Pophale) SiO2 
 PCOD9106010
Probable space group: P -1
;
_chemical_formula_sum "Si O2"
_cell_formula_units_Z 16
_cell_length_a 14.095046
_cell_length_b 14.749146
_cell_length_c 13.651309
_cell_angle_alpha 34.981537
_cell_angle_beta 28.398365
_cell_angle_gamma 31.416035
_cell_volume 676.051271
_symmetry_space_group_name_H-M "P -1"
_symmetry_group_IT_number 2
_symmetry_cell_setting 'triclinic'
loop_
_space_group_symop_operation_xyz
x,y,z
-x,-y,-z
loop_
_atom_site_type_symbol
_atom_site_label
_atom_site_fract_x
_atom_site_fract_y
_atom_site_fract_z
Si Si1 0.831316 0.144876 0.394562
Si Si2 0.406381 0.643364 0.045736
Si Si3 0.481804 0.489327 0.327824
Si Si4 0.052862 0.743207 0.607108
Si Si5 0.683494 0.913904 0.052470
Si Si6 0.353244 0.283467 0.912459
Si Si7 0.470327 0.997437 0.666217
Si Si8 0.102314 0.112518 0.749205
O O1 0.617197 0.276430 0.407747
O O2 0.823746 0.211965 0.454743
O O3 0.891588 0.937267 0.532294
O O4 0.052851 0.140982 0.148067
O O5 0.498535 0.551584 0.148599
O O6 0.131160 0.726492 0.222825
O O7 0.500000 0.500000 0.000000
O O8 0.472029 0.803030 0.827715
O O9 0.223483 0.599993 0.502110
O O10 0.608016 0.555201 0.232632
O O11 0.890015 0.677985 0.860752
O O12 0.544939 0.104059 0.952001
O O13 0.601091 0.945891 0.208684
O O14 0.640511 0.770582 0.157761
O O15 0.708556 0.977771 0.428374
O O16 0.261316 0.137854 0.662986
O O17 0.000000 0.000000 0.000000
#
# Coordination Sequence:
#
# PCOD9106010 Si02
#       8
#     2   2   2   2   2   2   2   2
#     4  10  22  41  68  98 141 184 228 280 336 415
#     4  11  25  42  64  96 138 176 228 288 347 403
#     4  12  24  44  68  98 142 184 229 288 342 408
#     4  10  22  43  65  98 138 186 229 279 339 406
#     4  10  20  39  67 100 131 178 218 277 343 411
#     4  10  22  41  67  98 141 179 224 278 341 414
#     4  10  20  44  72  97 128 179 223 287 349 409
#     4   9  22  43  72  97 126 169 232 283 344 411
#
# _framework density 23.666844000000001
#
# number of rings (size 3 to 8) (size 9 to 14) (size 15 to 20)
#    0.000    1.750    2.500    0.375    5.250    2.500 
#    4.500    0.000    0.000    0.000    0.000    0.000 
#    0.000    0.000    0.000    0.000    0.000    0.000 
#
# Total GULP energy -89564.952623 kJ/mol
# GULP energy per Si atom -5597.809539 kJ/mol
# Density = 2.361298 g / cm^3
# Si number density = 23.666844 Si / 1000 Ang^3
#
#
#
# Elastic Constant Matrix: (Units=GPa)
#
#
# Indices 1 2 3 4 5 6 
#
# 1 85.1049 44.7362 42.5950 0.1046 34.1859 18.8640
# 2 44.7362 81.1185 33.8152 -3.5263 9.1344 2.3340
# 3 42.5950 33.8152 134.8369 21.8096 15.4250 14.9673
# 4 0.1046 -3.5263 21.8096 30.3730 5.3587 11.2057
# 5 34.1859 9.1344 15.4250 5.3587 41.1995 2.9353
# 6 18.8640 2.3340 14.9673 11.2057 2.9353 44.5021
#
#
#
# Elastic Compliance Matrix: (Units=1/GPa)
#
#
# Indices 1 2 3 4 5 6 
#
# 1 0.033118 -0.012751 -0.004914 0.010805 -0.023300 -0.012901
# 2 -0.012751 0.019491 -0.002299 0.001150 0.006655 0.004428
# 3 -0.004914 -0.002299 0.010648 -0.008421 0.001651 0.000634
# 4 0.010805 0.001150 -0.008421 0.045667 -0.011111 -0.012574
# 5 -0.023300 0.006655 0.001651 -0.011111 0.042317 0.008979
# 6 -0.012901 0.004428 0.000634 -0.012574 0.008979 0.030068
#
#
# Mechanical properties :
#
#
# Convention : Reuss Voigt Hill
#
# Bulk Modulus (GPa) = 42.86543 60.37257 51.61900
# Shear Modulus (GPa) = 21.83266 35.20917 28.52092
#
# Velocity S-wave (km/s) = 3.04056 3.86126 3.47522
# Velocity P-wave (km/s) = 5.52069 6.74120 6.16124
#
# Compressibility (1/GPa) = 0.02332882
#
# Stress axis : x y z
#
# Youngs Moduli (GPa) = 30.19490 51.30468 93.91255
#
# Poissons Ratio (x) = 0.65420 0.46152
# Poissons Ratio (y) = 0.38502 0.21589
# Poissons Ratio (z) = 0.14839 0.11794
#
# Static dielectric constant tensor:
#      x y z
#    x 1.892010 -0.017450 -0.024190 
#    y -0.017450 1.952390 -0.018210 
#    z -0.024190 -0.018210 1.909320 
# 
# From -- ./inp_files/533662.got.cif
#   From: 2010.05.17/outbox.cif.g08.bks.cpg/sg2_267_cif.got.tgz:533662.got - 2010.06.03 11:33:40.
