data_PCOD9106085
_publ_section_title
;
Structure prediction by ZEFSAII (Michael W. Deem and Ramdas Pophale) SiO2 
 PCOD9106085
Probable space group: P -1
;
_chemical_formula_sum "Si O2"
_cell_formula_units_Z 14
_cell_length_a 8.916110
_cell_length_b 16.295628
_cell_length_c 14.862613
_cell_angle_alpha 153.887541
_cell_angle_beta 38.206214
_cell_angle_gamma 145.106802
_cell_volume 533.181003
_symmetry_space_group_name_H-M "P -1"
_symmetry_group_IT_number 2
_symmetry_cell_setting 'triclinic'
loop_
_space_group_symop_operation_xyz
x,y,z
-x,-y,-z
loop_
_atom_site_type_symbol
_atom_site_label
_atom_site_fract_x
_atom_site_fract_y
_atom_site_fract_z
Si Si1 0.357595 0.209430 0.691683
Si Si2 0.099831 0.838072 0.751586
Si Si3 0.714334 0.626995 0.445843
Si Si4 0.449324 0.461639 0.222421
Si Si5 0.454267 0.915980 0.824105
Si Si6 0.124155 0.698655 0.928868
Si Si7 0.493061 0.864776 0.257909
O O1 0.542691 0.379245 0.701729
O O2 0.483862 0.225136 0.745869
O O3 0.292574 0.976235 0.460919
O O4 0.105307 0.261406 0.875581
O O5 0.344680 0.857682 0.719086
O O6 0.837685 0.631449 0.683677
O O7 0.222289 0.932037 0.690800
O O8 0.000000 0.000000 0.000000
O O9 0.500000 0.500000 0.500000
O O10 0.650836 0.564234 0.309366
O O11 0.678499 0.838047 0.670733
O O12 0.933447 0.539917 0.277932
O O13 0.518290 0.291818 0.969575
O O14 0.196907 0.796511 0.891314
O O15 0.595373 0.159574 0.013066
#
# Coordination Sequence:
#
# PCOD9106085 Si02
#       7
#     2   2   2   2   2   2   2
#     4  11  24  41  65  98 134 172 209 256 325 389
#     4  10  20  39  67  93 123 164 215 266 314 373
#     4  10  23  40  62  92 122 163 218 264 314 376
#     4  11  23  42  66  95 131 167 211 271 321 373
#     4  10  21  39  63  92 122 166 218 263 314 375
#     4  10  21  40  62  88 130 169 208 264 317 376
#     4  10  23  41  63  98 133 169 214 258 318 386
#
# _framework density 26.257501000000001
#
# number of rings (size 3 to 8) (size 9 to 14) (size 15 to 20)
#    0.000    1.714    0.000    4.714    0.000    6.286 
#    0.000   13.571    0.000    0.000    0.000    0.000 
#    0.000    0.000    0.000    0.000    0.000    0.000 
#
# Total GULP energy -78271.585041 kJ/mol
# GULP energy per Si atom -5590.827503 kJ/mol
# Density = 2.619774 g / cm^3
# Si number density = 26.257501 Si / 1000 Ang^3
#
#
#
# Elastic Constant Matrix: (Units=GPa)
#
#
# Indices 1 2 3 4 5 6 
#
# 1 57.6100 42.6310 8.4985 -8.1164 3.7330 -19.9830
# 2 42.6310 114.9386 7.8651 2.0699 -1.2543 -25.8819
# 3 8.4985 7.8651 153.7883 -0.4068 -6.6355 -4.8514
# 4 -8.1164 2.0699 -0.4068 41.9850 -9.7818 -1.0986
# 5 3.7330 -1.2543 -6.6355 -9.7818 48.4921 -5.2610
# 6 -19.9830 -25.8819 -4.8514 -1.0986 -5.2610 37.2477
#
#
#
# Elastic Compliance Matrix: (Units=1/GPa)
#
#
# Indices 1 2 3 4 5 6 
#
# 1 0.027577 -0.008232 -0.000812 0.005905 -0.000268 0.009105
# 2 -0.008232 0.012835 -0.000014 -0.001850 0.001090 0.004600
# 3 -0.000812 -0.000014 0.006612 0.000171 0.001063 0.000571
# 4 0.005905 -0.001850 0.000171 0.026355 0.005208 0.003418
# 5 -0.000268 0.001090 0.001063 0.005208 0.022307 0.004056
# 6 0.009105 0.004600 0.000571 0.003418 0.004056 0.035677
#
#
# Mechanical properties :
#
#
# Convention : Reuss Voigt Hill
#
# Bulk Modulus (GPa) = 34.59075 49.36959 41.98017
# Shear Modulus (GPa) = 31.42373 43.36776 37.39574
#
# Velocity S-wave (km/s) = 3.46316 4.06844 3.77794
# Velocity P-wave (km/s) = 5.40311 6.39629 5.92056
#
# Compressibility (1/GPa) = 0.02890947
#
# Stress axis : x y z
#
# Youngs Moduli (GPa) = 36.26228 77.90897 151.23157
#
# Poissons Ratio (x) = 0.64132 0.12275
# Poissons Ratio (y) = 0.29850 0.00216
# Poissons Ratio (z) = 0.02943 0.00112
#
# Static dielectric constant tensor:
#      x y z
#    x 2.028300 0.035170 -0.034460 
#    y 0.035170 2.128580 0.005620 
#    z -0.034460 0.005620 2.135530 
# 
# From -- ./inp_files/505660.got.cif
#   From: 2010.05.17/outbox.cif.g08.bks.cpg/sg2_253_cif.got.tgz:505660.got - 2010.06.03 11:33:40.
