data_PCOD9106063
_publ_section_title
;
Structure prediction by ZEFSAII (Michael W. Deem and Ramdas Pophale) SiO2 
 PCOD9106063
Probable space group: P -1
;
_chemical_formula_sum "Si O2"
_cell_formula_units_Z 16
_cell_length_a 12.543090
_cell_length_b 8.898209
_cell_length_c 16.848900
_cell_angle_alpha 80.710938
_cell_angle_beta 154.950698
_cell_angle_gamma 111.429888
_cell_volume 669.047523
_symmetry_space_group_name_H-M "P -1"
_symmetry_group_IT_number 2
_symmetry_cell_setting 'triclinic'
loop_
_space_group_symop_operation_xyz
x,y,z
-x,-y,-z
loop_
_atom_site_type_symbol
_atom_site_label
_atom_site_fract_x
_atom_site_fract_y
_atom_site_fract_z
Si Si1 0.025738 0.899912 0.826165
Si Si2 0.358632 0.497811 0.617469
Si Si3 0.650265 0.230751 0.613315
Si Si4 0.901428 0.854168 0.016228
Si Si5 0.548493 0.749297 0.065966
Si Si6 0.846449 0.555667 0.824197
Si Si7 0.958120 0.627099 0.276572
Si Si8 0.139111 0.872622 0.717914
O O1 0.694723 0.860512 0.609102
O O2 0.038083 0.754128 0.902176
O O3 0.072258 0.874720 0.767369
O O4 0.190204 0.080677 0.972835
O O5 0.538078 0.521931 0.654642
O O6 0.118223 0.556770 0.447412
O O7 0.155887 0.282629 0.511013
O O8 0.632688 0.650388 0.839057
O O9 0.774939 0.428246 0.712835
O O10 0.803750 0.152113 0.775913
O O11 0.777005 0.238512 0.611914
O O12 0.000000 0.000000 0.000000
O O13 0.799370 0.719540 0.201617
O O14 0.705249 0.918015 0.217742
O O15 0.287040 0.545672 0.924951
O O16 0.380225 0.813138 0.887202
O O17 0.000000 0.500000 0.000000
#
# Coordination Sequence:
#
# PCOD9106063 Si02
#       8
#     2   2   2   2   2   2   2   2
#     4  12  23  38  64  96 127 157 211 252 305 374
#     4  11  21  40  57  87 127 169 196 243 316 370
#     4  12  22  37  65  95 126 161 206 254 310 369
#     4  12  24  39  54  92 140 169 193 243 318 387
#     4   9  20  39  63  93 116 156 216 263 305 348
#     4  12  21  38  57  90 134 169 191 244 318 383
#     4  10  20  39  67  91 120 158 212 263 302 364
#     4  10  21  39  68  91 119 161 212 263 298 364
#
# _framework density 23.914593
#
# number of rings (size 3 to 8) (size 9 to 14) (size 15 to 20)
#    0.000    1.000    5.000    3.000    0.000    1.000 
#    2.250    0.000    0.000   28.500    0.000    0.000 
#    0.000    0.000    0.000    0.000    0.000    0.000 
#
# Total GULP energy -89276.446780 kJ/mol
# GULP energy per Si atom -5579.777924 kJ/mol
# Density = 2.386016 g / cm^3
# Si number density = 23.914593 Si / 1000 Ang^3
#
#
#
# Elastic Constant Matrix: (Units=GPa)
#
#
# Indices 1 2 3 4 5 6 
#
# 1 49.3917 21.3477 29.6845 -10.4661 12.6882 -22.3052
# 2 21.3477 129.2136 52.3709 3.3677 -8.5222 -21.2648
# 3 29.6845 52.3709 110.2729 16.5778 5.9824 -3.4916
# 4 -10.4661 3.3677 16.5778 49.1785 -11.4327 0.7429
# 5 12.6882 -8.5222 5.9824 -11.4327 33.2611 -8.0168
# 6 -22.3052 -21.2648 -3.4916 0.7429 -8.0168 35.3733
#
#
#
# Elastic Compliance Matrix: (Units=1/GPa)
#
#
# Indices 1 2 3 4 5 6 
#
# 1 0.042211 0.002127 -0.013255 0.012276 -0.002758 0.025704
# 2 0.002127 0.012126 -0.006930 0.003444 0.007006 0.009462
# 3 -0.013255 -0.006930 0.017279 -0.009369 -0.005931 -0.011966
# 4 0.012276 0.003444 -0.009369 0.028052 0.010077 0.010581
# 5 -0.002758 0.007006 -0.005931 0.010077 0.040034 0.010748
# 6 0.025704 0.009462 -0.011966 0.010581 0.010748 0.051199
#
#
# Mechanical properties :
#
#
# Convention : Reuss Voigt Hill
#
# Bulk Modulus (GPa) = 28.16863 55.07604 41.62233
# Shear Modulus (GPa) = 20.93365 35.92758 28.43062
#
# Velocity S-wave (km/s) = 2.96184 3.88019 3.45170
# Velocity P-wave (km/s) = 4.84779 6.56923 5.77304
#
# Compressibility (1/GPa) = 0.03550049
#
# Stress axis : x y z
#
# Youngs Moduli (GPa) = 23.69035 82.46823 57.87399
#
# Poissons Ratio (x) = -0.17539 0.76712
# Poissons Ratio (y) = -0.05038 0.40104
# Poissons Ratio (z) = 0.31401 0.57147
#
# Static dielectric constant tensor:
#      x y z
#    x 1.959440 0.032360 -0.039340 
#    y 0.032360 1.987310 0.035340 
#    z -0.039340 0.035340 1.953990 
# 
# From -- ./inp_files/597390.got.cif
#   From: 2010.05.17/outbox.cif.g08.bks.cpg/sg2_299_cif.got.tgz:597390.got - 2010.06.03 11:33:40.
