data_PCOD9106288
_publ_section_title
;
Structure prediction by ZEFSAII (Michael W. Deem and Ramdas Pophale) SiO2 
 PCOD9106288
Probable space group: P -1
;
_chemical_formula_sum "Si O2"
_cell_formula_units_Z 14
_cell_length_a 5.406503
_cell_length_b 13.711306
_cell_length_c 9.212785
_cell_angle_alpha 60.631098
_cell_angle_beta 105.482543
_cell_angle_gamma 86.192815
_cell_volume 557.521219
_symmetry_space_group_name_H-M "P -1"
_symmetry_group_IT_number 2
_symmetry_cell_setting 'triclinic'
loop_
_space_group_symop_operation_xyz
x,y,z
-x,-y,-z
loop_
_atom_site_type_symbol
_atom_site_label
_atom_site_fract_x
_atom_site_fract_y
_atom_site_fract_z
Si Si1 0.909212 0.039321 0.795587
Si Si2 0.690148 0.688716 0.207333
Si Si3 0.304104 0.179048 0.617270
Si Si4 0.254620 0.833076 0.846252
Si Si5 0.015084 0.638626 0.049697
Si Si6 0.452195 0.249933 0.301863
Si Si7 0.505331 0.521972 0.811995
O O1 0.085471 0.122047 0.696699
O O2 0.598298 0.094670 0.716662
O O3 0.004378 0.927226 0.791530
O O4 0.000000 0.000000 0.000000
O O5 0.687514 0.712257 0.358919
O O6 0.620340 0.567948 0.234599
O O7 0.492484 0.804339 0.023456
O O8 0.969684 0.680383 0.177457
O O9 0.269112 0.212383 0.419711
O O10 0.359162 0.849234 0.690355
O O11 0.178483 0.711274 0.931439
O O12 0.733326 0.676989 0.903707
O O13 0.184599 0.509995 0.162589
O O14 0.600311 0.341745 0.328375
O O15 0.500000 0.500000 0.000000
#
# Coordination Sequence:
#
# PCOD9106288 Si02
#       7
#     2   2   2   2   2   2   2
#     4  12  26  47  74  97 132 184 232 272 336 410
#     4  10  22  40  66  98 128 176 231 271 326 410
#     4  12  29  45  68 104 139 175 221 286 347 388
#     4  10  22  40  70  95 130 173 233 276 323 404
#     4  10  20  39  68  96 129 178 227 271 322 408
#     4  11  25  41  64 101 141 169 218 288 340 391
#     4  11  20  39  68 100 128 178 229 266 331 404
#
# _framework density 25.111152000000001
#
# number of rings (size 3 to 8) (size 9 to 14) (size 15 to 20)
#    0.000    1.143    5.714    1.714    8.000    1.714 
#    0.000    0.714    0.000    0.000    0.000    0.000 
#    0.000    0.000    0.000    0.000    0.000    0.000 
#
# Total GULP energy -78162.148187 kJ/mol
# GULP energy per Si atom -5583.010585 kJ/mol
# Density = 2.505400 g / cm^3
# Si number density = 25.111152 Si / 1000 Ang^3
#
#
#
# Elastic Constant Matrix: (Units=GPa)
#
#
# Indices 1 2 3 4 5 6 
#
# 1 58.9557 10.4716 20.4883 0.1124 -11.8834 -20.0310
# 2 10.4716 123.3037 20.7502 20.4135 -5.0674 -32.3314
# 3 20.4883 20.7502 67.3706 21.2850 -24.3843 -11.0580
# 4 0.1124 20.4135 21.2850 28.9961 -8.3864 -11.0280
# 5 -11.8834 -5.0674 -24.3843 -8.3864 34.1327 -2.2598
# 6 -20.0310 -32.3314 -11.0580 -11.0280 -2.2598 46.8066
#
#
#
# Elastic Compliance Matrix: (Units=1/GPa)
#
#
# Indices 1 2 3 4 5 6 
#
# 1 0.024917 0.000762 -0.006451 0.011166 0.007762 0.012671
# 2 0.000762 0.010614 -0.000899 -0.004172 0.000604 0.006492
# 3 -0.006451 -0.000899 0.026484 -0.015097 0.012827 -0.000062
# 4 0.011166 -0.004172 -0.015097 0.054805 0.006714 0.011567
# 5 0.007762 0.000604 0.012827 0.006714 0.043595 0.010456
# 6 0.012671 0.006492 -0.000062 0.011567 0.010456 0.034487
#
#
# Mechanical properties :
#
#
# Convention : Reuss Voigt Hill
#
# Bulk Modulus (GPa) = 20.47476 39.22780 29.85128
# Shear Modulus (GPa) = 22.28588 35.18172 28.73380
#
# Velocity S-wave (km/s) = 2.98231 3.74711 3.38637
# Velocity P-wave (km/s) = 4.47551 5.86316 5.21569
#
# Compressibility (1/GPa) = 0.04884062
#
# Stress axis : x y z
#
# Youngs Moduli (GPa) = 40.13340 94.21227 37.75815
#
# Poissons Ratio (x) = -0.07183 0.24358
# Poissons Ratio (y) = -0.03060 0.03394
# Poissons Ratio (z) = 0.25890 0.08468
#
# Static dielectric constant tensor:
#      x y z
#    x 2.102510 0.035460 0.062300 
#    y 0.035460 2.045400 -0.022660 
#    z 0.062300 -0.022660 1.997050 
# 
# From -- ./inp_files/26984.got.cif
#   From: 2010.05.17/outbox.cif.g08.bks.cpg/sg2_14_cif.got.tgz:26984.got - 2010.06.03 11:33:40.
