data_PCOD9106181
_publ_section_title
;
Structure prediction by ZEFSAII (Michael W. Deem and Ramdas Pophale) SiO2 
 PCOD9106181
Probable space group: P -1
;
_chemical_formula_sum "Si O2"
_cell_formula_units_Z 16
_cell_length_a 7.678578
_cell_length_b 10.525110
_cell_length_c 14.815661
_cell_angle_alpha 38.984574
_cell_angle_beta 110.348254
_cell_angle_gamma 123.450241
_cell_volume 621.029677
_symmetry_space_group_name_H-M "P -1"
_symmetry_group_IT_number 2
_symmetry_cell_setting 'triclinic'
loop_
_space_group_symop_operation_xyz
x,y,z
-x,-y,-z
loop_
_atom_site_type_symbol
_atom_site_label
_atom_site_fract_x
_atom_site_fract_y
_atom_site_fract_z
Si Si1 0.996546 0.737902 0.050400
Si Si2 0.450253 0.667649 0.575193
Si Si3 0.707711 0.709630 0.374089
Si Si4 0.397404 0.116725 0.985390
Si Si5 0.206132 0.425583 0.255195
Si Si6 0.526625 0.015331 0.247379
Si Si7 0.917972 0.864682 0.773392
Si Si8 0.580140 0.345307 0.218178
O O1 0.752668 0.612130 0.104433
O O2 0.089813 0.565311 0.192522
O O3 0.988897 0.768613 0.924719
O O4 0.158017 0.985909 0.980105
O O5 0.305070 0.406831 0.660198
O O6 0.689791 0.695713 0.596930
O O7 0.415148 0.825434 0.409773
O O8 0.418040 0.727991 0.637382
O O9 0.500000 0.500000 0.500000
O O10 0.651946 0.914426 0.267160
O O11 0.955099 0.856790 0.362218
O O12 0.392664 0.048335 0.126809
O O13 0.578762 0.380753 0.861198
O O14 0.500000 0.000000 0.000000
O O15 0.061393 0.241210 0.258446
O O16 0.652785 0.240769 0.206130
O O17 0.664471 0.754454 0.796498
#
# Coordination Sequence:
#
# PCOD9106181 Si02
#       8
#     2   2   2   2   2   2   2   2
#     4  11  21  38  65  98 135 177 221 275 334 400
#     4  10  23  44  66  97 137 173 220 278 334 399
#     4  10  21  41  68  93 123 171 226 276 326 387
#     4  10  21  38  66  99 129 167 224 283 331 384
#     4  10  20  39  67  98 130 172 224 280 333 393
#     4  11  22  44  69  96 132 176 224 276 335 400
#     4  11  22  40  64  96 135 175 221 280 336 397
#     4  11  25  42  63  99 139 181 220 268 337 406
#
# _framework density 25.763665
#
# number of rings (size 3 to 8) (size 9 to 14) (size 15 to 20)
#    0.000    1.500    0.000    6.375    0.000    2.000 
#    0.000   32.500    0.000    0.000    0.000    0.000 
#    0.000    0.000    0.000    0.000    0.000    0.000 
#
# Total GULP energy -89226.229821 kJ/mol
# GULP energy per Si atom -5576.639364 kJ/mol
# Density = 2.570503 g / cm^3
# Si number density = 25.763665 Si / 1000 Ang^3
#
#
#
# Elastic Constant Matrix: (Units=GPa)
#
#
# Indices 1 2 3 4 5 6 
#
# 1 84.7003 20.5966 20.9803 -12.5899 -2.9378 24.4865
# 2 20.5966 216.3303 54.5365 -7.3580 -1.5622 5.7361
# 3 20.9803 54.5365 116.0926 7.6582 -6.4314 11.8503
# 4 -12.5899 -7.3580 7.6582 44.1105 1.9496 -14.3183
# 5 -2.9378 -1.5622 -6.4314 1.9496 23.7398 -12.2910
# 6 24.4865 5.7361 11.8503 -14.3183 -12.2910 39.9970
#
#
#
# Elastic Compliance Matrix: (Units=1/GPa)
#
#
# Indices 1 2 3 4 5 6 
#
# 1 0.015199 -0.000722 -0.001783 0.001715 -0.003524 -0.009142
# 2 -0.000722 0.005367 -0.002585 0.001444 -0.000072 0.000933
# 3 -0.001783 -0.002585 0.010742 -0.003713 0.001481 -0.002595
# 4 0.001715 0.001444 -0.003713 0.027301 0.002424 0.010361
# 5 -0.003524 -0.000072 0.001481 0.002424 0.051408 0.018394
# 6 -0.009142 0.000933 -0.002595 0.010361 0.018394 0.040595
#
#
# Mechanical properties :
#
#
# Convention : Reuss Voigt Hill
#
# Bulk Modulus (GPa) = 47.33062 67.70555 57.51808
# Shear Modulus (GPa) = 29.79104 42.97013 36.38059
#
# Velocity S-wave (km/s) = 3.40416 4.08837 3.76185
# Velocity P-wave (km/s) = 5.81911 6.97301 6.42203
#
# Compressibility (1/GPa) = 0.02112797
#
# Stress axis : x y z
#
# Youngs Moduli (GPa) = 65.79272 186.32730 93.09087
#
# Poissons Ratio (x) = 0.13460 0.16595
# Poissons Ratio (y) = 0.04753 0.24065
# Poissons Ratio (z) = 0.11728 0.48168
#
# Static dielectric constant tensor:
#      x y z
#    x 2.206800 0.002200 0.036700 
#    y 0.002200 2.058760 -0.076270 
#    z 0.036700 -0.076270 2.151680 
# 
# From -- ./inp_files/499914.got.cif
#   From: 2010.05.17/outbox.cif.g08.bks.cpg/sg2_250_cif.got.tgz:499914.got - 2010.06.03 11:33:40.
