data_PCOD9106599
_publ_section_title
;
Structure prediction by ZEFSAII (Michael W. Deem and Ramdas Pophale) SiO2 
 PCOD9106599
Probable space group: P -1
;
_chemical_formula_sum "Si O2"
_cell_formula_units_Z 14
_cell_length_a 9.518270
_cell_length_b 11.569939
_cell_length_c 15.972970
_cell_angle_alpha 46.777581
_cell_angle_beta 49.993888
_cell_angle_gamma 85.064480
_cell_volume 758.788315
_symmetry_space_group_name_H-M "P -1"
_symmetry_group_IT_number 2
_symmetry_cell_setting 'triclinic'
loop_
_space_group_symop_operation_xyz
x,y,z
-x,-y,-z
loop_
_atom_site_type_symbol
_atom_site_label
_atom_site_fract_x
_atom_site_fract_y
_atom_site_fract_z
Si Si1 0.823978 0.824460 0.218743
Si Si2 0.894372 0.707714 0.723315
Si Si3 0.819237 0.157023 0.626399
Si Si4 0.629405 0.945478 0.536228
Si Si5 0.509877 0.241687 0.140116
Si Si6 0.691788 0.445286 0.528410
Si Si7 0.191716 0.219809 0.570046
O O1 0.849744 0.647099 0.308025
O O2 0.558975 0.708712 0.345002
O O3 0.846662 0.894726 0.271176
O O4 0.000000 0.000000 0.000000
O O5 0.707177 0.749290 0.781131
O O6 0.010997 0.770309 0.555769
O O7 0.746191 0.466831 0.915814
O O8 0.111278 0.852404 0.632568
O O9 0.790950 0.327901 0.567539
O O10 0.945762 0.139796 0.663179
O O11 0.572514 0.938318 0.803954
O O12 0.486155 0.830016 0.733206
O O13 0.668780 0.807877 0.536052
O O14 0.500000 0.000000 0.500000
O O15 0.672526 0.546453 0.567550
#
# Coordination Sequence:
#
# PCOD9106599 Si02
#       7
#     2   2   2   2   2   2   2
#     4   9  21  42  56  81 121 154 192 240 291 345
#     4  10  21  39  60  85 120 155 196 242 296 341
#     4  11  19  39  61  87 117 155 195 244 288 349
#     4  11  22  38  61  88 120 156 194 244 295 350
#     4  10  21  39  60  84 121 157 195 240 294 345
#     4   9  22  37  61  84 114 158 192 234 304 341
#     4  10  20  40  58  84 119 153 192 244 287 351
#
# _framework density 18.450468000000001
#
# number of rings (size 3 to 8) (size 9 to 14) (size 15 to 20)
#    0.857    1.143    2.857    1.286    4.000    1.714 
#    5.143    0.714    0.000    0.000    0.000    0.000 
#    0.000    0.000    0.000    0.000    0.000    0.000 
#
# Total GULP energy -78022.364884 kJ/mol
# GULP energy per Si atom -5573.026063 kJ/mol
# Density = 1.840847 g / cm^3
# Si number density = 18.450468 Si / 1000 Ang^3
#
#
#
# Elastic Constant Matrix: (Units=GPa)
#
#
# Indices 1 2 3 4 5 6 
#
# 1 95.3649 31.4464 16.0700 -10.6225 -2.6211 23.1274
# 2 31.4464 71.5273 8.9547 -19.4662 -6.6105 8.6016
# 3 16.0700 8.9547 93.4116 -18.4994 4.7176 15.9817
# 4 -10.6225 -19.4662 -18.4994 15.5366 -4.3038 4.2528
# 5 -2.6211 -6.6105 4.7176 -4.3038 11.3563 -2.7175
# 6 23.1274 8.6016 15.9817 4.2528 -2.7175 34.1124
#
#
#
# Elastic Compliance Matrix: (Units=1/GPa)
#
#
# Indices 1 2 3 4 5 6 
#
# 1 0.016035 0.002264 0.004467 0.026061 0.009199 -0.016051
# 2 0.002264 0.050933 0.020272 0.114519 0.057108 -0.033603
# 3 0.004467 0.020272 0.026135 0.073595 0.023235 -0.027709
# 4 0.026061 0.114519 0.073595 0.390134 0.162019 -0.116755
# 5 0.009199 0.057108 0.023235 0.162019 0.165960 -0.038500
# 6 -0.016051 -0.033603 -0.027709 -0.116755 -0.038500 0.073141
#
#
# Mechanical properties :
#
#
# Convention : Reuss Voigt Hill
#
# Bulk Modulus (GPa) = 6.79763 41.47178 24.13471
# Shear Modulus (GPa) = 6.96992 25.78991 16.37991
#
# Velocity S-wave (km/s) = 1.94572 3.74276 2.98279
# Velocity P-wave (km/s) = 2.95636 6.41902 4.99719
#
# Compressibility (1/GPa) = 0.14711001
#
# Stress axis : x y z
#
# Youngs Moduli (GPa) = 62.36310 19.63376 38.26214
#
# Poissons Ratio (x) = -0.04445 -0.17092
# Poissons Ratio (y) = -0.14118 -0.77567
# Poissons Ratio (z) = -0.27858 -0.39802
#
# Static dielectric constant tensor:
#      x y z
#    x 1.631650 -0.002740 0.003970 
#    y -0.002740 1.662470 -0.016750 
#    z 0.003970 -0.016750 1.620330 
# 
# From -- ./inp_files/261020.got.cif
#   From: 2010.05.17/outbox.cif.g08.bks.cpg/sg2_131_cif.got.tgz:261020.got - 2010.06.03 11:33:40.
