data_PCOD9106950
_publ_section_title
;
Structure prediction by ZEFSAII (Michael W. Deem and Ramdas Pophale) SiO2 
 PCOD9106950
Probable space group: P -1
;
_chemical_formula_sum "Si O2"
_cell_formula_units_Z 16
_cell_length_a 8.468786
_cell_length_b 11.642891
_cell_length_c 16.928722
_cell_angle_alpha 128.287496
_cell_angle_beta 32.351478
_cell_angle_gamma 121.038917
_cell_volume 700.964633
_symmetry_space_group_name_H-M "P -1"
_symmetry_group_IT_number 2
_symmetry_cell_setting 'triclinic'
loop_
_space_group_symop_operation_xyz
x,y,z
-x,-y,-z
loop_
_atom_site_type_symbol
_atom_site_label
_atom_site_fract_x
_atom_site_fract_y
_atom_site_fract_z
Si Si1 0.475093 0.138206 0.471829
Si Si2 0.902946 0.924978 0.871051
Si Si3 0.573602 0.859023 0.828625
Si Si4 0.451287 0.333230 0.851303
Si Si5 0.699011 0.623208 0.897094
Si Si6 0.271872 0.448422 0.640353
Si Si7 0.164749 0.605657 0.914237
Si Si8 0.179033 0.844034 0.505417
O O1 0.316609 0.275055 0.555977
O O2 0.643683 0.192590 0.503553
O O3 0.744833 0.064784 0.275973
O O4 0.242251 0.015421 0.539535
O O5 0.774358 0.943270 0.844032
O O6 0.835617 0.759558 0.853882
O O7 0.682830 0.037992 0.056767
O O8 0.408844 0.724723 0.882568
O O9 0.833862 0.807578 0.638614
O O10 0.499825 0.506290 0.887274
O O11 0.669975 0.242164 0.666391
O O12 0.478563 0.315631 0.926151
O O13 0.114876 0.298467 0.958473
O O14 0.961670 0.517207 0.772606
O O15 0.500000 0.500000 0.500000
O O16 0.302322 0.514306 0.743916
O O17 0.000000 0.500000 0.000000
#
# Coordination Sequence:
#
# PCOD9106950 Si02
#       8
#     2   2   2   2   2   2   2   2
#     4  10  21  40  66  91 128 166 209 264 315 374
#     4  10  20  40  62  88 126 164 205 258 314 369
#     4  10  23  38  66  94 122 161 216 264 308 372
#     4  10  22  40  61  89 127 164 206 255 314 378
#     4  10  22  40  62  88 127 168 207 251 319 381
#     4  11  23  40  64  95 128 169 211 261 318 378
#     4  11  23  41  64  93 125 167 216 263 315 376
#     4  10  22  40  64  98 125 163 214 265 314 366
#
# _framework density 22.825689000000001
#
# number of rings (size 3 to 8) (size 9 to 14) (size 15 to 20)
#    0.000    1.750    1.250    2.250    1.750    7.000 
#    2.250    6.250    0.000    0.000    0.000    0.000 
#    0.000    0.000    0.000    0.000    0.000    0.000 
#
# Total GULP energy -89293.909285 kJ/mol
# GULP energy per Si atom -5580.869330 kJ/mol
# Density = 2.277374 g / cm^3
# Si number density = 22.825689 Si / 1000 Ang^3
#
#
#
# Elastic Constant Matrix: (Units=GPa)
#
#
# Indices 1 2 3 4 5 6 
#
# 1 34.0480 28.8942 29.0187 4.5396 -5.7880 -0.1315
# 2 28.8942 116.7208 33.3016 -19.8563 -13.6701 -13.9147
# 3 29.0187 33.3016 144.0070 -6.8461 5.9637 -3.7341
# 4 4.5396 -19.8563 -6.8461 36.0474 -3.4132 -10.0776
# 5 -5.7880 -13.6701 5.9637 -3.4132 27.7651 1.0427
# 6 -0.1315 -13.9147 -3.7341 -10.0776 1.0427 30.6635
#
#
#
# Elastic Compliance Matrix: (Units=1/GPa)
#
#
# Indices 1 2 3 4 5 6 
#
# 1 0.053296 -0.015673 -0.008626 -0.020840 0.003244 -0.014894
# 2 -0.015673 0.017493 -0.000085 0.015827 0.006827 0.012830
# 3 -0.008626 -0.000085 0.009046 0.003025 -0.003491 0.002139
# 4 -0.020840 0.015827 0.003025 0.046689 0.007691 0.022544
# 5 0.003244 0.006827 -0.003491 0.007691 0.041607 0.003800
# 6 -0.014894 0.012830 0.002139 0.022544 0.003800 0.045911
#
#
# Mechanical properties :
#
#
# Convention : Reuss Voigt Hill
#
# Bulk Modulus (GPa) = 32.18915 53.02276 42.60596
# Shear Modulus (GPa) = 18.30402 32.46596 25.38499
#
# Velocity S-wave (km/s) = 2.83486 3.77549 3.33847
# Velocity P-wave (km/s) = 4.98478 6.50274 5.79369
#
# Compressibility (1/GPa) = 0.03106636
#
# Stress axis : x y z
#
# Youngs Moduli (GPa) = 18.76325 57.16590 110.54777
#
# Poissons Ratio (x) = 0.89596 0.95363
# Poissons Ratio (y) = 0.29408 0.00936
# Poissons Ratio (z) = 0.16186 0.00484
#
# Static dielectric constant tensor:
#      x y z
#    x 1.940370 0.005310 0.030360 
#    y 0.005310 1.799530 0.023790 
#    z 0.030360 0.023790 1.892260 
# 
# From -- ./inp_files/559888.got.cif
#   From: 2010.05.17/outbox.cif.g08.bks.cpg/sg2_280_cif.got.tgz:559888.got - 2010.06.03 11:33:40.
