data_PCOD9106515
_publ_section_title
;
Structure prediction by ZEFSAII (Michael W. Deem and Ramdas Pophale) SiO2 
 PCOD9106515
Probable space group: P -1
;
_chemical_formula_sum "Si O2"
_cell_formula_units_Z 16
_cell_length_a 12.099272
_cell_length_b 16.422656
_cell_length_c 8.798697
_cell_angle_alpha 43.369206
_cell_angle_beta 87.830868
_cell_angle_gamma 122.938393
_cell_volume 664.704338
_symmetry_space_group_name_H-M "P -1"
_symmetry_group_IT_number 2
_symmetry_cell_setting 'triclinic'
loop_
_space_group_symop_operation_xyz
x,y,z
-x,-y,-z
loop_
_atom_site_type_symbol
_atom_site_label
_atom_site_fract_x
_atom_site_fract_y
_atom_site_fract_z
Si Si1 0.672891 0.390131 0.814779
Si Si2 0.005012 0.349883 0.817651
Si Si3 0.001735 0.085755 0.238615
Si Si4 0.963375 0.528317 0.804305
Si Si5 0.420897 0.311415 0.341873
Si Si6 0.689082 0.671750 0.367096
Si Si7 0.643495 0.008852 0.814823
Si Si8 0.448240 0.083461 0.703707
O O1 0.702572 0.556285 0.605059
O O2 0.832803 0.496220 0.532869
O O3 0.746763 0.380913 0.966184
O O4 0.453952 0.166481 0.064083
O O5 0.021594 0.478921 0.747044
O O6 0.061183 0.276582 0.999609
O O7 0.779074 0.138968 0.046721
O O8 0.126902 0.148689 0.001861
O O9 0.000000 0.000000 0.500000
O O10 0.776154 0.891680 0.464260
O O11 0.119651 0.776881 0.463134
O O12 0.000000 0.500000 0.000000
O O13 0.354306 0.276317 0.566627
O O14 0.534143 0.287004 0.369501
O O15 0.500000 0.500000 0.000000
O O16 0.500000 0.500000 0.500000
O O17 0.571651 0.075125 0.674375
O O18 0.557094 0.913162 0.117202
#
# Coordination Sequence:
#
# PCOD9106515 Si02
#       8
#     2   2   2   2   2   2   2   2
#     4  11  23  44  70  94 134 174 225 279 327 407
#     4  10  20  43  67  91 133 170 220 276 334 400
#     4  10  23  42  68  97 131 181 226 280 337 398
#     4  12  26  42  61  99 138 173 218 277 344 397
#     4  11  24  43  67  99 138 178 226 280 338 403
#     4  11  24  44  68 100 135 179 229 280 342 406
#     4  11  22  39  70  99 125 172 226 269 338 406
#     4  10  20  39  71  98 122 175 226 272 331 405
#
# _framework density 24.070851999999999
#
# number of rings (size 3 to 8) (size 9 to 14) (size 15 to 20)
#    0.000    1.250    2.500    3.750    0.000    5.500 
#   11.250    0.000    0.000    0.000    0.000    0.000 
#    0.000    0.000    0.000    0.000    0.000    0.000 
#
# Total GULP energy -89489.946903 kJ/mol
# GULP energy per Si atom -5593.121681 kJ/mol
# Density = 2.401607 g / cm^3
# Si number density = 24.070852 Si / 1000 Ang^3
#
#
#
# Elastic Constant Matrix: (Units=GPa)
#
#
# Indices 1 2 3 4 5 6 
#
# 1 81.7097 27.6493 22.1023 20.0111 23.6128 -9.5746
# 2 27.6493 100.3477 14.8582 -2.8993 10.2118 10.4424
# 3 22.1023 14.8582 82.2765 5.0139 29.1519 -3.3018
# 4 20.0111 -2.8993 5.0139 36.0424 10.2713 1.6452
# 5 23.6128 10.2118 29.1519 10.2713 28.9189 4.5152
# 6 -9.5746 10.4424 -3.3018 1.6452 4.5152 33.7097
#
#
#
# Elastic Compliance Matrix: (Units=1/GPa)
#
#
# Indices 1 2 3 4 5 6 
#
# 1 0.021889 -0.006049 0.001959 -0.008764 -0.016299 0.010894
# 2 -0.006049 0.012491 -0.001748 0.004407 0.001694 -0.006201
# 3 0.001959 -0.001748 0.020252 0.002276 -0.023154 0.006072
# 4 -0.008764 0.004407 0.002276 0.035283 -0.008569 -0.004206
# 5 -0.016299 0.001694 -0.023154 -0.008569 0.076364 -0.017232
# 6 0.010894 -0.006201 0.006072 -0.004206 -0.017232 0.037788
#
#
# Mechanical properties :
#
#
# Convention : Reuss Voigt Hill
#
# Bulk Modulus (GPa) = 23.28056 43.72817 33.50436
# Shear Modulus (GPa) = 21.73312 33.04913 27.39113
#
# Velocity S-wave (km/s) = 3.00806 3.70941 3.37699
# Velocity P-wave (km/s) = 4.66446 6.04584 5.39951
#
# Compressibility (1/GPa) = 0.04295429
#
# Stress axis : x y z
#
# Youngs Moduli (GPa) = 45.68578 80.05599 49.37684
#
# Poissons Ratio (x) = 0.48428 -0.09671
# Poissons Ratio (y) = 0.27637 0.08632
# Poissons Ratio (z) = -0.08948 0.13996
#
# Static dielectric constant tensor:
#      x y z
#    x 1.974380 0.012610 0.063250 
#    y 0.012610 1.907110 0.011330 
#    z 0.063250 0.011330 2.093560 
# 
# From -- ./inp_files/278814.got.cif
#   From: 2010.05.17/outbox.cif.g08.bks.cpg/sg2_140_cif.got.tgz:278814.got - 2010.06.03 11:33:40.
