data_PCOD9106768
_publ_section_title
;
Structure prediction by ZEFSAII (Michael W. Deem and Ramdas Pophale) SiO2 
 PCOD9106768
Probable space group: P -1
;
_chemical_formula_sum "Si O2"
_cell_formula_units_Z 16
_cell_length_a 7.808821
_cell_length_b 14.982381
_cell_length_c 12.699719
_cell_angle_alpha 136.446329
_cell_angle_beta 37.688103
_cell_angle_gamma 115.590275
_cell_volume 589.482096
_symmetry_space_group_name_H-M "P -1"
_symmetry_group_IT_number 2
_symmetry_cell_setting 'triclinic'
loop_
_space_group_symop_operation_xyz
x,y,z
-x,-y,-z
loop_
_atom_site_type_symbol
_atom_site_label
_atom_site_fract_x
_atom_site_fract_y
_atom_site_fract_z
Si Si1 0.697724 0.258967 0.507304
Si Si2 0.034232 0.688385 0.989035
Si Si3 0.287717 0.583212 0.996740
Si Si4 0.219724 0.391352 0.569602
Si Si5 0.205704 0.346934 0.290454
Si Si6 0.581372 0.122287 0.623286
Si Si7 0.241056 0.859011 0.898070
Si Si8 0.595718 0.008500 0.235489
O O1 0.489371 0.419725 0.757116
O O2 0.808402 0.174134 0.491210
O O3 0.543939 0.158644 0.441609
O O4 0.992864 0.258399 0.302636
O O5 0.077466 0.632462 0.038718
O O6 0.197597 0.548510 0.727621
O O7 0.158473 0.814329 0.014783
O O8 0.710851 0.744907 0.142182
O O9 0.517659 0.665125 0.930585
O O10 0.073983 0.613937 0.228798
O O11 0.243319 0.348785 0.399828
O O12 0.523373 0.286586 0.378947
O O13 0.000000 0.500000 0.500000
O O14 0.500000 0.000000 0.500000
O O15 0.623812 0.063455 0.669914
O O16 0.399185 0.965092 0.869339
O O17 0.919871 0.922157 0.052785
#
# Coordination Sequence:
#
# PCOD9106768 Si02
#       8
#     2   2   2   2   2   2   2   2
#     4  10  20  40  61  84 125 166 206 252 305 370
#     4  11  21  36  62  97 126 154 198 266 326 364
#     4  11  23  39  63  98 125 158 202 259 324 370
#     4  12  23  38  64  94 129 162 203 263 315 370
#     4  10  25  42  60  89 127 171 211 248 304 376
#     4   9  19  35  59  91 120 158 206 254 305 368
#     4  10  21  36  60  93 127 154 205 258 319 365
#     4   9  20  37  61  91 119 167 205 257 305 370
#
# _framework density 27.142468999999998
#
# number of rings (size 3 to 8) (size 9 to 14) (size 15 to 20)
#    0.000    1.750    2.500    1.500    7.000    2.000 
#    0.000    0.625    0.000    1.500    0.000    0.000 
#    0.000    0.000    0.000    0.000    0.000    0.000 
#
# Total GULP energy -89170.201965 kJ/mol
# GULP energy per Si atom -5573.137623 kJ/mol
# Density = 2.708069 g / cm^3
# Si number density = 27.142469 Si / 1000 Ang^3
#
#
#
# Elastic Constant Matrix: (Units=GPa)
#
#
# Indices 1 2 3 4 5 6 
#
# 1 48.1496 35.2565 14.3075 6.4900 9.1374 -18.5889
# 2 35.2565 266.9548 30.6624 -23.8062 1.8561 -43.9750
# 3 14.3075 30.6624 132.5663 11.4780 -9.3987 5.8327
# 4 6.4900 -23.8062 11.4780 53.4274 4.9929 -6.3648
# 5 9.1374 1.8561 -9.3987 4.9929 31.5947 0.6603
# 6 -18.5889 -43.9750 5.8327 -6.3648 0.6603 42.1629
#
#
#
# Elastic Compliance Matrix: (Units=1/GPa)
#
#
# Indices 1 2 3 4 5 6 
#
# 1 0.029718 -0.001505 -0.003991 -0.001071 -0.009777 0.012077
# 2 -0.001505 0.005462 -0.001769 0.003802 -0.001135 0.005869
# 3 -0.003991 -0.001769 0.009246 -0.003376 0.004656 -0.005466
# 4 -0.001071 0.003802 -0.003376 0.022587 -0.004643 0.007442
# 5 -0.009777 -0.001135 0.004656 -0.004643 0.036819 -0.007416
# 6 0.012077 0.005869 -0.005466 0.007442 -0.007416 0.037159
#
#
# Mechanical properties :
#
#
# Convention : Reuss Voigt Hill
#
# Bulk Modulus (GPa) = 33.44818 67.56928 50.50873
# Shear Modulus (GPa) = 30.21402 49.93328 40.07365
#
# Velocity S-wave (km/s) = 3.34003 4.29379 3.84659
# Velocity P-wave (km/s) = 5.21770 7.03780 6.19495
#
# Compressibility (1/GPa) = 0.02989699
#
# Stress axis : x y z
#
# Youngs Moduli (GPa) = 33.64926 183.09759 108.15235
#
# Poissons Ratio (x) = 0.27548 0.43166
# Poissons Ratio (y) = 0.05063 0.19130
# Poissons Ratio (z) = 0.13430 0.32386
#
# Static dielectric constant tensor:
#      x y z
#    x 2.304320 -0.135420 0.083790 
#    y -0.135420 2.465520 -0.183370 
#    z 0.083790 -0.183370 2.188350 
# 
# From -- ./inp_files/504319.got.cif
#   From: 2010.05.17/outbox.cif.g08.bks.cpg/sg2_253_cif.got.tgz:504319.got - 2010.06.03 11:33:40.
