data_PCOD9106049
_publ_section_title
;
Structure prediction by ZEFSAII (Michael W. Deem and Ramdas Pophale) SiO2 
 PCOD9106049
Probable space group: P -1
;
_chemical_formula_sum "Si O2"
_cell_formula_units_Z 16
_cell_length_a 23.299957
_cell_length_b 8.999588
_cell_length_c 19.715612
_cell_angle_alpha 40.383159
_cell_angle_beta 20.003082
_cell_angle_gamma 30.740460
_cell_volume 697.490386
_symmetry_space_group_name_H-M "P -1"
_symmetry_group_IT_number 2
_symmetry_cell_setting 'triclinic'
loop_
_space_group_symop_operation_xyz
x,y,z
-x,-y,-z
loop_
_atom_site_type_symbol
_atom_site_label
_atom_site_fract_x
_atom_site_fract_y
_atom_site_fract_z
Si Si1 0.544334 0.727390 0.354444
Si Si2 0.758894 0.269794 0.805996
Si Si3 0.210355 0.600550 0.932257
Si Si4 0.830122 0.603080 0.502989
Si Si5 0.244280 0.442683 0.164417
Si Si6 0.144750 0.623515 0.595844
Si Si7 0.715636 0.963635 0.338242
Si Si8 0.581382 0.165562 0.771153
O O1 0.500000 0.500000 0.500000
O O2 0.753032 0.520472 0.143965
O O3 0.368551 0.035763 0.399807
O O4 0.494608 0.868803 0.436343
O O5 0.838795 0.390426 0.621989
O O6 0.803891 0.306944 0.819869
O O7 0.500000 0.500000 0.000000
O O8 0.887036 0.917167 0.779144
O O9 0.382464 0.322612 0.885257
O O10 0.287652 0.799412 0.782808
O O11 0.955043 0.799719 0.166510
O O12 0.809971 0.495085 0.490428
O O13 0.050453 0.551248 0.290896
O O14 0.281762 0.188305 0.258558
O O15 0.468017 0.286435 0.928905
O O16 0.234818 0.332889 0.642122
O O17 0.268929 0.745342 0.435535
#
# Coordination Sequence:
#
# PCOD9106049 Si02
#       8
#     2   2   2   2   2   2   2   2
#     4   9  19  35  62  91 116 153 207 254 298 359
#     4  12  26  38  60  92 125 162 205 255 312 368
#     4  10  20  39  67  89 120 167 210 254 310 372
#     4  11  22  41  64  86 124 163 204 255 308 371
#     4  11  25  40  61  90 121 162 211 251 305 378
#     4  11  24  40  60  91 127 159 202 261 312 363
#     4   9  21  40  62  93 123 161 210 258 310 369
#     4  11  23  39  62  86 124 163 207 254 311 365
#
# _framework density 22.939382999999999
#
# number of rings (size 3 to 8) (size 9 to 14) (size 15 to 20)
#    0.000    1.500    1.250    3.750    8.750    0.500 
#    0.000    0.000    0.000    0.750    0.000    0.000 
#    0.000    0.000    0.000    0.000    0.000    0.000 
#
# Total GULP energy -89213.139240 kJ/mol
# GULP energy per Si atom -5575.821202 kJ/mol
# Density = 2.288717 g / cm^3
# Si number density = 22.939383 Si / 1000 Ang^3
#
#
#
# Elastic Constant Matrix: (Units=GPa)
#
#
# Indices 1 2 3 4 5 6 
#
# 1 50.9083 -4.4990 5.3640 7.9476 3.7380 4.8787
# 2 -4.4990 112.6411 2.1930 12.4307 11.4096 13.7906
# 3 5.3640 2.1930 58.8341 -1.1628 -1.0817 13.9266
# 4 7.9476 12.4307 -1.1628 33.1993 -0.9054 3.8777
# 5 3.7380 11.4096 -1.0817 -0.9054 27.9271 3.9656
# 6 4.8787 13.7906 13.9266 3.8777 3.9656 29.4894
#
#
#
# Elastic Compliance Matrix: (Units=1/GPa)
#
#
# Indices 1 2 3 4 5 6 
#
# 1 0.021431 0.002214 -0.001612 -0.005816 -0.003660 -0.002562
# 2 0.002214 0.010332 0.000267 -0.004002 -0.004033 -0.004256
# 3 -0.001612 0.000267 0.019507 0.002161 0.002305 -0.009664
# 4 -0.005816 -0.004002 0.002161 0.033565 0.004032 -0.003142
# 5 -0.003660 -0.004033 0.002305 0.004032 0.038782 -0.004342
# 6 -0.002562 -0.004256 -0.009664 -0.003142 -0.004342 0.041886
#
#
# Mechanical properties :
#
#
# Convention : Reuss Voigt Hill
#
# Bulk Modulus (GPa) = 18.86534 25.38884 22.12709
# Shear Modulus (GPa) = 27.55832 32.74485 30.15159
#
# Velocity S-wave (km/s) = 3.46982 3.78226 3.62940
# Velocity P-wave (km/s) = 4.92896 5.49234 5.21826
#
# Compressibility (1/GPa) = 0.05300726
#
# Stress axis : x y z
#
# Youngs Moduli (GPa) = 46.66139 96.78566 51.26440
#
# Poissons Ratio (x) = -0.21425 0.08264
# Poissons Ratio (y) = -0.10329 -0.01370
# Poissons Ratio (z) = 0.07522 -0.02586
#
# Static dielectric constant tensor:
#      x y z
#    x 1.857480 -0.004540 0.044200 
#    y -0.004540 1.881180 -0.007090 
#    z 0.044200 -0.007090 1.908790 
# 
# From -- ./inp_files/200937.got.cif
#   From: 2010.05.17/outbox.cif.g08.bks.cpg/sg2_101_cif.got.tgz:200937.got - 2010.06.03 11:33:40.
