data_PCOD9106492
_publ_section_title
;
Structure prediction by ZEFSAII (Michael W. Deem and Ramdas Pophale) SiO2 
 PCOD9106492
Probable space group: P -1
;
_chemical_formula_sum "Si O2"
_cell_formula_units_Z 14
_cell_length_a 19.281158
_cell_length_b 12.775411
_cell_length_c 7.724165
_cell_angle_alpha 147.026835
_cell_angle_beta 43.891623
_cell_angle_gamma 146.705563
_cell_volume 567.232289
_symmetry_space_group_name_H-M "P -1"
_symmetry_group_IT_number 2
_symmetry_cell_setting 'triclinic'
loop_
_space_group_symop_operation_xyz
x,y,z
-x,-y,-z
loop_
_atom_site_type_symbol
_atom_site_label
_atom_site_fract_x
_atom_site_fract_y
_atom_site_fract_z
Si Si1 0.798763 0.224386 0.087239
Si Si2 0.574023 0.742103 0.816647
Si Si3 0.066404 0.403921 0.938559
Si Si4 0.649506 0.664678 0.923014
Si Si5 0.874190 0.119360 0.354359
Si Si6 0.331295 0.636039 0.271853
Si Si7 0.107579 0.183965 0.835381
O O1 0.724599 0.224116 0.385396
O O2 0.915433 0.236581 0.961124
O O3 0.868397 0.464578 0.177013
O O4 0.683739 0.988260 0.863184
O O5 0.500000 0.500000 0.500000
O O6 0.651785 0.721209 0.796818
O O7 0.469288 0.762153 0.116932
O O8 0.105971 0.631404 0.305624
O O9 0.108933 0.251535 0.728434
O O10 0.677662 0.487174 0.700190
O O11 0.500000 0.500000 0.000000
O O12 0.741152 0.907277 0.210249
O O13 0.894205 0.031487 0.380515
O O14 0.985217 0.153002 0.087409
O O15 0.233074 0.420644 0.021722
#
# Coordination Sequence:
#
# PCOD9106492 Si02
#       7
#     2   2   2   2   2   2   2
#     4  11  25  44  62 102 139 175 227 278 339 405
#     4  11  25  44  70  96 134 181 227 281 336 407
#     4  11  24  42  68 101 144 175 224 283 341 403
#     4   9  21  39  66  93 129 171 224 275 338 394
#     4  10  20  39  71 100 134 180 227 280 334 414
#     4  10  22  44  66  97 132 172 229 279 337 406
#     4  10  21  38  70 100 130 181 225 274 342 400
#
# _framework density 24.681245000000001
#
# number of rings (size 3 to 8) (size 9 to 14) (size 15 to 20)
#    0.000    1.714    1.429    1.714    8.000    1.143 
#    0.000    2.857    0.000    0.000    0.000    0.000 
#    0.000    0.000    0.000    0.000    0.000    0.000 
#
# Total GULP energy -78277.706178 kJ/mol
# GULP energy per Si atom -5591.264727 kJ/mol
# Density = 2.462507 g / cm^3
# Si number density = 24.681245 Si / 1000 Ang^3
#
#
#
# Elastic Constant Matrix: (Units=GPa)
#
#
# Indices 1 2 3 4 5 6 
#
# 1 158.6063 49.3827 23.2621 9.3669 -8.5216 1.2020
# 2 49.3827 166.7931 53.1414 5.4367 -4.0934 40.5727
# 3 23.2621 53.1414 86.8626 -3.4655 -3.5357 21.8891
# 4 9.3669 5.4367 -3.4655 45.8727 10.0890 -0.4736
# 5 -8.5216 -4.0934 -3.5357 10.0890 25.3265 11.4560
# 6 1.2020 40.5727 21.8891 -0.4736 11.4560 51.3496
#
#
#
# Elastic Compliance Matrix: (Units=1/GPa)
#
#
# Indices 1 2 3 4 5 6 
#
# 1 0.007305 -0.002077 -0.001037 -0.001754 0.002022 0.001445
# 2 -0.002077 0.009595 -0.003437 -0.002006 0.004364 -0.007060
# 3 -0.001037 -0.003437 0.015133 0.001122 0.002708 -0.004304
# 4 -0.001754 -0.002006 0.001122 0.025330 -0.012760 0.004228
# 5 0.002022 0.004364 0.002708 -0.012760 0.053930 -0.016799
# 6 0.001445 -0.007060 -0.004304 0.004228 -0.016799 0.030640
#
#
# Mechanical properties :
#
#
# Convention : Reuss Voigt Hill
#
# Bulk Modulus (GPa) = 52.82699 73.75937 63.29318
# Shear Modulus (GPa) = 30.98899 43.60815 37.29857
#
# Velocity S-wave (km/s) = 3.54724 4.20796 3.89165
# Velocity P-wave (km/s) = 6.18283 7.31839 6.77445
#
# Compressibility (1/GPa) = 0.01892972
#
# Stress axis : x y z
#
# Youngs Moduli (GPa) = 136.89204 104.21698 66.08133
#
# Poissons Ratio (x) = 0.21645 0.06855
# Poissons Ratio (y) = 0.28432 0.22715
# Poissons Ratio (z) = 0.14201 0.35824
#
# Static dielectric constant tensor:
#      x y z
#    x 1.971500 -0.071500 0.000060 
#    y -0.071500 1.967130 -0.001490 
#    z 0.000060 -0.001490 1.998690 
# 
# From -- ./inp_files/347431.got.cif
#   From: 2010.05.17/outbox.cif.g08.bks.cpg/sg2_174_cif.got.tgz:347431.got - 2010.06.03 11:33:40.
