data_PCOD9106661
_publ_section_title
;
Structure prediction by ZEFSAII (Michael W. Deem and Ramdas Pophale) SiO2 
 PCOD9106661
Probable space group: P -1
;
_chemical_formula_sum "Si O2"
_cell_formula_units_Z 16
_cell_length_a 11.788538
_cell_length_b 20.341803
_cell_length_c 8.749239
_cell_angle_alpha 29.269049
_cell_angle_beta 126.471000
_cell_angle_gamma 127.904446
_cell_volume 800.008764
_symmetry_space_group_name_H-M "P -1"
_symmetry_group_IT_number 2
_symmetry_cell_setting 'triclinic'
loop_
_space_group_symop_operation_xyz
x,y,z
-x,-y,-z
loop_
_atom_site_type_symbol
_atom_site_label
_atom_site_fract_x
_atom_site_fract_y
_atom_site_fract_z
Si Si1 0.649239 0.789120 0.368344
Si Si2 0.384257 0.872382 0.096618
Si Si3 0.916319 0.108229 0.290221
Si Si4 0.578691 0.519371 0.688407
Si Si5 0.053849 0.001586 0.870811
Si Si6 0.234161 0.608332 0.705995
Si Si7 0.966700 0.700403 0.255920
Si Si8 0.312449 0.402477 0.934479
O O1 0.485009 0.806836 0.199260
O O2 0.658259 0.678207 0.469163
O O3 0.775745 0.928125 0.163227
O O4 0.672841 0.724234 0.685769
O O5 0.313592 0.760738 0.396129
O O6 0.254723 0.925026 0.806907
O O7 0.500000 0.000000 0.000000
O O8 0.000000 0.000000 0.500000
O O9 0.966885 0.101122 0.515238
O O10 0.975507 0.255158 0.959844
O O11 0.500000 0.500000 0.500000
O O12 0.462379 0.474175 0.825876
O O13 0.693923 0.429161 0.004716
O O14 0.006355 0.845062 0.085803
O O15 0.000000 0.000000 0.000000
O O16 0.259406 0.505782 0.798760
O O17 0.064196 0.603722 0.594710
O O18 0.798527 0.641154 0.207245
#
# Coordination Sequence:
#
# PCOD9106661 Si02
#       8
#     2   2   2   2   2   2   2   2
#     4  11  21  42  61  91 119 164 211 253 301 368
#     4  11  20  34  66  93 120 155 210 259 294 356
#     4   9  19  37  58  89 116 157 204 244 298 360
#     4  11  24  41  62  90 127 164 200 250 316 372
#     4  11  24  41  59  89 130 165 201 252 323 368
#     4  10  20  40  59  95 119 154 210 257 299 361
#     4  10  21  37  65  90 116 157 209 255 297 369
#     4  11  20  39  68  87 120 157 209 252 304 362
#
# _framework density 19.999780999999999
#
# number of rings (size 3 to 8) (size 9 to 14) (size 15 to 20)
#    0.000    1.500    3.750    3.375    3.500    0.000 
#    2.250    1.250    0.000    0.000    0.000    0.000 
#    0.000    0.000    0.000    0.000    0.000    0.000 
#
# Total GULP energy -89226.238547 kJ/mol
# GULP energy per Si atom -5576.639909 kJ/mol
# Density = 1.995426 g / cm^3
# Si number density = 19.999781 Si / 1000 Ang^3
#
#
#
# Elastic Constant Matrix: (Units=GPa)
#
#
# Indices 1 2 3 4 5 6 
#
# 1 50.9191 20.2152 27.6134 14.3821 11.0075 10.4241
# 2 20.2152 90.5592 28.6169 11.1206 5.8502 9.7760
# 3 27.6134 28.6169 78.9994 28.0162 18.1273 -3.9993
# 4 14.3821 11.1206 28.0162 39.7808 6.6392 -0.2407
# 5 11.0075 5.8502 18.1273 6.6392 32.5094 13.1061
# 6 10.4241 9.7760 -3.9993 -0.2407 13.1061 36.9197
#
#
#
# Elastic Compliance Matrix: (Units=1/GPa)
#
#
# Indices 1 2 3 4 5 6 
#
# 1 0.027550 -0.002386 -0.007621 -0.003848 -0.000746 -0.007733
# 2 -0.002386 0.013423 -0.004959 0.000085 0.002938 -0.004460
# 3 -0.007621 -0.004959 0.024237 -0.010870 -0.011961 0.010265
# 4 -0.003848 0.000085 -0.010870 0.034094 0.000399 -0.000033
# 5 -0.000746 0.002938 -0.011961 0.000399 0.044139 -0.017529
# 6 -0.007733 -0.004460 0.010265 -0.000033 -0.017529 0.037785
#
#
# Mechanical properties :
#
#
# Convention : Reuss Voigt Hill
#
# Bulk Modulus (GPa) = 28.34490 41.48540 34.91515
# Shear Modulus (GPa) = 22.42959 31.44414 26.93687
#
# Velocity S-wave (km/s) = 3.35250 3.96943 3.67394
# Velocity P-wave (km/s) = 5.40269 6.46502 5.95758
#
# Compressibility (1/GPa) = 0.03527972
#
# Stress axis : x y z
#
# Youngs Moduli (GPa) = 36.29699 74.49729 41.25853
#
# Poissons Ratio (x) = 0.17777 0.31443
# Poissons Ratio (y) = 0.08661 0.20458
# Poissons Ratio (z) = 0.27662 0.36940
#
# Static dielectric constant tensor:
#      x y z
#    x 1.762490 0.013690 0.041090 
#    y 0.013690 1.771870 0.021900 
#    z 0.041090 0.021900 1.777870 
# 
# From -- ./inp_files/179051.got.cif
#   From: 2010.05.17/outbox.cif.g08.bks.cpg/sg2_90_cif.got.tgz:179051.got - 2010.06.03 11:33:40.
