data_PCOD9106351
_publ_section_title
;
Structure prediction by ZEFSAII (Michael W. Deem and Ramdas Pophale) SiO2 
 PCOD9106351
Probable space group: P -1
;
_chemical_formula_sum "Si O2"
_cell_formula_units_Z 14
_cell_length_a 13.345098
_cell_length_b 11.842388
_cell_length_c 6.689323
_cell_angle_alpha 123.126360
_cell_angle_beta 95.307130
_cell_angle_gamma 49.347763
_cell_volume 611.191602
_symmetry_space_group_name_H-M "P -1"
_symmetry_group_IT_number 2
_symmetry_cell_setting 'triclinic'
loop_
_space_group_symop_operation_xyz
x,y,z
-x,-y,-z
loop_
_atom_site_type_symbol
_atom_site_label
_atom_site_fract_x
_atom_site_fract_y
_atom_site_fract_z
Si Si1 0.405703 0.421821 0.417122
Si Si2 0.334153 0.195718 0.107896
Si Si3 0.119144 0.498272 0.070018
Si Si4 0.784374 0.195752 0.522661
Si Si5 0.987277 0.178272 0.321259
Si Si6 0.264846 0.971600 0.943486
Si Si7 0.219176 0.640676 0.930894
O O1 0.331439 0.600365 0.427318
O O2 0.568766 0.233879 0.196986
O O3 0.377133 0.491179 0.706858
O O4 0.323955 0.356592 0.341476
O O5 0.249458 0.147370 0.124983
O O6 0.267608 0.280710 0.957608
O O7 0.500000 0.000000 0.000000
O O8 0.051659 0.652235 0.389634
O O9 0.168676 0.557355 0.967468
O O10 0.000000 0.500000 0.000000
O O11 0.936587 0.106115 0.383363
O O12 0.771464 0.055507 0.308640
O O13 0.771255 0.249864 0.799618
O O14 0.891111 0.252105 0.173854
O O15 0.151369 0.020930 0.124913
#
# Coordination Sequence:
#
# PCOD9106351 Si02
#       7
#     2   2   2   2   2   2   2
#     4  10  21  43  64  89 125 173 208 259 322 373
#     4  10  21  41  63  93 129 163 209 263 320 368
#     4  11  22  39  68  96 122 170 219 254 323 385
#     4  10  21  42  64  90 123 172 213 251 319 380
#     4  10  22  41  65  91 127 165 210 265 317 370
#     4  11  23  37  64  95 128 162 210 267 313 374
#     4  10  20  39  69  84 124 172 208 256 314 380
#
# _framework density 22.906074
#
# number of rings (size 3 to 8) (size 9 to 14) (size 15 to 20)
#    0.000    1.714    4.286    1.714    2.000    2.286 
#    0.000   12.857    0.000    0.000    0.000    0.000 
#    0.000    0.000    0.000    0.000    0.000    0.000 
#
# Total GULP energy -78078.155238 kJ/mol
# GULP energy per Si atom -5577.011088 kJ/mol
# Density = 2.285394 g / cm^3
# Si number density = 22.906074 Si / 1000 Ang^3
#
#
#
# Elastic Constant Matrix: (Units=GPa)
#
#
# Indices 1 2 3 4 5 6 
#
# 1 104.0485 22.2539 39.4525 4.7105 10.9952 4.3616
# 2 22.2539 88.2466 31.8237 -11.4867 -10.3102 -1.0813
# 3 39.4525 31.8237 103.6151 -1.4679 -8.5580 -10.8753
# 4 4.7105 -11.4867 -1.4679 31.5573 0.2072 -2.2754
# 5 10.9952 -10.3102 -8.5580 0.2072 53.7509 8.5004
# 6 4.3616 -1.0813 -10.8753 -2.2754 8.5004 27.7188
#
#
#
# Elastic Compliance Matrix: (Units=1/GPa)
#
#
# Indices 1 2 3 4 5 6 
#
# 1 0.012496 -0.002278 -0.004702 -0.003120 -0.003229 -0.003166
# 2 -0.002278 0.014066 -0.003233 0.005235 0.002752 -0.000775
# 3 -0.004702 -0.003233 0.013131 0.000509 0.001589 0.005320
# 4 -0.003120 0.005235 0.000509 0.034321 0.001055 0.003389
# 5 -0.003229 0.002752 0.001589 0.001055 0.020843 -0.005066
# 6 -0.003166 -0.000775 0.005320 0.003389 -0.005066 0.040464
#
#
# Mechanical properties :
#
#
# Convention : Reuss Voigt Hill
#
# Bulk Modulus (GPa) = 51.89843 53.66338 52.78090
# Shear Modulus (GPa) = 30.83249 36.09738 33.46493
#
# Velocity S-wave (km/s) = 3.67282 3.97405 3.82640
# Velocity P-wave (km/s) = 6.37906 6.67352 6.52795
#
# Compressibility (1/GPa) = 0.01926841
#
# Stress axis : x y z
#
# Youngs Moduli (GPa) = 80.02575 71.09572 76.15607
#
# Poissons Ratio (x) = 0.16195 0.35805
# Poissons Ratio (y) = 0.18229 0.24618
# Poissons Ratio (z) = 0.37624 0.22982
#
# Static dielectric constant tensor:
#      x y z
#    x 1.901700 -0.038480 0.030030 
#    y -0.038480 2.006490 0.105780 
#    z 0.030030 0.105780 1.907250 
# 
# From -- ./inp_files/92912.got.cif
#   From: 2010.05.17/outbox.cif.g08.bks.cpg/sg2_47_cif.got.tgz:92912.got - 2010.06.03 11:33:40.
