data_PCOD9106167
_publ_section_title
;
Structure prediction by ZEFSAII (Michael W. Deem and Ramdas Pophale) SiO2 
 PCOD9106167
Probable space group: P -1
;
_chemical_formula_sum "Si O2"
_cell_formula_units_Z 14
_cell_length_a 7.645705
_cell_length_b 7.825762
_cell_length_c 11.067126
_cell_angle_alpha 91.503802
_cell_angle_beta 63.090589
_cell_angle_gamma 70.439457
_cell_volume 543.812622
_symmetry_space_group_name_H-M "P -1"
_symmetry_group_IT_number 2
_symmetry_cell_setting 'triclinic'
loop_
_space_group_symop_operation_xyz
x,y,z
-x,-y,-z
loop_
_atom_site_type_symbol
_atom_site_label
_atom_site_fract_x
_atom_site_fract_y
_atom_site_fract_z
Si Si1 0.301236 0.387922 0.444104
Si Si2 0.137496 0.784143 0.612028
Si Si3 0.243991 0.809619 0.828631
Si Si4 0.730686 0.480600 0.983437
Si Si5 0.951924 0.330967 0.674367
Si Si6 0.360700 0.101898 0.928421
Si Si7 0.736480 0.058886 0.638699
O O1 0.264253 0.567250 0.543967
O O2 0.533870 0.268838 0.319096
O O3 0.174183 0.486114 0.363666
O O4 0.193469 0.278086 0.556788
O O5 0.085440 0.846225 0.766710
O O6 0.264761 0.884827 0.498757
O O7 0.910240 0.858711 0.616852
O O8 0.241885 0.643321 0.909203
O O9 0.230233 0.982815 0.918567
O O10 0.738803 0.680348 0.007360
O O11 0.500000 0.500000 0.000000
O O12 0.910749 0.376678 0.827689
O O13 0.834995 0.194123 0.675845
O O14 0.517439 0.088368 0.767450
O O15 0.500000 0.000000 0.000000
#
# Coordination Sequence:
#
# PCOD9106167 Si02
#       7
#     2   2   2   2   2   2   2
#     4  10  21  38  68  96 130 171 220 275 335 388
#     4  10  24  42  67  97 138 170 218 285 337 392
#     4  12  25  44  68 103 136 173 227 282 327 393
#     4  12  21  44  69  96 136 179 225 268 332 403
#     4  10  20  39  67  97 127 172 224 273 323 404
#     4  12  24  40  74  99 131 184 225 267 331 406
#     4  10  22  43  66  98 130 175 221 272 344 401
#
# _framework density 25.744160999999998
#
# number of rings (size 3 to 8) (size 9 to 14) (size 15 to 20)
#    0.000    1.143    4.286    1.286   10.000    0.571 
#    2.571    3.571    0.000    0.000    0.000    0.000 
#    0.000    0.000    0.000    0.000    0.000    0.000 
#
# Total GULP energy -78417.218073 kJ/mol
# GULP energy per Si atom -5601.229862 kJ/mol
# Density = 2.568557 g / cm^3
# Si number density = 25.744161 Si / 1000 Ang^3
#
#
#
# Elastic Constant Matrix: (Units=GPa)
#
#
# Indices 1 2 3 4 5 6 
#
# 1 60.7544 43.3289 38.5825 -7.0150 5.2694 15.7093
# 2 43.3289 174.6975 53.4290 5.0588 24.2094 54.1993
# 3 38.5825 53.4290 187.1707 -13.6395 19.2501 15.8553
# 4 -7.0150 5.0588 -13.6395 39.6807 0.0061 4.5725
# 5 5.2694 24.2094 19.2501 0.0061 54.9637 4.7004
# 6 15.7093 54.1993 15.8553 4.5725 4.7004 34.1507
#
#
#
# Elastic Compliance Matrix: (Units=1/GPa)
#
#
# Indices 1 2 3 4 5 6 
#
# 1 0.022344 -0.003734 -0.003052 0.003787 0.000876 -0.003562
# 2 -0.003734 0.013049 -0.001130 -0.000648 -0.003463 -0.017904
# 3 -0.003052 -0.001130 0.006577 0.001853 -0.001522 0.000105
# 4 0.003787 -0.000648 0.001853 0.027187 -0.000287 -0.005174
# 5 0.000876 -0.003463 -0.001522 -0.000287 0.019903 0.003099
# 6 -0.003562 -0.017904 0.000105 -0.005174 0.003099 0.059554
#
#
# Mechanical properties :
#
#
# Convention : Reuss Voigt Hill
#
# Bulk Modulus (GPa) = 38.25834 77.03372 57.64603
# Shear Modulus (GPa) = 28.87529 44.91118 36.89323
#
# Velocity S-wave (km/s) = 3.35270 4.18128 3.78970
# Velocity P-wave (km/s) = 5.46632 7.30058 6.44900
#
# Compressibility (1/GPa) = 0.02613809
#
# Stress axis : x y z
#
# Youngs Moduli (GPa) = 44.75562 76.63281 152.04197
#
# Poissons Ratio (x) = 0.28615 0.46406
# Poissons Ratio (y) = 0.16712 0.17176
# Poissons Ratio (z) = 0.13660 0.08657
#
# Static dielectric constant tensor:
#      x y z
#    x 2.138310 0.038430 0.011190 
#    y 0.038430 2.050760 0.073080 
#    z 0.011190 0.073080 2.017790 
# 
# From -- ./inp_files/158477.got.cif
#   From: 2010.05.17/outbox.cif.g08.bks.cpg/sg2_80_cif.got.tgz:158477.got - 2010.06.03 11:33:40.
