data_PCOD9106601
_publ_section_title
;
Structure prediction by ZEFSAII (Michael W. Deem and Ramdas Pophale) SiO2 
 PCOD9106601
Probable space group: P -1
;
_chemical_formula_sum "Si O2"
_cell_formula_units_Z 16
_cell_length_a 9.583863
_cell_length_b 14.749402
_cell_length_c 5.419407
_cell_angle_alpha 63.464298
_cell_angle_beta 104.972780
_cell_angle_gamma 115.069675
_cell_volume 618.541960
_symmetry_space_group_name_H-M "P -1"
_symmetry_group_IT_number 2
_symmetry_cell_setting 'triclinic'
loop_
_space_group_symop_operation_xyz
x,y,z
-x,-y,-z
loop_
_atom_site_type_symbol
_atom_site_label
_atom_site_fract_x
_atom_site_fract_y
_atom_site_fract_z
Si Si1 0.316875 0.355892 0.578041
Si Si2 0.203452 0.470784 0.754437
Si Si3 0.611410 0.407954 0.920070
Si Si4 0.949904 0.825240 0.537036
Si Si5 0.145454 0.989834 0.818786
Si Si6 0.116530 0.623529 0.143183
Si Si7 0.793996 0.190033 0.650432
Si Si8 0.471862 0.056934 0.666355
O O1 0.216804 0.366547 0.755553
O O2 0.459496 0.333500 0.798333
O O3 0.360874 0.475381 0.336923
O O4 0.212993 0.272195 0.435633
O O5 0.150963 0.538904 0.447293
O O6 0.064367 0.429915 0.939465
O O7 0.366384 0.551814 0.835910
O O8 0.748739 0.360771 0.010010
O O9 0.014448 0.894805 0.725897
O O10 0.084016 0.782837 0.551245
O O11 0.914346 0.915628 0.242764
O O12 0.293554 0.045084 0.635019
O O13 0.203488 0.927865 0.128761
O O14 0.142260 0.727770 0.196444
O O15 0.612636 0.172516 0.567550
O O16 0.500000 0.000000 0.500000
O O17 0.500000 0.000000 0.000000
#
# Coordination Sequence:
#
# PCOD9106601 Si02
#       8
#     2   2   2   2   2   2   2   2
#     4  10  22  38  61  87 120 161 204 253 307 383
#     4  10  20  40  58  86 120 156 197 262 306 374
#     4  10  22  39  59  87 125 157 201 254 313 374
#     4  11  22  40  62  87 122 160 216 258 315 384
#     4  10  24  40  62  90 121 164 209 263 321 377
#     4  10  22  36  60  90 116 156 207 249 312 381
#     4  11  22  40  62  87 123 162 212 259 322 383
#     4  10  21  42  66  92 128 168 211 273 330 384
#
# _framework density 25.867286
#
# number of rings (size 3 to 8) (size 9 to 14) (size 15 to 20)
#    0.000    1.750    2.500    1.125    3.500    1.000 
#    0.000    0.000    0.000    0.000    0.000    0.000 
#    0.000    0.000    0.000    0.000    0.000    0.000 
#
# Total GULP energy -89315.118025 kJ/mol
# GULP energy per Si atom -5582.194877 kJ/mol
# Density = 2.580841 g / cm^3
# Si number density = 25.867286 Si / 1000 Ang^3
#
#
#
# Elastic Constant Matrix: (Units=GPa)
#
#
# Indices 1 2 3 4 5 6 
#
# 1 119.7801 33.3647 9.3209 9.5155 8.2245 2.8782
# 2 33.3647 83.6978 4.8439 15.4269 8.3854 6.3692
# 3 9.3209 4.8439 51.3518 18.4060 3.9675 2.0585
# 4 9.5155 15.4269 18.4060 28.4081 5.9231 12.8394
# 5 8.2245 8.3854 3.9675 5.9231 37.6765 6.0907
# 6 2.8782 6.3692 2.0585 12.8394 6.0907 48.2628
#
#
#
# Elastic Compliance Matrix: (Units=1/GPa)
#
#
# Indices 1 2 3 4 5 6 
#
# 1 0.009536 -0.003572 -0.001197 -0.000324 -0.001139 0.000184
# 2 -0.003572 0.014885 0.002325 -0.008320 -0.001560 0.000560
# 3 -0.001197 0.002325 0.026389 -0.019614 -0.000587 0.003931
# 4 -0.000324 -0.008320 -0.019614 0.059256 -0.003160 -0.013411
# 5 -0.001139 -0.001560 -0.000587 -0.003160 0.028085 -0.002405
# 6 0.000184 0.000560 0.003931 -0.013411 -0.002405 0.024339
#
#
# Mechanical properties :
#
#
# Convention : Reuss Voigt Hill
#
# Bulk Modulus (GPa) = 21.77651 38.87652 30.32652
# Shear Modulus (GPa) = 27.36925 36.68952 32.02939
#
# Velocity S-wave (km/s) = 3.25632 3.77022 3.52265
# Velocity P-wave (km/s) = 4.75131 5.83220 5.31928
#
# Compressibility (1/GPa) = 0.04592104
#
# Stress axis : x y z
#
# Youngs Moduli (GPa) = 104.86103 67.18380 37.89397
#
# Poissons Ratio (x) = 0.24000 0.04536
# Poissons Ratio (y) = 0.37460 -0.08809
# Poissons Ratio (z) = 0.12553 -0.15619
#
# Static dielectric constant tensor:
#      x y z
#    x 2.190900 0.068950 -0.053830 
#    y 0.068950 2.007150 -0.038320 
#    z -0.053830 -0.038320 2.139480 
# 
# From -- ./inp_files/38151.got.cif
#   From: 2010.05.17/outbox.cif.g08.bks.cpg/sg2_20_cif.got.tgz:38151.got - 2010.06.03 11:33:40.
