data_PCOD9106467
_publ_section_title
;
Structure prediction by ZEFSAII (Michael W. Deem and Ramdas Pophale) SiO2 
 PCOD9106467
Probable space group: P -1
;
_chemical_formula_sum "Si O2"
_cell_formula_units_Z 14
_cell_length_a 11.915760
_cell_length_b 11.559233
_cell_length_c 11.367672
_cell_angle_alpha 101.120871
_cell_angle_beta 75.838883
_cell_angle_gamma 35.596616
_cell_volume 636.039885
_symmetry_space_group_name_H-M "P -1"
_symmetry_group_IT_number 2
_symmetry_cell_setting 'triclinic'
loop_
_space_group_symop_operation_xyz
x,y,z
-x,-y,-z
loop_
_atom_site_type_symbol
_atom_site_label
_atom_site_fract_x
_atom_site_fract_y
_atom_site_fract_z
Si Si1 0.315981 0.554099 0.554433
Si Si2 0.225270 0.907738 0.077385
Si Si3 0.466714 0.901532 0.643590
Si Si4 0.376679 0.625328 0.215608
Si Si5 0.862439 0.717614 0.411550
Si Si6 0.496683 0.120542 0.101927
Si Si7 0.926788 0.906899 0.494087
O O1 0.500000 0.500000 0.500000
O O2 0.489683 0.273368 0.444606
O O3 0.129202 0.720798 0.517229
O O4 0.090204 0.776084 0.758349
O O5 0.347013 0.736802 0.131759
O O6 0.342255 0.703837 0.914641
O O7 0.364731 0.902017 0.009000
O O8 0.748528 0.710533 0.507736
O O9 0.384220 0.989930 0.817858
O O10 0.258979 0.162281 0.664367
O O11 0.128303 0.758692 0.307044
O O12 0.296809 0.786177 0.372752
O O13 0.181761 0.432579 0.267720
O O14 0.781006 0.916246 0.530127
O O15 0.500000 0.000000 0.000000
#
# Coordination Sequence:
#
# PCOD9106467 Si02
#       7
#     2   2   2   2   2   2   2
#     4  11  24  41  68  99 139 180 231 285 341 412
#     4  10  21  39  62 101 133 175 225 280 351 392
#     4  11  26  44  69 105 134 180 241 277 336 420
#     4   9  19  34  64  99 126 165 238 265 327 419
#     4  11  24  45  73  97 137 186 233 280 337 413
#     4  12  25  44  73  97 140 180 225 292 349 407
#     4  10  20  39  70  95 131 190 224 274 352 399
#
# _framework density 22.011199000000001
#
# number of rings (size 3 to 8) (size 9 to 14) (size 15 to 20)
#    0.000    1.429    2.857    1.286   10.000    0.571 
#    0.000    4.286    6.286    0.000    0.000    0.000 
#    0.000    0.000    0.000    0.000    0.000    0.000 
#
# Total GULP energy -78159.401943 kJ/mol
# GULP energy per Si atom -5582.814425 kJ/mol
# Density = 2.196110 g / cm^3
# Si number density = 22.011199 Si / 1000 Ang^3
#
#
#
# Elastic Constant Matrix: (Units=GPa)
#
#
# Indices 1 2 3 4 5 6 
#
# 1 133.9770 14.5442 37.2323 -19.2381 -6.2476 27.4100
# 2 14.5442 55.2041 17.0025 -15.8198 1.3769 6.2521
# 3 37.2323 17.0025 88.6627 -12.5462 -1.5671 13.8897
# 4 -19.2381 -15.8198 -12.5462 22.9322 11.3310 -3.6539
# 5 -6.2476 1.3769 -1.5671 11.3310 43.3590 2.8067
# 6 27.4100 6.2521 13.8897 -3.6539 2.8067 38.0515
#
#
#
# Elastic Compliance Matrix: (Units=1/GPa)
#
#
# Indices 1 2 3 4 5 6 
#
# 1 0.010287 0.000691 -0.002565 0.006765 -0.000016 -0.005937
# 2 0.000691 0.024237 -0.002170 0.018598 -0.005512 -0.001496
# 3 -0.002565 -0.002170 0.013665 0.003764 -0.000637 -0.002375
# 4 0.006765 0.018598 0.003764 0.073192 -0.018548 -0.000907
# 5 -0.000016 -0.005512 -0.000637 -0.018548 0.028236 -0.002714
# 6 -0.005937 -0.001496 -0.002375 -0.000907 -0.002714 0.031783
#
#
# Mechanical properties :
#
#
# Convention : Reuss Voigt Hill
#
# Bulk Modulus (GPa) = 24.93599 46.15574 35.54587
# Shear Modulus (GPa) = 24.64822 34.80620 29.72721
#
# Velocity S-wave (km/s) = 3.34998 3.98086 3.67897
# Velocity P-wave (km/s) = 5.12996 6.49187 5.85068
#
# Compressibility (1/GPa) = 0.04010268
#
# Stress axis : x y z
#
# Youngs Moduli (GPa) = 97.20910 41.25893 73.17701
#
# Poissons Ratio (x) = -0.02853 0.18773
# Poissons Ratio (y) = -0.06721 0.15876
# Poissons Ratio (z) = 0.24938 0.08951
#
# Static dielectric constant tensor:
#      x y z
#    x 2.033620 0.105950 0.137180 
#    y 0.105950 1.919000 0.039850 
#    z 0.137180 0.039850 1.911970 
# 
# From -- ./inp_files/426162.got.cif
#   From: 2010.05.17/outbox.cif.g08.bks.cpg/sg2_214_cif.got.tgz:426162.got - 2010.06.03 11:33:40.
