data_PCOD9106249
_publ_section_title
;
Structure prediction by ZEFSAII (Michael W. Deem and Ramdas Pophale) SiO2 
 PCOD9106249
Probable space group: P -1
;
_chemical_formula_sum "Si O2"
_cell_formula_units_Z 16
_cell_length_a 7.989147
_cell_length_b 14.932931
_cell_length_c 9.239595
_cell_angle_alpha 59.061454
_cell_angle_beta 82.038844
_cell_angle_gamma 54.025647
_cell_volume 743.613228
_symmetry_space_group_name_H-M "P -1"
_symmetry_group_IT_number 2
_symmetry_cell_setting 'triclinic'
loop_
_space_group_symop_operation_xyz
x,y,z
-x,-y,-z
loop_
_atom_site_type_symbol
_atom_site_label
_atom_site_fract_x
_atom_site_fract_y
_atom_site_fract_z
Si Si1 0.482997 0.881151 0.854633
Si Si2 0.697666 0.374565 0.164095
Si Si3 0.316332 0.634656 0.486946
Si Si4 0.565791 0.867748 0.419896
Si Si5 0.522897 0.750431 0.245415
Si Si6 0.142093 0.308149 0.236544
Si Si7 0.931831 0.469962 0.386445
Si Si8 0.782572 0.106408 0.357635
O O1 0.678112 0.747134 0.861349
O O2 0.268698 0.935893 0.747227
O O3 0.523476 0.988641 0.741551
O O4 0.458692 0.854965 0.042980
O O5 0.640257 0.379521 0.335530
O O6 0.754436 0.238386 0.214385
O O7 0.917475 0.357960 0.154798
O O8 0.500000 0.500000 0.000000
O O9 0.500000 0.500000 0.500000
O O10 0.336696 0.742809 0.329696
O O11 0.112112 0.636743 0.490706
O O12 0.616406 0.778339 0.348425
O O13 0.749379 0.815800 0.562052
O O14 0.395810 0.865016 0.532418
O O15 0.704431 0.609329 0.269252
O O16 0.083320 0.420364 0.268246
O O17 0.000000 0.500000 0.500000
O O18 0.000000 0.000000 0.500000
#
# Coordination Sequence:
#
# PCOD9106249 Si02
#       8
#     2   2   2   2   2   2   2   2
#     4  11  25  40  67  98 131 173 229 284 318 405
#     4  11  23  41  67 101 129 171 225 283 331 394
#     4   9  21  39  63  88 132 169 211 262 336 400
#     4  11  21  44  68  89 133 180 225 270 336 403
#     4  11  22  42  62  99 131 174 217 272 340 394
#     4  10  22  43  66  96 131 170 222 270 338 395
#     4  10  20  39  68  93 126 172 216 263 334 409
#     4  11  23  43  69  92 132 177 228 273 346 400
#
# _framework density 21.516560999999999
#
# number of rings (size 3 to 8) (size 9 to 14) (size 15 to 20)
#    0.000    1.500    2.500    3.375    5.250    0.500 
#    6.750    1.875    0.000    0.000    0.000    0.000 
#    0.000    0.000    0.000    0.000    0.000    0.000 
#
# Total GULP energy -89253.516547 kJ/mol
# GULP energy per Si atom -5578.344784 kJ/mol
# Density = 2.146759 g / cm^3
# Si number density = 21.516561 Si / 1000 Ang^3
#
#
#
# Elastic Constant Matrix: (Units=GPa)
#
#
# Indices 1 2 3 4 5 6 
#
# 1 89.0567 19.1224 52.0477 -2.5823 19.1916 3.3342
# 2 19.1224 56.8444 11.6885 1.3745 -2.3296 9.4117
# 3 52.0477 11.6885 127.3299 -0.0662 3.3666 5.5286
# 4 -2.5823 1.3745 -0.0662 31.0268 -6.5080 2.7229
# 5 19.1916 -2.3296 3.3666 -6.5080 22.0938 -3.3823
# 6 3.3342 9.4117 5.5286 2.7229 -3.3823 35.2092
#
#
#
# Elastic Compliance Matrix: (Units=1/GPa)
#
#
# Indices 1 2 3 4 5 6 
#
# 1 0.020751 -0.006026 -0.007415 -0.001763 -0.018173 -0.000799
# 2 -0.006026 0.020489 0.000594 0.000392 0.006749 -0.004382
# 3 -0.007415 0.000594 0.010731 0.000469 0.004898 -0.000708
# 4 -0.001763 0.000392 0.000469 0.034609 0.011453 -0.001588
# 5 -0.018173 0.006749 0.004898 0.011453 0.065077 0.004513
# 6 -0.000799 -0.004382 -0.000708 -0.001588 0.004513 0.030316
#
#
# Mechanical properties :
#
#
# Convention : Reuss Voigt Hill
#
# Bulk Modulus (GPa) = 38.05300 48.77203 43.41251
# Shear Modulus (GPa) = 23.10260 30.35745 26.73002
#
# Velocity S-wave (km/s) = 3.28031 3.76025 3.52845
# Velocity P-wave (km/s) = 5.66313 6.44741 6.06796
#
# Compressibility (1/GPa) = 0.02627914
#
# Stress axis : x y z
#
# Youngs Moduli (GPa) = 48.19026 48.80598 93.18412
#
# Poissons Ratio (x) = 0.29409 0.69095
# Poissons Ratio (y) = 0.29038 -0.05538
# Poissons Ratio (z) = 0.35732 -0.02900
#
# Static dielectric constant tensor:
#      x y z
#    x 1.855400 0.009570 -0.002630 
#    y 0.009570 1.820260 -0.024380 
#    z -0.002630 -0.024380 1.771300 
# 
# From -- ./inp_files/200250.got.cif
#   From: 2010.05.17/outbox.cif.g08.bks.cpg/sg2_101_cif.got.tgz:200250.got - 2010.06.03 11:33:40.
