data_PCOD9106589
_publ_section_title
;
Structure prediction by ZEFSAII (Michael W. Deem and Ramdas Pophale) SiO2 
 PCOD9106589
Probable space group: P -1
;
_chemical_formula_sum "Si O2"
_cell_formula_units_Z 16
_cell_length_a 10.690923
_cell_length_b 8.389055
_cell_length_c 18.209729
_cell_angle_alpha 60.006054
_cell_angle_beta 133.349772
_cell_angle_gamma 141.939693
_cell_volume 729.141489
_symmetry_space_group_name_H-M "P -1"
_symmetry_group_IT_number 2
_symmetry_cell_setting 'triclinic'
loop_
_space_group_symop_operation_xyz
x,y,z
-x,-y,-z
loop_
_atom_site_type_symbol
_atom_site_label
_atom_site_fract_x
_atom_site_fract_y
_atom_site_fract_z
Si Si1 0.488915 0.007596 0.081428
Si Si2 0.322080 0.086067 0.445240
Si Si3 0.018557 0.513114 0.181499
Si Si4 0.395837 0.370867 0.595628
Si Si5 0.030550 0.851616 0.993420
Si Si6 0.164995 0.713810 0.354192
Si Si7 0.688162 0.508724 0.804425
Si Si8 0.888884 0.184478 0.429349
O O1 0.754424 0.252430 0.160811
O O2 0.295438 0.013229 0.028625
O O3 0.406815 0.749336 0.137723
O O4 0.500000 0.000000 0.000000
O O5 0.386699 0.350697 0.420119
O O6 0.587977 0.197741 0.538449
O O7 0.198354 0.939776 0.351879
O O8 0.155186 0.866758 0.489902
O O9 0.983790 0.638960 0.075127
O O10 0.151361 0.691660 0.265951
O O11 0.150201 0.442937 0.210109
O O12 0.468179 0.451956 0.691461
O O13 0.141360 0.270674 0.494775
O O14 0.336958 0.109097 0.623555
O O15 0.846881 0.725226 0.880299
O O16 0.000000 0.000000 0.000000
O O17 0.940235 0.426365 0.363501
#
# Coordination Sequence:
#
# PCOD9106589 Si02
#       8
#     2   2   2   2   2   2   2   2
#     4  11  20  43  65  87 118 167 209 252 306 372
#     4  10  21  39  58  85 128 160 196 261 312 359
#     4  11  22  41  66  89 121 162 215 246 309 381
#     4  10  22  35  60  90 119 157 210 247 307 365
#     4  11  25  42  62  92 130 160 202 267 315 362
#     4  10  22  37  61  89 118 164 206 248 311 374
#     4  11  22  40  64  92 121 165 205 256 308 374
#     4  10  20  40  57  87 125 157 205 255 305 367
#
# _framework density 21.943615000000001
#
# number of rings (size 3 to 8) (size 9 to 14) (size 15 to 20)
#    0.000    1.500    2.500    3.000    1.750    4.500 
#    2.250    0.000    0.000    0.000    0.000    0.000 
#    0.000    0.000    0.000    0.000    0.000    0.000 
#
# Total GULP energy -89249.069405 kJ/mol
# GULP energy per Si atom -5578.066838 kJ/mol
# Density = 2.189367 g / cm^3
# Si number density = 21.943615 Si / 1000 Ang^3
#
#
#
# Elastic Constant Matrix: (Units=GPa)
#
#
# Indices 1 2 3 4 5 6 
#
# 1 79.2479 45.0679 13.4163 14.7711 -27.0927 0.4661
# 2 45.0679 91.1571 23.4711 15.4944 -9.1587 2.0356
# 3 13.4163 23.4711 85.0360 25.9026 -33.2407 -13.1526
# 4 14.7711 15.4944 25.9026 36.4037 -10.1662 -9.7829
# 5 -27.0927 -9.1587 -33.2407 -10.1662 36.9066 6.5798
# 6 0.4661 2.0356 -13.1526 -9.7829 6.5798 31.1140
#
#
#
# Elastic Compliance Matrix: (Units=1/GPa)
#
#
# Indices 1 2 3 4 5 6 
#
# 1 0.028455 -0.012997 0.011149 -0.007371 0.026158 -0.002712
# 2 -0.012997 0.018391 -0.007654 -0.000945 -0.011766 -0.002053
# 3 0.011149 -0.007654 0.026459 -0.012154 0.026390 0.002116
# 4 -0.007371 -0.000945 -0.012154 0.039947 -0.007214 0.009120
# 5 0.026158 -0.011766 0.026390 -0.007214 0.065996 -0.004691
# 6 -0.002712 -0.002053 0.002116 0.009120 -0.004691 0.037069
#
#
# Mechanical properties :
#
#
# Convention : Reuss Voigt Hill
#
# Bulk Modulus (GPa) = 18.41649 46.59463 32.50556
# Shear Modulus (GPa) = 19.72990 32.45056 26.09023
#
# Velocity S-wave (km/s) = 3.00178 3.84971 3.45188
# Velocity P-wave (km/s) = 4.51942 6.40627 5.54371
#
# Compressibility (1/GPa) = 0.05429915
#
# Stress axis : x y z
#
# Youngs Moduli (GPa) = 35.14315 54.37413 37.79445
#
# Poissons Ratio (x) = 0.70671 -0.42136
# Poissons Ratio (y) = 0.45676 0.28930
# Poissons Ratio (z) = -0.39180 0.41621
#
# Static dielectric constant tensor:
#      x y z
#    x 1.848990 -0.027110 -0.010220 
#    y -0.027110 1.847250 -0.010790 
#    z -0.010220 -0.010790 1.840500 
# 
# From -- ./inp_files/46212.got.cif
#   From: 2010.05.17/outbox.cif.g08.bks.cpg/sg2_24_cif.got.tgz:46212.got - 2010.06.03 11:33:40.
