data_PCOD9106281
_publ_section_title
;
Structure prediction by ZEFSAII (Michael W. Deem and Ramdas Pophale) SiO2 
 PCOD9106281
Probable space group: P -1
;
_chemical_formula_sum "Si O2"
_cell_formula_units_Z 14
_cell_length_a 16.473021
_cell_length_b 11.244497
_cell_length_c 8.589041
_cell_angle_alpha 57.138567
_cell_angle_beta 83.742286
_cell_angle_gamma 37.728359
_cell_volume 639.746375
_symmetry_space_group_name_H-M "P -1"
_symmetry_group_IT_number 2
_symmetry_cell_setting 'triclinic'
loop_
_space_group_symop_operation_xyz
x,y,z
-x,-y,-z
loop_
_atom_site_type_symbol
_atom_site_label
_atom_site_fract_x
_atom_site_fract_y
_atom_site_fract_z
Si Si1 0.312895 0.265782 0.917659
Si Si2 0.285930 0.977751 0.138267
Si Si3 0.032872 0.148103 0.937911
Si Si4 0.335974 0.322607 0.233367
Si Si5 0.779918 0.211427 0.149205
Si Si6 0.878588 0.190008 0.580680
Si Si7 0.625290 0.340971 0.380179
O O1 0.200565 0.540259 0.640628
O O2 0.312207 0.308958 0.069083
O O3 0.500000 0.000000 0.000000
O O4 0.264205 0.176145 0.979515
O O5 0.436667 0.685121 0.206495
O O6 0.345560 0.845028 0.394660
O O7 0.116206 0.151521 0.010610
O O8 0.832481 0.457211 0.788343
O O9 0.109699 0.032618 0.831949
O O10 0.104564 0.896196 0.185474
O O11 0.500000 0.000000 0.500000
O O12 0.344775 0.480675 0.113651
O O13 0.680820 0.257007 0.250017
O O14 0.921745 0.090825 0.298297
O O15 0.753930 0.262047 0.483081
#
# Coordination Sequence:
#
# PCOD9106281 Si02
#       7
#     2   2   2   2   2   2   2
#     4  12  24  40  70  99 127 169 220 280 322 386
#     4  10  23  41  64  98 135 167 218 270 334 378
#     4  10  25  43  67  95 136 178 212 270 325 390
#     4  11  25  41  67 103 134 169 218 275 329 379
#     4  11  22  42  70  95 127 179 221 265 318 399
#     4  10  20  39  68  96 123 167 227 262 314 388
#     4  10  20  40  67  95 126 175 220 267 317 397
#
# _framework density 21.883671
#
# number of rings (size 3 to 8) (size 9 to 14) (size 15 to 20)
#    0.000    1.429    2.857    2.143    8.000    1.143 
#    0.000    2.143    0.000    0.000    0.000    0.000 
#    0.000    0.000    0.000    0.000    0.000    0.000 
#
# Total GULP energy -78193.666744 kJ/mol
# GULP energy per Si atom -5585.261910 kJ/mol
# Density = 2.183386 g / cm^3
# Si number density = 21.883671 Si / 1000 Ang^3
#
#
#
# Elastic Constant Matrix: (Units=GPa)
#
#
# Indices 1 2 3 4 5 6 
#
# 1 67.2764 16.9655 44.3016 -2.6530 -20.3699 -8.2180
# 2 16.9655 149.8124 60.1423 6.2195 -4.0974 -22.7348
# 3 44.3016 60.1423 163.5928 -17.4568 -15.6158 -8.8716
# 4 -2.6530 6.2195 -17.4568 26.4817 -4.3282 -5.6145
# 5 -20.3699 -4.0974 -15.6158 -4.3282 40.3317 1.7876
# 6 -8.2180 -22.7348 -8.8716 -5.6145 1.7876 28.4899
#
#
#
# Elastic Compliance Matrix: (Units=1/GPa)
#
#
# Indices 1 2 3 4 5 6 
#
# 1 0.021112 0.000341 -0.004589 0.001448 0.008869 0.004662
# 2 0.000341 0.009028 -0.003557 -0.003394 -0.000899 0.005583
# 3 -0.004589 -0.003557 0.009585 0.007005 0.001780 0.000092
# 4 0.001448 -0.003394 0.007005 0.046392 0.007698 0.008550
# 5 0.008869 -0.000899 0.001780 0.007698 0.030610 0.001992
# 6 0.004662 0.005583 0.000092 0.008550 0.001992 0.042488
#
#
# Mechanical properties :
#
#
# Convention : Reuss Voigt Hill
#
# Bulk Modulus (GPa) = 41.46501 69.27781 55.37141
# Shear Modulus (GPa) = 27.34309 36.34548 31.84428
#
# Velocity S-wave (km/s) = 3.53863 4.07977 3.81880
# Velocity P-wave (km/s) = 5.97368 7.34294 6.69342
#
# Compressibility (1/GPa) = 0.02411672
#
# Stress axis : x y z
#
# Youngs Moduli (GPa) = 47.36726 110.77114 104.32764
#
# Poissons Ratio (x) = -0.03780 0.47872
# Poissons Ratio (y) = -0.01616 0.37104
# Poissons Ratio (z) = 0.21735 0.39396
#
# Static dielectric constant tensor:
#      x y z
#    x 1.843500 0.056740 0.028810 
#    y 0.056740 1.842740 0.043700 
#    z 0.028810 0.043700 1.865940 
# 
# From -- ./inp_files/238125.got.cif
#   From: 2010.05.17/outbox.cif.g08.bks.cpg/sg2_120_cif.got.tgz:238125.got - 2010.06.03 11:33:40.
