data_PCOD9106084
_publ_section_title
;
Structure prediction by ZEFSAII (Michael W. Deem and Ramdas Pophale) SiO2 
 PCOD9106084
Probable space group: P -1
;
_chemical_formula_sum "Si O2"
_cell_formula_units_Z 14
_cell_length_a 9.770152
_cell_length_b 8.224289
_cell_length_c 20.893727
_cell_angle_alpha 125.009001
_cell_angle_beta 25.130109
_cell_angle_gamma 120.935584
_cell_volume 583.899813
_symmetry_space_group_name_H-M "P -1"
_symmetry_group_IT_number 2
_symmetry_cell_setting 'triclinic'
loop_
_space_group_symop_operation_xyz
x,y,z
-x,-y,-z
loop_
_atom_site_type_symbol
_atom_site_label
_atom_site_fract_x
_atom_site_fract_y
_atom_site_fract_z
Si Si1 0.693424 0.128112 0.292053
Si Si2 0.164193 0.142404 0.306780
Si Si3 0.256534 0.230028 0.618759
Si Si4 0.765650 0.519128 0.946077
Si Si5 0.708209 0.282384 0.181077
Si Si6 0.526228 0.271435 0.650750
Si Si7 0.324702 0.211450 0.118808
O O1 0.466794 0.224526 0.465021
O O2 0.594394 0.204676 0.281400
O O3 0.054878 0.190863 0.173352
O O4 0.642416 0.889236 0.268296
O O5 0.530092 0.140386 0.175121
O O6 0.147238 0.248934 0.269540
O O7 0.913891 0.248753 0.485747
O O8 0.031844 0.922985 0.303544
O O9 0.447885 0.185985 0.593369
O O10 0.082182 0.435393 0.756772
O O11 0.907024 0.701927 0.967396
O O12 0.500000 0.500000 0.000000
O O13 0.609393 0.367424 0.027577
O O14 0.593510 0.500756 0.251158
O O15 0.500000 0.000000 0.000000
#
# Coordination Sequence:
#
# PCOD9106084 Si02
#       7
#     2   2   2   2   2   2   2
#     4  11  21  41  70  92 124 173 216 258 320 378
#     4  11  21  40  65  96 129 164 212 267 323 371
#     4  10  20  39  67  93 121 170 219 255 305 396
#     4  11  23  40  60  95 130 161 218 265 306 383
#     4  11  25  39  63  99 135 159 210 275 319 372
#     4  10  20  40  65  97 129 164 211 266 313 389
#     4  12  21  40  69  88 119 180 213 255 319 379
#
# _framework density 23.976716
#
# number of rings (size 3 to 8) (size 9 to 14) (size 15 to 20)
#    0.000    1.143    5.714    2.143    0.000    6.286 
#    0.000    4.286    0.000    0.000    0.000    0.000 
#    0.000    0.000    0.000    0.000    0.000    0.000 
#
# Total GULP energy -78103.222645 kJ/mol
# GULP energy per Si atom -5578.801618 kJ/mol
# Density = 2.392214 g / cm^3
# Si number density = 23.976716 Si / 1000 Ang^3
#
#
#
# Elastic Constant Matrix: (Units=GPa)
#
#
# Indices 1 2 3 4 5 6 
#
# 1 104.3747 32.2749 9.6559 -15.5194 -15.4363 14.2803
# 2 32.2749 90.7587 24.7974 -29.9511 -0.4256 -2.1092
# 3 9.6559 24.7974 46.4335 -12.1390 -3.3423 1.0391
# 4 -15.5194 -29.9511 -12.1390 28.1970 -0.2460 -6.9409
# 5 -15.4363 -0.4256 -3.3423 -0.2460 32.7900 -11.7974
# 6 14.2803 -2.1092 1.0391 -6.9409 -11.7974 42.0289
#
#
#
# Elastic Compliance Matrix: (Units=1/GPa)
#
#
# Indices 1 2 3 4 5 6 
#
# 1 0.012086 -0.003691 0.000472 0.002342 0.004781 -0.002575
# 2 -0.003691 0.019876 -0.005214 0.018166 0.000068 0.005400
# 3 0.000472 -0.005214 0.026043 0.006167 0.003157 0.000839
# 4 0.002342 0.018166 0.006167 0.061733 0.006769 0.012058
# 5 0.004781 0.000068 0.003157 0.006769 0.036610 0.009695
# 6 -0.002575 0.005400 0.000839 0.012058 0.009695 0.029631
#
#
# Mechanical properties :
#
#
# Convention : Reuss Voigt Hill
#
# Bulk Modulus (GPa) = 24.30761 41.66925 32.98843
# Shear Modulus (GPa) = 23.08846 32.25910 27.67378
#
# Velocity S-wave (km/s) = 3.10652 3.67200 3.40103
# Velocity P-wave (km/s) = 4.79867 5.94936 5.40473
#
# Compressibility (1/GPa) = 0.04113937
#
# Stress axis : x y z
#
# Youngs Moduli (GPa) = 82.73827 50.31109 38.39766
#
# Poissons Ratio (x) = 0.18572 -0.01813
# Poissons Ratio (y) = 0.30543 0.20020
# Poissons Ratio (z) = -0.03907 0.26232
#
# Static dielectric constant tensor:
#      x y z
#    x 2.059850 0.000010 -0.057950 
#    y 0.000010 2.004090 -0.000650 
#    z -0.057950 -0.000650 2.009290 
# 
# From -- ./inp_files/158746.got.cif
#   From: 2010.05.17/outbox.cif.g08.bks.cpg/sg2_80_cif.got.tgz:158746.got - 2010.06.03 11:33:40.
