data_PCOD9106238
_publ_section_title
;
Structure prediction by ZEFSAII (Michael W. Deem and Ramdas Pophale) SiO2 
 PCOD9106238
Probable space group: P -1
;
_chemical_formula_sum "Si O2"
_cell_formula_units_Z 12
_cell_length_a 7.132264
_cell_length_b 5.414777
_cell_length_c 15.438096
_cell_angle_alpha 106.464430
_cell_angle_beta 69.712590
_cell_angle_gamma 105.734390
_cell_volume 526.295186
_symmetry_space_group_name_H-M "P -1"
_symmetry_group_IT_number 2
_symmetry_cell_setting 'triclinic'
loop_
_space_group_symop_operation_xyz
x,y,z
-x,-y,-z
loop_
_atom_site_type_symbol
_atom_site_label
_atom_site_fract_x
_atom_site_fract_y
_atom_site_fract_z
Si Si1 0.035738 0.957414 0.229539
Si Si2 0.437260 0.641957 0.887606
Si Si3 0.852633 0.079269 0.104827
Si Si4 0.202422 0.518259 0.081636
Si Si5 0.686991 0.576456 0.686163
Si Si6 0.855129 0.064960 0.604808
O O1 0.203864 0.810973 0.144476
O O2 0.009834 0.851514 0.321150
O O3 0.865797 0.947799 0.182391
O O4 0.133746 0.260450 0.265248
O O5 0.365528 0.910770 0.898560
O O6 0.635249 0.624136 0.911128
O O7 0.490480 0.531002 0.775077
O O8 0.260078 0.515775 0.970973
O O9 0.974031 0.377441 0.127140
O O10 0.000000 0.000000 0.000000
O O11 0.744533 0.303808 0.622768
O O12 0.696841 0.798415 0.632229
O O13 0.000000 0.000000 0.500000
#
# Coordination Sequence:
#
# PCOD9106238 Si02
#       6
#     2   2   2   2   2   2
#     4  10  21  39  60  85 130 153 220 249 303 378
#     4  11  22  37  62  83 130 169 201 262 303 365
#     4  12  24  36  56  91 127 174 211 245 308 373
#     4  11  22  41  53  89 128 171 211 248 302 377
#     4  10  21  39  62  95 120 159 213 254 317 373
#     4  10  20  39  68  92 120 162 211 266 319 373
#
# _framework density 22.800892999999999
#
# number of rings (size 3 to 8) (size 9 to 14) (size 15 to 20)
#    1.000    0.333    5.000    1.000    0.000    5.333 
#    0.000    0.000    0.000    2.000    0.000    0.000 
#    0.000    0.000    0.000    0.000    0.000    0.000 
#
# Total GULP energy -66813.352156 kJ/mol
# GULP energy per Si atom -5567.779346 kJ/mol
# Density = 2.274900 g / cm^3
# Si number density = 22.800893 Si / 1000 Ang^3
#
#
#
# Elastic Constant Matrix: (Units=GPa)
#
#
# Indices 1 2 3 4 5 6 
#
# 1 70.0071 36.9536 6.3720 3.0548 -7.1713 -30.2227
# 2 36.9536 117.5987 45.4098 16.8754 -12.2464 -8.1454
# 3 6.3720 45.4098 140.0976 12.7294 -18.1036 5.2645
# 4 3.0548 16.8754 12.7294 39.8188 -7.2879 -12.7153
# 5 -7.1713 -12.2464 -18.1036 -7.2879 18.1319 1.2684
# 6 -30.2227 -8.1454 5.2645 -12.7153 1.2684 35.9367
#
#
#
# Elastic Compliance Matrix: (Units=1/GPa)
#
#
# Indices 1 2 3 4 5 6 
#
# 1 0.031745 -0.008915 0.000562 0.012094 0.009961 0.028522
# 2 -0.008915 0.012883 -0.002973 -0.005739 0.000332 -0.006184
# 3 0.000562 -0.002973 0.009175 -0.001120 0.007078 -0.002191
# 4 0.012094 -0.005739 -0.001120 0.036148 0.012823 0.021372
# 5 0.009961 0.000332 0.007078 0.012823 0.070875 0.009451
# 6 0.028522 -0.006184 -0.002191 0.021372 0.009451 0.057961
#
#
# Mechanical properties :
#
#
# Convention : Reuss Voigt Hill
#
# Bulk Modulus (GPa) = 32.10251 56.13048 44.11649
# Shear Modulus (GPa) = 19.85521 34.70866 27.28193
#
# Velocity S-wave (km/s) = 2.95415 3.90584 3.46284
# Velocity P-wave (km/s) = 5.07406 6.70909 5.94802
#
# Compressibility (1/GPa) = 0.03115021
#
# Stress axis : x y z
#
# Youngs Moduli (GPa) = 31.50111 77.62190 108.99402
#
# Poissons Ratio (x) = 0.69201 -0.06129
# Poissons Ratio (y) = 0.28084 0.32409
# Poissons Ratio (z) = -0.01771 0.23081
#
# Static dielectric constant tensor:
#      x y z
#    x 1.917910 0.078090 0.020210 
#    y 0.078090 2.062120 0.012160 
#    z 0.020210 0.012160 1.807720 
# 
# From -- ./inp_files/44477.got.cif
#   From: 2010.05.17/outbox.cif.g08.bks.cpg/sg2_23_cif.got.tgz:44477.got - 2010.06.03 11:33:40.
