data_PCOD9106984
_publ_section_title
;
Structure prediction by ZEFSAII (Michael W. Deem and Ramdas Pophale) SiO2 
 PCOD9106984
Probable space group: P -1
;
_chemical_formula_sum "Si O2"
_cell_formula_units_Z 16
_cell_length_a 14.468205
_cell_length_b 20.341974
_cell_length_c 7.666354
_cell_angle_alpha 123.300853
_cell_angle_beta 122.438466
_cell_angle_gamma 19.510012
_cell_volume 628.365213
_symmetry_space_group_name_H-M "P -1"
_symmetry_group_IT_number 2
_symmetry_cell_setting 'triclinic'
loop_
_space_group_symop_operation_xyz
x,y,z
-x,-y,-z
loop_
_atom_site_type_symbol
_atom_site_label
_atom_site_fract_x
_atom_site_fract_y
_atom_site_fract_z
Si Si1 0.645367 0.792450 0.176374
Si Si2 0.167153 0.445721 0.721600
Si Si3 0.643411 0.319787 0.393624
Si Si4 0.764795 0.041125 0.578891
Si Si5 0.183345 0.778569 0.177729
Si Si6 0.841279 0.829789 0.492583
Si Si7 0.223878 0.572939 0.832353
Si Si8 0.411500 0.805529 0.767760
O O1 0.853342 0.591355 0.179375
O O2 0.794041 0.777043 0.278363
O O3 0.401121 0.982988 0.341478
O O4 0.523375 0.818569 0.940509
O O5 0.498105 0.228417 0.703293
O O6 0.090725 0.586752 0.816911
O O7 0.000000 0.500000 0.500000
O O8 0.500000 0.500000 0.500000
O O9 0.758462 0.241082 0.591888
O O10 0.459861 0.360545 0.263880
O O11 0.931653 0.130326 0.300594
O O12 0.654827 0.147510 0.437681
O O13 0.826962 0.906553 0.444502
O O14 0.440803 0.644901 0.140622
O O15 0.160244 0.700258 0.026566
O O16 0.882947 0.005556 0.157651
O O17 0.107759 0.648973 0.627103
#
# Coordination Sequence:
#
# PCOD9106984 Si02
#       8
#     2   2   2   2   2   2   2   2
#     4  10  22  39  62  91 125 168 205 262 306 371
#     4  11  22  40  64  91 126 171 208 259 314 364
#     4  11  23  41  64  91 129 167 209 260 317 374
#     4  10  23  40  66  92 127 173 204 260 319 372
#     4  10  22  37  62  93 123 167 200 264 317 367
#     4  10  20  40  62  90 126 162 214 253 308 365
#     4  11  20  37  64  93 127 158 217 257 308 380
#     4  11  22  43  64  91 131 164 207 257 322 378
#
# _framework density 25.462897999999999
#
# number of rings (size 3 to 8) (size 9 to 14) (size 15 to 20)
#    0.000    1.500    2.500    3.750    1.750    0.500 
#    0.000    3.750    0.000    0.000    0.000    0.000 
#    0.000    0.000    0.000    0.000    0.000    0.000 
#
# Total GULP energy -89250.580317 kJ/mol
# GULP energy per Si atom -5578.161270 kJ/mol
# Density = 2.540494 g / cm^3
# Si number density = 25.462898 Si / 1000 Ang^3
#
#
#
# Elastic Constant Matrix: (Units=GPa)
#
#
# Indices 1 2 3 4 5 6 
#
# 1 140.1948 25.2365 39.0478 14.4674 54.1446 35.2042
# 2 25.2365 67.0784 9.0565 -1.6431 7.2961 -1.3623
# 3 39.0478 9.0565 79.0597 2.8423 45.9441 22.0998
# 4 14.4674 -1.6431 2.8423 27.3923 7.7820 0.7961
# 5 54.1446 7.2961 45.9441 7.7820 48.8946 9.2772
# 6 35.2042 -1.3623 22.0998 0.7961 9.2772 36.3453
#
#
#
# Elastic Compliance Matrix: (Units=1/GPa)
#
#
# Indices 1 2 3 4 5 6 
#
# 1 0.025288 -0.008432 0.018011 -0.004157 -0.038083 -0.025949
# 2 -0.008432 0.018150 -0.007437 0.002833 0.011183 0.010453
# 3 0.018011 -0.007437 0.046259 0.002263 -0.056699 -0.031429
# 4 -0.004157 0.002833 0.002263 0.039937 -0.004896 0.003132
# 5 -0.038083 0.011183 -0.056699 -0.004896 0.106532 0.044698
# 6 -0.025949 0.010453 -0.031429 0.003132 0.044698 0.060673
#
#
# Mechanical properties :
#
#
# Convention : Reuss Voigt Hill
#
# Bulk Modulus (GPa) = 10.64069 48.11271 29.37670
# Shear Modulus (GPa) = 15.43777 36.72593 26.08185
#
# Velocity S-wave (km/s) = 2.46496 3.80192 3.20395
# Velocity P-wave (km/s) = 3.50561 6.18135 5.02486
#
# Compressibility (1/GPa) = 0.09397889
#
# Stress axis : x y z
#
# Youngs Moduli (GPa) = 39.54522 55.09751 21.61759
#
# Poissons Ratio (x) = 0.46458 -0.38935
# Poissons Ratio (y) = 0.33344 0.16078
# Poissons Ratio (z) = -0.71224 0.40978
#
# Static dielectric constant tensor:
#      x y z
#    x 2.107540 -0.056250 0.020450 
#    y -0.056250 2.137160 0.016230 
#    z 0.020450 0.016230 2.116510 
# 
# From -- ./inp_files/178868.got.cif
#   From: 2010.05.17/outbox.cif.g08.bks.cpg/sg2_90_cif.got.tgz:178868.got - 2010.06.03 11:33:40.
