data_PCOD9106301
_publ_section_title
;
Structure prediction by ZEFSAII (Michael W. Deem and Ramdas Pophale) SiO2 
 PCOD9106301
Probable space group: P -1
;
_chemical_formula_sum "Si O2"
_cell_formula_units_Z 16
_cell_length_a 8.069274
_cell_length_b 5.405571
_cell_length_c 24.659616
_cell_angle_alpha 124.880971
_cell_angle_beta 47.693517
_cell_angle_gamma 117.894510
_cell_volume 646.447037
_symmetry_space_group_name_H-M "P -1"
_symmetry_group_IT_number 2
_symmetry_cell_setting 'triclinic'
loop_
_space_group_symop_operation_xyz
x,y,z
-x,-y,-z
loop_
_atom_site_type_symbol
_atom_site_label
_atom_site_fract_x
_atom_site_fract_y
_atom_site_fract_z
Si Si1 0.668290 0.545439 0.702771
Si Si2 0.635252 0.363054 0.574222
Si Si3 0.186254 0.372494 0.823234
Si Si4 0.420379 0.643878 0.912034
Si Si5 0.780207 0.310118 0.300284
Si Si6 0.219761 0.739268 0.242415
Si Si7 0.686129 0.272005 0.436374
Si Si8 0.311674 0.717740 0.063857
O O1 0.744251 0.384633 0.611910
O O2 0.392476 0.518424 0.758533
O O3 0.717087 0.364988 0.723725
O O4 0.758871 0.901764 0.724795
O O5 0.481146 0.635323 0.638497
O O6 0.780303 0.335684 0.484536
O O7 0.448289 0.065269 0.576802
O O8 0.254584 0.514928 0.884698
O O9 0.928104 0.412441 0.874605
O O10 0.189223 0.010321 0.772968
O O11 0.590646 0.394368 0.852133
O O12 0.588302 0.946507 0.896203
O O13 0.288559 0.733498 0.005196
O O14 0.827990 0.309577 0.354844
O O15 0.965812 0.573154 0.268711
O O16 0.500000 0.500000 0.500000
O O17 0.500000 0.500000 0.000000
#
# Coordination Sequence:
#
# PCOD9106301 Si02
#       8
#     2   2   2   2   2   2   2   2
#     4  11  25  44  69 104 140 183 234 294 351 417
#     4  10  20  39  68  97 133 184 237 283 350 418
#     4  11  23  46  71  99 137 185 236 284 354 415
#     4  10  24  45  65 101 139 178 228 289 352 414
#     4  11  22  42  70 102 133 187 239 287 350 417
#     4  11  26  44  70 101 147 177 233 300 352 412
#     4   9  20  37  65  97 138 175 236 285 343 421
#     4  11  25  45  69 100 140 181 230 289 352 420
#
# _framework density 24.750675999999999
#
# number of rings (size 3 to 8) (size 9 to 14) (size 15 to 20)
#    0.000    1.500    2.500    1.875    7.000    1.500 
#    9.000    1.250    0.000    0.000    0.000    0.000 
#    0.000    0.000    0.000    0.000    0.000    0.000 
#
# Total GULP energy -89540.650600 kJ/mol
# GULP energy per Si atom -5596.290663 kJ/mol
# Density = 2.469434 g / cm^3
# Si number density = 24.750676 Si / 1000 Ang^3
#
#
#
# Elastic Constant Matrix: (Units=GPa)
#
#
# Indices 1 2 3 4 5 6 
#
# 1 81.1229 34.8967 45.9392 -1.3196 4.7763 6.6013
# 2 34.8967 119.1353 45.4907 -4.3672 7.6686 20.3599
# 3 45.9392 45.4907 95.6879 0.3818 32.3349 11.7153
# 4 -1.3196 -4.3672 0.3818 54.0065 -1.1549 -4.6981
# 5 4.7763 7.6686 32.3349 -1.1549 47.3001 -9.0615
# 6 6.6013 20.3599 11.7153 -4.6981 -9.0615 40.6996
#
#
#
# Elastic Compliance Matrix: (Units=1/GPa)
#
#
# Indices 1 2 3 4 5 6 
#
# 1 0.018494 -0.002354 -0.010046 0.000672 0.005868 0.002453
# 2 -0.002354 0.011226 -0.003806 0.000533 0.000262 -0.004019
# 3 -0.010046 -0.003806 0.023177 -0.001640 -0.015553 -0.006790
# 4 0.000672 0.000533 -0.001640 0.018865 0.001946 0.002708
# 5 0.005868 0.000262 -0.015553 0.001946 0.033300 0.011033
# 6 0.002453 -0.004019 -0.006790 0.002708 0.011033 0.030906
#
#
# Mechanical properties :
#
#
# Convention : Reuss Voigt Hill
#
# Bulk Modulus (GPa) = 48.81410 60.95549 54.88480
# Shear Modulus (GPa) = 28.53776 39.70920 34.12348
#
# Velocity S-wave (km/s) = 3.39928 4.00980 3.71710
# Velocity P-wave (km/s) = 5.93060 6.79112 6.37539
#
# Compressibility (1/GPa) = 0.02048588
#
# Stress axis : x y z
#
# Youngs Moduli (GPa) = 54.07096 89.08037 43.14706
#
# Poissons Ratio (x) = 0.20967 0.43346
# Poissons Ratio (y) = 0.12727 0.16420
# Poissons Ratio (z) = 0.54320 0.33901
#
# Static dielectric constant tensor:
#      x y z
#    x 2.045030 -0.049250 0.027640 
#    y -0.049250 1.934700 -0.058600 
#    z 0.027640 -0.058600 2.079290 
# 
# From -- ./inp_files/616392.got.cif
#   From: 2010.05.17/outbox.cif.g08.bks.cpg/sg2_309_cif.got.tgz:616392.got - 2010.06.03 11:33:40.
