data_PCOD9106842
_publ_section_title
;
Structure prediction by ZEFSAII (Michael W. Deem and Ramdas Pophale) SiO2 
 PCOD9106842
Probable space group: P -1
;
_chemical_formula_sum "Si O2"
_cell_formula_units_Z 16
_cell_length_a 10.779459
_cell_length_b 15.027010
_cell_length_c 11.032330
_cell_angle_alpha 80.244128
_cell_angle_beta 26.007428
_cell_angle_gamma 79.550746
_cell_volume 770.518008
_symmetry_space_group_name_H-M "P -1"
_symmetry_group_IT_number 2
_symmetry_cell_setting 'triclinic'
loop_
_space_group_symop_operation_xyz
x,y,z
-x,-y,-z
loop_
_atom_site_type_symbol
_atom_site_label
_atom_site_fract_x
_atom_site_fract_y
_atom_site_fract_z
Si Si1 0.771240 0.048078 0.101000
Si Si2 0.742836 0.179129 0.616129
Si Si3 0.207674 0.347404 0.638094
Si Si4 0.058175 0.540571 0.806655
Si Si5 0.669776 0.251654 0.101170
Si Si6 0.810430 0.991428 0.469672
Si Si7 0.675123 0.824004 0.794767
Si Si8 0.421302 0.338022 0.717634
O O1 0.918632 0.039864 0.841149
O O2 0.708627 0.154501 0.156330
O O3 0.472007 0.003484 0.367108
O O4 0.000000 0.000000 0.000000
O O5 0.574643 0.248471 0.658505
O O6 0.024601 0.219751 0.412247
O O7 0.841627 0.087499 0.480812
O O8 0.533306 0.156907 0.914020
O O9 0.502019 0.324529 0.316971
O O10 0.251539 0.320416 0.747214
O O11 0.102547 0.452901 0.703140
O O12 0.976312 0.286093 0.797830
O O13 0.341890 0.593452 0.541968
O O14 0.791289 0.612573 0.009492
O O15 0.000000 0.500000 0.000000
O O16 0.487384 0.234377 0.146169
O O17 0.752623 0.915348 0.636902
#
# Coordination Sequence:
#
# PCOD9106842 Si02
#       8
#     2   2   2   2   2   2   2   2
#     4  11  24  38  59  87 136 160 191 259 312 358
#     4  12  24  39  67  89 124 163 211 268 290 361
#     4  11  21  38  66  90 120 156 201 245 302 395
#     4  10  20  40  61  91 128 157 189 250 318 377
#     4  11  23  38  62  88 118 165 208 241 294 372
#     4  11  23  41  61  89 118 172 216 244 301 357
#     4  11  23  43  60  87 125 168 218 250 298 343
#     4  11  23  37  63  98 125 150 198 257 327 352
#
# _framework density 20.765250999999999
#
# number of rings (size 3 to 8) (size 9 to 14) (size 15 to 20)
#    0.000    1.000    0.000   10.125    3.500    0.000 
#    0.000    0.000    0.000   15.000    0.000    0.000 
#    0.000    0.000    0.000    0.000    0.000    0.000 
#
# Total GULP energy -89503.955385 kJ/mol
# GULP energy per Si atom -5593.997212 kJ/mol
# Density = 2.071799 g / cm^3
# Si number density = 20.765251 Si / 1000 Ang^3
#
#
#
# Elastic Constant Matrix: (Units=GPa)
#
#
# Indices 1 2 3 4 5 6 
#
# 1 54.3111 27.3273 7.8486 -2.9047 -15.1370 -2.0141
# 2 27.3273 65.9607 10.7718 8.3405 6.7828 10.6637
# 3 7.8486 10.7718 91.5853 10.6100 -7.0444 -0.6729
# 4 -2.9047 8.3405 10.6100 33.9329 4.0343 -4.5474
# 5 -15.1370 6.7828 -7.0444 4.0343 35.0655 -0.6278
# 6 -2.0141 10.6637 -0.6729 -4.5474 -0.6278 17.0092
#
#
#
# Elastic Compliance Matrix: (Units=1/GPa)
#
#
# Indices 1 2 3 4 5 6 
#
# 1 0.035403 -0.020984 0.000016 0.008687 0.018710 0.020362
# 2 -0.020984 0.031126 -0.001967 -0.010489 -0.014723 -0.025424
# 3 0.000016 -0.001967 0.011800 -0.003462 0.003172 0.000893
# 4 0.008687 -0.010489 -0.003462 0.036023 0.001246 0.017144
# 5 0.018710 -0.014723 0.003172 0.001246 0.040176 0.013387
# 6 0.020362 -0.025424 0.000893 0.017144 0.013387 0.082255
#
#
# Mechanical properties :
#
#
# Convention : Reuss Voigt Hill
#
# Bulk Modulus (GPa) = 30.80714 33.75028 32.27871
# Shear Modulus (GPa) = 17.03737 28.26217 22.64977
#
# Velocity S-wave (km/s) = 2.86750 3.69322 3.30624
# Velocity P-wave (km/s) = 5.08247 5.87154 5.49120
#
# Compressibility (1/GPa) = 0.03246001
#
# Stress axis : x y z
#
# Youngs Moduli (GPa) = 28.24631 32.12769 84.74308
#
# Poissons Ratio (x) = 0.67417 -0.00139
# Poissons Ratio (y) = 0.59273 0.16667
# Poissons Ratio (z) = -0.00046 0.06319
#
# Static dielectric constant tensor:
#      x y z
#    x 1.764780 -0.008190 -0.009880 
#    y -0.008190 1.726110 0.016790 
#    z -0.009880 0.016790 1.730580 
# 
# From -- ./inp_files/433912.got.cif
#   From: 2010.05.17/outbox.cif.g08.bks.cpg/sg2_217_cif.got.tgz:433912.got - 2010.06.03 11:33:40.
