data_PCOD9106866
_publ_section_title
;
Structure prediction by ZEFSAII (Michael W. Deem and Ramdas Pophale) SiO2 
 PCOD9106866
Probable space group: P -1
;
_chemical_formula_sum "Si O2"
_cell_formula_units_Z 14
_cell_length_a 14.842788
_cell_length_b 5.135178
_cell_length_c 15.248927
_cell_angle_alpha 113.863284
_cell_angle_beta 37.242255
_cell_angle_gamma 99.518703
_cell_volume 616.945697
_symmetry_space_group_name_H-M "P -1"
_symmetry_group_IT_number 2
_symmetry_cell_setting 'triclinic'
loop_
_space_group_symop_operation_xyz
x,y,z
-x,-y,-z
loop_
_atom_site_type_symbol
_atom_site_label
_atom_site_fract_x
_atom_site_fract_y
_atom_site_fract_z
Si Si1 0.023133 0.965382 0.874158
Si Si2 0.981935 0.867954 0.641944
Si Si3 0.577793 0.018285 0.688959
Si Si4 0.495833 0.622293 0.920521
Si Si5 0.223906 0.246217 0.340253
Si Si6 0.740341 0.021355 0.981253
Si Si7 0.160788 0.257663 0.664977
O O1 0.101368 0.612630 0.747921
O O2 0.126011 0.154973 0.775048
O O3 0.855130 0.086689 0.973771
O O4 0.000000 0.000000 0.000000
O O5 0.875191 0.957900 0.650917
O O6 0.114465 0.577479 0.472668
O O7 0.056912 0.100157 0.662363
O O8 0.866109 0.780684 0.791690
O O9 0.706561 0.828136 0.628940
O O10 0.407762 0.017250 0.855657
O O11 0.656583 0.886954 0.519049
O O12 0.576931 0.350778 0.755243
O O13 0.621073 0.807709 0.845109
O O14 0.337899 0.750384 0.004984
O O15 0.500000 0.500000 0.000000
#
# Coordination Sequence:
#
# PCOD9106866 Si02
#       7
#     2   2   2   2   2   2   2
#     4  11  26  51  78 105 129 168 229 298 362 422
#     4  10  20  40  61  95 130 186 234 280 327 388
#     4  11  22  39  62  95 139 187 225 273 339 403
#     4  11  22  38  61  94 145 190 235 271 325 396
#     4  10  21  39  58  92 141 185 242 274 322 392
#     4  10  24  40  66  95 136 177 233 282 347 402
#     4  11  24  45  74  99 139 177 224 290 353 409
#
# _framework density 22.692433999999999
#
# number of rings (size 3 to 8) (size 9 to 14) (size 15 to 20)
#    0.000    1.429    1.429    3.857    6.000    2.857 
#   15.429    1.429    0.000    0.000    0.000    0.000 
#    0.000    0.000    0.000    0.000    0.000    0.000 
#
# Total GULP energy -78030.521576 kJ/mol
# GULP energy per Si atom -5573.608684 kJ/mol
# Density = 2.264079 g / cm^3
# Si number density = 22.692434 Si / 1000 Ang^3
#
#
#
# Elastic Constant Matrix: (Units=GPa)
#
#
# Indices 1 2 3 4 5 6 
#
# 1 83.7254 9.2327 45.1155 -9.2611 -0.3930 -17.7017
# 2 9.2327 44.8589 25.1810 -5.8704 -6.7705 -19.0519
# 3 45.1155 25.1810 166.3103 -24.8722 -18.7919 -5.4493
# 4 -9.2611 -5.8704 -24.8722 49.8607 -3.0772 4.5200
# 5 -0.3930 -6.7705 -18.7919 -3.0772 27.3951 -2.1376
# 6 -17.7017 -19.0519 -5.4493 4.5200 -2.1376 24.9221
#
#
#
# Elastic Compliance Matrix: (Units=1/GPa)
#
#
# Indices 1 2 3 4 5 6 
#
# 1 0.017386 0.005875 -0.005184 -0.000126 -0.000646 0.015674
# 2 0.005875 0.040168 -0.005450 0.000543 0.009016 0.034363
# 3 -0.005184 -0.005450 0.009158 0.003816 0.004811 -0.006125
# 4 -0.000126 0.000543 0.003816 0.022540 0.005088 -0.002491
# 5 -0.000646 0.009016 0.004811 0.005088 0.043396 0.010285
# 6 0.015674 0.034363 -0.006125 -0.002491 0.010285 0.077522
#
#
# Mechanical properties :
#
#
# Convention : Reuss Voigt Hill
#
# Bulk Modulus (GPa) = 17.48427 50.43920 33.96174
# Shear Modulus (GPa) = 20.94211 34.79326 27.86769
#
# Velocity S-wave (km/s) = 3.04117 3.91993 3.50817
# Velocity P-wave (km/s) = 4.47808 6.53937 5.60431
#
# Compressibility (1/GPa) = 0.05719425
#
# Stress axis : x y z
#
# Youngs Moduli (GPa) = 57.51598 24.89540 109.19457
#
# Poissons Ratio (x) = -0.14625 0.56609
# Poissons Ratio (y) = -0.33789 0.59507
# Poissons Ratio (z) = 0.29817 0.13567
#
# Static dielectric constant tensor:
#      x y z
#    x 1.872900 -0.020250 -0.020570 
#    y -0.020250 2.005280 0.050370 
#    z -0.020570 0.050370 2.054440 
# 
# From -- ./inp_files/36329.got.cif
#   From: 2010.05.17/outbox.cif.g08.bks.cpg/sg2_19_cif.got.tgz:36329.got - 2010.06.03 11:33:40.
