data_PCOD9106508
_publ_section_title
;
Structure prediction by ZEFSAII (Michael W. Deem and Ramdas Pophale) SiO2 
 PCOD9106508
Probable space group: P -1
;
_chemical_formula_sum "Si O2"
_cell_formula_units_Z 16
_cell_length_a 9.087290
_cell_length_b 8.538297
_cell_length_c 20.319258
_cell_angle_alpha 79.128435
_cell_angle_beta 57.834776
_cell_angle_gamma 126.919782
_cell_volume 704.273363
_symmetry_space_group_name_H-M "P -1"
_symmetry_group_IT_number 2
_symmetry_cell_setting 'triclinic'
loop_
_space_group_symop_operation_xyz
x,y,z
-x,-y,-z
loop_
_atom_site_type_symbol
_atom_site_label
_atom_site_fract_x
_atom_site_fract_y
_atom_site_fract_z
Si Si1 0.228565 0.905089 0.823393
Si Si2 0.015270 0.478662 0.421562
Si Si3 0.760944 0.002345 0.048903
Si Si4 0.268464 0.075565 0.440476
Si Si5 0.624055 0.451399 0.931053
Si Si6 0.801579 0.462257 0.182302
Si Si7 0.285911 0.926152 0.143831
Si Si8 0.256382 0.433545 0.601964
O O1 0.114891 0.917206 0.912747
O O2 0.181721 0.678162 0.857445
O O3 0.013125 0.769536 0.820145
O O4 0.604560 0.234476 0.705345
O O5 0.000000 0.500000 0.500000
O O6 0.837353 0.484279 0.425659
O O7 0.857220 0.183106 0.475535
O O8 0.533734 0.696942 0.091145
O O9 0.528363 0.979069 0.108265
O O10 0.068177 0.284800 0.908258
O O11 0.444469 0.183957 0.320060
O O12 0.526624 0.348080 0.406140
O O13 0.000000 0.000000 0.500000
O O14 0.500000 0.500000 0.000000
O O15 0.490448 0.199170 0.026104
O O16 0.037615 0.642598 0.175858
O O17 0.088048 0.866542 0.253315
O O18 0.500000 0.500000 0.500000
#
# Coordination Sequence:
#
# PCOD9106508 Si02
#       8
#     2   2   2   2   2   2   2   2
#     4  12  23  40  72  99 132 177 231 280 348 421
#     4  12  25  43  69  98 139 186 240 285 354 420
#     4  11  21  41  72  98 126 172 235 272 344 421
#     4  11  25  46  70  99 141 186 234 294 354 419
#     4  11  25  43  64 102 143 176 219 291 357 410
#     4  10  20  39  71  96 130 174 224 287 345 412
#     4  10  20  43  68  96 130 179 227 281 345 424
#     4  11  25  45  68 104 139 182 240 295 351 419
#
# _framework density 22.718451000000002
#
# number of rings (size 3 to 8) (size 9 to 14) (size 15 to 20)
#    0.000    1.000    5.000    2.250    0.000    4.500 
#    4.500    0.000    0.000    0.000    0.000    0.000 
#    0.000    0.000    0.000    0.000    0.000    0.000 
#
# Total GULP energy -89257.760748 kJ/mol
# GULP energy per Si atom -5578.610047 kJ/mol
# Density = 2.266674 g / cm^3
# Si number density = 22.718451 Si / 1000 Ang^3
#
#
#
# Elastic Constant Matrix: (Units=GPa)
#
#
# Indices 1 2 3 4 5 6 
#
# 1 66.9793 11.4518 35.4669 7.1660 -22.4018 4.0210
# 2 11.4518 106.9162 21.3067 17.1967 -9.7568 5.2059
# 3 35.4669 21.3067 118.2260 2.9693 -14.1789 -2.0212
# 4 7.1660 17.1967 2.9693 30.0717 6.8874 1.0946
# 5 -22.4018 -9.7568 -14.1789 6.8874 26.9031 9.5007
# 6 4.0210 5.2059 -2.0212 1.0946 9.5007 29.1275
#
#
#
# Elastic Compliance Matrix: (Units=1/GPa)
#
#
# Indices 1 2 3 4 5 6 
#
# 1 0.031985 0.004559 -0.006032 -0.017123 0.035328 -0.016529
# 2 0.004559 0.012398 -0.001977 -0.010554 0.012280 -0.006591
# 3 -0.006032 -0.001977 0.010436 0.001802 -0.001528 0.002341
# 4 -0.017123 -0.010554 0.001802 0.050707 -0.035023 0.013893
# 5 0.035328 0.012280 -0.001528 -0.035023 0.091852 -0.035822
# 6 -0.016529 -0.006591 0.002341 0.013893 -0.035822 0.049116
#
#
# Mechanical properties :
#
#
# Convention : Reuss Voigt Hill
#
# Bulk Modulus (GPa) = 20.86905 47.61914 34.24410
# Shear Modulus (GPa) = 18.56206 32.14688 25.35447
#
# Velocity S-wave (km/s) = 2.86151 3.76575 3.34433
# Velocity P-wave (km/s) = 4.48592 6.31774 5.47893
#
# Compressibility (1/GPa) = 0.04791784
#
# Stress axis : x y z
#
# Youngs Moduli (GPa) = 31.26494 80.65941 95.82380
#
# Poissons Ratio (x) = -0.36773 0.57805
# Poissons Ratio (y) = -0.14254 0.18943
# Poissons Ratio (z) = 0.18860 0.15946
#
# Static dielectric constant tensor:
#      x y z
#    x 1.856800 0.004960 0.002180 
#    y 0.004960 1.850940 -0.011990 
#    z 0.002180 -0.011990 2.114500 
# 
# From -- ./inp_files/403010.got.cif
#   From: 2010.05.17/outbox.cif.g08.bks.cpg/sg2_202_cif.got.tgz:403010.got - 2010.06.03 11:33:40.
