data_PCOD9106522
_publ_section_title
;
Structure prediction by ZEFSAII (Michael W. Deem and Ramdas Pophale) SiO2 
 PCOD9106522
Probable space group: P -1
;
_chemical_formula_sum "Si O2"
_cell_formula_units_Z 16
_cell_length_a 13.561309
_cell_length_b 9.270537
_cell_length_c 13.583881
_cell_angle_alpha 112.770487
_cell_angle_beta 147.800387
_cell_angle_gamma 55.186114
_cell_volume 728.904381
_symmetry_space_group_name_H-M "P -1"
_symmetry_group_IT_number 2
_symmetry_cell_setting 'triclinic'
loop_
_space_group_symop_operation_xyz
x,y,z
-x,-y,-z
loop_
_atom_site_type_symbol
_atom_site_label
_atom_site_fract_x
_atom_site_fract_y
_atom_site_fract_z
Si Si1 0.878329 0.955681 0.189940
Si Si2 0.413914 0.727352 0.827494
Si Si3 0.939594 0.925769 0.026077
Si Si4 0.509740 0.966186 0.382795
Si Si5 0.320316 0.446772 0.580232
Si Si6 0.639812 0.180785 0.419047
Si Si7 0.139998 0.393253 0.871436
Si Si8 0.697622 0.452669 0.781125
O O1 0.815923 0.799237 0.099814
O O2 0.125539 0.849453 0.398586
O O3 0.735938 0.111987 0.186037
O O4 0.869018 0.039579 0.096544
O O5 0.326623 0.586407 0.701835
O O6 0.415394 0.804918 0.739676
O O7 0.664203 0.636570 0.042303
O O8 0.734199 0.911954 0.822754
O O9 0.136925 0.735377 0.174826
O O10 0.000000 0.000000 0.000000
O O11 0.593993 0.758893 0.372427
O O12 0.500000 0.000000 0.500000
O O13 0.649348 0.026006 0.453601
O O14 0.509525 0.429515 0.664560
O O15 0.090170 0.518194 0.352919
O O16 0.445838 0.363674 0.350123
O O17 0.162545 0.509889 0.009995
#
# Coordination Sequence:
#
# PCOD9106522 Si02
#       8
#     2   2   2   2   2   2   2   2
#     4  12  23  42  71 101 134 181 228 279 338 397
#     4  10  23  45  72 100 134 177 236 278 329 408
#     4  12  25  42  68  96 140 178 216 284 344 402
#     4  12  25  43  67 102 139 180 227 276 344 410
#     4  10  21  43  70  97 142 175 221 285 338 393
#     4  10  23  42  69  98 135 176 224 280 332 398
#     4  10  20  39  72 101 127 180 222 286 332 397
#     4  10  22  43  67 101 134 173 230 272 343 404
#
# _framework density 21.950754
#
# number of rings (size 3 to 8) (size 9 to 14) (size 15 to 20)
#    0.000    1.500    3.750    3.750    0.000    3.500 
#    0.000    1.250    2.750    0.000    0.000    0.000 
#    0.000    0.000    0.000    0.000    0.000    0.000 
#
# Total GULP energy -89236.211632 kJ/mol
# GULP energy per Si atom -5577.263227 kJ/mol
# Density = 2.190079 g / cm^3
# Si number density = 21.950754 Si / 1000 Ang^3
#
#
#
# Elastic Constant Matrix: (Units=GPa)
#
#
# Indices 1 2 3 4 5 6 
#
# 1 85.5950 56.5163 29.5594 9.2102 -1.3654 -17.7677
# 2 56.5163 123.0363 24.4255 3.1782 10.1436 1.4867
# 3 29.5594 24.4255 124.1150 6.4456 41.1674 -7.7863
# 4 9.2102 3.1782 6.4456 23.8845 7.1093 7.3561
# 5 -1.3654 10.1436 41.1674 7.1093 26.6932 1.7248
# 6 -17.7677 1.4867 -7.7863 7.3561 1.7248 37.5711
#
#
#
# Elastic Compliance Matrix: (Units=1/GPa)
#
#
# Indices 1 2 3 4 5 6 
#
# 1 0.031644 -0.014180 -0.013391 -0.021047 0.032271 0.015390
# 2 -0.014180 0.014848 0.004661 0.009131 -0.015509 -0.007403
# 3 -0.013391 0.004661 0.023304 0.011137 -0.041235 -0.001975
# 4 -0.021047 0.009131 0.011137 0.062543 -0.037181 -0.018545
# 5 0.032271 -0.015509 -0.041235 -0.037181 0.117910 0.009196
# 6 0.015390 -0.007403 -0.001975 -0.018545 0.009196 0.036987
#
#
# Mechanical properties :
#
#
# Convention : Reuss Voigt Hill
#
# Bulk Modulus (GPa) = 41.70969 61.52762 51.61866
# Shear Modulus (GPa) = 14.66064 32.44609 23.55337
#
# Velocity S-wave (km/s) = 2.58716 3.84882 3.27924
# Velocity P-wave (km/s) = 5.28841 6.91678 6.15667
#
# Compressibility (1/GPa) = 0.02397525
#
# Stress axis : x y z
#
# Youngs Moduli (GPa) = 31.60113 67.34792 42.91114
#
# Poissons Ratio (x) = 0.95500 0.57463
# Poissons Ratio (y) = 0.44811 -0.19999
# Poissons Ratio (z) = 0.42318 -0.31388
#
# Static dielectric constant tensor:
#      x y z
#    x 1.845510 0.015540 -0.044320 
#    y 0.015540 1.853980 0.014760 
#    z -0.044320 0.014760 1.872230 
# 
# From -- ./inp_files/530023.got.cif
#   From: 2010.05.17/outbox.cif.g08.bks.cpg/sg2_266_cif.got.tgz:530023.got - 2010.06.03 11:33:40.
