data_PCOD9106741
_publ_section_title
;
Structure prediction by ZEFSAII (Michael W. Deem and Ramdas Pophale) SiO2 
 PCOD9106741
Probable space group: P -1
;
_chemical_formula_sum "Si O2"
_cell_formula_units_Z 15
_cell_length_a 9.031664
_cell_length_b 8.508972
_cell_length_c 12.374977
_cell_angle_alpha 65.688299
_cell_angle_beta 99.077330
_cell_angle_gamma 121.206358
_cell_volume 739.394549
_symmetry_space_group_name_H-M "P -1"
_symmetry_group_IT_number 2
_symmetry_cell_setting 'triclinic'
loop_
_space_group_symop_operation_xyz
x,y,z
-x,-y,-z
loop_
_atom_site_type_symbol
_atom_site_label
_atom_site_fract_x
_atom_site_fract_y
_atom_site_fract_z
Si Si1 0.804313 0.820493 0.038004
Si Si2 0.500000 0.500000 0.500000
Si Si3 0.447775 0.878922 0.364717
Si Si4 0.837004 0.176464 0.333478
Si Si5 0.194473 0.184102 0.708357
Si Si6 0.519462 0.923161 0.908739
Si Si7 0.923570 0.262791 0.553735
Si Si8 0.147843 0.546239 0.915151
O O1 0.757799 0.801498 0.165099
O O2 0.814317 0.631988 0.049197
O O3 0.667230 0.861916 0.948556
O O4 0.000000 0.000000 0.000000
O O5 0.451025 0.679123 0.447520
O O6 0.345787 0.362898 0.607794
O O7 0.277702 0.857732 0.404860
O O8 0.631233 0.069335 0.366793
O O9 0.437411 0.913878 0.225626
O O10 0.939574 0.206028 0.447879
O O11 0.901010 0.385204 0.221566
O O12 0.845667 0.023623 0.293113
O O13 0.026273 0.203623 0.665401
O O14 0.331289 0.735330 0.915321
O O15 0.500000 0.000000 0.000000
O O16 0.000000 0.500000 0.500000
O O17 0.000000 0.500000 0.000000
#
# Coordination Sequence:
#
# PCOD9106741 Si02
#       8
#     2   1   2   2   2   2   2   2
#     4  12  24  44  71  95 134 176 223 281 339 398
#     4  10  20  40  60  92 130 166 208 258 324 378
#     4  10  22  40  64  92 131 168 214 268 324 390
#     4  10  23  42  62  91 132 172 212 272 332 392
#     4  11  23  42  65  94 134 170 223 267 331 389
#     4  11  23  43  67  98 133 177 224 271 333 398
#     4  12  22  38  63  96 127 168 223 265 326 390
#     4  11  24  43  66 100 131 172 226 278 335 401
#
# _framework density 20.286867000000001
#
# number of rings (size 3 to 8) (size 9 to 14) (size 15 to 20)
#    0.000    1.067    1.333    6.800    0.000    1.067 
#    4.800    0.000    0.000    0.000    0.000    0.000 
#    0.000    0.000    0.000    0.000    0.000    0.000 
#
# Total GULP energy -83584.393243 kJ/mol
# GULP energy per Si atom -5572.292883 kJ/mol
# Density = 2.024069 g / cm^3
# Si number density = 20.286867 Si / 1000 Ang^3
#
#
#
# Elastic Constant Matrix: (Units=GPa)
#
#
# Indices 1 2 3 4 5 6 
#
# 1 73.4432 -7.9141 -4.0650 -11.5533 -7.7686 0.2763
# 2 -7.9141 49.3077 6.2080 -1.7812 -6.6559 -17.1009
# 3 -4.0650 6.2080 58.6948 -2.4322 3.0369 -4.2850
# 4 -11.5533 -1.7812 -2.4322 36.5670 -1.4661 2.0100
# 5 -7.7686 -6.6559 3.0369 -1.4661 30.2836 2.8798
# 6 0.2763 -17.1009 -4.2850 2.0100 2.8798 26.8775
#
#
#
# Elastic Compliance Matrix: (Units=1/GPa)
#
#
# Indices 1 2 3 4 5 6 
#
# 1 0.015377 0.003700 0.000744 0.005203 0.004801 0.001411
# 2 0.003700 0.027660 -0.001685 0.001723 0.005707 0.016552
# 3 0.000744 -0.001685 0.017556 0.001136 -0.002061 0.001855
# 4 0.005203 0.001723 0.001136 0.029348 0.003145 -0.001308
# 5 0.004801 0.005707 -0.002061 0.003145 0.035945 -0.000834
# 6 0.001411 0.016552 0.001855 -0.001308 -0.000834 0.048205
#
#
# Mechanical properties :
#
#
# Convention : Reuss Voigt Hill
#
# Bulk Modulus (GPa) = 15.12622 18.87818 17.00220
# Shear Modulus (GPa) = 26.23148 31.22674 28.72911
#
# Velocity S-wave (km/s) = 3.59977 3.92760 3.76725
# Velocity P-wave (km/s) = 4.97495 5.46752 5.22704
#
# Compressibility (1/GPa) = 0.06611038
#
# Stress axis : x y z
#
# Youngs Moduli (GPa) = 65.03312 36.15359 56.95998
#
# Poissons Ratio (x) = -0.13376 -0.04237
# Poissons Ratio (y) = -0.24061 0.09597
# Poissons Ratio (z) = -0.04837 0.06091
#
# Static dielectric constant tensor:
#      x y z
#    x 1.768920 -0.001080 0.009390 
#    y -0.001080 1.796240 0.028100 
#    z 0.009390 0.028100 1.728270 
# 
# From -- ./inp_files/181187.got.cif
#   From: 2010.05.17/outbox.cif.g08.bks.cpg/sg2_91_cif.got.tgz:181187.got - 2010.06.03 11:33:40.
