data_PCOD9106385
_publ_section_title
;
Structure prediction by ZEFSAII (Michael W. Deem and Ramdas Pophale) SiO2 
 PCOD9106385
Probable space group: P -1
;
_chemical_formula_sum "Si O2"
_cell_formula_units_Z 14
_cell_length_a 11.491957
_cell_length_b 9.268709
_cell_length_c 10.282256
_cell_angle_alpha 68.594103
_cell_angle_beta 126.700229
_cell_angle_gamma 132.357686
_cell_volume 647.574689
_symmetry_space_group_name_H-M "P -1"
_symmetry_group_IT_number 2
_symmetry_cell_setting 'triclinic'
loop_
_space_group_symop_operation_xyz
x,y,z
-x,-y,-z
loop_
_atom_site_type_symbol
_atom_site_label
_atom_site_fract_x
_atom_site_fract_y
_atom_site_fract_z
Si Si1 0.674139 0.831353 0.978597
Si Si2 0.010777 0.510916 0.266679
Si Si3 0.686378 0.040724 0.661490
Si Si4 0.718270 0.530211 0.174742
Si Si5 0.193751 0.020821 0.510024
Si Si6 0.199659 0.324018 0.553194
Si Si7 0.287221 0.899152 0.872802
O O1 0.465043 0.663681 0.940251
O O2 0.660952 0.908424 0.807573
O O3 0.763996 0.719670 0.069054
O O4 0.763163 0.000766 0.089909
O O5 0.884396 0.517037 0.287438
O O6 0.852135 0.336081 0.125888
O O7 0.164198 0.736804 0.261649
O O8 0.124343 0.433686 0.408688
O O9 0.500000 0.000000 0.500000
O O10 0.757016 0.000805 0.592922
O O11 0.669140 0.547488 0.283430
O O12 0.263158 0.237905 0.521339
O O13 0.264380 0.951073 0.693831
O O14 0.974758 0.868954 0.428903
O O15 0.500000 0.000000 0.000000
#
# Coordination Sequence:
#
# PCOD9106385 Si02
#       7
#     2   2   2   2   2   2   2
#     4  11  25  41  67  97 139 169 220 274 342 388
#     4  11  24  38  71  97 132 175 229 267 330 395
#     4  12  26  45  64 102 138 177 211 283 337 392
#     4  11  21  43  68  98 123 182 229 269 318 409
#     4  10  22  40  66  94 132 169 224 273 331 383
#     4  10  20  39  69  96 120 176 233 269 311 400
#     4  11  21  40  67  98 128 176 222 279 316 399
#
# _framework density 21.619126999999999
#
# number of rings (size 3 to 8) (size 9 to 14) (size 15 to 20)
#    0.000    1.143    4.286    2.143    4.000    1.143 
#    0.000    4.286    0.000    0.000    0.000    0.000 
#    0.000    0.000    0.000    0.000    0.000    0.000 
#
# Total GULP energy -78148.381218 kJ/mol
# GULP energy per Si atom -5582.027230 kJ/mol
# Density = 2.156992 g / cm^3
# Si number density = 21.619127 Si / 1000 Ang^3
#
#
#
# Elastic Constant Matrix: (Units=GPa)
#
#
# Indices 1 2 3 4 5 6 
#
# 1 57.7796 43.1963 18.8766 -7.2610 0.5464 -16.6817
# 2 43.1963 152.5691 44.3939 12.5596 -3.6002 -21.9914
# 3 18.8766 44.3939 99.3862 -4.6840 3.9281 -3.2185
# 4 -7.2610 12.5596 -4.6840 35.4058 -0.3068 4.9413
# 5 0.5464 -3.6002 3.9281 -0.3068 32.6588 6.6353
# 6 -16.6817 -21.9914 -3.2185 4.9413 6.6353 29.2533
#
#
#
# Elastic Compliance Matrix: (Units=1/GPa)
#
#
# Indices 1 2 3 4 5 6 
#
# 1 0.025883 -0.006038 -0.001516 0.005871 -0.002833 0.009705
# 2 -0.006038 0.010600 -0.003743 -0.006188 0.000643 0.005013
# 3 -0.001516 -0.003743 0.012130 0.002966 -0.001300 -0.002550
# 4 0.005871 -0.006188 0.002966 0.032970 0.000527 -0.006666
# 5 -0.002833 0.000643 -0.001300 0.000527 0.032683 -0.008777
# 6 0.009705 0.005013 -0.002550 -0.006666 -0.008777 0.046323
#
#
# Mechanical properties :
#
#
# Convention : Reuss Voigt Hill
#
# Bulk Modulus (GPa) = 38.43287 58.07428 48.25358
# Shear Modulus (GPa) = 26.06116 33.01479 29.53798
#
# Velocity S-wave (km/s) = 3.47575 3.91207 3.70034
# Velocity P-wave (km/s) = 5.82440 6.87942 6.37378
#
# Compressibility (1/GPa) = 0.02601940
#
# Stress axis : x y z
#
# Youngs Moduli (GPa) = 38.63529 94.33777 82.43960
#
# Poissons Ratio (x) = 0.56965 0.12497
# Poissons Ratio (y) = 0.23330 0.30855
# Poissons Ratio (z) = 0.05857 0.35308
#
# Static dielectric constant tensor:
#      x y z
#    x 1.806090 -0.040920 0.018370 
#    y -0.040920 1.860470 0.030010 
#    z 0.018370 0.030010 1.788020 
# 
# From -- ./inp_files/174891.got.cif
#   From: 2010.05.17/outbox.cif.g08.bks.cpg/sg2_88_cif.got.tgz:174891.got - 2010.06.03 11:33:40.
