data_PCOD9106896
_publ_section_title
;
Structure prediction by ZEFSAII (Michael W. Deem and Ramdas Pophale) SiO2 
 PCOD9106896
Probable space group: P -1
;
_chemical_formula_sum "Si O2"
_cell_formula_units_Z 16
_cell_length_a 13.537304
_cell_length_b 11.841687
_cell_length_c 7.595431
_cell_angle_alpha 66.745846
_cell_angle_beta 30.300816
_cell_angle_gamma 72.161386
_cell_volume 562.844227
_symmetry_space_group_name_H-M "P -1"
_symmetry_group_IT_number 2
_symmetry_cell_setting 'triclinic'
loop_
_space_group_symop_operation_xyz
x,y,z
-x,-y,-z
loop_
_atom_site_type_symbol
_atom_site_label
_atom_site_fract_x
_atom_site_fract_y
_atom_site_fract_z
Si Si1 0.210248 0.960060 0.424912
Si Si2 0.457176 0.775853 0.604989
Si Si3 0.842217 0.064152 0.890644
Si Si4 0.006675 0.679551 0.634031
Si Si5 0.630902 0.413776 0.681224
Si Si6 0.781187 0.681787 0.354180
Si Si7 0.547932 0.800585 0.063333
Si Si8 0.855884 0.412838 0.960265
O O1 0.980794 0.964416 0.815159
O O2 0.224601 0.970937 0.183136
O O3 0.324758 0.843317 0.371103
O O4 0.321823 0.079144 0.268030
O O5 0.614777 0.776699 0.518892
O O6 0.576324 0.775871 0.239499
O O7 0.332097 0.893756 0.749116
O O8 0.295617 0.659713 0.894049
O O9 0.981903 0.190957 0.563857
O O10 0.228153 0.655250 0.364454
O O11 0.922913 0.556997 0.736012
O O12 0.899878 0.685858 0.982524
O O13 0.643845 0.553212 0.637983
O O14 0.440187 0.322923 0.989964
O O15 0.734519 0.421646 0.324361
O O16 0.955072 0.663710 0.237124
#
# Coordination Sequence:
#
# PCOD9106896 Si02
#       8
#     2   2   2   2   2   2   2   2
#     4  10  23  41  61  78 109 151 206 237 280 342
#     4  11  23  37  58  92 121 144 187 240 293 340
#     4  11  23  39  57  86 114 152 188 242 293 335
#     4   9  16  34  60  82 117 158 186 225 279 345
#     4   8  15  32  61  86 113 150 193 230 273 339
#     4   9  18  35  60  89 118 154 188 223 280 353
#     4  10  20  40  62  85 107 149 198 245 277 335
#     4   8  18  34  55  89 121 150 187 226 280 350
#
# _framework density 28.427050000000001
#
# number of rings (size 3 to 8) (size 9 to 14) (size 15 to 20)
#    0.000    2.500    1.250    2.250    0.000    7.000 
#    4.500    2.500    0.000    0.000    0.000    0.000 
#    0.000    0.000    0.000    0.000    0.000    0.000 
#
# Total GULP energy -89635.830493 kJ/mol
# GULP energy per Si atom -5602.239406 kJ/mol
# Density = 2.836235 g / cm^3
# Si number density = 28.427050 Si / 1000 Ang^3
#
#
#
# Elastic Constant Matrix: (Units=GPa)
#
#
# Indices 1 2 3 4 5 6 
#
# 1 125.1144 35.3087 32.8848 6.4482 -10.1043 -2.0851
# 2 35.3087 114.4595 18.9242 -11.1001 -26.1385 26.5473
# 3 32.8848 18.9242 75.9960 -9.3946 -11.7307 9.2259
# 4 6.4482 -11.1001 -9.3946 50.0072 3.4467 -15.8424
# 5 -10.1043 -26.1385 -11.7307 3.4467 47.2654 10.9957
# 6 -2.0851 26.5473 9.2259 -15.8424 10.9957 56.8368
#
#
#
# Elastic Compliance Matrix: (Units=1/GPa)
#
#
# Indices 1 2 3 4 5 6 
#
# 1 0.010124 -0.003425 -0.004243 -0.002048 -0.001172 0.002316
# 2 -0.003425 0.013664 0.000481 0.000362 0.008823 -0.008192
# 3 -0.004243 0.000481 0.016154 0.002445 0.003905 -0.003076
# 4 -0.002048 0.000362 0.002445 0.022989 -0.002774 0.006304
# 5 -0.001172 0.008823 0.003905 -0.002774 0.029585 -0.011294
# 6 0.002316 -0.008192 -0.003076 0.006304 -0.011294 0.025947
#
#
# Mechanical properties :
#
#
# Convention : Reuss Voigt Hill
#
# Bulk Modulus (GPa) = 39.11466 54.42281 46.76873
# Shear Modulus (GPa) = 35.37102 46.05203 40.71153
#
# Velocity S-wave (km/s) = 3.53125 4.02930 3.78847
# Velocity P-wave (km/s) = 5.51506 6.39009 5.96863
#
# Compressibility (1/GPa) = 0.02556586
#
# Stress axis : x y z
#
# Youngs Moduli (GPa) = 98.77479 73.18726 61.90602
#
# Poissons Ratio (x) = 0.25066 0.26268
# Poissons Ratio (y) = 0.33830 -0.02975
# Poissons Ratio (z) = 0.41913 -0.03517
#
# Static dielectric constant tensor:
#      x y z
#    x 2.142720 0.014360 0.034700 
#    y 0.014360 2.187870 0.013630 
#    z 0.034700 0.013630 2.274660 
# 
# From -- ./inp_files/181885.got.cif
#   From: 2010.05.17/outbox.cif.g08.bks.cpg/sg2_91_cif.got.tgz:181885.got - 2010.06.03 11:33:40.
