data_PCOD9106378
_publ_section_title
;
Structure prediction by ZEFSAII (Michael W. Deem and Ramdas Pophale) SiO2 
 PCOD9106378
Probable space group: P -1
;
_chemical_formula_sum "Si O2"
_cell_formula_units_Z 16
_cell_length_a 26.978056
_cell_length_b 12.505280
_cell_length_c 8.972894
_cell_angle_alpha 40.482079
_cell_angle_beta 29.001528
_cell_angle_gamma 28.715751
_cell_volume 704.895030
_symmetry_space_group_name_H-M "P -1"
_symmetry_group_IT_number 2
_symmetry_cell_setting 'triclinic'
loop_
_space_group_symop_operation_xyz
x,y,z
-x,-y,-z
loop_
_atom_site_type_symbol
_atom_site_label
_atom_site_fract_x
_atom_site_fract_y
_atom_site_fract_z
Si Si1 0.808252 0.628146 0.781591
Si Si2 0.921201 0.219052 0.075747
Si Si3 0.443553 0.286032 0.757953
Si Si4 0.585995 0.802673 0.768600
Si Si5 0.616254 0.406092 0.664507
Si Si6 0.358689 0.982132 0.967977
Si Si7 0.940169 0.728186 0.114398
Si Si8 0.815372 0.751409 0.130545
O O1 0.721440 0.788212 0.979421
O O2 0.836903 0.755291 0.472636
O O3 0.928066 0.385082 0.790756
O O4 0.713308 0.608120 0.958222
O O5 0.758359 0.350838 0.388810
O O6 0.994623 0.181236 0.079164
O O7 0.000000 0.000000 0.000000
O O8 0.453769 0.426293 0.469454
O O9 0.532685 0.035989 0.726784
O O10 0.462586 0.276118 0.896185
O O11 0.747110 0.660907 0.476595
O O12 0.517263 0.841126 0.748362
O O13 0.671288 0.165849 0.734062
O O14 0.500000 0.500000 0.000000
O O15 0.301142 0.047970 0.883073
O O16 0.866118 0.819549 0.052679
O O17 0.055162 0.459928 0.075211
#
# Coordination Sequence:
#
# PCOD9106378 Si02
#       8
#     2   2   2   2   2   2   2   2
#     4  10  20  42  68  96 128 173 239 274 331 414
#     4  11  24  42  71  98 135 183 232 277 343 409
#     4   9  20  40  63  96 130 174 219 282 331 401
#     4  10  20  39  69  95 128 172 232 276 333 406
#     4  11  25  42  63  98 145 177 220 285 346 410
#     4  11  23  39  71  96 132 183 225 278 342 406
#     4  11  23  40  68  95 136 174 224 289 332 407
#     4  11  23  38  66 104 132 168 232 281 343 393
#
# _framework density 22.698416999999999
#
# number of rings (size 3 to 8) (size 9 to 14) (size 15 to 20)
#    0.000    1.500    2.500    2.250    3.500    0.500 
#    0.000    0.625    5.500    0.000    0.000    0.000 
#    0.000    0.000    0.000    0.000    0.000    0.000 
#
# Total GULP energy -89267.552656 kJ/mol
# GULP energy per Si atom -5579.222041 kJ/mol
# Density = 2.264675 g / cm^3
# Si number density = 22.698417 Si / 1000 Ang^3
#
#
#
# Elastic Constant Matrix: (Units=GPa)
#
#
# Indices 1 2 3 4 5 6 
#
# 1 165.2142 32.5271 35.4911 4.2065 -5.7618 -6.0446
# 2 32.5271 63.2626 17.4655 -13.9008 10.1111 4.4872
# 3 35.4911 17.4655 78.3691 -5.2485 11.9172 -7.6872
# 4 4.2065 -13.9008 -5.2485 32.1891 -2.1766 -1.4665
# 5 -5.7618 10.1111 11.9172 -2.1766 32.6357 -6.3122
# 6 -6.0446 4.4872 -7.6872 -1.4665 -6.3122 24.5397
#
#
#
# Elastic Compliance Matrix: (Units=1/GPa)
#
#
# Indices 1 2 3 4 5 6 
#
# 1 0.008031 -0.004874 -0.003162 -0.003243 0.004412 0.002820
# 2 -0.004874 0.022632 -0.001717 0.009249 -0.008059 -0.007397
# 3 -0.003162 -0.001717 0.015801 0.002060 -0.005017 0.003317
# 4 -0.003243 0.009249 0.002060 0.035687 -0.001846 -0.000187
# 5 0.004412 -0.008059 -0.005017 -0.001846 0.037670 0.010568
# 6 0.002820 -0.007397 0.003317 -0.000187 0.010568 0.046544
#
#
# Mechanical properties :
#
#
# Convention : Reuss Voigt Hill
#
# Bulk Modulus (GPa) = 37.09539 53.09037 45.09288
# Shear Modulus (GPa) = 25.65956 32.63037 29.14496
#
# Velocity S-wave (km/s) = 3.36587 3.79563 3.58719
# Velocity P-wave (km/s) = 5.61103 6.53065 6.08823
#
# Compressibility (1/GPa) = 0.02695753
#
# Stress axis : x y z
#
# Youngs Moduli (GPa) = 124.51274 44.18455 63.28590
#
# Poissons Ratio (x) = 0.21536 0.20013
# Poissons Ratio (y) = 0.60689 0.10868
# Poissons Ratio (z) = 0.39376 0.07587
#
# Static dielectric constant tensor:
#      x y z
#    x 1.923540 -0.062860 -0.004170 
#    y -0.062860 1.842500 0.026670 
#    z -0.004170 0.026670 1.932290 
# 
# From -- ./inp_files/343648.got.cif
#   From: 2010.05.17/outbox.cif.g08.bks.cpg/sg2_172_cif.got.tgz:343648.got - 2010.06.03 11:33:40.
