data_PCOD9106030
_publ_section_title
;
Structure prediction by ZEFSAII (Michael W. Deem and Ramdas Pophale) SiO2 
 PCOD9106030
Probable space group: P -1
;
_chemical_formula_sum "Si O2"
_cell_formula_units_Z 16
_cell_length_a 12.841027
_cell_length_b 9.036749
_cell_length_c 9.097344
_cell_angle_alpha 62.942134
_cell_angle_beta 47.490590
_cell_angle_gamma 69.508319
_cell_volume 691.558192
_symmetry_space_group_name_H-M "P -1"
_symmetry_group_IT_number 2
_symmetry_cell_setting 'triclinic'
loop_
_space_group_symop_operation_xyz
x,y,z
-x,-y,-z
loop_
_atom_site_type_symbol
_atom_site_label
_atom_site_fract_x
_atom_site_fract_y
_atom_site_fract_z
Si Si1 0.675137 0.266304 0.177557
Si Si2 0.698556 0.892926 0.436780
Si Si3 0.598393 0.600952 0.484343
Si Si4 0.927487 0.966712 0.387908
Si Si5 0.102117 0.223365 0.199019
Si Si6 0.551185 0.154459 0.074458
Si Si7 0.579564 0.768490 0.133822
Si Si8 0.172621 0.674165 0.706668
O O1 0.538435 0.391084 0.283784
O O2 0.671017 0.238366 0.018749
O O3 0.796734 0.318828 0.150141
O O4 0.651118 0.078158 0.342373
O O5 0.682854 0.758395 0.387387
O O6 0.592886 0.845825 0.690207
O O7 0.858884 0.891508 0.344707
O O8 0.533532 0.661597 0.362333
O O9 0.716918 0.453448 0.418686
O O10 0.818998 0.132127 0.444612
O O11 0.074064 0.057924 0.201718
O O12 0.930508 0.840606 0.577082
O O13 0.985297 0.353905 0.184565
O O14 0.256687 0.284008 0.025723
O O15 0.582375 0.961363 0.091483
O O16 0.513811 0.242185 0.916775
#
# Coordination Sequence:
#
# PCOD9106030 Si02
#       8
#     2   2   2   2   2   2   2   2
#     4  10  18  36  54  77 104 137 178 216 249 304
#     4  10  16  34  56  77 104 133 177 220 247 302
#     4  11  20  32  52  86 105 133 173 215 266 304
#     4   8  17  35  56  73  99 138 178 211 250 303
#     4   9  18  34  55  75 105 137 177 211 256 306
#     4  10  19  31  52  81 103 134 175 217 256 297
#     4  11  20  30  53  83 107 133 171 217 261 310
#     4   9  20  33  55  77 104 141 172 213 257 311
#
# _framework density 23.13616
#
# number of rings (size 3 to 8) (size 9 to 14) (size 15 to 20)
#    0.750    1.500    3.750    1.125    0.000    0.500 
#    0.000    3.750    0.000    1.500    0.000    0.000 
#    0.000    0.000    0.000    0.000    0.000    0.000 
#
# Total GULP energy -89232.939243 kJ/mol
# GULP energy per Si atom -5577.058703 kJ/mol
# Density = 2.308350 g / cm^3
# Si number density = 23.136160 Si / 1000 Ang^3
#
#
#
# Elastic Constant Matrix: (Units=GPa)
#
#
# Indices 1 2 3 4 5 6 
#
# 1 148.0503 39.0878 26.9443 7.5616 35.6085 -6.8171
# 2 39.0878 98.7196 23.2457 4.3726 20.6102 -12.0891
# 3 26.9443 23.2457 47.6409 -8.7917 18.9055 -9.3744
# 4 7.5616 4.3726 -8.7917 23.6713 5.8581 5.6523
# 5 35.6085 20.6102 18.9055 5.8581 33.6167 -1.7677
# 6 -6.8171 -12.0891 -9.3744 5.6523 -1.7677 25.8418
#
#
#
# Elastic Compliance Matrix: (Units=1/GPa)
#
#
# Indices 1 2 3 4 5 6 
#
# 1 0.009469 -0.001538 -0.001587 -0.001630 -0.007858 0.001022
# 2 -0.001538 0.013122 -0.003966 -0.003764 -0.003272 0.004894
# 3 -0.001587 -0.003966 0.035618 0.017797 -0.018732 0.005473
# 4 -0.001630 -0.003764 0.017797 0.056283 -0.016264 -0.009158
# 5 -0.007858 -0.003272 -0.018732 -0.016264 0.053277 -0.003197
# 6 0.001022 0.004894 0.005473 -0.009158 -0.003197 0.045026
#
#
# Mechanical properties :
#
#
# Convention : Reuss Voigt Hill
#
# Bulk Modulus (GPa) = 22.71315 52.55179 37.63247
# Shear Modulus (GPa) = 20.69094 30.30149 25.49622
#
# Velocity S-wave (km/s) = 2.99375 3.62291 3.32325
# Velocity P-wave (km/s) = 4.66782 6.34540 5.57012
#
# Compressibility (1/GPa) = 0.04402736
#
# Stress axis : x y z
#
# Youngs Moduli (GPa) = 105.60293 76.20994 28.07597
#
# Poissons Ratio (x) = 0.11721 0.04455
# Poissons Ratio (y) = 0.16242 0.11135
# Poissons Ratio (z) = 0.16756 0.30225
#
# Static dielectric constant tensor:
#      x y z
#    x 1.950740 0.059440 -0.008970 
#    y 0.059440 1.920560 -0.018330 
#    z -0.008970 -0.018330 1.871100 
# 
# From -- ./inp_files/254920.got.cif
#   From: 2010.05.17/outbox.cif.g08.bks.cpg/sg2_128_cif.got.tgz:254920.got - 2010.06.03 11:33:40.
