data_PCOD9106204
_publ_section_title
;
Structure prediction by ZEFSAII (Michael W. Deem and Ramdas Pophale) SiO2 
 PCOD9106204
Probable space group: P -1
;
_chemical_formula_sum "Si O2"
_cell_formula_units_Z 14
_cell_length_a 14.687231
_cell_length_b 7.199570
_cell_length_c 5.371554
_cell_angle_alpha 74.189150
_cell_angle_beta 71.992431
_cell_angle_gamma 93.094928
_cell_volume 513.774038
_symmetry_space_group_name_H-M "P -1"
_symmetry_group_IT_number 2
_symmetry_cell_setting 'triclinic'
loop_
_space_group_symop_operation_xyz
x,y,z
-x,-y,-z
loop_
_atom_site_type_symbol
_atom_site_label
_atom_site_fract_x
_atom_site_fract_y
_atom_site_fract_z
Si Si1 0.002156 0.781119 0.990802
Si Si2 0.812485 0.521751 0.485310
Si Si3 0.504213 0.719214 0.032110
Si Si4 0.309612 0.324700 0.835822
Si Si5 0.200495 0.858054 0.662009
Si Si6 0.866486 0.803210 0.706808
Si Si7 0.604083 0.228988 0.370944
O O1 0.916348 0.626521 0.239154
O O2 0.972428 0.794389 0.720387
O O3 0.112170 0.751543 0.944778
O O4 0.000000 0.000000 0.000000
O O5 0.718145 0.617226 0.442910
O O6 0.795405 0.298697 0.505662
O O7 0.827222 0.586685 0.728202
O O8 0.609376 0.773204 0.052657
O O9 0.439030 0.746400 0.323246
O O10 0.500000 0.500000 0.000000
O O11 0.471907 0.826586 0.771782
O O12 0.341372 0.551067 0.815373
O O13 0.209761 0.178707 0.019948
O O14 0.309097 0.899508 0.656118
O O15 0.158166 0.044039 0.527192
#
# Coordination Sequence:
#
# PCOD9106204 Si02
#       7
#     2   2   2   2   2   2   2
#     4  11  23  45  64  96 136 177 227 280 342 408
#     4  10  23  42  67  96 131 174 231 271 348 405
#     4  10  20  39  68 101 135 179 229 281 340 412
#     4   9  21  38  65  95 134 172 222 277 339 404
#     4  11  24  43  67  98 136 176 228 286 334 406
#     4  11  24  43  65 100 129 181 221 281 345 405
#     4  10  23  39  66 105 133 179 233 277 343 409
#
# _framework density 27.24933
#
# number of rings (size 3 to 8) (size 9 to 14) (size 15 to 20)
#    0.000    1.714    1.429    2.571   10.000    1.714 
#    5.143    1.429    0.000    0.000    0.000    0.000 
#    0.000    0.000    0.000    0.000    0.000    0.000 
#
# Total GULP energy -78002.159852 kJ/mol
# GULP energy per Si atom -5571.582847 kJ/mol
# Density = 2.718731 g / cm^3
# Si number density = 27.249330 Si / 1000 Ang^3
#
#
#
# Elastic Constant Matrix: (Units=GPa)
#
#
# Indices 1 2 3 4 5 6 
#
# 1 184.7463 22.3099 41.9777 11.5283 21.4672 -20.6793
# 2 22.3099 90.8261 16.9744 6.2550 22.3375 -4.4924
# 3 41.9777 16.9744 89.8069 1.4234 9.7294 -19.9053
# 4 11.5283 6.2550 1.4234 31.8197 3.6620 5.9416
# 5 21.4672 22.3375 9.7294 3.6620 36.4511 0.0398
# 6 -20.6793 -4.4924 -19.9053 5.9416 0.0398 41.9497
#
#
#
# Elastic Compliance Matrix: (Units=1/GPa)
#
#
# Indices 1 2 3 4 5 6 
#
# 1 0.006724 -0.000210 -0.002158 -0.002440 -0.003013 0.002616
# 2 -0.000210 0.013333 -0.001374 -0.001795 -0.007501 0.000934
# 3 -0.002158 -0.001374 0.013767 -0.000392 -0.001528 0.005379
# 4 -0.002440 -0.001795 -0.000392 0.033963 -0.000764 -0.006391
# 5 -0.003013 -0.007501 -0.001528 -0.000764 0.034293 -0.002938
# 6 0.002616 0.000934 0.005379 -0.006391 -0.002938 0.028688
#
#
# Mechanical properties :
#
#
# Convention : Reuss Voigt Hill
#
# Bulk Modulus (GPa) = 37.96469 58.65592 48.31030
# Shear Modulus (GPa) = 34.00630 40.98525 37.49577
#
# Velocity S-wave (km/s) = 3.53649 3.88246 3.71351
# Velocity P-wave (km/s) = 5.53519 6.45526 6.01285
#
# Compressibility (1/GPa) = 0.02634027
#
# Stress axis : x y z
#
# Youngs Moduli (GPa) = 148.72620 75.00245 72.63525
#
# Poissons Ratio (x) = 0.01573 0.15676
# Poissons Ratio (y) = 0.03120 0.09980
# Poissons Ratio (z) = 0.32098 0.10305
#
# Static dielectric constant tensor:
#      x y z
#    x 2.237620 -0.109900 -0.132110 
#    y -0.109900 2.174760 0.045640 
#    z -0.132110 0.045640 2.341040 
# 
# From -- ./inp_files/90011.got.cif
#   From: 2010.05.17/outbox.cif.g08.bks.cpg/sg2_46_cif.got.tgz:90011.got - 2010.06.03 11:33:40.
