data_PCOD9106056
_publ_section_title
;
Structure prediction by ZEFSAII (Michael W. Deem and Ramdas Pophale) SiO2 
 PCOD9106056
Probable space group: P -1
;
_chemical_formula_sum "Si O2"
_cell_formula_units_Z 14
_cell_length_a 11.718029
_cell_length_b 7.607643
_cell_length_c 15.746251
_cell_angle_alpha 71.566316
_cell_angle_beta 154.515395
_cell_angle_gamma 111.960045
_cell_volume 559.353174
_symmetry_space_group_name_H-M "P -1"
_symmetry_group_IT_number 2
_symmetry_cell_setting 'triclinic'
loop_
_space_group_symop_operation_xyz
x,y,z
-x,-y,-z
loop_
_atom_site_type_symbol
_atom_site_label
_atom_site_fract_x
_atom_site_fract_y
_atom_site_fract_z
Si Si1 0.868913 0.568864 0.155471
Si Si2 0.255247 0.914965 0.657512
Si Si3 0.522065 0.759740 0.012124
Si Si4 0.916669 0.015780 0.637244
Si Si5 0.611540 0.581494 0.472215
Si Si6 0.881934 0.058911 0.803129
Si Si7 0.737139 0.191449 0.858950
O O1 0.733159 0.639552 0.135412
O O2 0.167185 0.539057 0.382989
O O3 0.893398 0.739465 0.077981
O O4 0.667033 0.370019 0.026213
O O5 0.180553 0.853233 0.519818
O O6 0.528336 0.074716 0.804006
O O7 0.328933 0.781498 0.799667
O O8 0.000000 0.000000 0.500000
O O9 0.752663 0.949146 0.156038
O O10 0.820316 0.046193 0.663559
O O11 0.790329 0.796689 0.563759
O O12 0.500000 0.500000 0.500000
O O13 0.347612 0.607324 0.237314
O O14 0.698223 0.098479 0.751490
O O15 0.983207 0.866243 0.919416
#
# Coordination Sequence:
#
# PCOD9106056 Si02
#       7
#     2   2   2   2   2   2   2
#     4  10  20  39  67  89 132 171 203 275 325 359
#     4  11  22  37  64  98 127 165 211 264 320 376
#     4  10  21  43  65  91 129 172 219 259 315 388
#     4  10  23  41  69  96 124 175 223 252 325 392
#     4  11  22  37  61  96 130 163 208 271 326 369
#     4  10  20  42  69  92 122 178 218 256 325 381
#     4  10  20  39  69  87 133 168 210 264 323 382
#
# _framework density 25.02891
#
# number of rings (size 3 to 8) (size 9 to 14) (size 15 to 20)
#    0.000    1.714    4.286    1.714    0.000    4.571 
#    0.000    7.143    6.286    0.000    0.000    0.000 
#    0.000    0.000    0.000    0.000    0.000    0.000 
#
# Total GULP energy -77991.880657 kJ/mol
# GULP energy per Si atom -5570.848618 kJ/mol
# Density = 2.497194 g / cm^3
# Si number density = 25.028910 Si / 1000 Ang^3
#
#
#
# Elastic Constant Matrix: (Units=GPa)
#
#
# Indices 1 2 3 4 5 6 
#
# 1 99.1357 13.1699 26.3180 -11.4928 1.2067 2.7261
# 2 13.1699 93.7887 34.9302 -19.2166 -3.6543 20.4865
# 3 26.3180 34.9302 110.3094 -30.7198 -5.6234 -7.5201
# 4 -11.4928 -19.2166 -30.7198 41.5408 -8.3471 5.7513
# 5 1.2067 -3.6543 -5.6234 -8.3471 45.4623 -7.5125
# 6 2.7261 20.4865 -7.5201 5.7513 -7.5125 39.9710
#
#
#
# Elastic Compliance Matrix: (Units=1/GPa)
#
#
# Indices 1 2 3 4 5 6 
#
# 1 0.010920 -0.000103 -0.002328 0.001334 -0.000578 -0.001430
# 2 -0.000103 0.015306 -0.003918 0.005488 0.000215 -0.009324
# 3 -0.002328 -0.003918 0.013449 0.007604 0.003511 0.004263
# 4 0.001334 0.005488 0.007604 0.034699 0.006862 -0.005176
# 5 -0.000578 0.000215 0.003511 0.006862 0.024416 0.004191
# 6 -0.001430 -0.009324 0.004263 -0.005176 0.004191 0.032229
#
#
# Mechanical properties :
#
#
# Convention : Reuss Voigt Hill
#
# Bulk Modulus (GPa) = 37.07090 50.23002 43.65046
# Shear Modulus (GPa) = 32.74190 40.64920 36.69555
#
# Velocity S-wave (km/s) = 3.62078 4.03437 3.83316
# Velocity P-wave (km/s) = 5.68537 6.46637 6.08840
#
# Compressibility (1/GPa) = 0.02697534
#
# Stress axis : x y z
#
# Youngs Moduli (GPa) = 91.57560 65.33548 74.35556
#
# Poissons Ratio (x) = 0.00673 0.17312
# Poissons Ratio (y) = 0.00944 0.29134
# Poissons Ratio (z) = 0.21321 0.25600
#
# Static dielectric constant tensor:
#      x y z
#    x 1.961860 -0.049530 0.011890 
#    y -0.049530 2.213510 0.084230 
#    z 0.011890 0.084230 2.134050 
# 
# From -- ./inp_files/515464.got.cif
#   From: 2010.05.17/outbox.cif.g08.bks.cpg/sg2_258_cif.got.tgz:515464.got - 2010.06.03 11:33:40.
