data_PCOD9106345
_publ_section_title
;
Structure prediction by ZEFSAII (Michael W. Deem and Ramdas Pophale) SiO2 
 PCOD9106345
Probable space group: P -1
;
_chemical_formula_sum "Si O2"
_cell_formula_units_Z 16
_cell_length_a 8.520428
_cell_length_b 9.558255
_cell_length_c 14.992258
_cell_angle_alpha 105.288783
_cell_angle_beta 47.289432
_cell_angle_gamma 132.648952
_cell_volume 615.019125
_symmetry_space_group_name_H-M "P -1"
_symmetry_group_IT_number 2
_symmetry_cell_setting 'triclinic'
loop_
_space_group_symop_operation_xyz
x,y,z
-x,-y,-z
loop_
_atom_site_type_symbol
_atom_site_label
_atom_site_fract_x
_atom_site_fract_y
_atom_site_fract_z
Si Si1 0.654310 0.239494 0.879819
Si Si2 0.154104 0.630338 0.688612
Si Si3 0.713645 0.690650 0.018922
Si Si4 0.436664 0.385992 0.411639
Si Si5 0.905083 0.326536 0.572639
Si Si6 0.731689 0.478053 0.135576
Si Si7 0.761432 0.963538 0.817025
Si Si8 0.213579 0.974206 0.731443
O O1 0.444526 0.230242 0.892395
O O2 0.929814 0.484477 0.832457
O O3 0.751815 0.120002 0.805937
O O4 0.439840 0.127282 0.030515
O O5 0.484655 0.740502 0.609790
O O6 0.999636 0.444686 0.649654
O O7 0.145849 0.786286 0.680003
O O8 0.739481 0.614904 0.086571
O O9 0.500000 0.500000 0.000000
O O10 0.018123 0.864987 0.878167
O O11 0.500000 0.500000 0.500000
O O12 0.116665 0.285877 0.482242
O O13 0.677731 0.525739 0.261837
O O14 0.559737 0.139150 0.651041
O O15 0.000000 0.500000 0.500000
O O16 0.429636 0.237706 0.203201
O O17 0.000000 0.500000 0.000000
O O18 0.075520 0.038375 0.736744
#
# Coordination Sequence:
#
# PCOD9106345 Si02
#       8
#     2   2   2   2   2   2   2   2
#     4  10  20  39  69 106 163 202 248 325 415 479
#     4  11  23  47  76 101 150 206 259 340 401 472
#     4  11  20  42  75 115 161 207 260 342 419 491
#     4  10  26  50  74 109 161 218 269 339 403 482
#     4  11  29  48  73 112 147 213 283 325 402 505
#     4  12  23  43  81 123 156 211 279 334 417 495
#     4  10  22  40  67 117 159 207 256 328 412 499
#     4  11  23  47  78 110 159 208 265 340 417 481
#
# _framework density 26.015450999999999
#
# number of rings (size 3 to 8) (size 9 to 14) (size 15 to 20)
#    0.000    1.250    3.750    1.500    5.250    3.000 
#    2.250    3.125    0.000    2.250    0.000    0.000 
#    0.000    0.000    0.000    0.000    0.000    0.000 
#
# Total GULP energy -89379.243189 kJ/mol
# GULP energy per Si atom -5586.202699 kJ/mol
# Density = 2.595624 g / cm^3
# Si number density = 26.015451 Si / 1000 Ang^3
#
#
#
# Elastic Constant Matrix: (Units=GPa)
#
#
# Indices 1 2 3 4 5 6 
#
# 1 176.8001 89.3075 70.3589 1.1211 -48.8976 -22.8466
# 2 89.3075 147.5536 31.1462 3.8095 -25.6924 -27.6969
# 3 70.3589 31.1462 111.1714 -1.8699 -8.9028 -9.3746
# 4 1.1211 3.8095 -1.8699 28.8541 -2.7177 -10.7983
# 5 -48.8976 -25.6924 -8.9028 -2.7177 59.3767 -4.5359
# 6 -22.8466 -27.6969 -9.3746 -10.7983 -4.5359 55.0668
#
#
#
# Elastic Compliance Matrix: (Units=1/GPa)
#
#
# Indices 1 2 3 4 5 6 
#
# 1 0.013036 -0.004686 -0.006007 0.001615 0.008111 0.003014
# 2 -0.004686 0.010326 0.000443 0.000227 0.000950 0.003448
# 3 -0.006007 0.000443 0.012429 0.000607 -0.002884 -0.000272
# 4 0.001615 0.000227 0.000607 0.038234 0.003934 0.008709
# 5 0.008111 0.000950 -0.002884 0.003934 0.024147 0.006112
# 6 0.003014 0.003448 -0.000272 0.008709 0.006112 0.023309
#
#
# Mechanical properties :
#
#
# Convention : Reuss Voigt Hill
#
# Bulk Modulus (GPa) = 65.39101 90.79448 78.09275
# Shear Modulus (GPa) = 33.99569 44.97368 39.48469
#
# Velocity S-wave (km/s) = 3.61882 4.16231 3.90004
# Velocity P-wave (km/s) = 6.53079 7.62074 7.09672
#
# Compressibility (1/GPa) = 0.01529262
#
# Stress axis : x y z
#
# Youngs Moduli (GPa) = 76.71060 96.83830 80.45826
#
# Poissons Ratio (x) = 0.45377 0.48328
# Poissons Ratio (y) = 0.35945 -0.03565
# Poissons Ratio (z) = 0.46077 -0.04291
#
# Static dielectric constant tensor:
#      x y z
#    x 3.894780 -0.164050 3.643850 
#    y -0.164050 2.072300 -0.439170 
#    z 3.643850 -0.439170 9.921490 
# 
# From -- ./inp_files/320498.got.cif
#   From: 2010.05.17/outbox.cif.g08.bks.cpg/sg2_161_cif.got.tgz:320498.got - 2010.06.03 11:33:40.
