data_PCOD9106259
_publ_section_title
;
Structure prediction by ZEFSAII (Michael W. Deem and Ramdas Pophale) SiO2 
 PCOD9106259
Probable space group: P -1
;
_chemical_formula_sum "Si O2"
_cell_formula_units_Z 16
_cell_length_a 7.007576
_cell_length_b 11.189487
_cell_length_c 11.674597
_cell_angle_alpha 49.711046
_cell_angle_beta 93.630388
_cell_angle_gamma 112.375287
_cell_volume 623.632376
_symmetry_space_group_name_H-M "P -1"
_symmetry_group_IT_number 2
_symmetry_cell_setting 'triclinic'
loop_
_space_group_symop_operation_xyz
x,y,z
-x,-y,-z
loop_
_atom_site_type_symbol
_atom_site_label
_atom_site_fract_x
_atom_site_fract_y
_atom_site_fract_z
Si Si1 0.085859 0.400407 0.242161
Si Si2 0.589106 0.506379 0.199524
Si Si3 0.112209 0.241148 0.121786
Si Si4 0.663931 0.678964 0.331569
Si Si5 0.045289 0.118647 0.584305
Si Si6 0.579235 0.085111 0.795046
Si Si7 0.501568 0.863615 0.494043
Si Si8 0.188553 0.787323 0.056274
O O1 0.339215 0.455169 0.224017
O O2 0.985721 0.236952 0.424640
O O3 0.079064 0.578171 0.167509
O O4 0.017568 0.328455 0.156196
O O5 0.698940 0.628055 0.237758
O O6 0.604717 0.327295 0.333620
O O7 0.686238 0.608211 0.023863
O O8 0.131226 0.080526 0.282713
O O9 0.950593 0.151759 0.066744
O O10 0.500000 0.500000 0.500000
O O11 0.866741 0.772278 0.363373
O O12 0.544724 0.801407 0.242547
O O13 0.257246 0.104432 0.552678
O O14 0.606125 0.120817 0.639369
O O15 0.775010 0.150852 0.849963
O O16 0.422465 0.883949 0.944850
O O17 0.500000 0.000000 0.500000
#
# Coordination Sequence:
#
# PCOD9106259 Si02
#       8
#     2   2   2   2   2   2   2   2
#     4  11  23  42  69  90 130 181 225 253 326 400
#     4  11  24  40  69  99 128 173 221 268 324 386
#     4  12  25  41  61 101 141 161 217 279 330 374
#     4  11  16  40  73  91 118 171 224 263 305 399
#     4  10  22  43  68  95 125 176 220 266 331 386
#     4  10  20  39  68  94 125 167 224 256 327 387
#     4  10  21  39  68  97 131 170 218 262 323 398
#     4  11  22  40  68  96 125 175 217 268 322 384
#
# _framework density 25.656141000000002
#
# number of rings (size 3 to 8) (size 9 to 14) (size 15 to 20)
#    0.000    1.250    7.500    1.125    1.750    1.500 
#    0.000    0.625    2.750    0.000    0.000    0.000 
#    0.000    0.000    0.000    0.000    0.000    0.000 
#
# Total GULP energy -89688.132762 kJ/mol
# GULP energy per Si atom -5605.508298 kJ/mol
# Density = 2.559775 g / cm^3
# Si number density = 25.656141 Si / 1000 Ang^3
#
#
#
# Elastic Constant Matrix: (Units=GPa)
#
#
# Indices 1 2 3 4 5 6 
#
# 1 54.5279 21.9919 32.6025 -0.0131 -3.7949 -2.9019
# 2 21.9919 145.9570 66.6780 -3.7595 -9.4738 -9.4998
# 3 32.6025 66.6780 203.7830 -19.2994 -21.1068 -9.2524
# 4 -0.0131 -3.7595 -19.2994 44.5635 1.7169 6.8830
# 5 -3.7949 -9.4738 -21.1068 1.7169 38.7898 1.5104
# 6 -2.9019 -9.4998 -9.2524 6.8830 1.5104 36.2037
#
#
#
# Elastic Compliance Matrix: (Units=1/GPa)
#
#
# Indices 1 2 3 4 5 6 
#
# 1 0.020814 -0.001827 -0.002831 -0.001492 0.000087 0.000746
# 2 -0.001827 0.008324 -0.002361 -0.000577 0.000536 0.001522
# 3 -0.002831 -0.002361 0.006659 0.002542 0.002647 0.000262
# 4 -0.001492 -0.000577 0.002542 0.024136 0.000192 -0.004218
# 5 0.000087 0.000536 0.002647 0.000192 0.027365 -0.000354
# 6 0.000746 0.001522 0.000262 -0.004218 -0.000354 0.028964
#
#
# Mechanical properties :
#
#
# Convention : Reuss Voigt Hill
#
# Bulk Modulus (GPa) = 45.95748 71.86808 58.91278
# Shear Modulus (GPa) = 36.34928 42.77777 39.56353
#
# Velocity S-wave (km/s) = 3.76811 4.08775 3.93118
# Velocity P-wave (km/s) = 6.07316 7.09595 6.60438
#
# Compressibility (1/GPa) = 0.02175924
#
# Stress axis : x y z
#
# Youngs Moduli (GPa) = 48.04467 120.12872 150.16191
#
# Poissons Ratio (x) = 0.21951 0.42504
# Poissons Ratio (y) = 0.08779 0.35460
# Poissons Ratio (z) = 0.13599 0.28368
#
# Static dielectric constant tensor:
#      x y z
#    x 2.082300 0.016240 -0.050400 
#    y 0.016240 1.977940 -0.005650 
#    z -0.050400 -0.005650 1.995830 
# 
# From -- ./inp_files/392122.got.cif
#   From: 2010.05.17/outbox.cif.g08.bks.cpg/sg2_197_cif.got.tgz:392122.got - 2010.06.03 11:33:40.
