data_PCOD9106422
_publ_section_title
;
Structure prediction by ZEFSAII (Michael W. Deem and Ramdas Pophale) SiO2 
 PCOD9106422
Probable space group: P -1
;
_chemical_formula_sum "Si O2"
_cell_formula_units_Z 12
_cell_length_a 12.184906
_cell_length_b 9.401105
_cell_length_c 5.771711
_cell_angle_alpha 79.861307
_cell_angle_beta 120.450292
_cell_angle_gamma 67.647493
_cell_volume 467.364983
_symmetry_space_group_name_H-M "P -1"
_symmetry_group_IT_number 2
_symmetry_cell_setting 'triclinic'
loop_
_space_group_symop_operation_xyz
x,y,z
-x,-y,-z
loop_
_atom_site_type_symbol
_atom_site_label
_atom_site_fract_x
_atom_site_fract_y
_atom_site_fract_z
Si Si1 0.812188 0.307869 0.504900
Si Si2 0.434078 0.314450 0.780441
Si Si3 0.218579 0.936021 0.710861
Si Si4 0.634751 0.183891 0.643440
Si Si5 0.306221 0.124548 0.445076
Si Si6 0.044907 0.399660 0.827780
O O1 0.685564 0.511219 0.265725
O O2 0.861636 0.165781 0.397287
O O3 0.729334 0.251250 0.607884
O O4 0.953523 0.307081 0.750914
O O5 0.485738 0.336612 0.572779
O O6 0.373587 0.192840 0.686668
O O7 0.599427 0.214254 0.103092
O O8 0.188219 0.093257 0.473590
O O9 0.240060 0.953316 0.996093
O O10 0.588761 0.064023 0.503533
O O11 0.222613 0.262509 0.109994
O O12 0.000000 0.500000 0.500000
O O13 0.000000 0.500000 0.000000
#
# Coordination Sequence:
#
# PCOD9106422 Si02
#       6
#     2   2   2   2   2   2
#     4  11  22  45  64 101 141 182 238 286 348 423
#     4  10  20  39  70 101 146 174 236 284 362 414
#     4   9  23  37  66 103 135 182 220 289 359 411
#     4   9  23  37  66 103 135 182 220 289 359 411
#     4  11  22  45  64 101 141 182 238 286 348 423
#     4  12  30  49  74 103 138 193 242 295 349 418
#
# _framework density 25.675867
#
# number of rings (size 3 to 8) (size 9 to 14) (size 15 to 20)
#    1.000    0.667    1.667    2.000    4.667    2.667 
#    6.000    1.667    0.000    0.000    0.000    0.000 
#    0.000    0.000    0.000    0.000    0.000    0.000 
#
# Total GULP energy -66807.838491 kJ/mol
# GULP energy per Si atom -5567.319874 kJ/mol
# Density = 2.561743 g / cm^3
# Si number density = 25.675867 Si / 1000 Ang^3
#
#
#
# Elastic Constant Matrix: (Units=GPa)
#
#
# Indices 1 2 3 4 5 6 
#
# 1 68.3788 36.7042 13.8216 9.1577 3.8605 31.3236
# 2 36.7042 146.3918 30.4265 22.7094 -0.9621 19.0743
# 3 13.8216 30.4265 90.6971 -1.0560 2.7133 18.6794
# 4 9.1577 22.7094 -1.0560 41.1012 3.4167 19.1976
# 5 3.8605 -0.9621 2.7133 3.4167 32.7922 2.1163
# 6 31.3236 19.0743 18.6794 19.1976 2.1163 51.9815
#
#
#
# Elastic Compliance Matrix: (Units=1/GPa)
#
#
# Indices 1 2 3 4 5 6 
#
# 1 0.022958 -0.004860 0.001130 0.004323 -0.002489 -0.013952
# 2 -0.004860 0.009179 -0.002972 -0.005382 0.001483 0.002556
# 3 0.001130 -0.002972 0.013179 0.004640 -0.001408 -0.005983
# 4 0.004323 -0.005382 0.004640 0.033552 -0.003608 -0.014542
# 5 -0.002489 0.001483 -0.001408 -0.003608 0.031226 0.001523
# 6 -0.013952 0.002556 -0.005983 -0.014542 0.001523 0.034165
#
#
# Mechanical properties :
#
#
# Convention : Reuss Voigt Hill
#
# Bulk Modulus (GPa) = 31.33687 51.93027 41.63357
# Shear Modulus (GPa) = 29.70888 40.14266 34.92577
#
# Velocity S-wave (km/s) = 3.40527 3.95832 3.69217
# Velocity P-wave (km/s) = 5.26236 6.41563 5.86740
#
# Compressibility (1/GPa) = 0.03191129
#
# Stress axis : x y z
#
# Youngs Moduli (GPa) = 43.55868 108.94574 75.87927
#
# Poissons Ratio (x) = 0.52947 -0.08575
# Poissons Ratio (y) = 0.21169 0.22552
# Poissons Ratio (z) = -0.04922 0.32379
#
# Static dielectric constant tensor:
#      x y z
#    x 2.150200 -0.139660 -0.116150 
#    y -0.139660 2.115490 0.051320 
#    z -0.116150 0.051320 2.099160 
# 
# From -- ./inp_files/88858.got.cif
#   From: 2010.05.17/outbox.cif.g08.bks.cpg/sg2_45_cif.got.tgz:88858.got - 2010.06.03 11:33:40.
