data_PCOD9106613
_publ_section_title
;
Structure prediction by ZEFSAII (Michael W. Deem and Ramdas Pophale) SiO2 
 PCOD9106613
Probable space group: P -1
;
_chemical_formula_sum "Si O2"
_cell_formula_units_Z 16
_cell_length_a 9.616289
_cell_length_b 10.328496
_cell_length_c 9.623369
_cell_angle_alpha 77.436337
_cell_angle_beta 72.917244
_cell_angle_gamma 55.423978
_cell_volume 750.698659
_symmetry_space_group_name_H-M "P -1"
_symmetry_group_IT_number 2
_symmetry_cell_setting 'triclinic'
loop_
_space_group_symop_operation_xyz
x,y,z
-x,-y,-z
loop_
_atom_site_type_symbol
_atom_site_label
_atom_site_fract_x
_atom_site_fract_y
_atom_site_fract_z
Si Si1 0.208418 0.132435 0.948570
Si Si2 0.021678 0.607993 0.856771
Si Si3 0.370755 0.321913 0.772676
Si Si4 0.835446 0.987955 0.522184
Si Si5 0.477512 0.170980 0.475829
Si Si6 0.851480 0.570221 0.647410
Si Si7 0.012512 0.778235 0.279658
Si Si8 0.722553 0.116137 0.817127
O O1 0.049347 0.230518 0.079890
O O2 0.305642 0.959073 0.021848
O O3 0.317349 0.214223 0.896428
O O4 0.129823 0.155693 0.814265
O O5 0.221867 0.503802 0.783141
O O6 0.914704 0.624313 0.747677
O O7 0.000000 0.500000 0.000000
O O8 0.392011 0.261255 0.623686
O O9 0.551387 0.280764 0.789140
O O10 0.914737 0.830061 0.445123
O O11 0.677215 0.122221 0.443037
O O12 0.754688 0.009630 0.694086
O O13 0.000000 0.000000 0.500000
O O14 0.339978 0.291360 0.375850
O O15 0.500000 0.000000 0.500000
O O16 0.864577 0.409215 0.725740
O O17 0.000000 0.500000 0.500000
O O18 0.121268 0.859211 0.215718
#
# Coordination Sequence:
#
# PCOD9106613 Si02
#       8
#     2   2   2   2   2   2   2   2
#     4  11  21  39  64  87 120 165 206 244 298 363
#     4  10  21  39  59  90 122 157 205 250 302 352
#     4  10  20  40  58  92 121 153 207 252 295 361
#     4   9  21  41  60  86 125 157 196 247 302 361
#     4  11  22  36  63  96 117 150 206 257 301 355
#     4  12  22  38  66  91 120 161 202 260 303 353
#     4  11  22  43  60  90 126 159 203 248 305 368
#     4  10  23  38  64  89 124 161 196 253 308 352
#
# _framework density 21.313479000000001
#
# number of rings (size 3 to 8) (size 9 to 14) (size 15 to 20)
#    0.000    1.500    3.750    2.250    5.250    0.000 
#    4.500    8.750    0.000    0.000    0.000    0.000 
#    0.000    0.000    0.000    0.000    0.000    0.000 
#
# Total GULP energy -89261.049175 kJ/mol
# GULP energy per Si atom -5578.815573 kJ/mol
# Density = 2.126497 g / cm^3
# Si number density = 21.313479 Si / 1000 Ang^3
#
#
#
# Elastic Constant Matrix: (Units=GPa)
#
#
# Indices 1 2 3 4 5 6 
#
# 1 76.4720 12.1203 19.2465 -4.3153 20.9048 -26.5356
# 2 12.1203 73.1620 19.2889 -0.6311 23.6544 -22.5005
# 3 19.2465 19.2889 62.3115 -8.5264 22.4496 -7.2029
# 4 -4.3153 -0.6311 -8.5264 39.0671 -6.9647 8.6614
# 5 20.9048 23.6544 22.4496 -6.9647 25.8099 -3.0285
# 6 -26.5356 -22.5005 -7.2029 8.6614 -3.0285 36.2474
#
#
#
# Elastic Compliance Matrix: (Units=1/GPa)
#
#
# Indices 1 2 3 4 5 6 
#
# 1 0.034658 0.020583 0.003073 -0.012149 -0.048473 0.037612
# 2 0.020583 0.038878 0.003962 -0.014688 -0.055149 0.038891
# 3 0.003073 0.003962 0.024173 -0.000693 -0.026457 0.007468
# 4 -0.012149 -0.014688 -0.000693 0.034585 0.030435 -0.023870
# 5 -0.048473 -0.055149 -0.026457 0.030435 0.151609 -0.069582
# 6 0.037612 0.038891 0.007468 -0.023870 -0.069582 0.080639
#
#
# Mechanical properties :
#
#
# Convention : Reuss Voigt Hill
#
# Bulk Modulus (GPa) = 6.53830 34.80631 20.67231
# Shear Modulus (GPa) = 13.87783 30.97753 22.42768
#
# Velocity S-wave (km/s) = 2.55449 3.81652 3.24740
# Velocity P-wave (km/s) = 3.43146 5.98224 4.87658
#
# Compressibility (1/GPa) = 0.15294490
#
# Stress axis : x y z
#
# Youngs Moduli (GPa) = 28.85368 25.72127 41.36842
#
# Poissons Ratio (x) = -0.52942 -0.12711
# Poissons Ratio (y) = -0.59389 -0.16392
# Poissons Ratio (z) = -0.08866 -0.10192
#
# Static dielectric constant tensor:
#      x y z
#    x 1.760540 -0.014410 -0.023010 
#    y -0.014410 1.833200 -0.004310 
#    z -0.023010 -0.004310 1.800340 
# 
# From -- ./inp_files/186607.got.cif
#   From: 2010.05.17/outbox.cif.g08.bks.cpg/sg2_94_cif.got.tgz:186607.got - 2010.06.03 11:33:40.
