data_PCOD9106059
_publ_section_title
;
Structure prediction by ZEFSAII (Michael W. Deem and Ramdas Pophale) SiO2 
 PCOD9106059
Probable space group: P -1
;
_chemical_formula_sum "Si O2"
_cell_formula_units_Z 16
_cell_length_a 12.591727
_cell_length_b 14.487017
_cell_length_c 14.483569
_cell_angle_alpha 149.714917
_cell_angle_beta 148.459670
_cell_angle_gamma 40.446336
_cell_volume 693.820735
_symmetry_space_group_name_H-M "P -1"
_symmetry_group_IT_number 2
_symmetry_cell_setting 'triclinic'
loop_
_space_group_symop_operation_xyz
x,y,z
-x,-y,-z
loop_
_atom_site_type_symbol
_atom_site_label
_atom_site_fract_x
_atom_site_fract_y
_atom_site_fract_z
Si Si1 0.430407 0.859057 0.185524
Si Si2 0.341443 0.232737 0.915070
Si Si3 0.880726 0.376252 0.900285
Si Si4 0.731228 0.719654 0.788419
Si Si5 0.930080 0.063376 0.144705
Si Si6 0.653999 0.169416 0.709071
Si Si7 0.261235 0.831215 0.562082
Si Si8 0.234709 0.680286 0.606916
O O1 0.577280 0.788009 0.148654
O O2 0.443891 0.750636 0.199223
O O3 0.501632 0.057161 0.439508
O O4 0.199610 0.872878 0.986548
O O5 0.252123 0.046802 0.720420
O O6 0.185043 0.409333 0.965980
O O7 0.543118 0.265341 0.151517
O O8 0.755845 0.304111 0.832430
O O9 0.819942 0.272186 0.674724
O O10 0.116899 0.328134 0.055983
O O11 0.500470 0.758821 0.682050
O O12 0.756084 0.538439 0.586559
O O13 0.801814 0.901181 0.949780
O O14 0.161111 0.975439 0.242188
O O15 0.913671 0.233824 0.349989
O O16 0.173202 0.779097 0.550144
#
# Coordination Sequence:
#
# PCOD9106059 Si02
#       8
#     2   2   2   2   2   2   2   2
#     4  10  20  39  67  90 119 168 205 252 317 370
#     4  11  23  41  68  90 126 167 208 258 312 371
#     4  11  25  40  64  94 130 164 207 262 311 368
#     4  11  23  40  63  91 127 167 210 254 311 364
#     4  10  22  41  63  92 126 163 206 258 309 371
#     4  10  21  40  65  91 125 161 204 261 314 367
#     4  12  23  46  62  90 131 168 211 257 309 370
#     4  11  24  39  69  90 123 171 212 252 310 374
#
# _framework density 23.060713
#
# number of rings (size 3 to 8) (size 9 to 14) (size 15 to 20)
#    0.000    1.250    5.000    1.125    1.750    1.000 
#    0.000    3.125    0.000    3.750    0.000    0.000 
#    0.000    0.000    0.000    0.000    0.000    0.000 
#
# Total GULP energy -89610.506110 kJ/mol
# GULP energy per Si atom -5600.656632 kJ/mol
# Density = 2.300823 g / cm^3
# Si number density = 23.060713 Si / 1000 Ang^3
#
#
#
# Elastic Constant Matrix: (Units=GPa)
#
#
# Indices 1 2 3 4 5 6 
#
# 1 60.3086 28.9563 34.4045 3.1451 -19.5254 17.0333
# 2 28.9563 93.8991 50.9294 1.7770 -15.4143 -1.1491
# 3 34.4045 50.9294 119.3320 -10.3968 -21.6449 1.2711
# 4 3.1451 1.7770 -10.3968 32.8836 4.7272 -2.0796
# 5 -19.5254 -15.4143 -21.6449 4.7272 34.7457 -10.5336
# 6 17.0333 -1.1491 1.2711 -2.0796 -10.5336 22.8007
#
#
#
# Elastic Compliance Matrix: (Units=1/GPa)
#
#
# Indices 1 2 3 4 5 6 
#
# 1 0.030577 -0.005473 -0.005789 -0.006599 0.005760 -0.020737
# 2 -0.005473 0.015509 -0.004716 -0.001841 0.003050 0.006374
# 3 -0.005789 -0.004716 0.013119 0.004753 0.003871 0.005578
# 4 -0.006599 -0.001841 0.004753 0.033636 -0.004447 0.005585
# 5 0.005760 0.003050 0.003871 -0.004447 0.040631 0.014000
# 6 -0.020737 0.006374 0.005578 0.005585 0.014000 0.066338
#
#
# Mechanical properties :
#
#
# Convention : Reuss Voigt Hill
#
# Bulk Modulus (GPa) = 36.69945 55.79109 46.24527
# Shear Modulus (GPa) = 20.75984 28.70262 24.73123
#
# Velocity S-wave (km/s) = 3.00363 3.53179 3.27837
# Velocity P-wave (km/s) = 5.28941 6.39352 5.86749
#
# Compressibility (1/GPa) = 0.02724836
#
# Stress axis : x y z
#
# Youngs Moduli (GPa) = 32.70383 64.47902 76.22647
#
# Poissons Ratio (x) = 0.35287 0.44130
# Poissons Ratio (y) = 0.17898 0.35951
# Poissons Ratio (z) = 0.18933 0.30410
#
# Static dielectric constant tensor:
#      x y z
#    x 1.906350 -0.005600 0.016300 
#    y -0.005600 1.846580 -0.027530 
#    z 0.016300 -0.027530 1.836600 
# 
# From -- ./inp_files/534641.got.cif
#   From: 2010.05.17/outbox.cif.g08.bks.cpg/sg2_268_cif.got.tgz:534641.got - 2010.06.03 11:33:40.
