data_PCOD9106523
_publ_section_title
;
Structure prediction by ZEFSAII (Michael W. Deem and Ramdas Pophale) SiO2 
 PCOD9106523
Probable space group: P -1
;
_chemical_formula_sum "Si O2"
_cell_formula_units_Z 16
_cell_length_a 16.186156
_cell_length_b 7.026639
_cell_length_c 21.416930
_cell_angle_alpha 125.927029
_cell_angle_beta 163.023672
_cell_angle_gamma 54.561946
_cell_volume 574.119520
_symmetry_space_group_name_H-M "P -1"
_symmetry_group_IT_number 2
_symmetry_cell_setting 'triclinic'
loop_
_space_group_symop_operation_xyz
x,y,z
-x,-y,-z
loop_
_atom_site_type_symbol
_atom_site_label
_atom_site_fract_x
_atom_site_fract_y
_atom_site_fract_z
Si Si1 0.687347 0.766598 0.411402
Si Si2 0.752734 0.166511 0.440889
Si Si3 0.668765 0.955889 0.203796
Si Si4 0.131356 0.245854 0.995436
Si Si5 0.815779 0.570922 0.729538
Si Si6 0.764473 0.310492 0.032917
Si Si7 0.709074 0.331894 0.198438
Si Si8 0.644890 0.087934 0.684953
O O1 0.413946 0.698366 0.162779
O O2 0.597465 0.801817 0.423758
O O3 0.973269 0.604295 0.573428
O O4 0.760679 0.009634 0.478627
O O5 0.705401 0.013253 0.313599
O O6 0.448748 0.310301 0.253274
O O7 0.072072 0.223053 0.668592
O O8 0.692864 0.193845 0.226096
O O9 0.380726 0.854856 0.953546
O O10 0.989347 0.604343 0.120761
O O11 0.153902 0.961459 0.943635
O O12 0.892503 0.254130 0.878157
O O13 0.500000 0.500000 0.500000
O O14 0.789272 0.852059 0.777058
O O15 0.955395 0.560971 0.759119
O O16 0.529329 0.452820 0.932153
O O17 0.500000 0.000000 0.500000
#
# Coordination Sequence:
#
# PCOD9106523 Si02
#       8
#     2   2   2   2   2   2   2   2
#     4  10  23  43  68 100 145 191 234 297 350 421
#     4   9  19  38  63  97 150 182 223 293 351 408
#     4   9  19  35  65 106 144 186 242 286 335 432
#     4  10  22  42  71  98 140 184 229 290 349 420
#     4  11  23  42  75 100 134 187 230 294 357 409
#     4  10  23  42  68 105 147 183 232 286 354 427
#     4  10  20  39  72 102 145 195 234 289 356 413
#     4  11  24  44  74 103 138 177 243 300 350 417
#
# _framework density 27.868762
#
# number of rings (size 3 to 8) (size 9 to 14) (size 15 to 20)
#    0.000    2.000    1.250    1.125    1.750    7.500 
#    0.000    9.375   22.000    1.500    0.000    0.000 
#    0.000    0.000    0.000    0.000    0.000    0.000 
#
# Total GULP energy -89648.862118 kJ/mol
# GULP energy per Si atom -5603.053882 kJ/mol
# Density = 2.780533 g / cm^3
# Si number density = 27.868762 Si / 1000 Ang^3
#
#
#
# Elastic Constant Matrix: (Units=GPa)
#
#
# Indices 1 2 3 4 5 6 
#
# 1 153.5724 60.8781 40.3961 -10.1545 13.8002 5.7617
# 2 60.8781 134.0348 36.1741 -32.5003 8.8389 20.9041
# 3 40.3961 36.1741 145.5964 -24.6728 12.1968 3.6830
# 4 -10.1545 -32.5003 -24.6728 46.6560 -15.3690 -3.9766
# 5 13.8002 8.8389 12.1968 -15.3690 49.5421 -10.1340
# 6 5.7617 20.9041 3.6830 -3.9766 -10.1340 64.0486
#
#
#
# Elastic Compliance Matrix: (Units=1/GPa)
#
#
# Indices 1 2 3 4 5 6 
#
# 1 0.008495 -0.003881 -0.001630 -0.002355 -0.001975 0.000137
# 2 -0.003881 0.011423 -0.000600 0.006795 0.000724 -0.002808
# 3 -0.001630 -0.000600 0.008072 0.003376 -0.000373 0.000029
# 4 -0.002355 0.006795 0.003376 0.030219 0.008186 0.000972
# 5 -0.001975 0.000724 -0.000373 0.008186 0.024114 0.004286
# 6 0.000137 -0.002808 0.000029 0.000972 0.004286 0.017254
#
#
# Mechanical properties :
#
#
# Convention : Reuss Voigt Hill
#
# Bulk Modulus (GPa) = 63.41306 78.67781 71.04543
# Shear Modulus (GPa) = 42.71502 51.76636 47.24069
#
# Velocity S-wave (km/s) = 3.91924 4.31455 4.12164
# Velocity P-wave (km/s) = 6.57907 7.28789 6.94253
#
# Compressibility (1/GPa) = 0.01576962
#
# Stress axis : x y z
#
# Youngs Moduli (GPa) = 117.71048 87.54230 123.88338
#
# Poissons Ratio (x) = 0.33975 0.20193
# Poissons Ratio (y) = 0.45683 0.07427
# Poissons Ratio (z) = 0.19187 0.05248
#
# Static dielectric constant tensor:
#      x y z
#    x 2.152040 -0.042700 0.020910 
#    y -0.042700 2.211650 -0.009360 
#    z 0.020910 -0.009360 2.177940 
# 
# From -- ./inp_files/597447.got.cif
#   From: 2010.05.17/outbox.cif.g08.bks.cpg/sg2_299_cif.got.tgz:597447.got - 2010.06.03 11:33:40.
