data_PCOD9106773
_publ_section_title
;
Structure prediction by ZEFSAII (Michael W. Deem and Ramdas Pophale) SiO2 
 PCOD9106773
Probable space group: P -1
;
_chemical_formula_sum "Si O2"
_cell_formula_units_Z 16
_cell_length_a 9.351064
_cell_length_b 9.292734
_cell_length_c 7.739757
_cell_angle_alpha 71.310989
_cell_angle_beta 87.548459
_cell_angle_gamma 77.058496
_cell_volume 620.609348
_symmetry_space_group_name_H-M "P -1"
_symmetry_group_IT_number 2
_symmetry_cell_setting 'triclinic'
loop_
_space_group_symop_operation_xyz
x,y,z
-x,-y,-z
loop_
_atom_site_type_symbol
_atom_site_label
_atom_site_fract_x
_atom_site_fract_y
_atom_site_fract_z
Si Si1 0.956556 0.042797 0.723912
Si Si2 0.302507 0.395931 0.302620
Si Si3 0.157260 0.396806 0.973841
Si Si4 0.244088 0.904839 0.945640
Si Si5 0.023406 0.635807 0.323434
Si Si6 0.365991 0.631639 0.803340
Si Si7 0.309262 0.909803 0.462782
Si Si8 0.392377 0.123603 0.672578
O O1 0.989795 0.210075 0.625241
O O2 0.853580 0.998223 0.603397
O O3 0.842510 0.081322 0.876173
O O4 0.103917 0.926984 0.813611
O O5 0.185759 0.559049 0.271812
O O6 0.460929 0.420395 0.225452
O O7 0.325730 0.288117 0.515788
O O8 0.235031 0.314858 0.175209
O O9 0.271592 0.501290 0.872335
O O10 0.098052 0.321228 0.838704
O O11 0.000000 0.500000 0.000000
O O12 0.344527 0.744482 0.930571
O O13 0.324896 0.048901 0.866066
O O14 0.000000 0.500000 0.500000
O O15 0.306591 0.739939 0.599996
O O16 0.433747 0.888510 0.316989
O O17 0.369166 0.997531 0.580179
#
# Coordination Sequence:
#
# PCOD9106773 Si02
#       8
#     2   2   2   2   2   2   2   2
#     4  11  23  38  55  86 119 153 188 231 298 344
#     4  10  21  38  63  86 115 150 194 242 280 342
#     4  10  21  36  60  86 114 155 197 237 278 337
#     4  10  22  38  59  83 119 150 188 243 282 344
#     4  11  23  40  59  86 123 154 188 234 288 350
#     4  10  20  40  61  86 112 149 200 241 286 330
#     4   9  20  37  61  83 113 147 190 242 283 345
#     4   9  19  38  58  85 109 146 195 235 285 332
#
# _framework density 25.781115
#
# number of rings (size 3 to 8) (size 9 to 14) (size 15 to 20)
#    0.000    2.000    0.000    4.125    0.000    7.500 
#    0.000   10.625    0.000    0.000    0.000    0.000 
#    0.000    0.000    0.000    0.000    0.000    0.000 
#
# Total GULP energy -89412.488596 kJ/mol
# GULP energy per Si atom -5588.280537 kJ/mol
# Density = 2.572244 g / cm^3
# Si number density = 25.781115 Si / 1000 Ang^3
#
#
#
# Elastic Constant Matrix: (Units=GPa)
#
#
# Indices 1 2 3 4 5 6 
#
# 1 149.6729 27.6420 29.3181 -5.3818 -0.0875 -12.1306
# 2 27.6420 66.9822 13.8180 -10.3639 -10.6541 -13.0903
# 3 29.3181 13.8180 44.9384 -7.8390 -11.0028 2.4478
# 4 -5.3818 -10.3639 -7.8390 28.6677 1.2477 -7.3140
# 5 -0.0875 -10.6541 -11.0028 1.2477 54.3983 1.2016
# 6 -12.1306 -13.0903 2.4478 -7.3140 1.2016 30.4106
#
#
#
# Elastic Compliance Matrix: (Units=1/GPa)
#
#
# Indices 1 2 3 4 5 6 
#
# 1 0.008341 -0.001953 -0.005337 0.000241 -0.001521 0.003034
# 2 -0.001953 0.020150 -0.003294 0.008465 0.002860 0.010083
# 3 -0.005337 -0.003294 0.029043 0.004226 0.005236 -0.005075
# 4 0.000241 0.008465 0.004226 0.042556 0.001237 0.013586
# 5 -0.001521 0.002860 0.005236 0.001237 0.019978 -0.000289
# 6 0.003034 0.010083 -0.005075 0.013586 -0.000289 0.042121
#
#
# Mechanical properties :
#
#
# Convention : Reuss Voigt Hill
#
# Bulk Modulus (GPa) = 27.49802 44.79438 36.14620
# Shear Modulus (GPa) = 25.57828 35.41637 30.49733
#
# Velocity S-wave (km/s) = 3.15323 3.71041 3.44311
# Velocity P-wave (km/s) = 4.89349 5.98070 5.46420
#
# Compressibility (1/GPa) = 0.03636626
#
# Stress axis : x y z
#
# Youngs Moduli (GPa) = 119.89010 49.62792 34.43169
#
# Poissons Ratio (x) = 0.09692 0.18376
# Poissons Ratio (y) = 0.23413 0.11342
# Poissons Ratio (z) = 0.63984 0.16348
#
# Static dielectric constant tensor:
#      x y z
#    x 2.033940 0.000480 -0.055820 
#    y 0.000480 2.030720 0.076990 
#    z -0.055820 0.076990 2.184740 
# 
# From -- ./inp_files/175132.got.cif
#   From: 2010.05.17/outbox.cif.g08.bks.cpg/sg2_88_cif.got.tgz:175132.got - 2010.06.03 11:33:40.
