data_PCOD9106417
_publ_section_title
;
Structure prediction by ZEFSAII (Michael W. Deem and Ramdas Pophale) SiO2 
 PCOD9106417
Probable space group: P -1
;
_chemical_formula_sum "Si O2"
_cell_formula_units_Z 16
_cell_length_a 11.557333
_cell_length_b 14.787952
_cell_length_c 20.739695
_cell_angle_alpha 151.164217
_cell_angle_beta 26.783239
_cell_angle_gamma 150.458232
_cell_volume 704.428780
_symmetry_space_group_name_H-M "P -1"
_symmetry_group_IT_number 2
_symmetry_cell_setting 'triclinic'
loop_
_space_group_symop_operation_xyz
x,y,z
-x,-y,-z
loop_
_atom_site_type_symbol
_atom_site_label
_atom_site_fract_x
_atom_site_fract_y
_atom_site_fract_z
Si Si1 0.766689 0.453601 0.821915
Si Si2 0.015304 0.225584 0.641569
Si Si3 0.906973 0.778230 0.737716
Si Si4 0.282200 0.962959 0.213182
Si Si5 0.517546 0.597726 0.645688
Si Si6 0.894347 0.074538 0.033857
Si Si7 0.047377 0.590096 0.435542
Si Si8 0.274910 0.675254 0.940226
O O1 0.793767 0.285593 0.750993
O O2 0.774892 0.374936 0.696370
O O3 0.500000 0.500000 0.000000
O O4 0.010759 0.681251 0.853902
O O5 0.962904 0.213344 0.736652
O O6 0.306954 0.407632 0.592679
O O7 0.000000 0.000000 0.500000
O O8 0.081446 0.772828 0.583166
O O9 0.576256 0.699952 0.835234
O O10 0.921938 0.597412 0.660993
O O11 0.002481 0.984914 0.862145
O O12 0.286577 0.187473 0.349215
O O13 0.264512 0.886821 0.101204
O O14 0.562272 0.986028 0.127608
O O15 0.725875 0.519506 0.529199
O O16 0.317004 0.653945 0.830293
O O17 0.000000 0.000000 0.000000
O O18 0.000000 0.500000 0.000000
#
# Coordination Sequence:
#
# PCOD9106417 Si02
#       8
#     2   2   2   2   2   2   2   2
#     4  12  26  43  69 104 141 184 242 300 352 424
#     4  12  27  42  66 103 139 184 237 291 357 423
#     4   9  21  40  69 100 133 188 229 282 356 427
#     4  11  23  42  67  96 137 176 233 284 345 419
#     4  11  23  42  67  98 135 185 228 287 354 423
#     4  11  21  40  70 100 135 183 230 288 353 416
#     4  10  22  42  66  94 141 183 228 285 357 423
#     4  10  20  39  70 101 133 175 230 289 348 417
#
# _framework density 22.713439000000001
#
# number of rings (size 3 to 8) (size 9 to 14) (size 15 to 20)
#    0.000    1.250    3.750    1.875    3.500    2.000 
#    0.000    0.625    0.000    0.000    0.000    0.000 
#    0.000    0.000    0.000    0.000    0.000    0.000 
#
# Total GULP energy -89246.021891 kJ/mol
# GULP energy per Si atom -5577.876368 kJ/mol
# Density = 2.266174 g / cm^3
# Si number density = 22.713439 Si / 1000 Ang^3
#
#
#
# Elastic Constant Matrix: (Units=GPa)
#
#
# Indices 1 2 3 4 5 6 
#
# 1 63.7046 9.9094 43.7551 16.1474 11.5309 -9.7620
# 2 9.9094 92.1336 24.9057 16.6826 10.4232 -12.8582
# 3 43.7551 24.9057 122.2228 22.1090 29.2365 -8.9836
# 4 16.1474 16.6826 22.1090 39.8698 -7.3565 0.2614
# 5 11.5309 10.4232 29.2365 -7.3565 50.1947 1.5442
# 6 -9.7620 -12.8582 -8.9836 0.2614 1.5442 28.4224
#
#
#
# Elastic Compliance Matrix: (Units=1/GPa)
#
#
# Indices 1 2 3 4 5 6 
#
# 1 0.023142 0.001898 -0.005902 -0.007607 -0.003609 0.007208
# 2 0.001898 0.013480 -0.000742 -0.006781 -0.004006 0.006796
# 3 -0.005902 -0.000742 0.013478 -0.006138 -0.007312 0.002351
# 4 -0.007607 -0.006781 -0.006138 0.036745 0.012381 -0.008631
# 5 -0.003609 -0.004006 -0.007312 0.012381 0.027872 -0.006991
# 6 0.007208 0.006796 0.002351 -0.008631 -0.006991 0.041936
#
#
# Mechanical properties :
#
#
# Convention : Reuss Voigt Hill
#
# Bulk Modulus (GPa) = 24.62592 48.35571 36.49082
# Shear Modulus (GPa) = 27.82710 36.99677 32.41194
#
# Velocity S-wave (km/s) = 3.50399 4.04028 3.78166
# Velocity P-wave (km/s) = 5.21883 6.56512 5.93030
#
# Compressibility (1/GPa) = 0.04060762
#
# Stress axis : x y z
#
# Youngs Moduli (GPa) = 43.21123 74.18578 74.19347
#
# Poissons Ratio (x) = -0.14081 0.43792
# Poissons Ratio (y) = -0.08202 0.05504
# Poissons Ratio (z) = 0.25505 0.05504
#
# Static dielectric constant tensor:
#      x y z
#    x 2.284920 0.351520 -0.092810 
#    y 0.351520 2.120920 -0.185370 
#    z -0.092810 -0.185370 2.016300 
# 
# From -- ./inp_files/595529.got.cif
#   From: 2010.05.17/outbox.cif.g08.bks.cpg/sg2_298_cif.got.tgz:595529.got - 2010.06.03 11:33:40.
