data_PCOD9106568
_publ_section_title
;
Structure prediction by ZEFSAII (Michael W. Deem and Ramdas Pophale) SiO2 
 PCOD9106568
Probable space group: P -1
;
_chemical_formula_sum "Si O2"
_cell_formula_units_Z 14
_cell_length_a 15.448600
_cell_length_b 9.325746
_cell_length_c 5.075095
_cell_angle_alpha 73.547286
_cell_angle_beta 103.432117
_cell_angle_gamma 127.422208
_cell_volume 555.160242
_symmetry_space_group_name_H-M "P -1"
_symmetry_group_IT_number 2
_symmetry_cell_setting 'triclinic'
loop_
_space_group_symop_operation_xyz
x,y,z
-x,-y,-z
loop_
_atom_site_type_symbol
_atom_site_label
_atom_site_fract_x
_atom_site_fract_y
_atom_site_fract_z
Si Si1 0.005592 0.857587 0.413064
Si Si2 0.298571 0.666920 0.927068
Si Si3 0.770545 0.876963 0.695502
Si Si4 0.753474 0.568341 0.467927
Si Si5 0.436519 0.283232 0.063238
Si Si6 0.929998 0.385928 0.256780
Si Si7 0.600273 0.931152 0.356313
O O1 0.879670 0.686860 0.388196
O O2 0.065698 0.787683 0.654638
O O3 0.000000 0.000000 0.500000
O O4 0.102091 0.986621 0.202399
O O5 0.308885 0.543563 0.784556
O O6 0.183885 0.640698 0.810439
O O7 0.384979 0.883982 0.816327
O O8 0.284398 0.589497 0.253722
O O9 0.748530 0.717119 0.561460
O O10 0.690289 0.792756 0.933437
O O11 0.720122 0.975588 0.471198
O O12 0.457959 0.181232 0.359996
O O13 0.500000 0.500000 0.000000
O O14 0.452115 0.216653 0.835066
O O15 0.000000 0.500000 0.500000
O O16 0.000000 0.500000 0.000000
#
# Coordination Sequence:
#
# PCOD9106568 Si02
#       7
#     2   2   2   2   2   2   2
#     4  10  20  40  54  88 122 163 201 247 284 341
#     4  12  22  39  58  86 126 162 204 241 292 358
#     4   9  23  39  62  90 120 156 207 252 293 353
#     4  11  24  38  57  87 128 171 195 239 297 349
#     4  10  21  41  69  94 114 147 200 257 309 356
#     4  12  21  36  53  79 112 160 206 235 281 340
#     4  10  22  38  65  93 116 153 198 253 293 356
#
# _framework density 25.217943000000002
#
# number of rings (size 3 to 8) (size 9 to 14) (size 15 to 20)
#    0.857    0.571    4.286    1.286    2.000    1.143 
#    2.571    4.286    0.000    5.143    0.000    0.000 
#    0.000    0.000    0.000    0.000    0.000    0.000 
#
# Total GULP energy -78129.339721 kJ/mol
# GULP energy per Si atom -5580.667123 kJ/mol
# Density = 2.516055 g / cm^3
# Si number density = 25.217943 Si / 1000 Ang^3
#
#
#
# Elastic Constant Matrix: (Units=GPa)
#
#
# Indices 1 2 3 4 5 6 
#
# 1 106.7058 23.4364 0.4750 -10.2925 -11.5256 0.1987
# 2 23.4364 100.8586 40.8343 -24.9636 -1.9498 -2.6160
# 3 0.4750 40.8343 110.4534 4.6703 -4.5157 13.7357
# 4 -10.2925 -24.9636 4.6703 43.0786 0.7336 -5.7522
# 5 -11.5256 -1.9498 -4.5157 0.7336 18.6412 -10.2345
# 6 0.1987 -2.6160 13.7357 -5.7522 -10.2345 47.4599
#
#
#
# Elastic Compliance Matrix: (Units=1/GPa)
#
#
# Indices 1 2 3 4 5 6 
#
# 1 0.010797 -0.002451 0.000956 0.001098 0.007293 0.001249
# 2 -0.002451 0.015745 -0.006719 0.009807 0.000363 0.004090
# 3 0.000956 -0.006719 0.012356 -0.005615 0.000635 -0.004494
# 4 0.001098 0.009807 -0.005615 0.030583 0.002680 0.006446
# 5 0.007293 0.000363 0.000635 0.002680 0.066143 0.014394
# 6 0.001249 0.004090 -0.004494 0.006446 0.014394 0.026476
#
#
# Mechanical properties :
#
#
# Convention : Reuss Voigt Hill
#
# Bulk Modulus (GPa) = 44.50230 49.72324 47.11277
# Shear Modulus (GPa) = 26.87935 38.72076 32.80005
#
# Velocity S-wave (km/s) = 3.26833 3.92273 3.61038
# Velocity P-wave (km/s) = 5.65049 6.34644 6.00855
#
# Compressibility (1/GPa) = 0.02247075
#
# Stress axis : x y z
#
# Youngs Moduli (GPa) = 92.61864 63.51280 80.93492
#
# Poissons Ratio (x) = 0.15565 -0.07737
# Poissons Ratio (y) = 0.22698 0.54377
# Poissons Ratio (z) = -0.08854 0.42672
#
# Static dielectric constant tensor:
#      x y z
#    x 2.061450 0.100650 0.032920 
#    y 0.100650 1.981080 -0.043980 
#    z 0.032920 -0.043980 1.988220 
# 
# From -- ./inp_files/115488.got.cif
#   From: 2010.05.17/outbox.cif.g08.bks.cpg/sg2_58_cif.got.tgz:115488.got - 2010.06.03 11:33:40.
