data_PCOD9106511
_publ_section_title
;
Structure prediction by ZEFSAII (Michael W. Deem and Ramdas Pophale) SiO2 
 PCOD9106511
Probable space group: P -1
;
_chemical_formula_sum "Si O2"
_cell_formula_units_Z 12
_cell_length_a 14.069705
_cell_length_b 11.666678
_cell_length_c 7.635515
_cell_angle_alpha 129.251623
_cell_angle_beta 135.623568
_cell_angle_gamma 32.580954
_cell_volume 470.469372
_symmetry_space_group_name_H-M "P -1"
_symmetry_group_IT_number 2
_symmetry_cell_setting 'triclinic'
loop_
_space_group_symop_operation_xyz
x,y,z
-x,-y,-z
loop_
_atom_site_type_symbol
_atom_site_label
_atom_site_fract_x
_atom_site_fract_y
_atom_site_fract_z
Si Si1 0.877547 0.439595 0.484528
Si Si2 0.680348 0.758048 0.842396
Si Si3 0.441838 0.712592 0.677398
Si Si4 0.031142 0.010935 0.254563
Si Si5 0.790126 0.958144 0.034750
Si Si6 0.725971 0.820474 0.459523
O O1 0.814562 0.556345 0.698118
O O2 0.731680 0.646555 0.365639
O O3 0.089197 0.310065 0.552546
O O4 0.879171 0.262932 0.330639
O O5 0.609370 0.703159 0.847124
O O6 0.475179 0.971691 0.691473
O O7 0.790196 0.829938 0.058732
O O8 0.500000 0.500000 0.500000
O O9 0.250715 0.886710 0.469980
O O10 0.365907 0.803358 0.861199
O O11 0.981501 0.906029 0.203196
O O12 0.000000 0.000000 0.000000
O O13 0.754781 0.901490 0.748911
#
# Coordination Sequence:
#
# PCOD9106511 Si02
#       6
#     2   2   2   2   2   2
#     4  10  20  39  71  97 134 173 234 280 340 390
#     4  11  23  45  71 101 138 185 233 282 338 423
#     4  12  27  47  66 101 147 184 226 288 352 411
#     4  12  24  45  71 102 136 184 234 283 339 415
#     4  11  23  43  68 100 138 179 226 286 346 404
#     4  10  21  42  70 103 135 179 234 285 335 413
#
# _framework density 25.506443999999998
#
# number of rings (size 3 to 8) (size 9 to 14) (size 15 to 20)
#    0.000    1.000    3.333    4.000    0.000    2.667 
#    0.000   10.000    0.000    0.000    0.000    0.000 
#    0.000    0.000    0.000    0.000    0.000    0.000 
#
# Total GULP energy -67109.731310 kJ/mol
# GULP energy per Si atom -5592.477609 kJ/mol
# Density = 2.544839 g / cm^3
# Si number density = 25.506444 Si / 1000 Ang^3
#
#
#
# Elastic Constant Matrix: (Units=GPa)
#
#
# Indices 1 2 3 4 5 6 
#
# 1 176.6129 26.5710 42.6359 14.1858 18.8152 -11.6085
# 2 26.5710 159.2077 63.4916 29.7292 -3.7679 -1.4274
# 3 42.6359 63.4916 114.6261 25.8197 -5.9329 -1.5973
# 4 14.1858 29.7292 25.8197 55.3848 0.1982 -0.4284
# 5 18.8152 -3.7679 -5.9329 0.1982 46.0414 20.5907
# 6 -11.6085 -1.4274 -1.5973 -0.4284 20.5907 48.2807
#
#
#
# Elastic Compliance Matrix: (Units=1/GPa)
#
#
# Indices 1 2 3 4 5 6 
#
# 1 0.007137 -0.000115 -0.002690 -0.000466 -0.004936 0.003725
# 2 -0.000115 0.008390 -0.004005 -0.002608 0.000247 -0.000041
# 3 -0.002690 -0.004005 0.012794 -0.003151 0.003212 -0.001739
# 4 -0.000466 -0.002608 -0.003151 0.021047 -0.000583 0.000142
# 5 -0.004936 0.000247 0.003212 -0.000583 0.030467 -0.014072
# 6 0.003725 -0.000041 -0.001739 0.000142 -0.014072 0.027552
#
#
# Mechanical properties :
#
#
# Convention : Reuss Voigt Hill
#
# Bulk Modulus (GPa) = 68.01464 79.53820 73.77642
# Shear Modulus (GPa) = 39.71232 51.12461 45.41847
#
# Velocity S-wave (km/s) = 3.95010 4.48189 4.22437
# Velocity P-wave (km/s) = 6.89405 7.61803 7.26507
#
# Compressibility (1/GPa) = 0.01470272
#
# Stress axis : x y z
#
# Youngs Moduli (GPa) = 140.11910 119.19133 78.15942
#
# Poissons Ratio (x) = 0.01370 0.21021
# Poissons Ratio (y) = 0.01610 0.31300
# Poissons Ratio (z) = 0.37686 0.47732
#
# Static dielectric constant tensor:
#      x y z
#    x 2.031450 0.033680 0.004290 
#    y 0.033680 1.976860 -0.025820 
#    z 0.004290 -0.025820 2.024620 
# 
# From -- ./inp_files/301756.got.cif
#   From: 2010.05.17/outbox.cif.g08.bks.cpg/sg2_151_cif.got.tgz:301756.got - 2010.06.03 11:33:40.
