data_PCOD9106720
_publ_section_title
;
Structure prediction by ZEFSAII (Michael W. Deem and Ramdas Pophale) SiO2 
 PCOD9106720
Probable space group: P -1
;
_chemical_formula_sum "Si O2"
_cell_formula_units_Z 16
_cell_length_a 14.376333
_cell_length_b 13.136541
_cell_length_c 5.229793
_cell_angle_alpha 92.063468
_cell_angle_beta 59.500795
_cell_angle_gamma 120.249669
_cell_volume 702.394808
_symmetry_space_group_name_H-M "P -1"
_symmetry_group_IT_number 2
_symmetry_cell_setting 'triclinic'
loop_
_space_group_symop_operation_xyz
x,y,z
-x,-y,-z
loop_
_atom_site_type_symbol
_atom_site_label
_atom_site_fract_x
_atom_site_fract_y
_atom_site_fract_z
Si Si1 0.385866 0.460412 0.955134
Si Si2 0.197588 0.538546 0.250332
Si Si3 0.960388 0.285756 0.393315
Si Si4 0.682496 0.298270 0.415855
Si Si5 0.779368 0.931791 0.273608
Si Si6 0.200598 0.834352 0.901213
Si Si7 0.009841 0.092310 0.289702
Si Si8 0.548260 0.695607 0.392658
O O1 0.450299 0.565573 0.655805
O O2 0.354889 0.329709 0.893561
O O3 0.500000 0.500000 0.000000
O O4 0.271886 0.472102 0.214614
O O5 0.223881 0.621653 0.470426
O O6 0.055018 0.428495 0.346141
O O7 0.261965 0.624883 0.918956
O O8 0.912438 0.251474 0.162482
O O9 0.040815 0.223849 0.328019
O O10 0.846571 0.223297 0.757825
O O11 0.683470 0.177596 0.358137
O O12 0.540925 0.275722 0.645944
O O13 0.637244 0.807403 0.471921
O O14 0.772749 0.030626 0.120383
O O15 0.881134 0.896143 0.049854
O O16 0.858161 0.018503 0.408093
O O17 0.000000 0.000000 0.500000
#
# Coordination Sequence:
#
# PCOD9106720 Si02
#       8
#     2   2   2   2   2   2   2   2
#     4  10  20  40  60  90 123 155 199 256 304 366
#     4  11  23  40  65  92 121 161 205 254 312 362
#     4  11  23  40  65  92 121 161 205 254 312 362
#     4  11  24  42  61  89 126 162 209 255 296 361
#     4  10  22  39  62  89 122 162 201 249 309 364
#     4  11  24  42  61  89 126 162 209 255 296 361
#     4  10  20  40  60  90 123 155 199 256 304 366
#     4  10  22  39  62  89 122 162 201 249 309 364
#
# _framework density 22.779209000000002
#
# number of rings (size 3 to 8) (size 9 to 14) (size 15 to 20)
#    0.000    1.500    2.500    2.250    0.000    5.500 
#    0.000    0.000    0.000    4.500    0.000    0.000 
#    0.000    0.000    0.000    0.000    0.000    0.000 
#
# Total GULP energy -89167.750727 kJ/mol
# GULP energy per Si atom -5572.984420 kJ/mol
# Density = 2.272736 g / cm^3
# Si number density = 22.779209 Si / 1000 Ang^3
#
#
#
# Elastic Constant Matrix: (Units=GPa)
#
#
# Indices 1 2 3 4 5 6 
#
# 1 67.0976 28.0456 0.8694 0.8334 2.6642 -9.2018
# 2 28.0456 106.5674 9.2027 21.3209 -21.7120 -9.1875
# 3 0.8694 9.2027 27.3183 23.3986 5.9097 -6.9546
# 4 0.8334 21.3209 23.3986 25.8805 0.0669 -6.8848
# 5 2.6642 -21.7120 5.9097 0.0669 30.5873 10.1596
# 6 -9.2018 -9.1875 -6.9546 -6.8848 10.1596 40.7498
#
#
#
# Elastic Compliance Matrix: (Units=1/GPa)
#
#
# Indices 1 2 3 4 5 6 
#
# 1 0.019520 -0.008493 -0.005293 0.012749 -0.008698 0.005912
# 2 -0.008493 0.018716 0.019763 -0.033795 0.011221 -0.002833
# 3 -0.005293 0.019763 0.228194 -0.218703 -0.033654 0.013646
# 4 0.012749 -0.033795 -0.218703 0.263255 0.017204 -0.001878
# 5 -0.008698 0.011221 -0.033654 0.017204 0.053026 -0.015491
# 6 0.005912 -0.002833 0.013646 -0.001878 -0.015491 0.031110
#
#
# Mechanical properties :
#
#
# Convention : Reuss Voigt Hill
#
# Bulk Modulus (GPa) = 3.59218 30.80209 17.19714
# Shear Modulus (GPa) = 7.19775 30.30122 18.74948
#
# Velocity S-wave (km/s) = 1.77951 3.65117 2.87208
# Velocity P-wave (km/s) = 2.40885 5.59697 4.30863
#
# Compressibility (1/GPa) = 0.27838253
#
# Stress axis : x y z
#
# Youngs Moduli (GPa) = 51.22946 53.43143 4.38224
#
# Poissons Ratio (x) = 0.45380 0.02320
# Poissons Ratio (y) = 0.43510 -0.08661
# Poissons Ratio (z) = 0.27117 -1.05596
#
# Static dielectric constant tensor:
#      x y z
#    x 1.871270 -0.046570 -0.166660 
#    y -0.046570 1.985310 0.144060 
#    z -0.166660 0.144060 1.712110 
# 
# From -- ./inp_files/76447.got.cif
#   From: 2010.05.17/outbox.cif.g08.bks.cpg/sg2_39_cif.got.tgz:76447.got - 2010.06.03 11:33:40.
