data_PCOD9106016
_publ_section_title
;
Structure prediction by ZEFSAII (Michael W. Deem and Ramdas Pophale) SiO2 
 PCOD9106016
Probable space group: P -1
;
_chemical_formula_sum "Si O2"
_cell_formula_units_Z 14
_cell_length_a 9.182620
_cell_length_b 15.693798
_cell_length_c 15.270176
_cell_angle_alpha 26.051377
_cell_angle_beta 113.126918
_cell_angle_gamma 129.650741
_cell_volume 629.224908
_symmetry_space_group_name_H-M "P -1"
_symmetry_group_IT_number 2
_symmetry_cell_setting 'triclinic'
loop_
_space_group_symop_operation_xyz
x,y,z
-x,-y,-z
loop_
_atom_site_type_symbol
_atom_site_label
_atom_site_fract_x
_atom_site_fract_y
_atom_site_fract_z
Si Si1 0.667798 0.347135 0.397944
Si Si2 0.920316 0.559297 0.843882
Si Si3 0.490185 0.706089 0.270215
Si Si4 0.386262 0.114459 0.383373
Si Si5 0.247055 0.214113 0.898695
Si Si6 0.837553 0.303950 0.873128
Si Si7 0.439070 0.200370 0.119121
O O1 0.525733 0.311237 0.316766
O O2 0.657548 0.484554 0.349963
O O3 0.925772 0.560738 0.232547
O O4 0.585544 0.055853 0.661178
O O5 0.868031 0.386434 0.905157
O O6 0.692095 0.466271 0.903957
O O7 0.130104 0.871268 0.576660
O O8 0.000000 0.500000 0.000000
O O9 0.500000 0.500000 0.500000
O O10 0.602607 0.789692 0.123763
O O11 0.247472 0.586173 0.305877
O O12 0.644249 0.979234 0.112405
O O13 0.401682 0.218966 0.194574
O O14 0.500000 0.000000 0.500000
O O15 0.262387 0.143709 0.064863
O O16 0.000000 0.000000 0.000000
#
# Coordination Sequence:
#
# PCOD9106016 Si02
#       7
#     2   2   2   2   2   2   2
#     4  11  23  42  71  97 130 176 222 269 338 394
#     4  12  20  39  71 100 132 171 224 268 329 409
#     4  11  27  44  65  96 135 174 224 280 330 391
#     4  10  20  39  67 101 129 174 219 267 337 394
#     4  12  27  44  63 100 131 171 231 273 325 400
#     4  11  23  44  68  96 131 179 222 267 340 396
#     4  11  24  43  69  96 139 175 215 281 332 391
#
# _framework density 22.249594999999999
#
# number of rings (size 3 to 8) (size 9 to 14) (size 15 to 20)
#    0.000    0.857    8.571    0.000    4.000    1.143 
#    0.000    0.714    0.000    0.000    0.000    0.000 
#    0.000    0.000    0.000    0.000    0.000    0.000 
#
# Total GULP energy -78310.689603 kJ/mol
# GULP energy per Si atom -5593.620686 kJ/mol
# Density = 2.219895 g / cm^3
# Si number density = 22.249595 Si / 1000 Ang^3
#
#
#
# Elastic Constant Matrix: (Units=GPa)
#
#
# Indices 1 2 3 4 5 6 
#
# 1 74.5457 49.8747 31.5602 -8.0325 -12.3690 12.2703
# 2 49.8747 172.5842 46.8227 -16.1248 1.8866 13.5622
# 3 31.5602 46.8227 65.5560 0.1105 -3.1784 9.6862
# 4 -8.0325 -16.1248 0.1105 33.6781 1.3299 6.7691
# 5 -12.3690 1.8866 -3.1784 1.3299 46.7142 -4.1534
# 6 12.2703 13.5622 9.6862 6.7691 -4.1534 35.0757
#
#
#
# Elastic Compliance Matrix: (Units=1/GPa)
#
#
# Indices 1 2 3 4 5 6 
#
# 1 0.020360 -0.003487 -0.006476 0.003867 0.004609 -0.004186
# 2 -0.003487 0.008439 -0.004175 0.003658 -0.001813 -0.001811
# 3 -0.006476 -0.004175 0.021568 -0.003318 -0.000113 -0.001449
# 4 0.003867 0.003658 -0.003318 0.034142 -0.001083 -0.008568
# 5 0.004609 -0.001813 -0.000113 -0.001083 0.022905 0.002041
# 6 -0.004186 -0.001811 -0.001449 -0.008568 0.002041 0.032970
#
#
# Mechanical properties :
#
#
# Convention : Reuss Voigt Hill
#
# Bulk Modulus (GPa) = 45.26742 63.24457 54.25599
# Shear Modulus (GPa) = 28.40560 35.38882 31.89721
#
# Velocity S-wave (km/s) = 3.57694 3.99248 3.79041
# Velocity P-wave (km/s) = 6.11954 7.05266 6.60260
#
# Compressibility (1/GPa) = 0.02209095
#
# Stress axis : x y z
#
# Youngs Moduli (GPa) = 49.11706 118.50441 46.36538
#
# Poissons Ratio (x) = 0.41321 0.30024
# Poissons Ratio (y) = 0.17127 0.19357
# Poissons Ratio (z) = 0.31806 0.49475
#
# Static dielectric constant tensor:
#      x y z
#    x 1.818530 -0.006700 0.034030 
#    y -0.006700 1.804500 0.007270 
#    z 0.034030 0.007270 1.847370 
# 
# From -- ./inp_files/505106.got.cif
#   From: 2010.05.17/outbox.cif.g08.bks.cpg/sg2_253_cif.got.tgz:505106.got - 2010.06.03 11:33:40.
