data_PCOD9106278
_publ_section_title
;
Structure prediction by ZEFSAII (Michael W. Deem and Ramdas Pophale) SiO2 
 PCOD9106278
Probable space group: P -1
;
_chemical_formula_sum "Si O2"
_cell_formula_units_Z 14
_cell_length_a 8.306993
_cell_length_b 9.060258
_cell_length_c 11.101051
_cell_angle_alpha 121.927582
_cell_angle_beta 54.182394
_cell_angle_gamma 125.402706
_cell_volume 528.963007
_symmetry_space_group_name_H-M "P -1"
_symmetry_group_IT_number 2
_symmetry_cell_setting 'triclinic'
loop_
_space_group_symop_operation_xyz
x,y,z
-x,-y,-z
loop_
_atom_site_type_symbol
_atom_site_label
_atom_site_fract_x
_atom_site_fract_y
_atom_site_fract_z
Si Si1 0.603463 0.423183 0.813841
Si Si2 0.101713 0.662097 0.730388
Si Si3 0.465912 0.310813 0.573875
Si Si4 0.120102 0.982919 0.704078
Si Si5 0.446164 0.904426 0.147683
Si Si6 0.839628 0.199038 0.982107
Si Si7 0.194862 0.165171 0.420936
O O1 0.507062 0.434744 0.730236
O O2 0.547127 0.206921 0.784384
O O3 0.862131 0.521378 0.741134
O O4 0.500000 0.500000 0.000000
O O5 0.297855 0.648887 0.563814
O O6 0.125214 0.658816 0.862616
O O7 0.126636 0.873700 0.774291
O O8 0.311396 0.322883 0.537915
O O9 0.337407 0.092926 0.581141
O O10 0.933868 0.822629 0.636242
O O11 0.042908 0.152860 0.838098
O O12 0.668073 0.996518 0.018952
O O13 0.368928 0.075912 0.275819
O O14 0.269272 0.762543 0.073060
O O15 0.000000 0.000000 0.500000
#
# Coordination Sequence:
#
# PCOD9106278 Si02
#       7
#     2   2   2   2   2   2   2
#     4  12  27  43  62  90 137 175 212 253 320 390
#     4  12  23  39  64  98 130 170 210 258 321 380
#     4  11  23  42  64  94 128 166 216 265 316 370
#     4  10  21  38  69  96 128 161 215 266 314 374
#     4  10  21  40  68  93 126 165 212 268 311 373
#     4  10  20  39  68  96 121 162 219 263 313 369
#     4   9  20  38  67  97 121 157 213 266 318 361
#
# _framework density 26.466881999999998
#
# number of rings (size 3 to 8) (size 9 to 14) (size 15 to 20)
#    0.000    1.429    1.429    3.857    4.000    0.571 
#    0.000    0.714    0.000    0.000    0.000    0.000 
#    0.000    0.000    0.000    0.000    0.000    0.000 
#
# Total GULP energy -78350.973059 kJ/mol
# GULP energy per Si atom -5596.498076 kJ/mol
# Density = 2.640664 g / cm^3
# Si number density = 26.466882 Si / 1000 Ang^3
#
#
#
# Elastic Constant Matrix: (Units=GPa)
#
#
# Indices 1 2 3 4 5 6 
#
# 1 75.4176 26.3535 51.0141 13.3185 16.2517 21.1313
# 2 26.3535 107.4063 29.9578 -20.0109 -5.3509 27.4671
# 3 51.0141 29.9578 147.9673 3.4345 9.2877 31.8205
# 4 13.3185 -20.0109 3.4345 43.3960 27.0024 4.2792
# 5 16.2517 -5.3509 9.2877 27.0024 44.0285 6.2596
# 6 21.1313 27.4671 31.8205 4.2792 6.2596 43.6579
#
#
#
# Elastic Compliance Matrix: (Units=1/GPa)
#
#
# Indices 1 2 3 4 5 6 
#
# 1 0.020780 -0.004154 -0.005463 -0.005605 -0.003237 -0.002449
# 2 -0.004154 0.013881 0.000111 0.009304 -0.001442 -0.007508
# 3 -0.005463 0.000111 0.009574 0.001632 -0.000349 -0.004514
# 4 -0.005605 0.009304 0.001632 0.043989 -0.023370 -0.005292
# 5 -0.003237 -0.001442 -0.000349 -0.023370 0.038204 -0.000459
# 6 -0.002449 -0.007508 -0.004514 -0.005292 -0.000459 0.032689
#
#
# Mechanical properties :
#
#
# Convention : Reuss Voigt Hill
#
# Bulk Modulus (GPa) = 39.64777 60.60467 50.12622
# Shear Modulus (GPa) = 26.80449 41.11421 33.95935
#
# Velocity S-wave (km/s) = 3.18584 3.94562 3.58591
# Velocity P-wave (km/s) = 5.34279 6.61100 6.01043
#
# Compressibility (1/GPa) = 0.02522210
#
# Stress axis : x y z
#
# Youngs Moduli (GPa) = 48.12293 72.04351 104.44970
#
# Poissons Ratio (x) = 0.29928 0.57064
# Poissons Ratio (y) = 0.19991 -0.01161
# Poissons Ratio (z) = 0.26291 -0.00801
#
# Static dielectric constant tensor:
#      x y z
#    x 2.115160 0.104620 -0.061630 
#    y 0.104620 2.119880 0.005470 
#    z -0.061630 0.005470 2.170330 
# 
# From -- ./inp_files/281497.got.cif
#   From: 2010.05.17/outbox.cif.g08.bks.cpg/sg2_141_cif.got.tgz:281497.got - 2010.06.03 11:33:40.
