data_PCOD9106043
_publ_section_title
;
Structure prediction by ZEFSAII (Michael W. Deem and Ramdas Pophale) SiO2 
 PCOD9106043
Probable space group: P -1
;
_chemical_formula_sum "Si O2"
_cell_formula_units_Z 14
_cell_length_a 16.805346
_cell_length_b 12.715002
_cell_length_c 11.492679
_cell_angle_alpha 131.847791
_cell_angle_beta 134.882565
_cell_angle_gamma 20.445273
_cell_volume 607.641106
_symmetry_space_group_name_H-M "P -1"
_symmetry_group_IT_number 2
_symmetry_cell_setting 'triclinic'
loop_
_space_group_symop_operation_xyz
x,y,z
-x,-y,-z
loop_
_atom_site_type_symbol
_atom_site_label
_atom_site_fract_x
_atom_site_fract_y
_atom_site_fract_z
Si Si1 0.234340 0.689328 0.576463
Si Si2 0.365012 0.739358 0.942796
Si Si3 0.693446 0.928865 0.734707
Si Si4 0.285167 0.168830 0.563513
Si Si5 0.947218 0.406440 0.731241
Si Si6 0.577221 0.812249 0.834699
Si Si7 0.526798 0.318179 0.229244
O O1 0.219496 0.782912 0.754327
O O2 0.214315 0.545311 0.445670
O O3 0.446907 0.542224 0.624007
O O4 0.000000 0.000000 0.500000
O O5 0.524498 0.633074 0.925582
O O6 0.500000 0.500000 0.000000
O O7 0.244294 0.001405 0.078096
O O8 0.665983 0.987384 0.612567
O O9 0.897101 0.588287 0.724922
O O10 0.443683 0.132853 0.669429
O O11 0.000000 0.500000 0.500000
O O12 0.379843 0.023996 0.683139
O O13 0.817796 0.593204 0.855955
O O14 0.212946 0.049802 0.758198
O O15 0.630475 0.599119 0.786653
O O16 0.500000 0.000000 0.000000
#
# Coordination Sequence:
#
# PCOD9106043 Si02
#       7
#     2   2   2   2   2   2   2
#     4   8  19  39  60  91 118 159 201 241 305 363
#     4  10  22  38  64  89 127 157 201 251 304 362
#     4  10  22  38  64  93 116 164 202 246 307 350
#     4  10  22  37  60  90 127 155 201 251 299 358
#     4  10  20  39  67  88 117 159 205 244 295 362
#     4  11  23  37  58  91 122 154 204 252 294 355
#     4   9  20  38  61  88 119 158 193 248 300 348
#
# _framework density 23.039916000000002
#
# number of rings (size 3 to 8) (size 9 to 14) (size 15 to 20)
#    0.857    1.429    0.000    2.571    6.000    4.000 
#    0.000    0.000    0.000    1.714    0.000    0.000 
#    0.000    0.000    0.000    0.000    0.000    0.000 
#
# Total GULP energy -77999.146886 kJ/mol
# GULP energy per Si atom -5571.367635 kJ/mol
# Density = 2.298748 g / cm^3
# Si number density = 23.039916 Si / 1000 Ang^3
#
#
#
# Elastic Constant Matrix: (Units=GPa)
#
#
# Indices 1 2 3 4 5 6 
#
# 1 90.1553 20.3857 42.8865 -8.8554 -15.3492 24.4249
# 2 20.3857 70.1728 21.6823 -14.2829 -4.8809 11.9274
# 3 42.8865 21.6823 165.7350 1.5480 -11.5751 21.1207
# 4 -8.8554 -14.2829 1.5480 38.8474 15.9885 -3.1298
# 5 -15.3492 -4.8809 -11.5751 15.9885 39.4590 -4.5079
# 6 24.4249 11.9274 21.1207 -3.1298 -4.5079 43.9156
#
#
#
# Elastic Compliance Matrix: (Units=1/GPa)
#
#
# Indices 1 2 3 4 5 6 
#
# 1 0.015225 -0.002159 -0.002603 0.000672 0.003914 -0.006180
# 2 -0.002159 0.016938 -0.001558 0.006467 -0.002097 -0.002405
# 3 -0.002603 -0.001558 0.007253 -0.002267 0.001657 -0.001609
# 4 0.000672 0.006467 -0.002267 0.033844 -0.013316 0.000005
# 5 0.003914 -0.002097 0.001657 -0.013316 0.032485 -0.000019
# 6 -0.006180 -0.002405 -0.001609 0.000005 -0.000019 0.027634
#
#
# Mechanical properties :
#
#
# Convention : Reuss Voigt Hill
#
# Bulk Modulus (GPa) = 37.34561 55.10801 46.22681
# Shear Modulus (GPa) = 32.26982 40.51831 36.39406
#
# Velocity S-wave (km/s) = 3.74653 4.19813 3.97874
# Velocity P-wave (km/s) = 5.91266 6.88981 6.41985
#
# Compressibility (1/GPa) = 0.02677691
#
# Stress axis : x y z
#
# Youngs Moduli (GPa) = 65.68220 59.03809 137.87564
#
# Poissons Ratio (x) = 0.12749 0.35883
# Poissons Ratio (y) = 0.14184 0.21475
# Poissons Ratio (z) = 0.17094 0.09195
#
# Static dielectric constant tensor:
#      x y z
#    x 1.935780 -0.037930 0.019080 
#    y -0.037930 1.895320 0.024050 
#    z 0.019080 0.024050 1.925180 
# 
# From -- ./inp_files/471436.got.cif
#   From: 2010.05.17/outbox.cif.g08.bks.cpg/sg2_236_cif.got.tgz:471436.got - 2010.06.03 11:33:40.
