data_PCOD9106186
_publ_section_title
;
Structure prediction by ZEFSAII (Michael W. Deem and Ramdas Pophale) SiO2 
 PCOD9106186
Probable space group: P -1
;
_chemical_formula_sum "Si O2"
_cell_formula_units_Z 14
_cell_length_a 11.505471
_cell_length_b 7.565337
_cell_length_c 11.958439
_cell_angle_alpha 140.295366
_cell_angle_beta 125.557313
_cell_angle_gamma 61.766586
_cell_volume 540.303384
_symmetry_space_group_name_H-M "P -1"
_symmetry_group_IT_number 2
_symmetry_cell_setting 'triclinic'
loop_
_space_group_symop_operation_xyz
x,y,z
-x,-y,-z
loop_
_atom_site_type_symbol
_atom_site_label
_atom_site_fract_x
_atom_site_fract_y
_atom_site_fract_z
Si Si1 0.152054 0.268354 0.893975
Si Si2 0.325921 0.452652 0.623545
Si Si3 0.869957 0.215187 0.172450
Si Si4 0.840526 0.351326 0.713428
Si Si5 0.402280 0.764759 0.612795
Si Si6 0.452215 0.319237 0.986294
Si Si7 0.811364 0.860322 0.770898
O O1 0.286795 0.281594 0.896329
O O2 0.003370 0.243416 0.733559
O O3 0.161652 0.024177 0.872221
O O4 0.155866 0.548550 0.107535
O O5 0.208598 0.515787 0.685004
O O6 0.307556 0.676055 0.621781
O O7 0.308973 0.174014 0.407402
O O8 0.475973 0.536833 0.798577
O O9 0.039769 0.201915 0.242160
O O10 0.812609 0.138358 0.979635
O O11 0.710495 0.163816 0.514873
O O12 0.813271 0.622809 0.752146
O O13 0.500000 0.500000 0.500000
O O14 0.501640 0.003570 0.828000
O O15 0.500000 0.500000 0.000000
#
# Coordination Sequence:
#
# PCOD9106186 Si02
#       7
#     2   2   2   2   2   2   2
#     4  10  21  43  62  97 138 177 225 279 357 399
#     4  11  23  41  67  95 135 183 229 282 344 415
#     4  10  20  39  67  98 133 175 232 282 340 415
#     4   9  21  40  69  97 131 175 221 289 341 413
#     4  11  24  45  73 100 133 185 238 280 345 418
#     4  12  28  44  65 100 142 185 227 294 343 411
#     4   9  21  38  64 102 127 173 224 289 338 404
#
# _framework density 25.911370999999999
#
# number of rings (size 3 to 8) (size 9 to 14) (size 15 to 20)
#    0.000    1.714    1.429    1.714    8.000    1.714 
#    0.000    2.857    0.000    0.000    0.000    0.000 
#    0.000    0.000    0.000    0.000    0.000    0.000 
#
# Total GULP energy -78270.231377 kJ/mol
# GULP energy per Si atom -5590.730813 kJ/mol
# Density = 2.585240 g / cm^3
# Si number density = 25.911371 Si / 1000 Ang^3
#
#
#
# Elastic Constant Matrix: (Units=GPa)
#
#
# Indices 1 2 3 4 5 6 
#
# 1 111.7977 14.8827 14.3360 -3.2588 -1.3023 -13.2505
# 2 14.8827 47.5200 23.5656 -12.5376 -1.2667 -1.6504
# 3 14.3360 23.5656 171.0685 -25.7925 0.7728 -17.3011
# 4 -3.2588 -12.5376 -25.7925 30.4304 -8.9204 6.9493
# 5 -1.3023 -1.2667 0.7728 -8.9204 36.6517 -5.9472
# 6 -13.2505 -1.6504 -17.3011 6.9493 -5.9472 35.1340
#
#
#
# Elastic Compliance Matrix: (Units=1/GPa)
#
#
# Indices 1 2 3 4 5 6 
#
# 1 0.009806 -0.003120 -0.000174 -0.001071 0.000597 0.003779
# 2 -0.003120 0.025631 -0.002040 0.009886 0.002826 -0.002454
# 3 -0.000174 -0.002040 0.007157 0.005027 0.001419 0.002609
# 4 -0.001071 0.009886 0.005027 0.045202 0.010447 -0.004636
# 5 0.000597 0.002826 0.001419 0.010447 0.030592 0.004169
# 6 0.003779 -0.002454 0.002609 -0.004636 0.004169 0.032680
#
#
# Mechanical properties :
#
#
# Convention : Reuss Voigt Hill
#
# Bulk Modulus (GPa) = 31.32282 48.43941 39.88111
# Shear Modulus (GPa) = 29.00620 38.95001 33.97811
#
# Velocity S-wave (km/s) = 3.34943 3.88132 3.62514
# Velocity P-wave (km/s) = 5.20317 6.23065 5.73995
#
# Compressibility (1/GPa) = 0.03192561
#
# Stress axis : x y z
#
# Youngs Moduli (GPa) = 101.97818 39.01540 139.73247
#
# Poissons Ratio (x) = 0.12174 0.02430
# Poissons Ratio (y) = 0.31820 0.28502
# Poissons Ratio (z) = 0.01774 0.07958
#
# Static dielectric constant tensor:
#      x y z
#    x 2.033220 -0.034300 0.007480 
#    y -0.034300 2.079460 0.050030 
#    z 0.007480 0.050030 2.253000 
# 
# From -- ./inp_files/420202.got.cif
#   From: 2010.05.17/outbox.cif.g08.bks.cpg/sg2_211_cif.got.tgz:420202.got - 2010.06.03 11:33:40.
