data_PCOD9106114
_publ_section_title
;
Structure prediction by ZEFSAII (Michael W. Deem and Ramdas Pophale) SiO2 
 PCOD9106114
Probable space group: P -1
;
_chemical_formula_sum "Si O2"
_cell_formula_units_Z 12
_cell_length_a 6.484332
_cell_length_b 7.936646
_cell_length_c 10.429126
_cell_angle_alpha 122.795282
_cell_angle_beta 89.193818
_cell_angle_gamma 97.926056
_cell_volume 445.679167
_symmetry_space_group_name_H-M "P -1"
_symmetry_group_IT_number 2
_symmetry_cell_setting 'triclinic'
loop_
_space_group_symop_operation_xyz
x,y,z
-x,-y,-z
loop_
_atom_site_type_symbol
_atom_site_label
_atom_site_fract_x
_atom_site_fract_y
_atom_site_fract_z
Si Si1 0.676411 0.482220 0.383618
Si Si2 0.440280 0.325959 0.092130
Si Si3 0.050476 0.770955 0.406949
Si Si4 0.854424 0.741475 0.142532
Si Si5 0.734866 0.015410 0.855088
Si Si6 0.385166 0.902677 0.638291
O O1 0.500000 0.500000 0.500000
O O2 0.574253 0.491862 0.248482
O O3 0.890035 0.636437 0.449278
O O4 0.711708 0.250606 0.310850
O O5 0.296967 0.179152 0.132893
O O6 0.296558 0.395784 0.010638
O O7 0.596725 0.180185 0.975574
O O8 0.988957 0.670595 0.228283
O O9 0.286857 0.794050 0.465991
O O10 0.000000 0.000000 0.500000
O O11 0.030295 0.882240 0.117810
O O12 0.706805 0.891171 0.263686
O O13 0.628553 0.947382 0.689595
#
# Coordination Sequence:
#
# PCOD9106114 Si02
#       6
#     2   2   2   2   2   2
#     4  11  24  43  64  91 126 171 208 256 308 365
#     4   9  20  37  60  93 124 159 215 250 298 385
#     4  10  23  41  62  94 129 160 210 258 309 374
#     4  10  20  39  67  94 126 162 199 263 319 359
#     4   9  18  37  64  95 121 166 202 256 311 366
#     4   9  21  39  64  91 128 158 215 249 296 382
#
# _framework density 26.925197000000001
#
# number of rings (size 3 to 8) (size 9 to 14) (size 15 to 20)
#    0.000    2.333    0.000    2.000    9.333    1.333 
#    9.000    0.833    0.000    0.000    0.000    0.000 
#    0.000    0.000    0.000    0.000    0.000    0.000 
#
# Total GULP energy -67133.253034 kJ/mol
# GULP energy per Si atom -5594.437753 kJ/mol
# Density = 2.686391 g / cm^3
# Si number density = 26.925197 Si / 1000 Ang^3
#
#
#
# Elastic Constant Matrix: (Units=GPa)
#
#
# Indices 1 2 3 4 5 6 
#
# 1 55.0330 17.2229 59.1589 1.5537 28.6944 -0.4137
# 2 17.2229 96.2446 16.0702 6.3396 2.8237 9.2046
# 3 59.1589 16.0702 147.4410 -30.3801 56.7908 -17.0184
# 4 1.5537 6.3396 -30.3801 38.9916 -10.8831 12.7797
# 5 28.6944 2.8237 56.7908 -10.8831 57.5243 1.1110
# 6 -0.4137 9.2046 -17.0184 12.7797 1.1110 45.3066
#
#
#
# Elastic Compliance Matrix: (Units=1/GPa)
#
#
# Indices 1 2 3 4 5 6 
#
# 1 0.041555 -0.003248 -0.017151 -0.016128 -0.006674 -0.000690
# 2 -0.003248 0.011467 -0.001366 -0.001351 0.002199 -0.002545
# 3 -0.017151 -0.001366 0.020578 0.012873 -0.009343 0.004449
# 4 -0.016128 -0.001351 0.012873 0.039411 0.002979 -0.006227
# 5 -0.006674 0.002199 -0.009343 0.002979 0.030501 -0.005606
# 6 -0.000690 -0.002545 0.004449 -0.006227 -0.005606 0.026148
#
#
# Mechanical properties :
#
#
# Convention : Reuss Voigt Hill
#
# Bulk Modulus (GPa) = 33.25694 53.73585 43.49639
# Shear Modulus (GPa) = 22.40005 42.11561 32.25783
#
# Velocity S-wave (km/s) = 2.88746 3.95925 3.46505
# Velocity P-wave (km/s) = 4.84716 6.39544 5.67436
#
# Compressibility (1/GPa) = 0.03006892
#
# Stress axis : x y z
#
# Youngs Moduli (GPa) = 24.06465 87.20349 48.59624
#
# Poissons Ratio (x) = 0.28325 0.83349
# Poissons Ratio (y) = 0.07817 0.06638
# Poissons Ratio (z) = 0.41274 0.11912
#
# Static dielectric constant tensor:
#      x y z
#    x 2.015130 -0.012220 0.021990 
#    y -0.012220 2.112760 -0.052250 
#    z 0.021990 -0.052250 2.190410 
# 
# From -- ./inp_files/109769.got.cif
#   From: 2010.05.17/outbox.cif.g08.bks.cpg/sg2_55_cif.got.tgz:109769.got - 2010.06.03 11:33:40.
