data_PCOD9106949
_publ_section_title
;
Structure prediction by ZEFSAII (Michael W. Deem and Ramdas Pophale) SiO2 
 PCOD9106949
Probable space group: P -1
;
_chemical_formula_sum "Si O2"
_cell_formula_units_Z 10
_cell_length_a 7.866522
_cell_length_b 9.119215
_cell_length_c 12.963842
_cell_angle_alpha 143.875662
_cell_angle_beta 60.375660
_cell_angle_gamma 131.803588
_cell_volume 406.628045
_symmetry_space_group_name_H-M "P -1"
_symmetry_group_IT_number 2
_symmetry_cell_setting 'triclinic'
loop_
_space_group_symop_operation_xyz
x,y,z
-x,-y,-z
loop_
_atom_site_type_symbol
_atom_site_label
_atom_site_fract_x
_atom_site_fract_y
_atom_site_fract_z
Si Si1 0.829374 0.180578 0.819930
Si Si2 0.199148 0.826571 0.606308
Si Si3 0.299841 0.112111 0.517829
Si Si4 0.415377 0.228509 0.170681
Si Si5 0.386872 0.225614 0.951839
O O1 0.589097 0.163597 0.871863
O O2 0.856404 0.092086 0.645704
O O3 0.775666 0.923650 0.770447
O O4 0.000000 0.500000 0.000000
O O5 0.450076 0.858661 0.547284
O O6 0.000000 0.500000 0.500000
O O7 0.199072 0.977505 0.584119
O O8 0.193601 0.986422 0.802432
O O9 0.376638 0.451720 0.679359
O O10 0.326719 0.268058 0.109080
O O11 0.500000 0.000000 0.000000
O O12 0.500000 0.500000 0.000000
#
# Coordination Sequence:
#
# PCOD9106949 Si02
#       5
#     2   2   2   2   2
#     4  10  23  39  61  92 127 167 211 257 323 381
#     4  10  22  38  65  96 123 163 214 265 320 373
#     4  10  21  42  63  90 132 166 209 265 314 379
#     4  10  21  40  62  87 128 169 204 260 320 370
#     4  10  20  40  62  88 126 161 211 264 311 375
#
# _framework density 24.592500000000001
#
# number of rings (size 3 to 8) (size 9 to 14) (size 15 to 20)
#    0.000    2.000    2.000    0.600    2.800    1.600 
#    0.000    6.000    0.000    0.000    0.000    0.000 
#    0.000    0.000    0.000    0.000    0.000    0.000 
#
# Total GULP energy -55872.863117 kJ/mol
# GULP energy per Si atom -5587.286312 kJ/mol
# Density = 2.453653 g / cm^3
# Si number density = 24.592500 Si / 1000 Ang^3
#
#
#
# Elastic Constant Matrix: (Units=GPa)
#
#
# Indices 1 2 3 4 5 6 
#
# 1 77.1226 49.2579 33.8661 -8.7342 22.6681 -4.7863
# 2 49.2579 200.4523 93.2803 3.6899 44.3493 -15.2618
# 3 33.8661 93.2803 193.2912 12.2684 63.3209 -7.8038
# 4 -8.7342 3.6899 12.2684 56.6855 2.9622 0.7952
# 5 22.6681 44.3493 63.3209 2.9622 53.6304 -5.6990
# 6 -4.7863 -15.2618 -7.8038 0.7952 -5.6990 43.1223
#
#
#
# Elastic Compliance Matrix: (Units=1/GPa)
#
#
# Indices 1 2 3 4 5 6 
#
# 1 0.016667 -0.003083 -0.000158 0.003035 -0.004467 0.000084
# 2 -0.003083 0.007365 -0.002315 -0.000379 -0.001862 0.001606
# 3 -0.000158 -0.002315 0.009348 -0.001422 -0.009010 -0.000310
# 4 0.003035 -0.000379 -0.001422 0.018466 -0.000358 -0.000442
# 5 -0.004467 -0.001862 -0.009010 -0.000358 0.032899 0.001569
# 6 0.000084 0.001606 -0.000310 -0.000442 0.001569 0.023927
#
#
# Mechanical properties :
#
#
# Convention : Reuss Voigt Hill
#
# Bulk Modulus (GPa) = 44.90992 91.51941 68.21466
# Shear Modulus (GPa) = 39.30603 50.31843 44.81223
#
# Velocity S-wave (km/s) = 4.00220 4.52828 4.27334
# Velocity P-wave (km/s) = 6.29747 8.03962 7.22128
#
# Compressibility (1/GPa) = 0.02226680
#
# Stress axis : x y z
#
# Youngs Moduli (GPa) = 59.99887 135.77762 106.97650
#
# Poissons Ratio (x) = 0.41863 0.01692
# Poissons Ratio (y) = 0.18499 0.24767
# Poissons Ratio (z) = 0.00949 0.31435
#
# Static dielectric constant tensor:
#      x y z
#    x 1.996230 0.027030 -0.030980 
#    y 0.027030 1.914170 -0.157190 
#    z -0.030980 -0.157190 1.881970 
# 
# From -- ./inp_files/15961.got.cif
#   From: 2010.05.17/outbox.cif.g08.bks.cpg/sg2_8_cif.got.tgz:15961.got - 2010.06.03 11:33:40.
