data_PCOD9106152
_publ_section_title
;
Structure prediction by ZEFSAII (Michael W. Deem and Ramdas Pophale) SiO2 
 PCOD9106152
Probable space group: P -1
;
_chemical_formula_sum "Si O2"
_cell_formula_units_Z 16
_cell_length_a 25.992375
_cell_length_b 6.231703
_cell_length_c 5.384091
_cell_angle_alpha 76.892247
_cell_angle_beta 130.628322
_cell_angle_gamma 106.772328
_cell_volume 632.813302
_symmetry_space_group_name_H-M "P -1"
_symmetry_group_IT_number 2
_symmetry_cell_setting 'triclinic'
loop_
_space_group_symop_operation_xyz
x,y,z
-x,-y,-z
loop_
_atom_site_type_symbol
_atom_site_label
_atom_site_fract_x
_atom_site_fract_y
_atom_site_fract_z
Si Si1 0.872423 0.771816 0.908788
Si Si2 0.848085 0.009091 0.296151
Si Si3 0.591701 0.765742 0.664835
Si Si4 0.547497 0.344880 0.973414
Si Si5 0.343542 0.922682 0.849466
Si Si6 0.230548 0.662033 0.267681
Si Si7 0.989765 0.348895 0.754789
Si Si8 0.339806 0.401804 0.450015
O O1 0.831699 0.866440 0.532987
O O2 0.841086 0.507598 0.878372
O O3 0.865346 0.877722 0.132658
O O4 0.950829 0.798875 0.052383
O O5 0.914568 0.194830 0.536333
O O6 0.786190 0.130444 0.992898
O O7 0.555187 0.588099 0.798351
O O8 0.530961 0.778462 0.274170
O O9 0.656263 0.659981 0.805834
O O10 0.626587 0.007525 0.806224
O O11 0.586352 0.429475 0.326069
O O12 0.597807 0.194819 0.053857
O O13 0.337627 0.162878 0.643263
O O14 0.271132 0.759536 0.616688
O O15 0.279575 0.519998 0.318381
O O16 0.000000 0.500000 0.500000
O O17 0.000000 0.500000 0.000000
#
# Coordination Sequence:
#
# PCOD9106152 Si02
#       8
#     2   2   2   2   2   2   2   2
#     4  12  27  51  78 113 152 199 254 301 369 444
#     4  12  27  51  79 112 149 204 246 308 369 439
#     4  10  20  39  67  96 129 178 231 296 368 436
#     4   9  20  38  64  96 134 170 228 298 368 439
#     4  10  22  43  60  96 133 179 236 291 366 433
#     4  11  26  50  66 102 149 194 248 301 363 442
#     4  12  24  48  83 117 156 192 243 314 375 423
#     4  10  22  43  61  98 132 181 236 294 364 438
#
# _framework density 25.283916999999999
#
# number of rings (size 3 to 8) (size 9 to 14) (size 15 to 20)
#    0.000    1.250    1.250    3.750    0.000    2.500 
#   29.250    0.000    0.000    0.000    0.000    0.000 
#    0.000    0.000    0.000    0.000    0.000    0.000 
#
# Total GULP energy -89464.811835 kJ/mol
# GULP energy per Si atom -5591.550740 kJ/mol
# Density = 2.522637 g / cm^3
# Si number density = 25.283917 Si / 1000 Ang^3
#
#
#
# Elastic Constant Matrix: (Units=GPa)
#
#
# Indices 1 2 3 4 5 6 
#
# 1 52.9716 18.3882 29.0476 18.4026 0.5244 -13.9556
# 2 18.3882 99.1541 62.3230 21.0715 0.1189 -17.3151
# 3 29.0476 62.3230 105.1956 15.7193 9.6328 -1.7449
# 4 18.4026 21.0715 15.7193 65.3904 2.9382 -3.5955
# 5 0.5244 0.1189 9.6328 2.9382 46.9524 -1.6698
# 6 -13.9556 -17.3151 -1.7449 -3.5955 -1.6698 50.5209
#
#
#
# Elastic Compliance Matrix: (Units=1/GPa)
#
#
# Indices 1 2 3 4 5 6 
#
# 1 0.026455 0.002823 -0.008128 -0.006072 0.002016 0.007629
# 2 0.002823 0.018718 -0.011437 -0.003836 0.002743 0.006618
# 3 -0.008128 -0.011437 0.018593 0.001377 -0.003979 -0.005557
# 4 -0.006072 -0.003836 0.001377 0.017875 -0.001385 -0.001718
# 5 0.002016 0.002743 -0.003979 -0.001385 0.022243 0.001996
# 6 0.007629 0.006618 -0.005557 -0.001718 0.001996 0.023921
#
#
# Mechanical properties :
#
#
# Convention : Reuss Voigt Hill
#
# Bulk Modulus (GPa) = 33.02395 52.98211 43.00303
# Shear Modulus (GPa) = 29.17448 42.41023 35.79235
#
# Velocity S-wave (km/s) = 3.40056 4.10000 3.76655
# Velocity P-wave (km/s) = 5.33929 6.58891 5.99674
#
# Compressibility (1/GPa) = 0.03028105
#
# Stress axis : x y z
#
# Youngs Moduli (GPa) = 37.80059 53.42377 53.78369
#
# Poissons Ratio (x) = -0.15082 0.43717
# Poissons Ratio (y) = -0.10672 0.61514
# Poissons Ratio (z) = 0.30725 0.61102
#
# Static dielectric constant tensor:
#      x y z
#    x 2.009810 0.034170 -0.035970 
#    y 0.034170 2.037790 -0.046200 
#    z -0.035970 -0.046200 2.095940 
# 
# From -- ./inp_files/125835.got.cif
#   From: 2010.05.17/outbox.cif.g08.bks.cpg/sg2_63_cif.got.tgz:125835.got - 2010.06.03 11:33:40.
