data_PCOD9106004
_publ_section_title
;
Structure prediction by ZEFSAII (Michael W. Deem and Ramdas Pophale) SiO2 
 PCOD9106004
Probable space group: P -1
;
_chemical_formula_sum "Si O2"
_cell_formula_units_Z 14
_cell_length_a 11.679288
_cell_length_b 9.682589
_cell_length_c 10.150347
_cell_angle_alpha 116.620447
_cell_angle_beta 120.953603
_cell_angle_gamma 37.558328
_cell_volume 598.261658
_symmetry_space_group_name_H-M "P -1"
_symmetry_group_IT_number 2
_symmetry_cell_setting 'triclinic'
loop_
_space_group_symop_operation_xyz
x,y,z
-x,-y,-z
loop_
_atom_site_type_symbol
_atom_site_label
_atom_site_fract_x
_atom_site_fract_y
_atom_site_fract_z
Si Si1 0.305353 0.377934 0.356698
Si Si2 0.415721 0.399138 0.889174
Si Si3 0.435130 0.058888 0.817602
Si Si4 0.072326 0.285171 0.877313
Si Si5 0.101216 0.778832 0.045795
Si Si6 0.606849 0.242582 0.659936
Si Si7 0.793456 0.758930 0.517909
O O1 0.090655 0.615734 0.289523
O O2 0.465719 0.361535 0.500386
O O3 0.286663 0.265150 0.412845
O O4 0.399562 0.209764 0.216716
O O5 0.509919 0.171313 0.918843
O O6 0.456320 0.341756 0.734440
O O7 0.500000 0.500000 0.000000
O O8 0.202056 0.585811 0.911561
O O9 0.322252 0.156138 0.651737
O O10 0.277346 0.144358 0.868596
O O11 0.051223 0.174273 0.929322
O O12 0.000000 0.500000 0.000000
O O13 0.270940 0.709105 0.209096
O O14 0.000000 0.000000 0.000000
O O15 0.761103 0.968365 0.622969
O O16 0.000000 0.500000 0.500000
#
# Coordination Sequence:
#
# PCOD9106004 Si02
#       7
#     2   2   2   2   2   2   2
#     4  11  23  42  70 101 141 174 231 293 338 413
#     4  10  20  39  66  99 137 181 228 273 338 413
#     4  11  21  42  68 105 135 177 235 280 352 406
#     4  12  27  44  67 104 141 182 231 291 348 407
#     4  11  27  46  67  98 143 188 232 284 346 420
#     4  10  22  42  69 102 134 184 234 276 352 410
#     4  11  20  36  73 102 134 178 224 288 341 414
#
# _framework density 23.401130999999999
#
# number of rings (size 3 to 8) (size 9 to 14) (size 15 to 20)
#    0.000    1.143    5.714    0.857    4.000    1.143 
#    7.714    2.857    0.000    0.000    0.000    0.000 
#    0.000    0.000    0.000    0.000    0.000    0.000 
#
# Total GULP energy -78214.283482 kJ/mol
# GULP energy per Si atom -5586.734534 kJ/mol
# Density = 2.334787 g / cm^3
# Si number density = 23.401131 Si / 1000 Ang^3
#
#
#
# Elastic Constant Matrix: (Units=GPa)
#
#
# Indices 1 2 3 4 5 6 
#
# 1 167.6584 28.6466 42.2764 7.2893 -20.0135 0.1101
# 2 28.6466 63.3863 46.7393 -2.7625 -4.0991 -10.5107
# 3 42.2764 46.7393 93.8635 7.5246 -8.2923 -9.4643
# 4 7.2893 -2.7625 7.5246 42.4973 -5.9401 -6.2082
# 5 -20.0135 -4.0991 -8.2923 -5.9401 35.6949 3.0701
# 6 0.1101 -10.5107 -9.4643 -6.2082 3.0701 45.1790
#
#
#
# Elastic Compliance Matrix: (Units=1/GPa)
#
#
# Indices 1 2 3 4 5 6 
#
# 1 0.007231 -0.001650 -0.002206 -0.000662 0.003344 -0.001182
# 2 -0.001650 0.026639 -0.012507 0.004805 -0.000339 0.004265
# 3 -0.002206 -0.012507 0.018277 -0.003481 0.000961 0.000381
# 4 -0.000662 0.004805 -0.003481 0.025573 0.003311 0.003679
# 5 0.003344 -0.000339 0.000961 0.003311 0.030756 -0.001521
# 6 -0.001182 0.004265 0.000381 0.003679 -0.001521 0.023818
#
#
# Mechanical properties :
#
#
# Convention : Reuss Voigt Hill
#
# Bulk Modulus (GPa) = 51.48784 62.24809 56.86797
# Shear Modulus (GPa) = 29.15537 38.49062 33.82300
#
# Velocity S-wave (km/s) = 3.53355 4.06004 3.80591
# Velocity P-wave (km/s) = 6.22078 6.97400 6.60813
#
# Compressibility (1/GPa) = 0.01942206
#
# Stress axis : x y z
#
# Youngs Moduli (GPa) = 138.28444 37.53933 54.71228
#
# Poissons Ratio (x) = 0.06194 0.12070
# Poissons Ratio (y) = 0.22818 0.68427
# Poissons Ratio (z) = 0.30507 0.46949
#
# Static dielectric constant tensor:
#      x y z
#    x 1.889440 -0.031330 0.051820 
#    y -0.031330 1.920840 -0.032810 
#    z 0.051820 -0.032810 1.979020 
# 
# From -- ./inp_files/418233.got.cif
#   From: 2010.05.17/outbox.cif.g08.bks.cpg/sg2_210_cif.got.tgz:418233.got - 2010.06.03 11:33:40.
