data_PCOD9106658
_publ_section_title
;
Structure prediction by ZEFSAII (Michael W. Deem and Ramdas Pophale) SiO2 
 PCOD9106658
Probable space group: P -1
;
_chemical_formula_sum "Si O2"
_cell_formula_units_Z 14
_cell_length_a 14.747755
_cell_length_b 15.851571
_cell_length_c 9.725333
_cell_angle_alpha 37.188254
_cell_angle_beta 122.220141
_cell_angle_gamma 150.517470
_cell_volume 569.708064
_symmetry_space_group_name_H-M "P -1"
_symmetry_group_IT_number 2
_symmetry_cell_setting 'triclinic'
loop_
_space_group_symop_operation_xyz
x,y,z
-x,-y,-z
loop_
_atom_site_type_symbol
_atom_site_label
_atom_site_fract_x
_atom_site_fract_y
_atom_site_fract_z
Si Si1 0.812647 0.086677 0.853432
Si Si2 0.320517 0.918925 0.792124
Si Si3 0.715213 0.648971 0.000217
Si Si4 0.544425 0.890841 0.637263
Si Si5 0.797440 0.779224 0.405919
Si Si6 0.206763 0.665975 0.290706
Si Si7 0.512309 0.404885 0.433728
O O1 0.821517 0.220507 0.798582
O O2 0.039515 0.360482 0.601811
O O3 0.637204 0.921145 0.808066
O O4 0.793764 0.918340 0.131907
O O5 0.293370 0.909032 0.621827
O O6 0.556538 0.117079 0.753476
O O7 0.346726 0.101188 0.640237
O O8 0.174734 0.662393 0.108819
O O9 0.653759 0.429200 0.168025
O O10 0.701719 0.633258 0.175603
O O11 0.500000 0.500000 0.000000
O O12 0.945959 0.964662 0.716389
O O13 0.500000 0.000000 0.500000
O O14 0.642541 0.504007 0.547076
O O15 0.652379 0.654809 0.582946
#
# Coordination Sequence:
#
# PCOD9106658 Si02
#       7
#     2   2   2   2   2   2   2
#     4  11  21  38  62  93 121 169 221 259 327 390
#     4  10  20  40  59  93 131 163 210 273 326 392
#     4  11  25  44  65  94 136 177 218 276 334 393
#     4  11  23  38  62  94 134 172 212 270 335 388
#     4  11  23  42  69  95 128 172 229 270 324 400
#     4  10  21  35  63  87 124 168 214 261 322 386
#     4  10  22  40  68  96 125 170 222 272 327 388
#
# _framework density 24.573989999999998
#
# number of rings (size 3 to 8) (size 9 to 14) (size 15 to 20)
#    0.000    1.429    2.857    3.000    2.000    2.286 
#    0.000    1.429    0.000    0.000    0.000    0.000 
#    0.000    0.000    0.000    0.000    0.000    0.000 
#
# Total GULP energy -78190.559417 kJ/mol
# GULP energy per Si atom -5585.039958 kJ/mol
# Density = 2.451806 g / cm^3
# Si number density = 24.573990 Si / 1000 Ang^3
#
#
#
# Elastic Constant Matrix: (Units=GPa)
#
#
# Indices 1 2 3 4 5 6 
#
# 1 101.6072 28.9730 15.0151 -11.1306 -9.2272 -9.9114
# 2 28.9730 61.3698 24.6960 -20.1035 -3.0913 3.7673
# 3 15.0151 24.6960 103.1782 1.5037 -14.2697 0.9611
# 4 -11.1306 -20.1035 1.5037 37.6509 15.6733 -5.0741
# 5 -9.2272 -3.0913 -14.2697 15.6733 32.8805 1.3092
# 6 -9.9114 3.7673 0.9611 -5.0741 1.3092 32.4472
#
#
#
# Elastic Compliance Matrix: (Units=1/GPa)
#
#
# Indices 1 2 3 4 5 6 
#
# 1 0.012182 -0.005906 -0.000018 -0.000116 0.002740 0.004279
# 2 -0.005906 0.027252 -0.007340 0.017216 -0.010422 -0.001638
# 3 -0.000018 -0.007340 0.012809 -0.008284 0.008860 -0.001186
# 4 -0.000116 0.017216 -0.008284 0.047263 -0.024801 0.006603
# 5 0.002740 -0.010422 0.008860 -0.024801 0.046027 -0.003951
# 6 0.004279 -0.001638 -0.001186 0.006603 -0.003951 0.033544
#
#
# Mechanical properties :
#
#
# Convention : Reuss Voigt Hill
#
# Bulk Modulus (GPa) = 38.89117 44.83594 41.86356
# Shear Modulus (GPa) = 23.34513 33.76046 28.55279
#
# Velocity S-wave (km/s) = 3.08554 3.71054 3.41238
# Velocity P-wave (km/s) = 5.34365 6.05329 5.70951
#
# Compressibility (1/GPa) = 0.02571278
#
# Stress axis : x y z
#
# Youngs Moduli (GPa) = 82.08626 36.69429 78.07219
#
# Poissons Ratio (x) = 0.21673 0.00143
# Poissons Ratio (y) = 0.48484 0.57308
# Poissons Ratio (z) = 0.00150 0.26935
#
# Static dielectric constant tensor:
#      x y z
#    x 1.989510 -0.020960 -0.009520 
#    y -0.020960 2.008120 0.026230 
#    z -0.009520 0.026230 2.018070 
# 
# From -- ./inp_files/314700.got.cif
#   From: 2010.05.17/outbox.cif.g08.bks.cpg/sg2_158_cif.got.tgz:314700.got - 2010.06.03 11:33:40.
