data_PCOD9106513
_publ_section_title
;
Structure prediction by ZEFSAII (Michael W. Deem and Ramdas Pophale) SiO2 
 PCOD9106513
Probable space group: P -1
;
_chemical_formula_sum "Si O2"
_cell_formula_units_Z 13
_cell_length_a 8.286900
_cell_length_b 11.840089
_cell_length_c 9.541512
_cell_angle_alpha 74.729097
_cell_angle_beta 109.127903
_cell_angle_gamma 56.785464
_cell_volume 612.934634
_symmetry_space_group_name_H-M "P -1"
_symmetry_group_IT_number 2
_symmetry_cell_setting 'triclinic'
loop_
_space_group_symop_operation_xyz
x,y,z
-x,-y,-z
loop_
_atom_site_type_symbol
_atom_site_label
_atom_site_fract_x
_atom_site_fract_y
_atom_site_fract_z
Si Si1 0.536769 0.678927 0.402643
Si Si2 0.785812 0.150049 0.983304
Si Si3 0.000000 0.500000 0.000000
Si Si4 0.829384 0.010309 0.342382
Si Si5 0.403725 0.173921 0.371887
Si Si6 0.618991 0.477163 0.893891
Si Si7 0.213341 0.659818 0.483342
O O1 0.565149 0.761439 0.501891
O O2 0.320380 0.696868 0.385452
O O3 0.761239 0.484792 0.516228
O O4 0.454827 0.764184 0.200140
O O5 0.797398 0.089586 0.159734
O O6 0.786043 0.289393 0.957995
O O7 0.000000 0.000000 0.000000
O O8 0.857983 0.673338 0.811905
O O9 0.765387 0.526679 0.912773
O O10 0.583628 0.117899 0.316031
O O11 0.000000 0.000000 0.500000
O O12 0.959055 0.825531 0.406254
O O13 0.500000 0.000000 0.500000
O O14 0.400999 0.583881 0.687652
O O15 0.500000 0.500000 0.000000
#
# Coordination Sequence:
#
# PCOD9106513 Si02
#       7
#     2   2   1   2   2   2   2
#     4  10  21  43  64 101 136 184 234 284 368 434
#     4  11  22  37  71 102 134 182 234 290 358 428
#     4  12  26  44  70 106 146 180 242 298 356 426
#     4  12  22  42  70 109 135 178 246 295 347 439
#     4  12  28  47  71 103 144 189 237 302 365 421
#     4  11  24  42  71 103 136 189 238 292 359 427
#     4  10  20  39  71  97 137 180 236 289 357 429
#
# _framework density 21.209437999999999
#
# number of rings (size 3 to 8) (size 9 to 14) (size 15 to 20)
#    0.000    0.923    4.615    1.846    6.462    0.000 
#    0.000    1.538    6.769    0.000    0.000    0.000 
#    0.000    0.000    0.000    0.000    0.000    0.000 
#
# Total GULP energy -72387.347993 kJ/mol
# GULP energy per Si atom -5568.257538 kJ/mol
# Density = 2.116116 g / cm^3
# Si number density = 21.209438 Si / 1000 Ang^3
#
#
#
# Elastic Constant Matrix: (Units=GPa)
#
#
# Indices 1 2 3 4 5 6 
#
# 1 42.6649 35.4577 31.2575 8.5712 -10.6665 11.5642
# 2 35.4577 181.8189 61.3428 -15.6036 -0.7001 18.2370
# 3 31.2575 61.3428 153.6628 -5.0036 -28.5170 5.0731
# 4 8.5712 -15.6036 -5.0036 44.9736 -6.8688 -9.3968
# 5 -10.6665 -0.7001 -28.5170 -6.8688 22.8683 -0.4967
# 6 11.5642 18.2370 5.0731 -9.3968 -0.4967 21.8680
#
#
#
# Elastic Compliance Matrix: (Units=1/GPa)
#
#
# Indices 1 2 3 4 5 6 
#
# 1 0.042677 -0.005775 -0.004271 -0.013818 0.009764 -0.022477
# 2 -0.005775 0.007976 -0.002864 0.002296 -0.005376 -0.002069
# 3 -0.004271 -0.002864 0.010869 0.003818 0.012708 0.004055
# 4 -0.013818 0.002296 0.003818 0.031103 0.008120 0.018056
# 5 0.009764 -0.005376 0.012708 0.008120 0.066434 0.001371
# 6 -0.022477 -0.002069 0.004055 0.018056 0.001371 0.066189
#
#
# Mechanical properties :
#
#
# Convention : Reuss Voigt Hill
#
# Bulk Modulus (GPa) = 28.01097 70.47363 49.24230
# Shear Modulus (GPa) = 19.01351 34.61456 26.81404
#
# Velocity S-wave (km/s) = 2.99735 4.04423 3.55949
# Velocity P-wave (km/s) = 5.02139 7.42343 6.33726
#
# Compressibility (1/GPa) = 0.03570029
#
# Stress axis : x y z
#
# Youngs Moduli (GPa) = 23.43193 125.36922 92.00561
#
# Poissons Ratio (x) = 0.72404 0.39300
# Poissons Ratio (y) = 0.13533 0.26352
# Poissons Ratio (z) = 0.10009 0.35908
#
# Static dielectric constant tensor:
#      x y z
#    x 1.788140 0.011410 -0.048790 
#    y 0.011410 1.807860 -0.023140 
#    z -0.048790 -0.023140 1.814470 
# 
# From -- ./inp_files/154141.got.cif
#   From: 2010.05.17/outbox.cif.g08.bks.cpg/sg2_78_cif.got.tgz:154141.got - 2010.06.03 11:33:40.
