data_PCOD9106106
_publ_section_title
;
Structure prediction by ZEFSAII (Michael W. Deem and Ramdas Pophale) SiO2 
 PCOD9106106
Probable space group: P -1
;
_chemical_formula_sum "Si O2"
_cell_formula_units_Z 16
_cell_length_a 10.247081
_cell_length_b 8.737810
_cell_length_c 17.214969
_cell_angle_alpha 151.302577
_cell_angle_beta 63.806664
_cell_angle_gamma 111.889145
_cell_volume 663.769672
_symmetry_space_group_name_H-M "P -1"
_symmetry_group_IT_number 2
_symmetry_cell_setting 'triclinic'
loop_
_space_group_symop_operation_xyz
x,y,z
-x,-y,-z
loop_
_atom_site_type_symbol
_atom_site_label
_atom_site_fract_x
_atom_site_fract_y
_atom_site_fract_z
Si Si1 0.549997 0.606409 0.247415
Si Si2 0.704077 0.950627 0.499780
Si Si3 0.355568 0.958048 0.723989
Si Si4 0.750788 0.072197 0.979490
Si Si5 0.343133 0.218060 0.385927
Si Si6 0.855563 0.834838 0.997607
Si Si7 0.909546 0.822772 0.685755
Si Si8 0.954024 0.681045 0.220437
O O1 0.605138 0.728403 0.371469
O O2 0.380976 0.709283 0.330548
O O3 0.627145 0.810335 0.250469
O O4 0.603673 0.243253 0.063536
O O5 0.704390 0.821467 0.529473
O O6 0.862341 0.918625 0.406504
O O7 0.361291 0.592974 0.531792
O O8 0.502527 0.973507 0.744270
O O9 0.213648 0.024278 0.842657
O O10 0.834965 0.834800 0.793826
O O11 0.854635 0.380651 0.095610
O O12 0.740966 0.912268 0.994547
O O13 0.219698 0.120689 0.316738
O O14 0.905937 0.473693 0.841571
O O15 0.000000 0.000000 0.000000
O O16 0.000000 0.500000 0.500000
O O17 0.009534 0.123566 0.778568
#
# Coordination Sequence:
#
# PCOD9106106 Si02
#       8
#     2   2   2   2   2   2   2   2
#     4   9  18  36  69  96 124 159 225 263 307 386
#     4   9  19  37  62 100 120 170 209 270 313 378
#     4  10  20  39  67  94 121 179 212 264 322 378
#     4  10  22  42  64  94 126 173 219 262 316 381
#     4  10  23  40  60  91 138 167 217 262 320 388
#     4  10  21  38  69  95 127 165 224 264 308 393
#     4  12  28  41  61  98 138 169 213 273 321 382
#     4  10  22  41  67  90 127 174 216 261 322 388
#
# _framework density 24.104748000000001
#
# number of rings (size 3 to 8) (size 9 to 14) (size 15 to 20)
#    0.000    2.000    0.000    3.375    8.750    1.500 
#    0.000    6.250    0.000    0.000    0.000    0.000 
#    0.000    0.000    0.000    0.000    0.000    0.000 
#
# Total GULP energy -89487.594839 kJ/mol
# GULP energy per Si atom -5592.974677 kJ/mol
# Density = 2.404988 g / cm^3
# Si number density = 24.104748 Si / 1000 Ang^3
#
#
#
# Elastic Constant Matrix: (Units=GPa)
#
#
# Indices 1 2 3 4 5 6 
#
# 1 62.6663 21.1835 17.0655 6.9143 -7.3861 -8.4930
# 2 21.1835 111.9303 37.2153 -8.6362 -2.4545 -7.8466
# 3 17.0655 37.2153 98.5525 -8.2801 -35.3100 -1.5807
# 4 6.9143 -8.6362 -8.2801 42.1728 -1.4132 -4.1545
# 5 -7.3861 -2.4545 -35.3100 -1.4132 39.5966 3.2897
# 6 -8.4930 -7.8466 -1.5807 -4.1545 3.2897 30.5542
#
#
#
# Elastic Compliance Matrix: (Units=1/GPa)
#
#
# Indices 1 2 3 4 5 6 
#
# 1 0.018481 -0.002829 -0.001997 -0.003601 0.001055 0.003704
# 2 -0.002829 0.011470 -0.005336 0.001867 -0.004728 0.002646
# 3 -0.001997 -0.005336 0.018509 0.003185 0.016104 -0.002269
# 4 -0.003601 0.001867 0.003185 0.025687 0.002967 0.002817
# 5 0.001055 -0.004728 0.016104 0.002967 0.039956 -0.003987
# 6 0.003704 0.002646 -0.002269 0.002817 -0.003987 0.035133
#
#
# Mechanical properties :
#
#
# Convention : Reuss Voigt Hill
#
# Bulk Modulus (GPa) = 35.54246 47.11974 41.33110
# Shear Modulus (GPa) = 27.94267 35.64371 31.79319
#
# Velocity S-wave (km/s) = 3.40842 3.84956 3.63569
# Velocity P-wave (km/s) = 5.50153 6.27289 5.89983
#
# Compressibility (1/GPa) = 0.02813536
#
# Stress axis : x y z
#
# Youngs Moduli (GPa) = 54.10861 87.18764 54.02855
#
# Poissons Ratio (x) = 0.24663 0.10792
# Poissons Ratio (y) = 0.15306 0.28830
# Poissons Ratio (z) = 0.10808 0.46524
#
# Static dielectric constant tensor:
#      x y z
#    x 2.056990 0.045280 -0.026090 
#    y 0.045280 1.877450 0.008440 
#    z -0.026090 0.008440 1.925470 
# 
# From -- ./inp_files/402147.got.cif
#   From: 2010.05.17/outbox.cif.g08.bks.cpg/sg2_202_cif.got.tgz:402147.got - 2010.06.03 11:33:40.
