data_PCOD9106082
_publ_section_title
;
Structure prediction by ZEFSAII (Michael W. Deem and Ramdas Pophale) SiO2 
 PCOD9106082
Probable space group: P -1
;
_chemical_formula_sum "Si O2"
_cell_formula_units_Z 14
_cell_length_a 7.231212
_cell_length_b 10.852878
_cell_length_c 20.523762
_cell_angle_alpha 27.639648
_cell_angle_beta 65.274859
_cell_angle_gamma 51.884624
_cell_volume 550.221353
_symmetry_space_group_name_H-M "P -1"
_symmetry_group_IT_number 2
_symmetry_cell_setting 'triclinic'
loop_
_space_group_symop_operation_xyz
x,y,z
-x,-y,-z
loop_
_atom_site_type_symbol
_atom_site_label
_atom_site_fract_x
_atom_site_fract_y
_atom_site_fract_z
Si Si1 0.982344 0.246821 0.755074
Si Si2 0.812715 0.353505 0.326561
Si Si3 0.319163 0.172337 0.562331
Si Si4 0.539096 0.303738 0.021590
Si Si5 0.114282 0.768368 0.781259
Si Si6 0.193092 0.511337 0.201482
Si Si7 0.682792 0.247818 0.694463
O O1 0.854311 0.605140 0.576111
O O2 0.833118 0.305422 0.815066
O O3 0.905289 0.075762 0.796821
O O4 0.274717 0.069978 0.807763
O O5 0.805973 0.287602 0.280602
O O6 0.564492 0.569568 0.307824
O O7 0.937964 0.548401 0.212782
O O8 0.000000 0.000000 0.500000
O O9 0.329884 0.435250 0.478934
O O10 0.199169 0.995529 0.689179
O O11 0.595466 0.875576 0.640712
O O12 0.296280 0.433270 0.952555
O O13 0.717853 0.359261 0.927116
O O14 0.500000 0.500000 0.000000
O O15 0.816514 0.973147 0.745949
#
# Coordination Sequence:
#
# PCOD9106082 Si02
#       7
#     2   2   2   2   2   2   2
#     4  10  20  39  67  93 120 163 218 268 315 367
#     4  12  24  43  61  96 142 167 205 260 324 397
#     4   9  19  37  66  97 119 158 222 270 309 369
#     4  11  22  43  66  93 124 162 224 271 307 372
#     4  11  23  41  68  95 129 168 214 268 319 370
#     4  11  22  39  63  95 127 170 209 262 324 378
#     4  10  21  38  66  93 126 163 215 259 321 364
#
# _framework density 25.444306999999998
#
# number of rings (size 3 to 8) (size 9 to 14) (size 15 to 20)
#    0.857    0.571    2.857    3.857    0.000    0.571 
#    2.571    3.571    0.000    0.000    0.000    0.000 
#    0.000    0.000    0.000    0.000    0.000    0.000 
#
# Total GULP energy -78044.702318 kJ/mol
# GULP energy per Si atom -5574.621594 kJ/mol
# Density = 2.538639 g / cm^3
# Si number density = 25.444307 Si / 1000 Ang^3
#
#
#
# Elastic Constant Matrix: (Units=GPa)
#
#
# Indices 1 2 3 4 5 6 
#
# 1 58.8508 34.4555 15.6138 -2.1852 4.5837 -20.2429
# 2 34.4555 122.0951 -3.6258 0.9068 11.9012 -34.2645
# 3 15.6138 -3.6258 69.4974 -4.5884 31.6308 -10.5671
# 4 -2.1852 0.9068 -4.5884 41.6491 -12.1432 8.9974
# 5 4.5837 11.9012 31.6308 -12.1432 42.6510 -3.2073
# 6 -20.2429 -34.2645 -10.5671 8.9974 -3.2073 41.8345
#
#
#
# Elastic Compliance Matrix: (Units=1/GPa)
#
#
# Indices 1 2 3 4 5 6 
#
# 1 0.023761 -0.006046 -0.007163 0.001017 0.005104 0.004909
# 2 -0.006046 0.014216 0.007890 -0.004987 -0.009758 0.011035
# 3 -0.007163 0.007890 0.028083 -0.006346 -0.023338 0.009665
# 4 0.001017 -0.004987 -0.006346 0.029733 0.013661 -0.010543
# 5 0.005104 -0.009758 -0.023338 0.013661 0.046004 -0.010829
# 6 0.004909 0.011035 0.009665 -0.010543 -0.010829 0.039196
#
#
# Mechanical properties :
#
#
# Convention : Reuss Voigt Hill
#
# Bulk Modulus (GPa) = 18.04351 38.14781 28.09566
# Shear Modulus (GPa) = 23.79763 38.82692 31.31228
#
# Velocity S-wave (km/s) = 3.06156 3.91059 3.51183
# Velocity P-wave (km/s) = 4.42767 5.95109 5.24499
#
# Compressibility (1/GPa) = 0.05542160
#
# Stress axis : x y z
#
# Youngs Moduli (GPa) = 42.08598 70.34387 35.60898
#
# Poissons Ratio (x) = 0.42527 0.25508
# Poissons Ratio (y) = 0.25443 -0.28095
# Poissons Ratio (z) = 0.30148 -0.55501
#
# Static dielectric constant tensor:
#      x y z
#    x 2.100810 0.044700 0.011750 
#    y 0.044700 2.075700 -0.018010 
#    z 0.011750 -0.018010 2.088040 
# 
# From -- ./inp_files/607465.got.cif
#   From: 2010.05.17/outbox.cif.g08.bks.cpg/sg2_304_cif.got.tgz:607465.got - 2010.06.03 11:33:40.
