data_PCOD9106347
_publ_section_title
;
Structure prediction by ZEFSAII (Michael W. Deem and Ramdas Pophale) SiO2 
 PCOD9106347
Probable space group: P -1
;
_chemical_formula_sum "Si O2"
_cell_formula_units_Z 16
_cell_length_a 5.738553
_cell_length_b 18.367867
_cell_length_c 8.978308
_cell_angle_alpha 104.066713
_cell_angle_beta 120.494263
_cell_angle_gamma 56.440607
_cell_volume 678.606218
_symmetry_space_group_name_H-M "P -1"
_symmetry_group_IT_number 2
_symmetry_cell_setting 'triclinic'
loop_
_space_group_symop_operation_xyz
x,y,z
-x,-y,-z
loop_
_atom_site_type_symbol
_atom_site_label
_atom_site_fract_x
_atom_site_fract_y
_atom_site_fract_z
Si Si1 0.943145 0.192851 0.331157
Si Si2 0.046300 0.719376 0.903524
Si Si3 0.534891 0.450926 0.640618
Si Si4 0.559345 0.692164 0.543863
Si Si5 0.192257 0.291337 0.891442
Si Si6 0.149459 0.008613 0.396294
Si Si7 0.634325 0.573641 0.931842
Si Si8 0.445299 0.823580 0.325956
O O1 0.929370 0.212312 0.161535
O O2 0.696961 0.275381 0.391526
O O3 0.272191 0.174590 0.494902
O O4 0.920462 0.107483 0.313848
O O5 0.375158 0.628610 0.003504
O O6 0.848324 0.693891 0.715384
O O7 0.885535 0.755868 0.026904
O O8 0.500000 0.500000 0.500000
O O9 0.337379 0.402579 0.536043
O O10 0.475534 0.525448 0.775713
O O11 0.885336 0.367606 0.744009
O O12 0.389127 0.763595 0.393046
O O13 0.422621 0.227227 0.809711
O O14 0.319540 0.344988 0.052030
O O15 0.187418 0.925507 0.276317
O O16 0.500000 0.000000 0.500000
O O17 0.000000 0.000000 0.500000
O O18 0.000000 0.500000 0.000000
#
# Coordination Sequence:
#
# PCOD9106347 Si02
#       8
#     2   2   2   2   2   2   2   2
#     4  10  20  40  67 101 135 176 224 281 348 409
#     4  11  24  42  67  94 135 185 222 278 353 418
#     4  11  23  41  65  94 127 168 234 288 336 400
#     4  11  22  41  68  98 131 172 232 288 343 404
#     4  11  24  43  64  94 137 181 223 277 350 417
#     4  10  20  39  69 108 146 176 231 296 350 416
#     4  10  25  45  62  90 133 180 226 279 346 413
#     4  10  22  39  69 102 132 179 226 281 345 414
#
# _framework density 23.577738
#
# number of rings (size 3 to 8) (size 9 to 14) (size 15 to 20)
#    0.000    1.500    2.500    2.250    3.500    2.500 
#    2.250    0.625    0.000    3.000    0.000    0.000 
#    0.000    0.000    0.000    0.000    0.000    0.000 
#
# Total GULP energy -89067.560488 kJ/mol
# GULP energy per Si atom -5566.722531 kJ/mol
# Density = 2.352407 g / cm^3
# Si number density = 23.577738 Si / 1000 Ang^3
#
#
#
# Elastic Constant Matrix: (Units=GPa)
#
#
# Indices 1 2 3 4 5 6 
#
# 1 68.7115 21.6887 33.5523 -0.9167 -26.5140 16.1923
# 2 21.6887 106.5980 63.6344 23.8498 -22.5275 21.8078
# 3 33.5523 63.6344 95.2060 -0.1840 -22.7601 16.4721
# 4 -0.9167 23.8498 -0.1840 22.1088 -9.4586 -4.6051
# 5 -26.5140 -22.5275 -22.7601 -9.4586 46.9353 -1.6478
# 6 16.1923 21.8078 16.4721 -4.6051 -1.6478 39.6486
#
#
#
# Elastic Compliance Matrix: (Units=1/GPa)
#
#
# Indices 1 2 3 4 5 6 
#
# 1 0.022686 0.002097 -0.005388 0.001923 0.011334 -0.007485
# 2 0.002097 0.032525 -0.020317 -0.038872 -0.001412 -0.014879
# 3 -0.005388 -0.020317 0.026322 0.025334 0.005271 0.005602
# 4 0.001923 -0.038872 0.025334 0.098648 0.015372 0.022167
# 5 0.011334 -0.001412 0.005271 0.015372 0.032583 -0.002902
# 6 -0.007485 -0.014879 0.005602 0.022167 -0.002902 0.036589
#
#
# Mechanical properties :
#
#
# Convention : Reuss Voigt Hill
#
# Bulk Modulus (GPa) = 29.14034 56.47401 42.80717
# Shear Modulus (GPa) = 16.23332 31.84789 24.04061
#
# Velocity S-wave (km/s) = 2.62678 3.67926 3.19663
# Velocity P-wave (km/s) = 4.64608 6.48487 5.64090
#
# Compressibility (1/GPa) = 0.03431669
#
# Stress axis : x y z
#
# Youngs Moduli (GPa) = 44.08033 30.74531 37.99110
#
# Poissons Ratio (x) = -0.06448 0.20471
# Poissons Ratio (y) = -0.09244 0.77186
# Poissons Ratio (z) = 0.23752 0.62465
#
# Static dielectric constant tensor:
#      x y z
#    x 2.188060 -0.042680 0.186090 
#    y -0.042680 1.932350 -0.068840 
#    z 0.186090 -0.068840 2.016330 
# 
# From -- ./inp_files/139277.got.cif
#   From: 2010.05.17/outbox.cif.g08.bks.cpg/sg2_70_cif.got.tgz:139277.got - 2010.06.03 11:33:40.
