data_PCOD9106126
_publ_section_title
;
Structure prediction by ZEFSAII (Michael W. Deem and Ramdas Pophale) SiO2 
 PCOD9106126
Probable space group: P -1
;
_chemical_formula_sum "Si O2"
_cell_formula_units_Z 14
_cell_length_a 12.043103
_cell_length_b 9.617301
_cell_length_c 18.305693
_cell_angle_alpha 150.111223
_cell_angle_beta 43.908462
_cell_angle_gamma 123.710555
_cell_volume 717.691063
_symmetry_space_group_name_H-M "P -1"
_symmetry_group_IT_number 2
_symmetry_cell_setting 'triclinic'
loop_
_space_group_symop_operation_xyz
x,y,z
-x,-y,-z
loop_
_atom_site_type_symbol
_atom_site_label
_atom_site_fract_x
_atom_site_fract_y
_atom_site_fract_z
Si Si1 0.748967 0.422402 0.448261
Si Si2 0.651028 0.512451 0.986682
Si Si3 0.871456 0.295685 0.484530
Si Si4 0.575664 0.186738 0.155909
Si Si5 0.480634 0.405546 0.149973
Si Si6 0.924388 0.949239 0.591496
Si Si7 0.193247 0.965323 0.893534
O O1 0.820197 0.225145 0.394409
O O2 0.576254 0.613465 0.641121
O O3 0.736262 0.245576 0.301488
O O4 0.864833 0.648913 0.481154
O O5 0.772663 0.207972 0.794140
O O6 0.500000 0.500000 0.000000
O O7 0.566510 0.593804 0.141966
O O8 0.750932 0.738963 0.013033
O O9 0.702330 0.460116 0.676007
O O10 0.000000 0.500000 0.500000
O O11 0.955956 0.074013 0.405115
O O12 0.590071 0.320962 0.131054
O O13 0.730947 0.147069 0.116064
O O14 0.532125 0.881052 0.018671
O O15 0.000000 0.000000 0.500000
O O16 0.000000 0.000000 0.000000
#
# Coordination Sequence:
#
# PCOD9106126 Si02
#       7
#     2   2   2   2   2   2   2
#     4  10  21  42  60  90 121 170 210 250 317 383
#     4  12  23  41  63  95 124 169 217 260 302 378
#     4   9  21  36  63  92 127 160 207 262 313 376
#     4  10  21  39  66  90 120 167 212 258 309 381
#     4  10  20  39  67  95 116 162 226 261 299 368
#     4  11  21  36  61  93 125 162 214 262 310 363
#     4  12  26  40  62  95 137 166 200 264 334 372
#
# _framework density 19.507002
#
# number of rings (size 3 to 8) (size 9 to 14) (size 15 to 20)
#    0.000    1.429    2.857    2.143    6.000    0.000 
#    0.000    8.571    0.000    0.000    0.000    0.000 
#    0.000    0.000    0.000    0.000    0.000    0.000 
#
# Total GULP energy -78146.453480 kJ/mol
# GULP energy per Si atom -5581.889534 kJ/mol
# Density = 1.946260 g / cm^3
# Si number density = 19.507002 Si / 1000 Ang^3
#
#
#
# Elastic Constant Matrix: (Units=GPa)
#
#
# Indices 1 2 3 4 5 6 
#
# 1 188.7739 58.7220 52.3258 -6.4776 -16.0313 -27.5297
# 2 58.7220 104.1519 17.6434 -17.9971 -12.6150 -11.8542
# 3 52.3258 17.6434 72.1815 -6.6342 -1.5117 -11.0544
# 4 -6.4776 -17.9971 -6.6342 30.9255 0.3597 0.7766
# 5 -16.0313 -12.6150 -1.5117 0.3597 31.1117 2.3241
# 6 -27.5297 -11.8542 -11.0544 0.7766 2.3241 29.9486
#
#
#
# Elastic Compliance Matrix: (Units=1/GPa)
#
#
# Indices 1 2 3 4 5 6 
#
# 1 0.008484 -0.003408 -0.004692 -0.001356 0.002436 0.004564
# 2 -0.003408 0.013315 0.000201 0.006993 0.003440 0.001763
# 3 -0.004692 0.000201 0.017805 0.002913 -0.001683 0.002394
# 4 -0.001356 0.006993 0.002913 0.036688 0.001742 0.001511
# 5 0.002436 0.003440 -0.001683 0.001742 0.034672 0.000244
# 6 0.004564 0.001763 0.002394 0.001511 0.000244 0.039109
#
#
# Mechanical properties :
#
#
# Convention : Reuss Voigt Hill
#
# Bulk Modulus (GPa) = 42.00661 69.16551 55.58606
# Shear Modulus (GPa) = 28.76750 34.15823 31.46287
#
# Velocity S-wave (km/s) = 3.84438 4.18912 4.02045
# Velocity P-wave (km/s) = 6.42546 7.67672 7.07879
#
# Compressibility (1/GPa) = 0.02380578
#
# Stress axis : x y z
#
# Youngs Moduli (GPa) = 117.86823 75.10503 56.16365
#
# Poissons Ratio (x) = 0.25598 0.26351
# Poissons Ratio (y) = 0.40173 -0.01129
# Poissons Ratio (z) = 0.55301 -0.01510
#
# Static dielectric constant tensor:
#      x y z
#    x 1.691670 -0.015090 -0.003550 
#    y -0.015090 1.736090 -0.002990 
#    z -0.003550 -0.002990 1.671950 
# 
# From -- ./inp_files/158478.got.cif
#   From: 2010.05.17/outbox.cif.g08.bks.cpg/sg2_80_cif.got.tgz:158478.got - 2010.06.03 11:33:40.
