data_PCOD9106292
_publ_section_title
;
Structure prediction by ZEFSAII (Michael W. Deem and Ramdas Pophale) SiO2 
 PCOD9106292
Probable space group: P -1
;
_chemical_formula_sum "Si O2"
_cell_formula_units_Z 16
_cell_length_a 20.718715
_cell_length_b 5.133257
_cell_length_c 8.481024
_cell_angle_alpha 105.123481
_cell_angle_beta 125.567069
_cell_angle_gamma 108.288438
_cell_volume 570.397454
_symmetry_space_group_name_H-M "P -1"
_symmetry_group_IT_number 2
_symmetry_cell_setting 'triclinic'
loop_
_space_group_symop_operation_xyz
x,y,z
-x,-y,-z
loop_
_atom_site_type_symbol
_atom_site_label
_atom_site_fract_x
_atom_site_fract_y
_atom_site_fract_z
Si Si1 0.448956 0.091371 0.289325
Si Si2 0.930573 0.597099 0.849974
Si Si3 0.663034 0.657569 0.695704
Si Si4 0.414668 0.151162 0.901757
Si Si5 0.698289 0.627676 0.384146
Si Si6 0.260132 0.411933 0.895672
Si Si7 0.126950 0.494078 0.931755
Si Si8 0.991401 0.273105 0.313520
O O1 0.564087 0.268141 0.506607
O O2 0.394295 0.172134 0.350530
O O3 0.376757 0.699869 0.091682
O O4 0.436296 0.226008 0.128562
O O5 0.913067 0.508142 0.628144
O O6 0.846541 0.474585 0.839650
O O7 0.000000 0.500000 0.000000
O O8 0.000000 0.000000 0.000000
O O9 0.713813 0.716470 0.607046
O O10 0.733352 0.767795 0.966986
O O11 0.325549 0.134265 0.694252
O O12 0.386954 0.778449 0.785587
O O13 0.500000 0.500000 0.000000
O O14 0.769705 0.673100 0.346181
O O15 0.199728 0.534706 0.908589
O O16 0.094585 0.736049 0.900560
O O17 0.038802 0.089371 0.738754
O O18 0.000000 0.500000 0.500000
#
# Coordination Sequence:
#
# PCOD9106292 Si02
#       8
#     2   2   2   2   2   2   2   2
#     4  10  23  39  64  87 124 166 228 270 317 371
#     4   8  16  34  59  89 116 157 195 231 286 363
#     4  11  23  40  62  89 119 171 224 271 310 374
#     4  11  21  39  60  86 113 155 208 279 322 360
#     4  11  25  39  62  85 123 159 216 262 322 375
#     4  11  25  41  60  91 133 171 206 263 335 369
#     4  10  22  39  64  89 133 163 196 250 312 374
#     4  10  20  39  68  97 123 157 207 247 295 370
#
# _framework density 28.050615000000001
#
# number of rings (size 3 to 8) (size 9 to 14) (size 15 to 20)
#    0.000    1.750    2.500    1.125    5.250    0.000 
#    2.250    1.250    0.000    0.000    0.000    0.000 
#    0.000    0.000    0.000    0.000    0.000    0.000 
#
# Total GULP energy -89089.755291 kJ/mol
# GULP energy per Si atom -5568.109706 kJ/mol
# Density = 2.798677 g / cm^3
# Si number density = 28.050615 Si / 1000 Ang^3
#
#
#
# Elastic Constant Matrix: (Units=GPa)
#
#
# Indices 1 2 3 4 5 6 
#
# 1 148.2837 36.5234 57.2699 -35.8827 -49.2743 29.1940
# 2 36.5234 160.3419 29.2378 -8.6668 4.0142 -1.7056
# 3 57.2699 29.2378 75.2145 -22.3546 -23.6715 12.2983
# 4 -35.8827 -8.6668 -22.3546 47.3876 5.8520 3.8529
# 5 -49.2743 4.0142 -23.6715 5.8520 46.2569 -20.7710
# 6 29.1940 -1.7056 12.2983 3.8529 -20.7710 59.0308
#
#
#
# Elastic Compliance Matrix: (Units=1/GPa)
#
#
# Indices 1 2 3 4 5 6 
#
# 1 0.015739 -0.002753 -0.004020 0.008235 0.012482 -0.003172
# 2 -0.002753 0.007404 -0.002761 -0.001533 -0.004494 0.000670
# 3 -0.004020 -0.002761 0.021049 0.005761 0.005605 -0.000881
# 4 0.008235 -0.001533 0.005761 0.029484 0.005785 -0.005206
# 5 0.012482 -0.004494 0.005605 0.005785 0.040282 0.006325
# 6 -0.003172 0.000670 -0.000881 -0.005206 0.006325 0.021277
#
#
# Mechanical properties :
#
#
# Convention : Reuss Voigt Hill
#
# Bulk Modulus (GPa) = 39.80102 69.98913 54.89507
# Shear Modulus (GPa) = 30.73549 47.92234 39.32891
#
# Velocity S-wave (km/s) = 3.31375 4.13779 3.74848
# Velocity P-wave (km/s) = 5.37225 6.91619 6.19252
#
# Compressibility (1/GPa) = 0.02512499
#
# Stress axis : x y z
#
# Youngs Moduli (GPa) = 63.53533 135.06052 47.50724
#
# Poissons Ratio (x) = 0.37187 0.19096
# Poissons Ratio (y) = 0.17493 0.13117
# Poissons Ratio (z) = 0.25538 0.37291
#
# Static dielectric constant tensor:
#      x y z
#    x 2.354190 0.008580 -0.001870 
#    y 0.008580 2.238390 -0.042960 
#    z -0.001870 -0.042960 2.495210 
# 
# From -- ./inp_files/340500.got.cif
#   From: 2010.05.17/outbox.cif.g08.bks.cpg/sg2_171_cif.got.tgz:340500.got - 2010.06.03 11:33:40.
