data_PCOD9106824
_publ_section_title
;
Structure prediction by ZEFSAII (Michael W. Deem and Ramdas Pophale) SiO2 
 PCOD9106824
Probable space group: P -1
;
_chemical_formula_sum "Si O2"
_cell_formula_units_Z 14
_cell_length_a 15.110913
_cell_length_b 27.543608
_cell_length_c 5.563039
_cell_angle_alpha 69.549566
_cell_angle_beta 104.579913
_cell_angle_gamma 164.133718
_cell_volume 560.033574
_symmetry_space_group_name_H-M "P -1"
_symmetry_group_IT_number 2
_symmetry_cell_setting 'triclinic'
loop_
_space_group_symop_operation_xyz
x,y,z
-x,-y,-z
loop_
_atom_site_type_symbol
_atom_site_label
_atom_site_fract_x
_atom_site_fract_y
_atom_site_fract_z
Si Si1 0.986594 0.579797 0.673308
Si Si2 0.075457 0.084443 0.596194
Si Si3 0.716579 0.481809 0.159079
Si Si4 0.247758 0.956882 0.543486
Si Si5 0.710789 0.134830 0.140379
Si Si6 0.726357 0.001619 0.992726
Si Si7 0.499100 0.768182 0.097696
O O1 0.878474 0.545881 0.403443
O O2 0.884129 0.463160 0.779403
O O3 0.378207 0.811508 0.573332
O O4 0.798740 0.497806 0.932616
O O5 0.315168 0.256750 0.331269
O O6 0.306032 0.178076 0.781032
O O7 0.000000 0.000000 0.500000
O O8 0.708778 0.897599 0.778634
O O9 0.886795 0.631147 0.002630
O O10 0.054322 0.874124 0.319944
O O11 0.293708 0.919772 0.606626
O O12 0.108345 0.889672 0.834615
O O13 0.556801 0.109628 0.081489
O O14 0.500000 0.000000 0.000000
O O15 0.565958 0.856167 0.148932
#
# Coordination Sequence:
#
# PCOD9106824 Si02
#       7
#     2   2   2   2   2   2   2
#     4  11  20  36  56  90 116 159 186 240 292 362
#     4  10  21  42  60  83 115 163 198 250 286 357
#     4  11  21  35  62  87 114 152 206 233 296 340
#     4  11  22  37  59  88 126 154 196 229 302 351
#     4  10  20  40  61  90 120 159 193 240 290 360
#     4  11  23  36  58  91 119 160 187 247 289 359
#     4  10  24  38  60  86 122 152 203 242 303 340
#
# _framework density 24.998502999999999
#
# number of rings (size 3 to 8) (size 9 to 14) (size 15 to 20)
#    0.000    1.429    5.714    0.429    2.000    1.143 
#    0.000    0.000    0.000    4.286    0.000    0.000 
#    0.000    0.000    0.000    0.000    0.000    0.000 
#
# Total GULP energy -77937.477465 kJ/mol
# GULP energy per Si atom -5566.962676 kJ/mol
# Density = 2.494161 g / cm^3
# Si number density = 24.998503 Si / 1000 Ang^3
#
#
#
# Elastic Constant Matrix: (Units=GPa)
#
#
# Indices 1 2 3 4 5 6 
#
# 1 113.3142 21.9251 41.8267 -9.2257 23.3147 -29.2090
# 2 21.9251 52.3423 13.3552 -5.7497 10.2190 -17.6966
# 3 41.8267 13.3552 112.3614 16.3756 1.4493 8.4198
# 4 -9.2257 -5.7497 16.3756 55.3080 -17.7511 3.0816
# 5 23.3147 10.2190 1.4493 -17.7511 46.0512 10.9889
# 6 -29.2090 -17.6966 8.4198 3.0816 10.9889 39.0368
#
#
#
# Elastic Compliance Matrix: (Units=1/GPa)
#
#
# Indices 1 2 3 4 5 6 
#
# 1 0.022790 0.006428 -0.011085 0.000033 -0.019228 0.027767
# 2 0.006428 0.029460 -0.007520 0.000126 -0.015250 0.024070
# 3 -0.011085 -0.007520 0.015565 -0.003122 0.009779 -0.017567
# 4 0.000033 0.000126 -0.003122 0.022285 0.009523 -0.003685
# 5 -0.019228 -0.015250 0.009779 0.009523 0.047128 -0.037429
# 6 0.027767 0.024070 -0.017567 -0.003685 -0.037429 0.071921
#
#
# Mechanical properties :
#
#
# Convention : Reuss Voigt Hill
#
# Bulk Modulus (GPa) = 23.00889 48.02577 35.51733
# Shear Modulus (GPa) = 20.16208 41.47328 30.81768
#
# Velocity S-wave (km/s) = 2.84303 4.07754 3.51491
# Velocity P-wave (km/s) = 4.47227 6.43596 5.54179
#
# Compressibility (1/GPa) = 0.04346147
#
# Stress axis : x y z
#
# Youngs Moduli (GPa) = 43.87971 33.94415 64.24565
#
# Poissons Ratio (x) = -0.21819 0.71216
# Poissons Ratio (y) = -0.28206 0.48311
# Poissons Ratio (z) = 0.48641 0.25525
#
# Static dielectric constant tensor:
#      x y z
#    x 2.527700 0.562470 -0.003620 
#    y 0.562470 2.599460 0.079710 
#    z -0.003620 0.079710 2.251000 
# 
# From -- ./inp_files/101487.got.cif
#   From: 2010.05.17/outbox.cif.g08.bks.cpg/sg2_51_cif.got.tgz:101487.got - 2010.06.03 11:33:40.
