data_PCOD9106992
_publ_section_title
;
Structure prediction by ZEFSAII (Michael W. Deem and Ramdas Pophale) SiO2 
 PCOD9106992
Probable space group: P -1
;
_chemical_formula_sum "Si O2"
_cell_formula_units_Z 16
_cell_length_a 5.419618
_cell_length_b 17.941707
_cell_length_c 9.009836
_cell_angle_alpha 77.931943
_cell_angle_beta 71.777655
_cell_angle_gamma 54.531037
_cell_volume 677.300093
_symmetry_space_group_name_H-M "P -1"
_symmetry_group_IT_number 2
_symmetry_cell_setting 'triclinic'
loop_
_space_group_symop_operation_xyz
x,y,z
-x,-y,-z
loop_
_atom_site_type_symbol
_atom_site_label
_atom_site_fract_x
_atom_site_fract_y
_atom_site_fract_z
Si Si1 0.328573 0.796909 0.912898
Si Si2 0.327740 0.487121 0.900610
Si Si3 0.963940 0.653477 0.693931
Si Si4 0.372907 0.978577 0.356603
Si Si5 0.076283 0.805438 0.666193
Si Si6 0.290272 0.710376 0.238369
Si Si7 0.303892 0.288671 0.570763
Si Si8 0.834231 0.015830 0.276417
O O1 0.662521 0.709229 0.833970
O O2 0.096190 0.791629 0.845109
O O3 0.274358 0.894737 0.839660
O O4 0.281412 0.781236 0.095386
O O5 0.554237 0.386979 0.832617
O O6 0.234114 0.564485 0.762309
O O7 0.500000 0.500000 0.000000
O O8 0.000000 0.500000 0.000000
O O9 0.041950 0.729871 0.628830
O O10 0.880622 0.634047 0.555248
O O11 0.715879 0.953457 0.269754
O O12 0.184034 0.089745 0.353385
O O13 0.201605 0.960479 0.266955
O O14 0.312551 0.955314 0.540782
O O15 0.398705 0.786361 0.550423
O O16 0.938687 0.738000 0.328009
O O17 0.532054 0.694868 0.330439
#
# Coordination Sequence:
#
# PCOD9106992 Si02
#       8
#     2   2   2   2   2   2   2   2
#     4  10  21  35  66  87 122 151 206 246 299 350
#     4  12  26  42  65  93 121 151 197 253 302 349
#     4  11  22  42  64  90 117 161 201 244 296 357
#     4   9  17  29  55  83 125 144 192 241 301 341
#     4  10  20  40  62  91 118 161 198 246 296 357
#     4  12  25  43  60  91 119 162 194 253 297 350
#     4  11  26  42  61  87 124 159 204 239 298 354
#     4   9  17  30  50  93 115 149 186 253 293 340
#
# _framework density 23.623204999999999
#
# number of rings (size 3 to 8) (size 9 to 14) (size 15 to 20)
#    0.000    1.500    3.750    1.500    3.500    1.000 
#    0.000    0.000    0.000    1.500    0.000    0.000 
#    0.000    0.000    0.000    0.000    0.000    0.000 
#
# Total GULP energy -89333.479625 kJ/mol
# GULP energy per Si atom -5583.342477 kJ/mol
# Density = 2.356944 g / cm^3
# Si number density = 23.623205 Si / 1000 Ang^3
#
#
#
# Elastic Constant Matrix: (Units=GPa)
#
#
# Indices 1 2 3 4 5 6 
#
# 1 170.3991 24.3400 70.6747 2.1043 22.9029 19.5737
# 2 24.3400 72.8020 45.8091 -11.7785 11.6390 8.5321
# 3 70.6747 45.8091 137.2328 -6.8041 23.7192 -0.8924
# 4 2.1043 -11.7785 -6.8041 13.4569 1.5824 8.4801
# 5 22.9029 11.6390 23.7192 1.5824 43.4182 4.1285
# 6 19.5737 8.5321 -0.8924 8.4801 4.1285 25.7127
#
#
#
# Elastic Compliance Matrix: (Units=1/GPa)
#
#
# Indices 1 2 3 4 5 6 
#
# 1 0.008681 0.001780 -0.004637 0.003187 -0.001868 -0.008111
# 2 0.001780 0.025861 -0.007606 0.031543 -0.002952 -0.020130
# 3 -0.004637 -0.007606 0.012564 -0.004569 -0.003019 0.008481
# 4 0.003187 0.031543 -0.004569 0.135646 -0.007200 -0.056632
# 5 -0.001868 -0.002952 -0.003019 -0.007200 0.026683 0.000387
# 6 -0.008111 -0.020130 0.008481 -0.056632 0.000387 0.070655
#
#
# Mechanical properties :
#
#
# Convention : Reuss Voigt Hill
#
# Bulk Modulus (GPa) = 38.19587 73.56460 55.88023
# Shear Modulus (GPa) = 16.14246 32.49156 24.31701
#
# Velocity S-wave (km/s) = 2.61690 3.71267 3.21186
# Velocity P-wave (km/s) = 5.03336 7.04181 6.12053
#
# Compressibility (1/GPa) = 0.02618084
#
# Stress axis : x y z
#
# Youngs Moduli (GPa) = 115.19584 38.66823 79.59178
#
# Poissons Ratio (x) = -0.06884 0.36904
# Poissons Ratio (y) = -0.20507 0.60538
# Poissons Ratio (z) = 0.53413 0.29411
#
# Static dielectric constant tensor:
#      x y z
#    x 2.071940 0.025840 -0.017660 
#    y 0.025840 1.858130 -0.040380 
#    z -0.017660 -0.040380 1.945600 
# 
# From -- ./inp_files/140615.got.cif
#   From: 2010.05.17/outbox.cif.g08.bks.cpg/sg2_71_cif.got.tgz:140615.got - 2010.06.03 11:33:40.
