data_PCOD9106577
_publ_section_title
;
Structure prediction by ZEFSAII (Michael W. Deem and Ramdas Pophale) SiO2 
 PCOD9106577
Probable space group: P -1
;
_chemical_formula_sum "Si O2"
_cell_formula_units_Z 16
_cell_length_a 12.698546
_cell_length_b 14.692401
_cell_length_c 9.183793
_cell_angle_alpha 114.493139
_cell_angle_beta 130.129544
_cell_angle_gamma 40.563320
_cell_volume 842.167024
_symmetry_space_group_name_H-M "P -1"
_symmetry_group_IT_number 2
_symmetry_cell_setting 'triclinic'
loop_
_space_group_symop_operation_xyz
x,y,z
-x,-y,-z
loop_
_atom_site_type_symbol
_atom_site_label
_atom_site_fract_x
_atom_site_fract_y
_atom_site_fract_z
Si Si1 0.241194 0.337671 0.427911
Si Si2 0.756044 0.004586 0.955332
Si Si3 0.284811 0.644245 0.367579
Si Si4 0.326647 0.200938 0.704931
Si Si5 0.340755 0.969024 0.452385
Si Si6 0.963578 0.374904 0.705252
Si Si7 0.992661 0.681857 0.980192
Si Si8 0.082123 0.953391 0.379142
O O1 0.262035 0.316268 0.605152
O O2 0.444842 0.190355 0.448005
O O3 0.185756 0.473450 0.405145
O O4 0.068126 0.353097 0.231961
O O5 0.537596 0.123377 0.902030
O O6 0.731773 0.017881 0.767504
O O7 0.904489 0.010127 0.153713
O O8 0.845855 0.850708 0.973392
O O9 0.500000 0.500000 0.500000
O O10 0.143167 0.675540 0.390850
O O11 0.204051 0.625130 0.141781
O O12 0.242510 0.781971 0.400857
O O13 0.159041 0.271173 0.718605
O O14 0.353969 0.080997 0.565338
O O15 0.188708 0.997650 0.447222
O O16 0.018222 0.376817 0.920646
O O17 0.000000 0.000000 0.500000
#
# Coordination Sequence:
#
# PCOD9106577 Si02
#       8
#     2   2   2   2   2   2   2   2
#     4  11  19  38  57  88 110 149 197 223 285 343
#     4  10  20  40  56  86 115 153 189 228 285 342
#     4   9  20  39  55  76 114 150 187 225 282 335
#     4  11  21  37  60  86 119 147 183 245 282 334
#     4  11  21  36  65  80 114 157 190 228 279 350
#     4  10  22  33  58  84 113 147 183 242 285 318
#     4   9  19  35  58  80 111 147 192 228 275 339
#     4  11  23  38  58  87 116 147 190 243 279 332
#
# _framework density 18.998607
#
# number of rings (size 3 to 8) (size 9 to 14) (size 15 to 20)
#    0.750    1.000    2.500    3.375    0.000    1.500 
#    2.250    0.000    0.000    0.750    0.000    0.000 
#    0.000    0.000    0.000    0.000    0.000    0.000 
#
# Total GULP energy -89181.260921 kJ/mol
# GULP energy per Si atom -5573.828808 kJ/mol
# Density = 1.895537 g / cm^3
# Si number density = 18.998607 Si / 1000 Ang^3
#
#
#
# Elastic Constant Matrix: (Units=GPa)
#
#
# Indices 1 2 3 4 5 6 
#
# 1 68.8420 3.2739 1.0730 -14.1470 1.1074 0.1716
# 2 3.2739 37.7821 17.3604 -19.6761 1.6222 1.3497
# 3 1.0730 17.3604 76.4263 -24.1345 15.3009 -0.8623
# 4 -14.1470 -19.6761 -24.1345 28.2429 1.9056 1.8943
# 5 1.1074 1.6222 15.3009 1.9056 16.9211 -4.3349
# 6 0.1716 1.3497 -0.8623 1.8943 -4.3349 31.2366
#
#
#
# Elastic Compliance Matrix: (Units=1/GPa)
#
#
# Indices 1 2 3 4 5 6 
#
# 1 0.018613 0.006670 0.007125 0.021036 -0.011453 -0.003059
# 2 0.006670 0.046031 0.006055 0.042170 -0.016802 -0.006747
# 3 0.007125 0.006055 0.029455 0.035625 -0.033299 -0.006269
# 4 0.021036 0.042170 0.035625 0.110420 -0.053946 -0.015137
# 5 -0.011453 -0.016802 -0.033299 -0.053946 0.102078 0.017307
# 6 -0.003059 -0.006747 -0.006269 -0.015137 0.017307 0.035469
#
#
# Mechanical properties :
#
#
# Convention : Reuss Voigt Hill
#
# Bulk Modulus (GPa) = 7.47399 25.16277 16.31838
# Shear Modulus (GPa) = 14.41065 26.03634 20.22350
#
# Velocity S-wave (km/s) = 2.75710 3.70595 3.26617
# Velocity P-wave (km/s) = 3.75206 5.62009 4.77825
#
# Compressibility (1/GPa) = 0.13379734
#
# Stress axis : x y z
#
# Youngs Moduli (GPa) = 53.72708 21.72440 33.95029
#
# Poissons Ratio (x) = -0.14489 -0.24190
# Poissons Ratio (y) = -0.35834 -0.20556
# Poissons Ratio (z) = -0.38281 -0.13154
#
# Static dielectric constant tensor:
#      x y z
#    x 1.655000 -0.003020 0.004540 
#    y -0.003020 1.656990 0.003240 
#    z 0.004540 0.003240 1.678510 
# 
# From -- ./inp_files/273478.got.cif
#   From: 2010.05.17/outbox.cif.g08.bks.cpg/sg2_137_cif.got.tgz:273478.got - 2010.06.03 11:33:40.
