data_PCOD9106791
_publ_section_title
;
Structure prediction by ZEFSAII (Michael W. Deem and Ramdas Pophale) SiO2 
 PCOD9106791
Probable space group: P -1
;
_chemical_formula_sum "Si O2"
_cell_formula_units_Z 16
_cell_length_a 9.272342
_cell_length_b 16.810220
_cell_length_c 5.232414
_cell_angle_alpha 105.813235
_cell_angle_beta 105.041261
_cell_angle_gamma 111.641676
_cell_volume 667.687386
_symmetry_space_group_name_H-M "P -1"
_symmetry_group_IT_number 2
_symmetry_cell_setting 'triclinic'
loop_
_space_group_symop_operation_xyz
x,y,z
-x,-y,-z
loop_
_atom_site_type_symbol
_atom_site_label
_atom_site_fract_x
_atom_site_fract_y
_atom_site_fract_z
Si Si1 0.555697 0.383612 0.034377
Si Si2 0.058542 0.200629 0.428431
Si Si3 0.861836 0.294286 0.579549
Si Si4 0.266549 0.111897 0.606648
Si Si5 0.016061 0.906958 0.207155
Si Si6 0.140083 0.525572 0.372978
Si Si7 0.657778 0.547502 0.811262
Si Si8 0.644271 0.224262 0.895957
O O1 0.677365 0.412573 0.360420
O O2 0.371802 0.368395 0.022714
O O3 0.625443 0.471634 0.951648
O O4 0.583893 0.301566 0.864767
O O5 0.030995 0.289299 0.564890
O O6 0.947541 0.126420 0.532408
O O7 0.231116 0.191883 0.524895
O O8 0.993787 0.160660 0.083468
O O9 0.887977 0.399500 0.741391
O O10 0.768564 0.233163 0.731017
O O11 0.740456 0.251262 0.235801
O O12 0.459373 0.134007 0.743098
O O13 0.168817 0.100980 0.822852
O O14 0.152337 0.014326 0.323801
O O15 0.167985 0.438523 0.217948
O O16 0.000000 0.500000 0.500000
O O17 0.500000 0.500000 0.500000
#
# Coordination Sequence:
#
# PCOD9106791 Si02
#       8
#     2   2   2   2   2   2   2   2
#     4   9  19  37  56  81 112 148 191 250 282 341
#     4  10  20  40  61  87 124 158 191 251 293 346
#     4  11  24  42  58  88 129 155 192 250 302 355
#     4   9  22  38  68  87 117 159 203 241 291 355
#     4   9  20  38  66  87 122 150 206 242 291 343
#     4  10  21  39  57  81 114 161 192 236 297 355
#     4   9  17  36  58  78 109 144 195 242 289 332
#     4  11  23  40  62  87 122 160 197 242 306 347
#
# _framework density 23.96331
#
# number of rings (size 3 to 8) (size 9 to 14) (size 15 to 20)
#    0.750    1.500    1.250    1.125    1.750    0.500 
#    9.000    3.750    0.000    0.000    0.000    0.000 
#    0.000    0.000    0.000    0.000    0.000    0.000 
#
# Total GULP energy -89122.592691 kJ/mol
# GULP energy per Si atom -5570.162043 kJ/mol
# Density = 2.390877 g / cm^3
# Si number density = 23.963310 Si / 1000 Ang^3
#
#
#
# Elastic Constant Matrix: (Units=GPa)
#
#
# Indices 1 2 3 4 5 6 
#
# 1 147.0636 -2.2592 29.3877 0.7113 -5.1692 -4.3162
# 2 -2.2592 16.9446 1.9597 -8.6663 2.1135 -3.8109
# 3 29.3877 1.9597 66.4291 -17.6413 -6.0312 -0.4169
# 4 0.7113 -8.6663 -17.6413 28.3778 -6.3438 -3.3712
# 5 -5.1692 2.1135 -6.0312 -6.3438 50.7078 0.4818
# 6 -4.3162 -3.8109 -0.4169 -3.3712 0.4818 30.4150
#
#
#
# Elastic Compliance Matrix: (Units=1/GPa)
#
#
# Indices 1 2 3 4 5 6 
#
# 1 0.007652 0.000391 -0.004062 -0.002512 -0.000041 0.000801
# 2 0.000391 0.075521 0.005192 0.027986 0.000890 0.012677
# 3 -0.004062 0.005192 0.021331 0.016067 0.003897 0.002086
# 4 -0.002512 0.027986 0.016067 0.056642 0.007484 0.009530
# 5 -0.000041 0.000890 0.003897 0.007484 0.021073 0.000655
# 6 0.000801 0.012677 0.002086 0.009530 0.000655 0.035655
#
#
# Mechanical properties :
#
#
# Convention : Reuss Voigt Hill
#
# Bulk Modulus (GPa) = 9.29848 32.06820 20.68334
# Shear Modulus (GPa) = 19.94556 35.32341 27.63448
#
# Velocity S-wave (km/s) = 2.88816 3.84352 3.39956
# Velocity P-wave (km/s) = 3.87436 5.75396 4.90503
#
# Compressibility (1/GPa) = 0.10754446
#
# Stress axis : x y z
#
# Youngs Moduli (GPa) = 130.68832 13.24133 46.87917
#
# Poissons Ratio (x) = -0.00517 0.19044
# Poissons Ratio (y) = -0.05106 -0.24339
# Poissons Ratio (z) = 0.53091 -0.06875
#
# Static dielectric constant tensor:
#      x y z
#    x 1.970600 -0.009600 0.026010 
#    y -0.009600 1.966470 0.000390 
#    z 0.026010 0.000390 1.873450 
# 
# From -- ./inp_files/50640.got.cif
#   From: 2010.05.17/outbox.cif.g08.bks.cpg/sg2_26_cif.got.tgz:50640.got - 2010.06.03 11:33:40.
