data_PCOD9106200
_publ_section_title
;
Structure prediction by ZEFSAII (Michael W. Deem and Ramdas Pophale) SiO2 
 PCOD9106200
Probable space group: P -1
;
_chemical_formula_sum "Si O2"
_cell_formula_units_Z 16
_cell_length_a 11.695535
_cell_length_b 12.334029
_cell_length_c 9.222108
_cell_angle_alpha 109.251294
_cell_angle_beta 128.762037
_cell_angle_gamma 49.651816
_cell_volume 784.136343
_symmetry_space_group_name_H-M "P -1"
_symmetry_group_IT_number 2
_symmetry_cell_setting 'triclinic'
loop_
_space_group_symop_operation_xyz
x,y,z
-x,-y,-z
loop_
_atom_site_type_symbol
_atom_site_label
_atom_site_fract_x
_atom_site_fract_y
_atom_site_fract_z
Si Si1 0.325861 0.619828 0.278864
Si Si2 0.762370 0.598028 0.960005
Si Si3 0.148789 0.419727 0.306172
Si Si4 0.150674 0.924669 0.206724
Si Si5 0.533175 0.106323 0.988874
Si Si6 0.298917 0.594998 0.573910
Si Si7 0.531981 0.860968 0.392680
Si Si8 0.887998 0.095771 0.315123
O O1 0.169910 0.781337 0.190353
O O2 0.350121 0.629050 0.474467
O O3 0.506596 0.551904 0.294864
O O4 0.276320 0.513655 0.162789
O O5 0.596135 0.741983 0.964588
O O6 0.930234 0.511360 0.167781
O O7 0.802366 0.633054 0.847434
O O8 0.177197 0.541362 0.419711
O O9 0.282915 0.283785 0.457268
O O10 0.351663 0.874308 0.304346
O O11 0.052620 0.036882 0.307575
O O12 0.000000 0.000000 0.000000
O O13 0.473874 0.126304 0.781505
O O14 0.737752 0.067759 0.141902
O O15 0.500000 0.000000 0.000000
O O16 0.214894 0.735024 0.664207
O O17 0.500000 0.000000 0.500000
O O18 0.000000 0.000000 0.500000
#
# Coordination Sequence:
#
# PCOD9106200 Si02
#       8
#     2   2   2   2   2   2   2   2
#     4  10  20  39  68  95 136 178 225 278 343 408
#     4  10  23  42  71 100 136 181 234 286 341 420
#     4  10  23  43  69 100 136 185 230 280 356 413
#     4  12  26  46  67 104 144 184 230 288 348 419
#     4  12  28  47  69 103 141 182 241 292 346 420
#     4  10  20  39  68 100 130 176 232 282 335 409
#     4  12  28  47  69 100 144 189 229 291 358 413
#     4  12  26  43  73 107 140 181 238 287 347 411
#
# _framework density 20.404616000000001
#
# number of rings (size 3 to 8) (size 9 to 14) (size 15 to 20)
#    0.000    1.000    5.000    0.750    7.000    1.500 
#    2.250    1.875    0.000    0.000    0.000    0.000 
#    0.000    0.000    0.000    0.000    0.000    0.000 
#
# Total GULP energy -89162.775092 kJ/mol
# GULP energy per Si atom -5572.673443 kJ/mol
# Density = 2.035817 g / cm^3
# Si number density = 20.404616 Si / 1000 Ang^3
#
#
#
# Elastic Constant Matrix: (Units=GPa)
#
#
# Indices 1 2 3 4 5 6 
#
# 1 53.8858 27.2726 14.7298 -6.5450 -5.4559 -5.8062
# 2 27.2726 136.7790 30.0252 -2.3596 -10.5076 -5.0636
# 3 14.7298 30.0252 96.4256 -23.3615 -2.9414 10.9292
# 4 -6.5450 -2.3596 -23.3615 36.0899 -5.7441 2.8075
# 5 -5.4559 -10.5076 -2.9414 -5.7441 38.1939 4.8945
# 6 -5.8062 -5.0636 10.9292 2.8075 4.8945 23.3962
#
#
#
# Elastic Compliance Matrix: (Units=1/GPa)
#
#
# Indices 1 2 3 4 5 6 
#
# 1 0.021942 -0.003523 -0.002267 0.002145 0.001655 0.005138
# 2 -0.003523 0.008792 -0.002914 -0.001963 0.001089 0.002397
# 3 -0.002267 -0.002914 0.015480 0.010700 0.003001 -0.010336
# 4 0.002145 -0.001963 0.010700 0.036944 0.007544 -0.010902
# 5 0.001655 0.001089 0.003001 0.007544 0.029076 -0.007743
# 6 0.005138 0.002397 -0.010336 -0.010902 -0.007743 0.052292
#
#
# Mechanical properties :
#
#
# Convention : Reuss Voigt Hill
#
# Bulk Modulus (GPa) = 34.71481 47.90508 41.30995
# Shear Modulus (GPa) = 26.10479 33.87353 29.98916
#
# Velocity S-wave (km/s) = 3.58069 4.07884 3.83786
# Velocity P-wave (km/s) = 5.84340 6.76100 6.31888
#
# Compressibility (1/GPa) = 0.02880615
#
# Stress axis : x y z
#
# Youngs Moduli (GPa) = 45.57401 113.74474 64.60091
#
# Poissons Ratio (x) = 0.40074 0.14645
# Poissons Ratio (y) = 0.16056 0.18822
# Poissons Ratio (z) = 0.10332 0.33140
#
# Static dielectric constant tensor:
#      x y z
#    x 1.764720 0.013940 0.107940 
#    y 0.013940 1.693000 0.003380 
#    z 0.107940 0.003380 1.516300 
# 
# From -- ./inp_files/186648.got.cif
#   From: 2010.05.17/outbox.cif.g08.bks.cpg/sg2_94_cif.got.tgz:186648.got - 2010.06.03 11:33:40.
