data_PCOD9106806
_publ_section_title
;
Structure prediction by ZEFSAII (Michael W. Deem and Ramdas Pophale) SiO2 
 PCOD9106806
Probable space group: P -1
;
_chemical_formula_sum "Si O2"
_cell_formula_units_Z 14
_cell_length_a 11.421233
_cell_length_b 7.415490
_cell_length_c 13.300056
_cell_angle_alpha 90.396451
_cell_angle_beta 33.801601
_cell_angle_gamma 78.951150
_cell_volume 585.866446
_symmetry_space_group_name_H-M "P -1"
_symmetry_group_IT_number 2
_symmetry_cell_setting 'triclinic'
loop_
_space_group_symop_operation_xyz
x,y,z
-x,-y,-z
loop_
_atom_site_type_symbol
_atom_site_label
_atom_site_fract_x
_atom_site_fract_y
_atom_site_fract_z
Si Si1 0.513513 0.250538 0.789499
Si Si2 0.476794 0.327746 0.399274
Si Si3 0.049829 0.773987 0.436325
Si Si4 0.094288 0.847485 0.176760
Si Si5 0.874027 0.425172 0.006624
Si Si6 0.580505 0.824953 0.771833
Si Si7 0.288052 0.763612 0.567023
O O1 0.702256 0.331040 0.696787
O O2 0.266677 0.405494 0.967306
O O3 0.581693 0.207381 0.624246
O O4 0.529109 0.051773 0.827548
O O5 0.690974 0.367010 0.199124
O O6 0.408971 0.220071 0.355688
O O7 0.300015 0.541277 0.552375
O O8 0.573677 0.219853 0.432968
O O9 0.059013 0.771660 0.309918
O O10 0.837036 0.723899 0.626964
O O11 0.000000 0.000000 0.500000
O O12 0.995571 0.751999 0.158258
O O13 0.362677 0.789843 0.969593
O O14 0.959140 0.075934 0.263147
O O15 0.000000 0.500000 0.000000
#
# Coordination Sequence:
#
# PCOD9106806 Si02
#       7
#     2   2   2   2   2   2   2
#     4  10  22  42  63  88 132 162 210 257 310 363
#     4   9  22  39  59  90 130 159 219 248 317 378
#     4  10  21  43  64  91 127 164 210 263 303 370
#     4  11  23  40  67  92 126 164 214 249 322 366
#     4  10  24  41  60  97 130 162 204 264 307 381
#     4  10  22  40  64  92 123 166 208 261 306 371
#     4  10  20  40  61  88 126 168 198 266 306 374
#
# _framework density 23.896232999999999
#
# number of rings (size 3 to 8) (size 9 to 14) (size 15 to 20)
#    0.000    2.000    2.857    0.000    4.000    8.000 
#    0.000    6.429    0.000    0.000    0.000    0.000 
#    0.000    0.000    0.000    0.000    0.000    0.000 
#
# Total GULP energy -78231.921317 kJ/mol
# GULP energy per Si atom -5587.994380 kJ/mol
# Density = 2.384184 g / cm^3
# Si number density = 23.896233 Si / 1000 Ang^3
#
#
#
# Elastic Constant Matrix: (Units=GPa)
#
#
# Indices 1 2 3 4 5 6 
#
# 1 58.7974 -4.0370 24.4915 -2.7150 -2.2630 8.5410
# 2 -4.0370 38.7039 13.8977 11.2158 -5.6351 3.3236
# 3 24.4915 13.8977 78.4730 8.9987 -3.4150 5.4864
# 4 -2.7150 11.2158 8.9987 34.4566 3.2227 -8.7786
# 5 -2.2630 -5.6351 -3.4150 3.2227 39.2930 0.8351
# 6 8.5410 3.3236 5.4864 -8.7786 0.8351 32.3920
#
#
#
# Elastic Compliance Matrix: (Units=1/GPa)
#
#
# Indices 1 2 3 4 5 6 
#
# 1 0.021137 0.005266 -0.007186 0.000472 0.001411 -0.004805
# 2 0.005266 0.033029 -0.005468 -0.011229 0.005635 -0.007040
# 3 -0.007186 -0.005468 0.016465 -0.003465 0.000544 -0.001286
# 4 0.000472 -0.011229 -0.003465 0.037111 -0.005179 0.011806
# 5 0.001411 0.005635 0.000544 -0.005179 0.026878 -0.003139
# 6 -0.004805 -0.007040 -0.001286 0.011806 -0.003139 0.036359
#
#
# Mechanical properties :
#
#
# Convention : Reuss Voigt Hill
#
# Bulk Modulus (GPa) = 17.90341 27.18652 22.54496
# Shear Modulus (GPa) = 24.46497 30.66978 27.56738
#
# Velocity S-wave (km/s) = 3.20316 3.58642 3.40020
# Velocity P-wave (km/s) = 4.60312 5.34336 4.98699
#
# Compressibility (1/GPa) = 0.05585529
#
# Stress axis : x y z
#
# Youngs Moduli (GPa) = 47.31140 30.27648 60.73333
#
# Poissons Ratio (x) = -0.15945 0.43644
# Poissons Ratio (y) = -0.24916 0.33210
# Poissons Ratio (z) = 0.33999 0.16555
#
# Static dielectric constant tensor:
#      x y z
#    x 1.922150 -0.003900 -0.035050 
#    y -0.003900 1.954460 0.047710 
#    z -0.035050 0.047710 1.940040 
# 
# From -- ./inp_files/515588.got.cif
#   From: 2010.05.17/outbox.cif.g08.bks.cpg/sg2_258_cif.got.tgz:515588.got - 2010.06.03 11:33:40.
