data_PCOD9106907
_publ_section_title
;
Structure prediction by ZEFSAII (Michael W. Deem and Ramdas Pophale) SiO2 
 PCOD9106907
Probable space group: P -1
;
_chemical_formula_sum "Si O2"
_cell_formula_units_Z 11
_cell_length_a 7.745016
_cell_length_b 10.905215
_cell_length_c 10.877769
_cell_angle_alpha 32.971721
_cell_angle_beta 120.652726
_cell_angle_gamma 119.313446
_cell_volume 426.369290
_symmetry_space_group_name_H-M "P -1"
_symmetry_group_IT_number 2
_symmetry_cell_setting 'triclinic'
loop_
_space_group_symop_operation_xyz
x,y,z
-x,-y,-z
loop_
_atom_site_type_symbol
_atom_site_label
_atom_site_fract_x
_atom_site_fract_y
_atom_site_fract_z
Si Si1 0.503723 0.452189 0.687999
Si Si2 0.050096 0.495774 0.186761
Si Si3 0.779568 0.878582 0.795280
Si Si4 0.395526 0.060913 0.583829
Si Si5 0.000000 0.000000 0.500000
Si Si6 0.921870 0.711443 0.360195
O O1 0.500000 0.500000 0.500000
O O2 0.490687 0.686456 0.563285
O O3 0.302908 0.275759 0.783904
O O4 0.721523 0.384055 0.856059
O O5 0.073727 0.378923 0.424665
O O6 0.869657 0.645692 0.014324
O O7 0.999311 0.283789 0.257138
O O8 0.762488 0.958613 0.576884
O O9 0.555110 0.891483 0.755162
O O10 0.930800 0.053583 0.781902
O O11 0.213751 0.031550 0.637075
O O12 0.000000 0.500000 0.500000
#
# Coordination Sequence:
#
# PCOD9106907 Si02
#       6
#     2   2   2   2   1   2
#     4   9  20  39  63  86 129 162 199 254 311 360
#     4  10  23  41  64  93 122 165 208 250 310 371
#     4  11  23  40  67  91 123 162 216 249 306 368
#     4  10  21  41  62  92 125 163 205 264 297 363
#     4  10  20  40  62  86 126 156 198 260 304 350
#     4  11  21  42  64  88 129 164 197 264 307 360
#
# _framework density 25.799230000000001
#
# number of rings (size 3 to 8) (size 9 to 14) (size 15 to 20)
#    0.000    1.818    3.636    0.000    0.000    5.091 
#    0.000    1.818    0.000    0.000    0.000    0.000 
#    0.000    0.000    0.000    0.000    0.000    0.000 
#
# Total GULP energy -61272.917756 kJ/mol
# GULP energy per Si atom -5570.265251 kJ/mol
# Density = 2.574051 g / cm^3
# Si number density = 25.799230 Si / 1000 Ang^3
#
#
#
# Elastic Constant Matrix: (Units=GPa)
#
#
# Indices 1 2 3 4 5 6 
#
# 1 84.4849 51.3902 66.1202 -7.6646 54.0950 7.4271
# 2 51.3902 174.0374 52.4395 -10.8347 29.3839 19.9792
# 3 66.1202 52.4395 174.1855 -9.4900 61.1139 14.2732
# 4 -7.6646 -10.8347 -9.4900 38.5517 -10.6457 8.7531
# 5 54.0950 29.3839 61.1139 -10.6457 55.1050 7.2201
# 6 7.4271 19.9792 14.2732 8.7531 7.2201 54.0688
#
#
#
# Elastic Compliance Matrix: (Units=1/GPa)
#
#
# Indices 1 2 3 4 5 6 
#
# 1 0.036304 -0.005397 -0.001131 -0.004109 -0.032605 0.002325
# 2 -0.005397 0.007542 -0.000994 0.002255 0.003151 -0.002569
# 3 -0.001131 -0.000994 0.009702 -0.000462 -0.009112 -0.000747
# 4 -0.004109 0.002255 -0.000462 0.029814 0.009929 -0.006299
# 5 -0.032605 0.003151 -0.009112 0.009929 0.061026 -0.004037
# 6 0.002325 -0.002569 -0.000747 -0.006299 -0.004037 0.020881
#
#
# Mechanical properties :
#
#
# Convention : Reuss Voigt Hill
#
# Bulk Modulus (GPa) = 25.97086 85.84529 55.90807
# Shear Modulus (GPa) = 25.88674 47.06231 36.47452
#
# Velocity S-wave (km/s) = 3.17107 4.27567 3.76411
# Velocity P-wave (km/s) = 4.84727 7.59748 6.37251
#
# Compressibility (1/GPa) = 0.03850470
#
# Stress axis : x y z
#
# Youngs Moduli (GPa) = 27.54538 132.58382 103.06658
#
# Poissons Ratio (x) = 0.71555 0.11655
# Poissons Ratio (y) = 0.14866 0.10247
# Poissons Ratio (z) = 0.03115 0.13182
#
# Static dielectric constant tensor:
#      x y z
#    x -0.498610 0.251170 -0.458450 
#    y 0.251170 2.040650 0.075160 
#    z -0.458450 0.075160 1.995940 
# 
# From -- ./inp_files/17179.got.cif
#   From: 2010.05.17/outbox.cif.g08.bks.cpg/sg2_9_cif.got.tgz:17179.got - 2010.06.03 11:33:40.
