data_PCOD9106560
_publ_section_title
;
Structure prediction by ZEFSAII (Michael W. Deem and Ramdas Pophale) SiO2 
 PCOD9106560
Probable space group: P -1
;
_chemical_formula_sum "Si O2"
_cell_formula_units_Z 14
_cell_length_a 8.264080
_cell_length_b 8.827367
_cell_length_c 10.522943
_cell_angle_alpha 60.931104
_cell_angle_beta 125.812958
_cell_angle_gamma 100.154902
_cell_volume 537.745223
_symmetry_space_group_name_H-M "P -1"
_symmetry_group_IT_number 2
_symmetry_cell_setting 'triclinic'
loop_
_space_group_symop_operation_xyz
x,y,z
-x,-y,-z
loop_
_atom_site_type_symbol
_atom_site_label
_atom_site_fract_x
_atom_site_fract_y
_atom_site_fract_z
Si Si1 0.941883 0.534431 0.312617
Si Si2 0.325485 0.743165 0.771833
Si Si3 0.368684 0.347836 0.267654
Si Si4 0.099991 0.104395 0.358322
Si Si5 0.343722 0.291657 0.540263
Si Si6 0.597875 0.262916 0.916353
Si Si7 0.066993 0.061753 0.869401
O O1 0.571353 0.718251 0.276984
O O2 0.904615 0.738878 0.186288
O O3 0.000000 0.500000 0.500000
O O4 0.143683 0.435416 0.378599
O O5 0.685746 0.447540 0.874337
O O6 0.105453 0.843974 0.677895
O O7 0.245410 0.559901 0.774850
O O8 0.452685 0.754002 0.953421
O O9 0.522977 0.246019 0.279903
O O10 0.475165 0.335355 0.462408
O O11 0.173383 0.250443 0.237445
O O12 0.276694 0.106288 0.543185
O O13 0.079333 0.947273 0.317620
O O14 0.747542 0.087477 0.021151
O O15 0.000000 0.000000 0.000000
#
# Coordination Sequence:
#
# PCOD9106560 Si02
#       7
#     2   2   2   2   2   2   2
#     4  11  24  46  75 105 146 207 246 294 381 462
#     4  10  22  41  74 107 142 194 247 304 368 448
#     4  10  20  39  76 104 146 193 253 290 380 447
#     4   8  22  43  72 102 147 195 246 302 369 453
#     4   9  21  44  74 103 142 197 245 295 368 456
#     4  11  22  41  72 109 144 183 246 319 360 434
#     4  11  25  44  72 111 150 192 248 316 377 431
#
# _framework density 26.034635999999999
#
# number of rings (size 3 to 8) (size 9 to 14) (size 15 to 20)
#    0.857    1.143    0.000    2.571    2.000    2.286 
#    0.000   11.429   15.714    0.000    0.000    0.000 
#    0.000    0.000    0.000    0.000    0.000    0.000 
#
# Total GULP energy -78199.580148 kJ/mol
# GULP energy per Si atom -5585.684296 kJ/mol
# Density = 2.597538 g / cm^3
# Si number density = 26.034636 Si / 1000 Ang^3
#
#
#
# Elastic Constant Matrix: (Units=GPa)
#
#
# Indices 1 2 3 4 5 6 
#
# 1 144.9349 78.4712 48.8170 -0.3177 -30.5637 -23.0109
# 2 78.4712 144.5174 41.0478 -1.3833 -5.0960 -25.7951
# 3 48.8170 41.0478 121.1875 18.9149 -13.2128 -27.8561
# 4 -0.3177 -1.3833 18.9149 55.0188 -10.5086 -6.8135
# 5 -30.5637 -5.0960 -13.2128 -10.5086 38.9191 7.9409
# 6 -23.0109 -25.7951 -27.8561 -6.8135 7.9409 43.2416
#
#
#
# Elastic Compliance Matrix: (Units=1/GPa)
#
#
# Indices 1 2 3 4 5 6 
#
# 1 0.012941 -0.005877 -0.002519 0.002599 0.009140 0.000489
# 2 -0.005877 0.010877 -0.000998 0.000219 -0.004189 0.003522
# 3 -0.002519 -0.000998 0.011206 -0.003334 -0.000182 0.004791
# 4 0.002599 0.000219 -0.003334 0.020716 0.006228 0.001486
# 5 0.009140 -0.004189 -0.000182 0.006228 0.034580 -0.003122
# 6 0.000489 0.003522 0.004791 0.001486 -0.003122 0.029381
#
#
# Mechanical properties :
#
#
# Convention : Reuss Voigt Hill
#
# Bulk Modulus (GPa) = 61.59146 83.03465 72.31306
# Shear Modulus (GPa) = 34.74610 43.58950 39.16780
#
# Velocity S-wave (km/s) = 3.65720 4.09625 3.88293
# Velocity P-wave (km/s) = 6.44533 7.37126 6.92379
#
# Compressibility (1/GPa) = 0.01623602
#
# Stress axis : x y z
#
# Youngs Moduli (GPa) = 77.27632 91.93646 89.23547
#
# Poissons Ratio (x) = 0.54028 0.22479
# Poissons Ratio (y) = 0.45412 0.08908
# Poissons Ratio (z) = 0.19466 0.09178
#
# Static dielectric constant tensor:
#      x y z
#    x 2.062400 0.042860 -0.001280 
#    y 0.042860 2.120800 -0.093510 
#    z -0.001280 -0.093510 2.185510 
# 
# From -- ./inp_files/374623.got.cif
#   From: 2010.05.17/outbox.cif.g08.bks.cpg/sg2_188_cif.got.tgz:374623.got - 2010.06.03 11:33:40.
