data_PCOD9106006
_publ_section_title
;
Structure prediction by ZEFSAII (Michael W. Deem and Ramdas Pophale) SiO2 
 PCOD9106006
Probable space group: P -1
;
_chemical_formula_sum "Si O2"
_cell_formula_units_Z 12
_cell_length_a 7.271177
_cell_length_b 16.709244
_cell_length_c 8.530116
_cell_angle_alpha 123.390635
_cell_angle_beta 95.894191
_cell_angle_gamma 42.584170
_cell_volume 494.519454
_symmetry_space_group_name_H-M "P -1"
_symmetry_group_IT_number 2
_symmetry_cell_setting 'triclinic'
loop_
_space_group_symop_operation_xyz
x,y,z
-x,-y,-z
loop_
_atom_site_type_symbol
_atom_site_label
_atom_site_fract_x
_atom_site_fract_y
_atom_site_fract_z
Si Si1 0.197277 0.074486 0.873059
Si Si2 0.900684 0.827929 0.707409
Si Si3 0.600883 0.177733 0.557441
Si Si4 0.946463 0.492544 0.310609
Si Si5 0.461054 0.147460 0.839745
Si Si6 0.397631 0.608454 0.254698
O O1 0.235093 0.147448 0.834683
O O2 0.572263 0.906885 0.785464
O O3 0.152238 0.989836 0.704120
O O4 0.982964 0.196049 0.133492
O O5 0.133058 0.687705 0.443628
O O6 0.764038 0.985012 0.792503
O O7 0.251368 0.344003 0.626257
O O8 0.541700 0.139625 0.662985
O O9 0.706732 0.242697 0.662270
O O10 0.702245 0.507072 0.281058
O O11 0.000000 0.500000 0.500000
O O12 0.277011 0.316374 0.076081
O O13 0.500000 0.500000 0.000000
#
# Coordination Sequence:
#
# PCOD9106006 Si02
#       6
#     2   2   2   2   2   2
#     4   9  20  38  69  95 133 177 226 266 343 398
#     4   9  21  40  67  96 139 170 222 279 339 396
#     4  10  22  38  69  96 133 177 224 276 333 405
#     4  10  23  41  65  96 134 182 227 264 335 405
#     4  10  20  39  67 100 127 176 228 277 325 410
#     4  10  25  42  66 101 143 172 220 286 343 388
#
# _framework density 24.265982000000001
#
# number of rings (size 3 to 8) (size 9 to 14) (size 15 to 20)
#    2.000    0.333    0.000    2.000    2.333    1.333 
#    0.000    0.833    0.000    0.000    0.000    0.000 
#    0.000    0.167    0.000    0.000    0.000    0.000 
#
# Total GULP energy -66884.375584 kJ/mol
# GULP energy per Si atom -5573.697965 kJ/mol
# Density = 2.421075 g / cm^3
# Si number density = 24.265982 Si / 1000 Ang^3
#
#
#
# Elastic Constant Matrix: (Units=GPa)
#
#
# Indices 1 2 3 4 5 6 
#
# 1 82.6181 26.4188 52.9224 -16.9435 18.0129 14.8190
# 2 26.4188 94.3934 38.7270 -14.8376 8.4227 11.2269
# 3 52.9224 38.7270 189.5485 -14.8769 16.6646 6.8069
# 4 -16.9435 -14.8376 -14.8769 31.8712 5.9208 -2.5363
# 5 18.0129 8.4227 16.6646 5.9208 37.3668 3.9926
# 6 14.8190 11.2269 6.8069 -2.5363 3.9926 36.7402
#
#
#
# Elastic Compliance Matrix: (Units=1/GPa)
#
#
# Indices 1 2 3 4 5 6 
#
# 1 0.019422 -0.001148 -0.003527 0.009293 -0.008440 -0.005271
# 2 -0.001148 0.012838 -0.001651 0.004776 -0.002083 -0.002598
# 3 -0.003527 -0.001651 0.006729 0.000777 -0.001143 0.000859
# 4 0.009293 0.004776 0.000777 0.041092 -0.012288 -0.001180
# 5 -0.008440 -0.002083 -0.001143 -0.012288 0.033785 -0.000267
# 6 -0.005271 -0.002598 0.000859 -0.001180 -0.000267 0.029927
#
#
# Mechanical properties :
#
#
# Convention : Reuss Voigt Hill
#
# Bulk Modulus (GPa) = 37.97151 66.96627 52.46889
# Shear Modulus (GPa) = 30.26200 37.76175 34.01188
#
# Velocity S-wave (km/s) = 3.53526 3.94910 3.74789
# Velocity P-wave (km/s) = 5.68736 6.96064 6.35596
#
# Compressibility (1/GPa) = 0.02633554
#
# Stress axis : x y z
#
# Youngs Moduli (GPa) = 51.48871 77.89178 148.61896
#
# Poissons Ratio (x) = 0.08941 0.52425
# Poissons Ratio (y) = 0.05910 0.24540
# Poissons Ratio (z) = 0.18162 0.12862
#
# Static dielectric constant tensor:
#      x y z
#    x 2.051270 -0.101800 0.019040 
#    y -0.101800 1.994230 -0.008220 
#    z 0.019040 -0.008220 1.965250 
# 
# From -- ./inp_files/218226.got.cif
#   From: 2010.05.17/outbox.cif.g08.bks.cpg/sg2_110_cif.got.tgz:218226.got - 2010.06.03 11:33:40.
