data_PCOD9106639
_publ_section_title
;
Structure prediction by ZEFSAII (Michael W. Deem and Ramdas Pophale) SiO2 
 PCOD9106639
Probable space group: P -1
;
_chemical_formula_sum "Si O2"
_cell_formula_units_Z 16
_cell_length_a 7.675926
_cell_length_b 8.442515
_cell_length_c 9.955017
_cell_angle_alpha 78.647420
_cell_angle_beta 65.874710
_cell_angle_gamma 90.272609
_cell_volume 574.633382
_symmetry_space_group_name_H-M "P -1"
_symmetry_group_IT_number 2
_symmetry_cell_setting 'triclinic'
loop_
_space_group_symop_operation_xyz
x,y,z
-x,-y,-z
loop_
_atom_site_type_symbol
_atom_site_label
_atom_site_fract_x
_atom_site_fract_y
_atom_site_fract_z
Si Si1 0.736362 0.525716 0.614889
Si Si2 0.740718 0.904278 0.167727
Si Si3 0.246655 0.146656 0.333043
Si Si4 0.112521 0.527692 0.135256
Si Si5 0.617986 0.618369 0.121003
Si Si6 0.098355 0.797819 0.770959
Si Si7 0.617323 0.182815 0.019557
Si Si8 0.656534 0.193568 0.543975
O O1 0.776218 0.721995 0.561367
O O2 0.869787 0.483290 0.706798
O O3 0.510443 0.506257 0.728470
O O4 0.737657 0.374606 0.537116
O O5 0.882938 0.041502 0.169016
O O6 0.672854 0.001629 0.042137
O O7 0.782015 0.728634 0.129812
O O8 0.561572 0.849477 0.332281
O O9 0.450466 0.185711 0.183928
O O10 0.077743 0.173984 0.277478
O O11 0.238468 0.958035 0.405862
O O12 0.943097 0.397999 0.157209
O O13 0.296697 0.451031 0.026120
O O14 0.180036 0.710664 0.040639
O O15 0.460941 0.736910 0.101269
O O16 0.299711 0.813136 0.625554
#
# Coordination Sequence:
#
# PCOD9106639 Si02
#       8
#     2   2   2   2   2   2   2   2
#     4   9  17  34  61  88 105 142 190 240 273 316
#     4  10  23  34  59  80 115 151 184 229 283 332
#     4  10  19  36  64  84 109 145 192 238 275 324
#     4  10  19  33  61  80 115 141 182 235 286 326
#     4  10  16  34  59  85 105 147 187 228 277 334
#     4  11  22  38  53  83 120 149 177 234 289 328
#     4  10  17  36  58  85 106 142 195 229 272 343
#     4  10  22  38  62  81 109 153 199 224 272 335
#
# _framework density 27.843843
#
# number of rings (size 3 to 8) (size 9 to 14) (size 15 to 20)
#    0.000    2.000    3.750    1.875    0.000    4.000 
#    0.000    0.000    8.250    3.000    0.000    0.000 
#    0.000    0.000    0.000    0.000    0.000    0.000 
#
# Total GULP energy -89296.391122 kJ/mol
# GULP energy per Si atom -5581.024445 kJ/mol
# Density = 2.778047 g / cm^3
# Si number density = 27.843843 Si / 1000 Ang^3
#
#
#
# Elastic Constant Matrix: (Units=GPa)
#
#
# Indices 1 2 3 4 5 6 
#
# 1 76.1682 26.6445 14.3129 -10.1390 -8.4683 17.7283
# 2 26.6445 207.6199 9.7163 10.5599 5.6754 19.7765
# 3 14.3129 9.7163 42.9961 -11.4175 -20.5462 1.5503
# 4 -10.1390 10.5599 -11.4175 42.8953 13.9365 1.8718
# 5 -8.4683 5.6754 -20.5462 13.9365 25.7802 2.6900
# 6 17.7283 19.7765 1.5503 1.8718 2.6900 41.4913
#
#
#
# Elastic Compliance Matrix: (Units=1/GPa)
#
#
# Indices 1 2 3 4 5 6 
#
# 1 0.016394 -0.001574 -0.002888 0.002962 0.002501 -0.006442
# 2 -0.001574 0.005417 -0.002245 -0.001396 -0.002578 -0.001595
# 3 -0.002888 -0.002245 0.039759 0.000385 0.031152 -0.001219
# 4 0.002962 -0.001396 0.000385 0.029057 -0.014014 -0.001017
# 5 0.002501 -0.002578 0.031152 -0.014014 0.073115 -0.005112
# 6 -0.006442 -0.001595 -0.001219 -0.001017 -0.005112 0.028037
#
#
# Mechanical properties :
#
#
# Convention : Reuss Voigt Hill
#
# Bulk Modulus (GPa) = 20.76571 47.57018 34.16794
# Shear Modulus (GPa) = 22.59942 40.44073 31.52008
#
# Velocity S-wave (km/s) = 2.85204 3.81519 3.36822
# Velocity P-wave (km/s) = 4.28014 6.04394 5.23683
#
# Compressibility (1/GPa) = 0.04815631
#
# Stress axis : x y z
#
# Youngs Moduli (GPa) = 60.99804 184.60353 25.15160
#
# Poissons Ratio (x) = 0.29059 0.07263
# Poissons Ratio (y) = 0.09602 0.05647
# Poissons Ratio (z) = 0.17613 0.41446
#
# Static dielectric constant tensor:
#      x y z
#    x 2.235700 0.044470 0.035890 
#    y 0.044470 2.236950 -0.010480 
#    z 0.035890 -0.010480 2.169430 
# 
# From -- ./inp_files/242920.got.cif
#   From: 2010.05.17/outbox.cif.g08.bks.cpg/sg2_122_cif.got.tgz:242920.got - 2010.06.03 11:33:40.
