data_PCOD9106795
_publ_section_title
;
Structure prediction by ZEFSAII (Michael W. Deem and Ramdas Pophale) SiO2 
 PCOD9106795
Probable space group: P -1
;
_chemical_formula_sum "Si O2"
_cell_formula_units_Z 14
_cell_length_a 9.039055
_cell_length_b 7.688019
_cell_length_c 12.564005
_cell_angle_alpha 115.372649
_cell_angle_beta 71.881467
_cell_angle_gamma 129.554866
_cell_volume 607.330609
_symmetry_space_group_name_H-M "P -1"
_symmetry_group_IT_number 2
_symmetry_cell_setting 'triclinic'
loop_
_space_group_symop_operation_xyz
x,y,z
-x,-y,-z
loop_
_atom_site_type_symbol
_atom_site_label
_atom_site_fract_x
_atom_site_fract_y
_atom_site_fract_z
Si Si1 0.572705 0.223455 0.617076
Si Si2 0.762323 0.041760 0.243541
Si Si3 0.885787 0.268857 0.713479
Si Si4 0.088405 0.998821 0.162900
Si Si5 0.158862 0.514371 0.543187
Si Si6 0.131729 0.468004 0.034630
Si Si7 0.435293 0.246775 0.994410
O O1 0.394738 0.186458 0.708743
O O2 0.702456 0.204339 0.669519
O O3 0.687661 0.445124 0.567671
O O4 0.500000 0.000000 0.500000
O O5 0.682864 0.959029 0.120705
O O6 0.970320 0.105880 0.240649
O O7 0.752853 0.252954 0.341898
O O8 0.878094 0.107683 0.767830
O O9 0.923489 0.499894 0.827316
O O10 0.041930 0.309672 0.602953
O O11 0.937794 0.790986 0.056556
O O12 0.291791 0.171868 0.104812
O O13 0.000000 0.500000 0.500000
O O14 0.352176 0.683480 0.016339
O O15 0.000000 0.500000 0.000000
O O16 0.500000 0.500000 0.000000
#
# Coordination Sequence:
#
# PCOD9106795 Si02
#       7
#     2   2   2   2   2   2   2
#     4   9  19  38  59  89 111 157 215 257 301 369
#     4  11  21  39  65  90 128 167 211 259 313 371
#     4  10  20  40  61  87 126 165 202 261 317 360
#     4  11  25  40  59  98 134 162 209 255 313 382
#     4   9  20  38  66  88 117 161 219 263 309 372
#     4  10  22  40  61  93 133 162 209 249 313 378
#     4  12  24  39  61  94 134 168 207 252 309 381
#
# _framework density 23.051691999999999
#
# number of rings (size 3 to 8) (size 9 to 14) (size 15 to 20)
#    0.000    1.714    2.857    1.286    2.000    2.286 
#   10.286    7.143    0.000    0.000    0.000    0.000 
#    0.000    0.000    0.000    0.000    0.000    0.000 
#
# Total GULP energy -78058.358091 kJ/mol
# GULP energy per Si atom -5575.597007 kJ/mol
# Density = 2.299922 g / cm^3
# Si number density = 23.051692 Si / 1000 Ang^3
#
#
#
# Elastic Constant Matrix: (Units=GPa)
#
#
# Indices 1 2 3 4 5 6 
#
# 1 103.4832 36.5344 36.4477 -21.6778 9.7347 22.0991
# 2 36.5344 94.6528 41.0599 -44.3912 10.6747 17.1020
# 3 36.4477 41.0599 102.1098 -28.6534 25.6909 11.6066
# 4 -21.6778 -44.3912 -28.6534 70.6435 18.8797 -9.3878
# 5 9.7347 10.6747 25.6909 18.8797 36.9062 -5.1635
# 6 22.0991 17.1020 11.6066 -9.3878 -5.1635 33.3991
#
#
#
# Elastic Compliance Matrix: (Units=1/GPa)
#
#
# Indices 1 2 3 4 5 6 
#
# 1 0.013275 -0.001167 -0.001283 0.003126 -0.004936 -0.007625
# 2 -0.001167 0.022325 0.002191 0.018231 -0.018277 -0.009122
# 3 -0.001283 0.002191 0.019520 0.013885 -0.021901 -0.006539
# 4 0.003126 0.018231 0.013885 0.041009 -0.038226 -0.010612
# 5 -0.004936 -0.018277 -0.021901 -0.038226 0.071356 0.020523
# 6 -0.007625 -0.009122 -0.006539 -0.010612 0.020523 0.042119
#
#
# Mechanical properties :
#
#
# Convention : Reuss Voigt Hill
#
# Bulk Modulus (GPa) = 18.31463 58.70331 38.50897
# Shear Modulus (GPa) = 21.89876 40.60334 31.25105
#
# Velocity S-wave (km/s) = 3.08553 4.20146 3.68597
# Velocity P-wave (km/s) = 4.54491 7.00411 5.90397
#
# Compressibility (1/GPa) = 0.05460115
#
# Stress axis : x y z
#
# Youngs Moduli (GPa) = 75.33078 44.79345 51.22826
#
# Poissons Ratio (x) = 0.05226 0.06574
# Poissons Ratio (y) = 0.08790 -0.11223
# Poissons Ratio (z) = 0.09668 -0.09813
#
# Static dielectric constant tensor:
#      x y z
#    x 1.897120 0.005830 -0.057210 
#    y 0.005830 2.042610 -0.010020 
#    z -0.057210 -0.010020 1.910550 
# 
# From -- ./inp_files/379947.got.cif
#   From: 2010.05.17/outbox.cif.g08.bks.cpg/sg2_190_cif.got.tgz:379947.got - 2010.06.03 11:33:40.
