data_PCOD9106618
_publ_section_title
;
Structure prediction by ZEFSAII (Michael W. Deem and Ramdas Pophale) SiO2 
 PCOD9106618
Probable space group: P -1
;
_chemical_formula_sum "Si O2"
_cell_formula_units_Z 16
_cell_length_a 12.101691
_cell_length_b 12.432059
_cell_length_c 6.395140
_cell_angle_alpha 127.980646
_cell_angle_beta 99.172622
_cell_angle_gamma 83.777798
_cell_volume 748.615178
_symmetry_space_group_name_H-M "P -1"
_symmetry_group_IT_number 2
_symmetry_cell_setting 'triclinic'
loop_
_space_group_symop_operation_xyz
x,y,z
-x,-y,-z
loop_
_atom_site_type_symbol
_atom_site_label
_atom_site_fract_x
_atom_site_fract_y
_atom_site_fract_z
Si Si1 0.874525 0.080865 0.166467
Si Si2 0.546591 0.861986 0.746163
Si Si3 0.269328 0.245462 0.014229
Si Si4 0.020054 0.526906 0.776669
Si Si5 0.797688 0.497087 0.931753
Si Si6 0.725879 0.971644 0.612594
Si Si7 0.034810 0.196235 0.045996
Si Si8 0.688797 0.211282 0.571608
O O1 0.774301 0.143489 0.347113
O O2 0.943953 0.966006 0.179772
O O3 0.959909 0.189464 0.224478
O O4 0.817898 0.005874 0.858459
O O5 0.623424 0.904732 0.625795
O O6 0.437203 0.783851 0.546193
O O7 0.623219 0.790010 0.858145
O O8 0.500000 0.000000 0.000000
O O9 0.245601 0.132235 0.692305
O O10 0.161838 0.247829 0.137427
O O11 0.273961 0.388418 0.067660
O O12 0.911547 0.473749 0.802067
O O13 0.000000 0.500000 0.500000
O O14 0.024638 0.694325 0.996426
O O15 0.137488 0.456499 0.786527
O O16 0.731218 0.362720 0.798518
O O17 0.694102 0.114108 0.659808
#
# Coordination Sequence:
#
# PCOD9106618 Si02
#       8
#     2   2   2   2   2   2   2   2
#     4  11  22  37  63  99 129 165 215 271 326 369
#     4  12  23  44  68  95 126 172 220 271 326 373
#     4  11  24  43  64  96 131 172 218 260 323 390
#     4  10  21  41  64  87 133 180 210 252 323 391
#     4  10  25  42  62  97 131 170 215 261 321 388
#     4  12  22  40  68  94 124 173 213 271 329 379
#     4  10  20  40  58  96 132 164 210 264 321 381
#     4  12  24  43  66  98 132 165 225 270 317 386
#
# _framework density 21.372796999999998
#
# number of rings (size 3 to 8) (size 9 to 14) (size 15 to 20)
#    0.000    1.000    5.000    1.875    1.750    1.000 
#    6.750    0.625    0.000    0.000    0.000    0.000 
#    0.000    0.000    0.000    0.000    0.000    0.000 
#
# Total GULP energy -89297.032506 kJ/mol
# GULP energy per Si atom -5581.064532 kJ/mol
# Density = 2.132415 g / cm^3
# Si number density = 21.372797 Si / 1000 Ang^3
#
#
#
# Elastic Constant Matrix: (Units=GPa)
#
#
# Indices 1 2 3 4 5 6 
#
# 1 107.0566 41.6934 29.0997 -12.7306 4.6586 -3.9238
# 2 41.6934 149.3391 29.5316 -8.0991 11.4407 -17.0849
# 3 29.0997 29.5316 69.7467 -12.3367 4.2884 8.1884
# 4 -12.7306 -8.0991 -12.3367 26.8366 0.5670 4.2810
# 5 4.6586 11.4407 4.2884 0.5670 23.9967 -4.3700
# 6 -3.9238 -17.0849 8.1884 4.2810 -4.3700 32.6015
#
#
#
# Elastic Compliance Matrix: (Units=1/GPa)
#
#
# Indices 1 2 3 4 5 6 
#
# 1 0.011559 -0.002297 -0.003314 0.003193 -0.000536 0.000529
# 2 -0.002297 0.008676 -0.003281 -0.000714 -0.002196 0.004893
# 3 -0.003314 -0.003281 0.019696 0.007914 -0.003050 -0.008513
# 4 0.003193 -0.000714 0.007914 0.043609 -0.004231 -0.008271
# 5 -0.000536 -0.002196 -0.003050 -0.004231 0.044576 0.006081
# 6 0.000529 0.004893 -0.008513 -0.008271 0.006081 0.037341
#
#
# Mechanical properties :
#
#
# Convention : Reuss Voigt Hill
#
# Bulk Modulus (GPa) = 45.15328 58.53242 51.84285
# Shear Modulus (GPa) = 26.22986 31.74147 28.98567
#
# Velocity S-wave (km/s) = 3.50702 3.85792 3.68665
# Velocity P-wave (km/s) = 6.12954 6.87682 6.51391
#
# Compressibility (1/GPa) = 0.02214678
#
# Stress axis : x y z
#
# Youngs Moduli (GPa) = 86.51496 115.26671 50.77077
#
# Poissons Ratio (x) = 0.26476 0.16827
# Poissons Ratio (y) = 0.19872 0.16656
# Poissons Ratio (z) = 0.28673 0.37816
#
# Static dielectric constant tensor:
#      x y z
#    x 1.774110 -0.026490 -0.008170 
#    y -0.026490 1.863870 -0.017600 
#    z -0.008170 -0.017600 1.830420 
# 
# From -- ./inp_files/72400.got.cif
#   From: 2010.05.17/outbox.cif.g08.bks.cpg/sg2_37_cif.got.tgz:72400.got - 2010.06.03 11:33:40.
