data_PCOD9106745
_publ_section_title
;
Structure prediction by ZEFSAII (Michael W. Deem and Ramdas Pophale) SiO2 
 PCOD9106745
Probable space group: P -1
;
_chemical_formula_sum "Si O2"
_cell_formula_units_Z 16
_cell_length_a 11.885711
_cell_length_b 18.113365
_cell_length_c 9.471095
_cell_angle_alpha 152.550263
_cell_angle_beta 110.601693
_cell_angle_gamma 59.391205
_cell_volume 782.859460
_symmetry_space_group_name_H-M "P -1"
_symmetry_group_IT_number 2
_symmetry_cell_setting 'triclinic'
loop_
_space_group_symop_operation_xyz
x,y,z
-x,-y,-z
loop_
_atom_site_type_symbol
_atom_site_label
_atom_site_fract_x
_atom_site_fract_y
_atom_site_fract_z
Si Si1 0.546821 0.073508 0.279440
Si Si2 0.622461 0.366309 0.732739
Si Si3 0.740318 0.609288 0.236639
Si Si4 0.058383 0.787929 0.676865
Si Si5 0.106384 0.291464 0.772433
Si Si6 0.034631 0.434706 0.563654
Si Si7 0.375009 0.518819 0.380480
Si Si8 0.369536 0.136143 0.758713
O O1 0.636671 0.169561 0.430325
O O2 0.411280 0.230245 0.558045
O O3 0.617224 0.923592 0.174602
O O4 0.500000 0.000000 0.000000
O O5 0.583338 0.440808 0.685140
O O6 0.500000 0.500000 0.000000
O O7 0.742006 0.416009 0.907105
O O8 0.823373 0.630126 0.176845
O O9 0.809384 0.627227 0.440189
O O10 0.997490 0.726154 0.676935
O O11 0.220076 0.679979 0.591563
O O12 0.997084 0.742698 0.429922
O O13 0.000000 0.000000 0.000000
O O14 0.239510 0.128251 0.618629
O O15 0.042132 0.414323 0.091420
O O16 0.000000 0.500000 0.500000
O O17 0.500000 0.500000 0.500000
O O18 0.361074 0.334712 0.078162
O O19 0.500000 0.000000 0.500000
#
# Coordination Sequence:
#
# PCOD9106745 Si02
#       8
#     2   2   2   2   2   2   2   2
#     4  11  24  37  60 100 137 166 211 282 339 388
#     4  10  20  40  60  93 129 172 209 268 340 391
#     4  10  20  42  66  86 129 184 217 260 339 406
#     4  11  26  48  69  98 137 187 226 271 345 414
#     4  11  22  45  72  89 136 182 227 272 336 412
#     4  11  24  42  71  98 126 174 230 284 334 402
#     4  12  25  42  70  99 134 171 227 280 328 401
#     4  12  23  41  68 101 128 177 232 272 335 406
#
# _framework density 20.437895999999999
#
# number of rings (size 3 to 8) (size 9 to 14) (size 15 to 20)
#    0.000    1.000    3.750    3.750    3.500    4.000 
#    2.250    0.625    0.000    0.000    0.000    0.000 
#    0.000    0.000    0.000    0.000    0.000    0.000 
#
# Total GULP energy -89199.320326 kJ/mol
# GULP energy per Si atom -5574.957520 kJ/mol
# Density = 2.039138 g / cm^3
# Si number density = 20.437896 Si / 1000 Ang^3
#
#
#
# Elastic Constant Matrix: (Units=GPa)
#
#
# Indices 1 2 3 4 5 6 
#
# 1 102.4371 60.0600 47.8484 2.8550 13.2198 -11.3252
# 2 60.0600 199.9951 54.1111 4.7807 16.0025 2.0505
# 3 47.8484 54.1111 106.9935 17.9405 13.3411 5.9589
# 4 2.8550 4.7807 17.9405 29.7787 -4.5617 0.1281
# 5 13.2198 16.0025 13.3411 -4.5617 28.0155 5.1099
# 6 -11.3252 2.0505 5.9589 0.1281 5.1099 48.3499
#
#
#
# Elastic Compliance Matrix: (Units=1/GPa)
#
#
# Indices 1 2 3 4 5 6 
#
# 1 0.014795 -0.002823 -0.005303 0.001688 -0.003407 0.004594
# 2 -0.002823 0.006452 -0.001820 0.000125 -0.001363 -0.000567
# 3 -0.005303 -0.001820 0.014813 -0.008801 -0.004490 -0.002493
# 4 0.001688 0.000125 -0.008801 0.040202 0.009809 0.000332
# 5 -0.003407 -0.001363 -0.004490 0.009809 0.042677 -0.004723
# 6 0.004594 -0.000567 -0.002493 0.000332 -0.004723 0.022588
#
#
# Mechanical properties :
#
#
# Convention : Reuss Voigt Hill
#
# Bulk Modulus (GPa) = 61.85112 81.49609 71.67360
# Shear Modulus (GPa) = 29.97443 37.72255 33.84849
#
# Velocity S-wave (km/s) = 3.83379 4.30084 4.07401
# Velocity P-wave (km/s) = 7.06583 8.03894 7.56804
#
# Compressibility (1/GPa) = 0.01616786
#
# Stress axis : x y z
#
# Youngs Moduli (GPa) = 67.59164 154.98460 67.50972
#
# Poissons Ratio (x) = 0.43754 0.35798
# Poissons Ratio (y) = 0.19082 0.12287
# Poissons Ratio (z) = 0.35842 0.28209
#
# Static dielectric constant tensor:
#      x y z
#    x 1.821760 -0.032380 -0.006600 
#    y -0.032380 1.740830 -0.010510 
#    z -0.006600 -0.010510 1.793680 
# 
# From -- ./inp_files/274891.got.cif
#   From: 2010.05.17/outbox.cif.g08.bks.cpg/sg2_138_cif.got.tgz:274891.got - 2010.06.03 11:33:40.
