data_PCOD9106038
_publ_section_title
;
Structure prediction by ZEFSAII (Michael W. Deem and Ramdas Pophale) SiO2 
 PCOD9106038
Probable space group: P -1
;
_chemical_formula_sum "Si O2"
_cell_formula_units_Z 16
_cell_length_a 17.354363
_cell_length_b 13.453806
_cell_length_c 9.907610
_cell_angle_alpha 118.666863
_cell_angle_beta 135.899409
_cell_angle_gamma 34.224223
_cell_volume 866.132333
_symmetry_space_group_name_H-M "P -1"
_symmetry_group_IT_number 2
_symmetry_cell_setting 'triclinic'
loop_
_space_group_symop_operation_xyz
x,y,z
-x,-y,-z
loop_
_atom_site_type_symbol
_atom_site_label
_atom_site_fract_x
_atom_site_fract_y
_atom_site_fract_z
Si Si1 0.899907 0.165006 0.582599
Si Si2 0.776393 0.820549 0.152404
Si Si3 0.189143 0.541324 0.512482
Si Si4 0.505284 0.845483 0.773689
Si Si5 0.749906 0.015590 0.002487
Si Si6 0.508304 0.121739 0.538168
Si Si7 0.555147 0.563362 0.022307
Si Si8 0.473461 0.615116 0.654426
O O1 0.823198 0.336585 0.518019
O O2 0.739628 0.222188 0.479856
O O3 0.000000 0.000000 0.500000
O O4 0.052921 0.088695 0.824796
O O5 0.987794 0.654287 0.345733
O O6 0.655110 0.982194 0.217562
O O7 0.683940 0.773035 0.988315
O O8 0.758561 0.901654 0.040433
O O9 0.327244 0.338785 0.489872
O O10 0.274063 0.514743 0.743539
O O11 0.462444 0.900972 0.599419
O O12 0.530254 0.692492 0.727215
O O13 0.667465 0.051348 0.778226
O O14 0.610344 0.214883 0.027432
O O15 0.500000 0.000000 0.500000
O O16 0.500000 0.500000 0.000000
O O17 0.571791 0.515214 0.856273
O O18 0.500000 0.500000 0.500000
#
# Coordination Sequence:
#
# PCOD9106038 Si02
#       8
#     2   2   2   2   2   2   2   2
#     4  11  19  40  66  91 118 165 214 249 296 380
#     4  10  21  42  67  91 119 166 211 252 314 372
#     4  10  22  38  68  95 118 162 219 254 299 379
#     4  11  23  41  64  89 130 165 200 261 322 366
#     4  10  20  39  67  86 118 163 214 250 299 372
#     4  11  23  42  62  93 125 159 206 261 314 362
#     4  11  20  38  63  91 121 164 208 251 303 371
#     4  12  24  39  58  94 131 162 197 258 321 365
#
# _framework density 18.472926999999999
#
# number of rings (size 3 to 8) (size 9 to 14) (size 15 to 20)
#    0.000    1.250    5.000    1.500    1.750    0.500 
#    4.500    1.875    0.000    0.000    0.000    0.000 
#    0.000    0.000    0.000    0.000    0.000    0.000 
#
# Total GULP energy -89337.870570 kJ/mol
# GULP energy per Si atom -5583.616911 kJ/mol
# Density = 1.843088 g / cm^3
# Si number density = 18.472927 Si / 1000 Ang^3
#
#
#
# Elastic Constant Matrix: (Units=GPa)
#
#
# Indices 1 2 3 4 5 6 
#
# 1 85.0147 19.8336 46.5843 4.8608 2.7068 18.3173
# 2 19.8336 75.1135 33.3435 6.9066 5.0075 22.9019
# 3 46.5843 33.3435 152.3553 0.6115 3.9588 -0.1898
# 4 4.8608 6.9066 0.6115 35.5903 -6.8769 3.7686
# 5 2.7068 5.0075 3.9588 -6.8769 41.5994 4.4260
# 6 18.3173 22.9019 -0.1898 3.7686 4.4260 28.9783
#
#
#
# Elastic Compliance Matrix: (Units=1/GPa)
#
#
# Indices 1 2 3 4 5 6 
#
# 1 0.017118 0.001784 -0.005642 -0.001243 0.000296 -0.012151
# 2 0.001784 0.020516 -0.005028 -0.002483 -0.000715 -0.016942
# 3 -0.005642 -0.005028 0.009412 0.000658 -0.000624 0.007612
# 4 -0.001243 -0.002483 0.000658 0.030009 0.005490 -0.001989
# 5 0.000296 -0.000715 -0.000624 0.005490 0.025523 -0.004238
# 6 -0.012151 -0.016942 0.007612 -0.001989 -0.004238 0.056534
#
#
# Mechanical properties :
#
#
# Convention : Reuss Voigt Hill
#
# Bulk Modulus (GPa) = 34.16079 56.88958 45.52518
# Shear Modulus (GPa) = 26.78911 35.41508 31.10209
#
# Velocity S-wave (km/s) = 3.81226 4.38326 4.10769
# Velocity P-wave (km/s) = 6.15713 7.51534 6.86988
#
# Compressibility (1/GPa) = 0.02927333
#
# Stress axis : x y z
#
# Youngs Moduli (GPa) = 58.41870 48.74317 106.24477
#
# Poissons Ratio (x) = -0.08696 0.59946
# Poissons Ratio (y) = -0.10422 0.53419
# Poissons Ratio (z) = 0.32961 0.24508
#
# Static dielectric constant tensor:
#      x y z
#    x 1.601530 0.018230 0.004520 
#    y 0.018230 1.614870 0.004500 
#    z 0.004520 0.004500 1.650050 
# 
# From -- ./inp_files/178850.got.cif
#   From: 2010.05.17/outbox.cif.g08.bks.cpg/sg2_90_cif.got.tgz:178850.got - 2010.06.03 11:33:40.
