data_PCOD9106622
_publ_section_title
;
Structure prediction by ZEFSAII (Michael W. Deem and Ramdas Pophale) SiO2 
 PCOD9106622
Probable space group: P -1
;
_chemical_formula_sum "Si O2"
_cell_formula_units_Z 10
_cell_length_a 7.806592
_cell_length_b 17.793016
_cell_length_c 11.725063
_cell_angle_alpha 30.367499
_cell_angle_beta 142.013610
_cell_angle_gamma 151.104154
_cell_volume 394.262124
_symmetry_space_group_name_H-M "P -1"
_symmetry_group_IT_number 2
_symmetry_cell_setting 'triclinic'
loop_
_space_group_symop_operation_xyz
x,y,z
-x,-y,-z
loop_
_atom_site_type_symbol
_atom_site_label
_atom_site_fract_x
_atom_site_fract_y
_atom_site_fract_z
Si Si1 0.489295 0.056326 0.259553
Si Si2 0.221205 0.684906 0.728466
Si Si3 0.746746 0.950418 0.098561
Si Si4 0.777079 0.473851 0.574610
Si Si5 0.215886 0.361260 0.862601
O O1 0.786428 0.241953 0.246711
O O2 0.455330 0.876579 0.521608
O O3 0.490789 0.076900 0.098441
O O4 0.118722 0.007843 0.170144
O O5 0.851880 0.544867 0.650690
O O6 0.429859 0.600692 0.960027
O O7 0.551192 0.748073 0.320443
O O8 0.887039 0.136211 0.002058
O O9 0.767943 0.603745 0.310455
O O10 0.119352 0.485872 0.704073
#
# Coordination Sequence:
#
# PCOD9106622 Si02
#       5
#     2   2   2   2   2
#     4   9  20  39  60  82 121 149 185 238 288 332
#     4  10  20  40  59  83 118 151 185 242 282 331
#     4  10  20  40  61  84 115 154 186 236 287 335
#     4  11  22  38  63  84 113 154 194 229 284 340
#     4  10  22  41  58  85 118 149 189 240 280 335
#
# _framework density 25.363835999999999
#
# number of rings (size 3 to 8) (size 9 to 14) (size 15 to 20)
#    0.000    2.000    2.000    1.200    0.000    1.600 
#   10.800    1.000    0.000    0.000    0.000    0.000 
#    0.000    0.000    0.000    0.000    0.000    0.000 
#
# Total GULP energy -56003.422314 kJ/mol
# GULP energy per Si atom -5600.342231 kJ/mol
# Density = 2.530611 g / cm^3
# Si number density = 25.363836 Si / 1000 Ang^3
#
#
#
# Elastic Constant Matrix: (Units=GPa)
#
#
# Indices 1 2 3 4 5 6 
#
# 1 53.6658 10.9897 21.6763 4.4039 -1.2461 -6.2146
# 2 10.9897 120.1354 33.7555 16.3267 -12.9466 -5.4986
# 3 21.6763 33.7555 142.4425 19.2371 7.9452 6.0760
# 4 4.4039 16.3267 19.2371 48.0109 0.7324 -8.3237
# 5 -1.2461 -12.9466 7.9452 0.7324 29.2335 -2.5989
# 6 -6.2146 -5.4986 6.0760 -8.3237 -2.5989 22.0650
#
#
#
# Elastic Compliance Matrix: (Units=1/GPa)
#
#
# Indices 1 2 3 4 5 6 
#
# 1 0.021049 -0.000425 -0.003680 0.000948 0.002349 0.007470
# 2 -0.000425 0.010045 -0.002481 -0.001951 0.005418 0.002969
# 3 -0.003680 -0.002481 0.009120 -0.003442 -0.004178 -0.005957
# 4 0.000948 -0.001951 -0.003442 0.024516 0.000389 0.010023
# 5 0.002349 0.005418 -0.004178 0.000389 0.038530 0.007847
# 6 0.007470 0.002969 -0.005957 0.010023 0.007847 0.054510
#
#
# Mechanical properties :
#
#
# Convention : Reuss Voigt Hill
#
# Bulk Modulus (GPa) = 36.98000 49.89851 43.43925
# Shear Modulus (GPa) = 27.78443 36.51670 32.15057
#
# Velocity S-wave (km/s) = 3.31333 3.79847 3.56416
# Velocity P-wave (km/s) = 5.40823 6.24129 5.83963
#
# Compressibility (1/GPa) = 0.02704165
#
# Stress axis : x y z
#
# Youngs Moduli (GPa) = 47.50770 99.55429 109.64515
#
# Poissons Ratio (x) = 0.04233 0.40351
# Poissons Ratio (y) = 0.02020 0.27204
# Poissons Ratio (z) = 0.17483 0.24700
#
# Static dielectric constant tensor:
#      x y z
#    x 2.071010 -0.020270 0.030530 
#    y -0.020270 2.011740 -0.006660 
#    z 0.030530 -0.006660 1.945550 
# 
# From -- ./inp_files/18716.got.cif
#   From: 2010.05.17/outbox.cif.g08.bks.cpg/sg2_10_cif.got.tgz:18716.got - 2010.06.03 11:33:40.
