data_PCOD9106464
_publ_section_title
;
Structure prediction by ZEFSAII (Michael W. Deem and Ramdas Pophale) SiO2 
 PCOD9106464
Probable space group: P -1
;
_chemical_formula_sum "Si O2"
_cell_formula_units_Z 14
_cell_length_a 14.336328
_cell_length_b 11.982746
_cell_length_c 9.256829
_cell_angle_alpha 124.420548
_cell_angle_beta 86.936678
_cell_angle_gamma 45.498535
_cell_volume 603.395471
_symmetry_space_group_name_H-M "P -1"
_symmetry_group_IT_number 2
_symmetry_cell_setting 'triclinic'
loop_
_space_group_symop_operation_xyz
x,y,z
-x,-y,-z
loop_
_atom_site_type_symbol
_atom_site_label
_atom_site_fract_x
_atom_site_fract_y
_atom_site_fract_z
Si Si1 0.233329 0.411111 0.809442
Si Si2 0.358885 0.759553 0.089808
Si Si3 0.132637 0.952994 0.006894
Si Si4 0.588242 0.095473 0.049967
Si Si5 0.762409 0.026122 0.238817
Si Si6 0.245161 0.385037 0.453847
Si Si7 0.385289 0.921147 0.440466
O O1 0.301963 0.329831 0.576185
O O2 0.390124 0.314940 0.798846
O O3 0.273594 0.204394 0.700527
O O4 0.992505 0.745341 0.073810
O O5 0.271852 0.989337 0.369559
O O6 0.226458 0.819408 0.059283
O O7 0.444996 0.734592 0.928769
O O8 0.500000 0.500000 0.000000
O O9 0.986739 0.270335 0.276955
O O10 0.268982 0.809575 0.749817
O O11 0.000000 0.000000 0.000000
O O12 0.702721 0.831525 0.759615
O O13 0.721027 0.957675 0.079936
O O14 0.376459 0.312388 0.286855
O O15 0.621436 0.172894 0.492779
#
# Coordination Sequence:
#
# PCOD9106464 Si02
#       7
#     2   2   2   2   2   2   2
#     4  10  21  36  65  95 133 166 204 280 317 399
#     4  11  26  42  63  93 136 176 216 277 324 395
#     4  10  25  45  67  94 129 179 227 272 325 392
#     4  10  21  41  66  99 126 172 223 265 339 387
#     4  10  22  38  68  91 126 174 218 263 323 405
#     4  10  20  39  70  95 128 166 223 280 315 398
#     4  11  22  41  59  98 134 168 212 261 347 371
#
# _framework density 23.202030000000001
#
# number of rings (size 3 to 8) (size 9 to 14) (size 15 to 20)
#    0.000    1.714    2.857    0.429    6.000    2.857 
#    2.571    4.286    0.000    0.000    0.000    0.000 
#    0.000    0.000    0.000    0.000    0.000    0.000 
#
# Total GULP energy -78082.036894 kJ/mol
# GULP energy per Si atom -5577.288350 kJ/mol
# Density = 2.314922 g / cm^3
# Si number density = 23.202030 Si / 1000 Ang^3
#
#
#
# Elastic Constant Matrix: (Units=GPa)
#
#
# Indices 1 2 3 4 5 6 
#
# 1 100.8290 28.9556 24.0598 -13.8061 -1.5927 -14.1167
# 2 28.9556 113.8446 17.3232 -11.2154 -0.3171 -10.7106
# 3 24.0598 17.3232 73.2683 -5.0544 -8.0206 -1.8354
# 4 -13.8061 -11.2154 -5.0544 36.3410 -7.9179 -3.1423
# 5 -1.5927 -0.3171 -8.0206 -7.9179 21.3678 -6.8439
# 6 -14.1167 -10.7106 -1.8354 -3.1423 -6.8439 44.5641
#
#
#
# Elastic Compliance Matrix: (Units=1/GPa)
#
#
# Indices 1 2 3 4 5 6 
#
# 1 0.012414 -0.001853 -0.002891 0.004731 0.002893 0.004146
# 2 -0.001853 0.009921 -0.001383 0.002591 0.001121 0.002095
# 3 -0.002891 -0.001383 0.015824 0.002186 0.006702 0.000587
# 4 0.004731 0.002591 0.002186 0.034593 0.016323 0.007157
# 5 0.002893 0.001121 0.006702 0.016323 0.059352 0.011728
# 6 0.004146 0.002095 0.000587 0.007157 0.011728 0.026586
#
#
# Mechanical properties :
#
#
# Convention : Reuss Voigt Hill
#
# Bulk Modulus (GPa) = 38.60465 47.62434 43.11450
# Shear Modulus (GPa) = 27.84255 34.96147 31.40201
#
# Velocity S-wave (km/s) = 3.46787 3.88600 3.68287
# Velocity P-wave (km/s) = 5.71921 6.38006 6.05865
#
# Compressibility (1/GPa) = 0.02590362
#
# Stress axis : x y z
#
# Youngs Moduli (GPa) = 80.55519 100.79391 63.19459
#
# Poissons Ratio (x) = 0.18680 0.18272
# Poissons Ratio (y) = 0.14929 0.08741
# Poissons Ratio (z) = 0.23291 0.13942
#
# Static dielectric constant tensor:
#      x y z
#    x 1.977510 -0.022840 0.003860 
#    y -0.022840 1.932050 0.039690 
#    z 0.003860 0.039690 1.878910 
# 
# From -- ./inp_files/305677.got.cif
#   From: 2010.05.17/outbox.cif.g08.bks.cpg/sg2_153_cif.got.tgz:305677.got - 2010.06.03 11:33:40.
