data_PCOD9106094
_publ_section_title
;
Structure prediction by ZEFSAII (Michael W. Deem and Ramdas Pophale) SiO2 
 PCOD9106094
Probable space group: P -1
;
_chemical_formula_sum "Si O2"
_cell_formula_units_Z 16
_cell_length_a 17.620503
_cell_length_b 13.826233
_cell_length_c 25.312777
_cell_angle_alpha 160.913472
_cell_angle_beta 158.650018
_cell_angle_gamma 30.094976
_cell_volume 728.311494
_symmetry_space_group_name_H-M "P -1"
_symmetry_group_IT_number 2
_symmetry_cell_setting 'triclinic'
loop_
_space_group_symop_operation_xyz
x,y,z
-x,-y,-z
loop_
_atom_site_type_symbol
_atom_site_label
_atom_site_fract_x
_atom_site_fract_y
_atom_site_fract_z
Si Si1 0.988570 0.458803 0.351714
Si Si2 0.570589 0.676415 0.690797
Si Si3 0.466365 0.636142 0.992183
Si Si4 0.319427 0.801960 0.813158
Si Si5 0.160078 0.351896 0.292308
Si Si6 0.941008 0.916846 0.119538
Si Si7 0.240810 0.731777 0.060186
Si Si8 0.396205 0.134342 0.551826
O O1 0.148710 0.713472 0.611675
O O2 0.031161 0.404226 0.289520
O O3 0.010459 0.156589 0.241999
O O4 0.758835 0.531998 0.256857
O O5 0.500000 0.500000 0.500000
O O6 0.372506 0.574302 0.547001
O O7 0.565027 0.021968 0.852049
O O8 0.790864 0.660766 0.857169
O O9 0.500000 0.500000 0.000000
O O10 0.659753 0.556694 0.043223
O O11 0.217699 0.966027 0.880297
O O12 0.371968 0.483920 0.706201
O O13 0.500000 0.000000 0.000000
O O14 0.228654 0.020588 0.164251
O O15 0.009810 0.377381 0.157083
O O16 0.166805 0.930980 0.303701
O O17 0.416167 0.866036 0.284536
O O18 0.500000 0.000000 0.500000
#
# Coordination Sequence:
#
# PCOD9106094 Si02
#       8
#     2   2   2   2   2   2   2   2
#     4  10  20  39  67  93 129 170 215 260 333 399
#     4  11  25  41  66  93 133 172 219 271 333 384
#     4  11  21  41  62  94 126 169 216 266 324 391
#     4  11  22  42  68  96 132 172 215 269 329 392
#     4  11  24  41  66  95 133 175 219 269 334 391
#     4  10  22  42  68  93 130 174 213 267 332 398
#     4  11  23  40  67  94 133 169 221 269 327 390
#     4  11  23  41  67  97 128 173 222 265 324 399
#
# _framework density 21.968623000000001
#
# number of rings (size 3 to 8) (size 9 to 14) (size 15 to 20)
#    0.000    1.250    1.250    6.750    7.000    0.500 
#    2.250    3.750    0.000    0.000    0.000    0.000 
#    0.000    0.000    0.000    0.000    0.000    0.000 
#
# Total GULP energy -89069.316068 kJ/mol
# GULP energy per Si atom -5566.832254 kJ/mol
# Density = 2.191862 g / cm^3
# Si number density = 21.968623 Si / 1000 Ang^3
#
#
#
# Elastic Constant Matrix: (Units=GPa)
#
#
# Indices 1 2 3 4 5 6 
#
# 1 84.8895 9.6967 31.9987 -7.9525 -10.9190 -12.6874
# 2 9.6967 65.5778 31.4398 -24.7183 -12.0802 -3.2931
# 3 31.9987 31.4398 179.6286 -41.8714 -8.4741 4.7335
# 4 -7.9525 -24.7183 -41.8714 37.2059 3.2050 -8.7193
# 5 -10.9190 -12.0802 -8.4741 3.2050 44.0454 -3.9184
# 6 -12.6874 -3.2931 4.7335 -8.7193 -3.9184 25.5956
#
#
#
# Elastic Compliance Matrix: (Units=1/GPa)
#
#
# Indices 1 2 3 4 5 6 
#
# 1 0.014761 0.001510 -0.002075 0.003758 0.004275 0.009829
# 2 0.001510 0.023535 -0.000254 0.017654 0.006459 0.010826
# 3 -0.002075 -0.000254 0.007943 0.008385 0.000368 0.000383
# 4 0.003758 0.017654 0.008385 0.053445 0.005421 0.021620
# 5 0.004275 0.006459 0.000368 0.005421 0.025986 0.008707
# 6 0.009829 0.010826 0.000383 0.021620 0.008707 0.053962
#
#
# Mechanical properties :
#
#
# Convention : Reuss Voigt Hill
#
# Bulk Modulus (GPa) = 22.42095 52.92961 37.67528
# Shear Modulus (GPa) = 25.49243 38.50007 31.99625
#
# Velocity S-wave (km/s) = 3.41016 4.19083 3.82049
# Velocity P-wave (km/s) = 5.07284 6.89659 6.05379
#
# Compressibility (1/GPa) = 0.04460115
#
# Stress axis : x y z
#
# Youngs Moduli (GPa) = 67.74713 42.48950 125.89929
#
# Poissons Ratio (x) = -0.06416 0.26125
# Poissons Ratio (y) = -0.10229 0.03194
# Poissons Ratio (z) = 0.14058 0.01078
#
# Static dielectric constant tensor:
#      x y z
#    x 1.874450 -0.014770 -0.022610 
#    y -0.014770 1.826590 -0.063030 
#    z -0.022610 -0.063030 1.900030 
# 
# From -- ./inp_files/620505.got.cif
#   From: 2010.05.17/outbox.cif.g08.bks.cpg/sg2_311_cif.got.tgz:620505.got - 2010.06.03 11:33:40.
