data_PCOD9106742
_publ_section_title
;
Structure prediction by ZEFSAII (Michael W. Deem and Ramdas Pophale) SiO2 
 PCOD9106742
Probable space group: P -1
;
_chemical_formula_sum "Si O2"
_cell_formula_units_Z 16
_cell_length_a 7.905920
_cell_length_b 8.656811
_cell_length_c 21.664567
_cell_angle_alpha 38.595148
_cell_angle_beta 113.815285
_cell_angle_gamma 126.286828
_cell_volume 740.454351
_symmetry_space_group_name_H-M "P -1"
_symmetry_group_IT_number 2
_symmetry_cell_setting 'triclinic'
loop_
_space_group_symop_operation_xyz
x,y,z
-x,-y,-z
loop_
_atom_site_type_symbol
_atom_site_label
_atom_site_fract_x
_atom_site_fract_y
_atom_site_fract_z
Si Si1 0.546510 0.166564 0.683929
Si Si2 0.371468 0.818708 0.595848
Si Si3 0.845497 0.007059 0.390497
Si Si4 0.499180 0.384509 0.204228
Si Si5 0.059965 0.040362 0.923936
Si Si6 0.815197 0.343348 0.781274
Si Si7 0.969955 0.547513 0.552187
Si Si8 0.279649 0.719906 0.068587
O O1 0.630537 0.296079 0.722374
O O2 0.740824 0.335399 0.612420
O O3 0.330160 0.159022 0.635616
O O4 0.496527 0.843582 0.769934
O O5 0.295069 0.000244 0.569820
O O6 0.498669 0.725958 0.691205
O O7 0.157623 0.558047 0.618368
O O8 0.500000 0.000000 0.500000
O O9 0.994199 0.337842 0.296081
O O10 0.982467 0.852324 0.466644
O O11 0.717257 0.675184 0.139437
O O12 0.310953 0.452903 0.140451
O O13 0.892987 0.117463 0.844479
O O14 0.099227 0.778730 0.994283
O O15 0.000000 0.000000 0.000000
O O16 0.748499 0.295113 0.857186
O O17 0.000000 0.500000 0.500000
O O18 0.500000 0.000000 0.000000
#
# Coordination Sequence:
#
# PCOD9106742 Si02
#       8
#     2   2   2   2   2   2   2   2
#     4  11  23  40  63  95 127 166 218 266 316 386
#     4  11  23  40  65  91 130 178 212 262 321 382
#     4  11  24  43  63  91 132 175 218 264 321 382
#     4  10  20  40  60  92 131 160 210 263 320 375
#     4   9  17  38  64  90 117 162 206 254 318 381
#     4  11  21  40  69  88 124 170 208 262 329 384
#     4  12  25  40  60  95 132 171 223 272 311 379
#     4   9  21  37  68  92 123 167 207 262 328 389
#
# _framework density 21.608355
#
# number of rings (size 3 to 8) (size 9 to 14) (size 15 to 20)
#    0.000    1.500    3.750    2.250    3.500    1.000 
#    0.000    6.250    0.000    0.000    0.000    0.000 
#    0.000    0.000    0.000    0.000    0.000    0.000 
#
# Total GULP energy -89314.772573 kJ/mol
# GULP energy per Si atom -5582.173286 kJ/mol
# Density = 2.155917 g / cm^3
# Si number density = 21.608355 Si / 1000 Ang^3
#
#
#
# Elastic Constant Matrix: (Units=GPa)
#
#
# Indices 1 2 3 4 5 6 
#
# 1 45.7706 -8.3378 26.7056 -9.9001 -2.2174 -4.7514
# 2 -8.3378 50.4174 10.9313 9.4776 -4.1729 19.4774
# 3 26.7056 10.9313 86.3039 -12.1950 -10.4297 1.7504
# 4 -9.9001 9.4776 -12.1950 13.3573 -5.0970 10.4131
# 5 -2.2174 -4.1729 -10.4297 -5.0970 45.6654 3.2867
# 6 -4.7514 19.4774 1.7504 10.4131 3.2867 31.1049
#
#
#
# Elastic Compliance Matrix: (Units=1/GPa)
#
#
# Indices 1 2 3 4 5 6 
#
# 1 0.030289 0.005338 -0.007493 0.015616 0.002261 -0.003761
# 2 0.005338 0.029809 -0.006831 -0.012673 0.000968 -0.013326
# 3 -0.007493 -0.006831 0.019226 0.024823 0.006675 -0.006964
# 4 0.015616 -0.012673 0.024823 0.167712 0.027598 -0.050137
# 5 0.002261 0.000968 0.006675 0.027598 0.027622 -0.012794
# 6 -0.003761 -0.013326 -0.006964 -0.050137 -0.012794 0.058447
#
#
# Mechanical properties :
#
#
# Convention : Reuss Voigt Hill
#
# Bulk Modulus (GPa) = 16.29912 26.78781 21.54347
# Shear Modulus (GPa) = 13.45797 28.23838 20.84817
#
# Velocity S-wave (km/s) = 2.49833 3.61893 3.10953
# Velocity P-wave (km/s) = 3.98517 5.46681 4.78370
#
# Compressibility (1/GPa) = 0.06135299
#
# Stress axis : x y z
#
# Youngs Moduli (GPa) = 33.01533 33.54731 52.01242
#
# Poissons Ratio (x) = -0.17908 0.38971
# Poissons Ratio (y) = -0.17624 0.35529
# Poissons Ratio (z) = 0.24737 0.22916
#
# Static dielectric constant tensor:
#      x y z
#    x 1.807940 0.002710 0.047780 
#    y 0.002710 1.774140 -0.000380 
#    z 0.047780 -0.000380 1.829360 
# 
# From -- ./inp_files/557091.got.cif
#   From: 2010.05.17/outbox.cif.g08.bks.cpg/sg2_279_cif.got.tgz:557091.got - 2010.06.03 11:33:40.
