data_PCOD9106077
_publ_section_title
;
Structure prediction by ZEFSAII (Michael W. Deem and Ramdas Pophale) SiO2 
 PCOD9106077
Probable space group: P -1
;
_chemical_formula_sum "Si O2"
_cell_formula_units_Z 16
_cell_length_a 11.237254
_cell_length_b 8.446002
_cell_length_c 8.664774
_cell_angle_alpha 121.731287
_cell_angle_beta 93.169728
_cell_angle_gamma 77.901497
_cell_volume 682.418061
_symmetry_space_group_name_H-M "P -1"
_symmetry_group_IT_number 2
_symmetry_cell_setting 'triclinic'
loop_
_space_group_symop_operation_xyz
x,y,z
-x,-y,-z
loop_
_atom_site_type_symbol
_atom_site_label
_atom_site_fract_x
_atom_site_fract_y
_atom_site_fract_z
Si Si1 0.231568 0.229698 0.177779
Si Si2 0.553637 0.543378 0.697055
Si Si3 0.493136 0.189442 0.505499
Si Si4 0.945916 0.217024 0.791829
Si Si5 0.221268 0.247975 0.530577
Si Si6 0.358793 0.861635 0.807824
Si Si7 0.960982 0.444392 0.173319
Si Si8 0.167264 0.913150 0.569407
O O1 0.325335 0.373397 0.254789
O O2 0.214362 0.162915 0.316596
O O3 0.096830 0.331950 0.165120
O O4 0.294624 0.051251 0.986962
O O5 0.500000 0.500000 0.500000
O O6 0.571358 0.331452 0.656032
O O7 0.439070 0.697739 0.835085
O O8 0.353540 0.296439 0.567363
O O9 0.536708 0.118451 0.300060
O O10 0.500000 0.000000 0.500000
O O11 0.026412 0.370030 0.829973
O O12 0.857940 0.215458 0.640171
O O13 0.037338 0.011249 0.688172
O O14 0.898285 0.298524 0.996260
O O15 0.121474 0.444585 0.639736
O O16 0.213840 0.087734 0.577187
O O17 0.255540 0.815913 0.661189
#
# Coordination Sequence:
#
# PCOD9106077 Si02
#       8
#     2   2   2   2   2   2   2   2
#     4  12  23  42  67  96 136 180 223 272 333 398
#     4  10  23  41  65 100 126 178 222 265 327 395
#     4  11  23  43  69  95 135 173 219 279 331 387
#     4   9  20  39  62  95 125 168 230 271 321 405
#     4  11  23  40  61  95 142 170 216 279 334 386
#     4  11  22  41  71  95 131 178 222 269 329 393
#     4  10  22  39  65  95 131 174 220 277 336 385
#     4  10  20  39  67  92 128 175 218 277 331 385
#
# _framework density 23.446038999999999
#
# number of rings (size 3 to 8) (size 9 to 14) (size 15 to 20)
#    0.000    1.500    5.000    0.750    3.500    0.000 
#    2.250    1.250    0.000    0.000    0.000    0.000 
#    0.000    0.000    0.000    0.000    0.000    0.000 
#
# Total GULP energy -89201.330048 kJ/mol
# GULP energy per Si atom -5575.083128 kJ/mol
# Density = 2.339267 g / cm^3
# Si number density = 23.446039 Si / 1000 Ang^3
#
#
#
# Elastic Constant Matrix: (Units=GPa)
#
#
# Indices 1 2 3 4 5 6 
#
# 1 94.2832 13.6663 62.0264 19.4583 -8.1882 -21.3626
# 2 13.6663 57.8244 19.0443 16.4469 -12.0088 -10.0999
# 3 62.0264 19.0443 136.1753 25.8780 -9.0575 -7.0860
# 4 19.4583 16.4469 25.8780 24.6132 -6.8526 -4.9792
# 5 -8.1882 -12.0088 -9.0575 -6.8526 41.2149 6.4849
# 6 -21.3626 -10.0999 -7.0860 -4.9792 6.4849 30.2958
#
#
#
# Elastic Compliance Matrix: (Units=1/GPa)
#
#
# Indices 1 2 3 4 5 6 
#
# 1 0.018812 0.001583 -0.007015 -0.006343 -0.000151 0.011142
# 2 0.001583 0.022737 -0.000814 -0.013456 0.003656 0.005512
# 3 -0.007015 -0.000814 0.011810 -0.006965 0.000386 -0.003683
# 4 -0.006343 -0.013456 -0.006965 0.062823 0.003907 -0.001099
# 5 -0.000151 0.003656 0.000386 0.003907 0.026640 -0.003857
# 6 0.011142 0.005512 -0.003683 -0.001099 -0.003857 0.042486
#
#
# Mechanical properties :
#
#
# Convention : Reuss Voigt Hill
#
# Bulk Modulus (GPa) = 24.46908 53.08411 38.77660
# Shear Modulus (GPa) = 23.64938 32.12785 27.88861
#
# Velocity S-wave (km/s) = 3.17941 3.70576 3.45263
# Velocity P-wave (km/s) = 4.89256 6.40315 5.69813
#
# Compressibility (1/GPa) = 0.04086791
#
# Stress axis : x y z
#
# Youngs Moduli (GPa) = 53.15628 43.98141 84.67222
#
# Poissons Ratio (x) = -0.06963 0.59399
# Poissons Ratio (y) = -0.08415 0.06890
# Poissons Ratio (z) = 0.37290 0.03579
#
# Static dielectric constant tensor:
#      x y z
#    x 1.970270 -0.006490 -0.023080 
#    y -0.006490 2.055200 -0.012110 
#    z -0.023080 -0.012110 1.954630 
# 
# From -- ./inp_files/245937.got.cif
#   From: 2010.05.17/outbox.cif.g08.bks.cpg/sg2_123_cif.got.tgz:245937.got - 2010.06.03 11:33:40.
