data_PCOD9106656
_publ_section_title
;
Structure prediction by ZEFSAII (Michael W. Deem and Ramdas Pophale) SiO2 
 PCOD9106656
Probable space group: P -1
;
_chemical_formula_sum "Si O2"
_cell_formula_units_Z 14
_cell_length_a 14.824475
_cell_length_b 23.901456
_cell_length_c 9.303259
_cell_angle_alpha 39.625908
_cell_angle_beta 139.981823
_cell_angle_gamma 159.595342
_cell_volume 718.523119
_symmetry_space_group_name_H-M "P -1"
_symmetry_group_IT_number 2
_symmetry_cell_setting 'triclinic'
loop_
_space_group_symop_operation_xyz
x,y,z
-x,-y,-z
loop_
_atom_site_type_symbol
_atom_site_label
_atom_site_fract_x
_atom_site_fract_y
_atom_site_fract_z
Si Si1 0.926536 0.990908 0.588338
Si Si2 0.143545 0.542266 0.286539
Si Si3 0.851007 0.571672 0.927879
Si Si4 0.312693 0.950135 0.755948
Si Si5 0.616837 0.210733 0.386953
Si Si6 0.601268 0.354952 0.303622
Si Si7 0.459626 0.271234 0.859680
O O1 0.773282 0.002156 0.377064
O O2 0.182672 0.137944 0.708576
O O3 0.715779 0.811984 0.754771
O O4 0.000000 0.000000 0.500000
O O5 0.313256 0.607487 0.503192
O O6 0.324521 0.634855 0.185267
O O7 0.890791 0.343233 0.374925
O O8 0.023904 0.576273 0.092816
O O9 0.589131 0.420593 0.810272
O O10 0.046622 0.755492 0.785949
O O11 0.747073 0.507907 0.090739
O O12 0.468381 0.052594 0.594418
O O13 0.500000 0.000000 0.000000
O O14 0.686478 0.311786 0.406988
O O15 0.444852 0.181495 0.130094
#
# Coordination Sequence:
#
# PCOD9106656 Si02
#       7
#     2   2   2   2   2   2   2
#     4  11  22  39  62  87 117 156 195 240 292 348
#     4  10  16  34  59  86 116 151 199 236 282 349
#     4  10  20  35  58  87 116 153 195 241 289 338
#     4  11  23  39  62  88 120 153 197 243 288 344
#     4   9  19  34  58  89 110 155 197 239 282 344
#     4   9  17  32  59  82 109 154 201 231 274 350
#     4  10  21  36  60  87 120 153 195 240 290 350
#
# _framework density 19.484411000000001
#
# number of rings (size 3 to 8) (size 9 to 14) (size 15 to 20)
#    0.000    2.286    1.429    6.000    0.000    5.714 
#    0.000    3.571    3.143    0.000    0.000    0.000 
#    0.000    0.000    0.000    0.000    0.000    0.000 
#
# Total GULP energy -78051.209736 kJ/mol
# GULP energy per Si atom -5575.086410 kJ/mol
# Density = 1.944006 g / cm^3
# Si number density = 19.484411 Si / 1000 Ang^3
#
#
#
# Elastic Constant Matrix: (Units=GPa)
#
#
# Indices 1 2 3 4 5 6 
#
# 1 45.5285 3.3485 31.9859 0.5258 -13.2011 12.4769
# 2 3.3485 110.4497 57.3298 -4.7029 -5.1893 10.2644
# 3 31.9859 57.3298 101.2106 -0.3478 -23.0986 2.9044
# 4 0.5258 -4.7029 -0.3478 46.9655 3.2548 -11.5177
# 5 -13.2011 -5.1893 -23.0986 3.2548 26.3921 3.2141
# 6 12.4769 10.2644 2.9044 -11.5177 3.2141 28.2395
#
#
#
# Elastic Compliance Matrix: (Units=1/GPa)
#
#
# Indices 1 2 3 4 5 6 
#
# 1 0.042619 0.009009 -0.014650 -0.006789 0.014146 -0.024977
# 2 0.009009 0.015604 -0.011825 -0.000592 -0.001669 -0.008487
# 3 -0.014650 -0.011825 0.023218 0.000291 0.009732 0.007394
# 4 -0.006789 -0.000592 0.000291 0.025429 -0.008158 0.014484
# 5 0.014146 -0.001669 0.009732 -0.008158 0.056154 -0.016363
# 6 -0.024977 -0.008487 0.007394 0.014484 -0.016363 0.056541
#
#
# Mechanical properties :
#
#
# Convention : Reuss Voigt Hill
#
# Bulk Modulus (GPa) = 21.50141 49.16855 35.33498
# Shear Modulus (GPa) = 18.51854 31.28773 24.90314
#
# Velocity S-wave (km/s) = 3.08625 4.01157 3.57894
# Velocity P-wave (km/s) = 4.87432 6.83714 5.93740
#
# Compressibility (1/GPa) = 0.04650858
#
# Stress axis : x y z
#
# Youngs Moduli (GPa) = 23.46376 64.08711 43.06956
#
# Poissons Ratio (x) = -0.57735 0.63097
# Poissons Ratio (y) = -0.21138 0.50930
# Poissons Ratio (z) = 0.34375 0.75783
#
# Static dielectric constant tensor:
#      x y z
#    x 1.679110 0.011320 -0.012180 
#    y 0.011320 1.748150 -0.010230 
#    z -0.012180 -0.010230 1.702490 
# 
# From -- ./inp_files/168743.got.cif
#   From: 2010.05.17/outbox.cif.g08.bks.cpg/sg2_85_cif.got.tgz:168743.got - 2010.06.03 11:33:40.
