data_PCOD9106912
_publ_section_title
;
Structure prediction by ZEFSAII (Michael W. Deem and Ramdas Pophale) SiO2 
 PCOD9106912
Probable space group: P -1
;
_chemical_formula_sum "Si O2"
_cell_formula_units_Z 16
_cell_length_a 12.289254
_cell_length_b 7.563927
_cell_length_c 13.131772
_cell_angle_alpha 53.338037
_cell_angle_beta 43.139095
_cell_angle_gamma 66.542128
_cell_volume 667.960873
_symmetry_space_group_name_H-M "P -1"
_symmetry_group_IT_number 2
_symmetry_cell_setting 'triclinic'
loop_
_space_group_symop_operation_xyz
x,y,z
-x,-y,-z
loop_
_atom_site_type_symbol
_atom_site_label
_atom_site_fract_x
_atom_site_fract_y
_atom_site_fract_z
Si Si1 0.328067 0.388472 0.634304
Si Si2 0.584979 0.701537 0.789662
Si Si3 0.880691 0.395269 0.704734
Si Si4 0.989167 0.550779 0.789378
Si Si5 0.945470 0.153098 0.080062
Si Si6 0.344558 0.106959 0.532403
Si Si7 0.741054 0.898306 0.026718
Si Si8 0.659242 0.694607 0.954133
O O1 0.500000 0.500000 0.500000
O O2 0.331482 0.323344 0.535733
O O3 0.174866 0.539136 0.700907
O O4 0.317531 0.172100 0.793466
O O5 0.726725 0.536803 0.755914
O O6 0.638100 0.864560 0.608502
O O7 0.583498 0.805355 0.867954
O O8 0.425152 0.554086 0.917061
O O9 0.983498 0.439176 0.720738
O O10 0.000000 0.500000 0.500000
O O11 0.801608 0.144665 0.861949
O O12 0.854180 0.726419 0.804169
O O13 0.896349 0.374510 0.987017
O O14 0.088869 0.207588 0.041032
O O15 0.808806 0.038223 0.278770
O O16 0.000000 0.000000 0.000000
O O17 0.500000 0.000000 0.500000
O O18 0.628479 0.786034 0.055601
#
# Coordination Sequence:
#
# PCOD9106912 Si02
#       8
#     2   2   2   2   2   2   2   2
#     4  11  23  39  63  98 132 166 217 282 332 391
#     4  10  23  42  61  90 135 175 222 265 341 399
#     4  11  21  38  65  89 123 177 222 273 328 400
#     4  10  20  40  62  86 129 174 215 263 341 397
#     4  11  19  38  64  91 125 169 221 268 328 402
#     4  12  23  40  66  96 125 164 218 277 335 396
#     4  11  22  39  66  96 126 172 233 266 330 399
#     4  10  23  41  62  92 131 180 216 276 329 399
#
# _framework density 23.953498
#
# number of rings (size 3 to 8) (size 9 to 14) (size 15 to 20)
#    0.000    1.250    3.750    3.000    0.000    5.500 
#    0.000    8.125    0.000    0.000    0.000    0.000 
#    0.000    0.000    0.000    0.000    0.000    0.000 
#
# Total GULP energy -89119.331133 kJ/mol
# GULP energy per Si atom -5569.958196 kJ/mol
# Density = 2.389898 g / cm^3
# Si number density = 23.953498 Si / 1000 Ang^3
#
#
#
# Elastic Constant Matrix: (Units=GPa)
#
#
# Indices 1 2 3 4 5 6 
#
# 1 142.2203 23.2941 49.3148 4.6570 5.8525 8.8497
# 2 23.2941 44.5279 4.7844 8.1594 -1.1795 -1.4011
# 3 49.3148 4.7844 145.7223 -3.8828 5.1473 5.0473
# 4 4.6570 8.1594 -3.8828 25.6112 -6.6932 0.6531
# 5 5.8525 -1.1795 5.1473 -6.6932 57.0224 9.7305
# 6 8.8497 -1.4011 5.0473 0.6531 9.7305 41.5935
#
#
#
# Elastic Compliance Matrix: (Units=1/GPa)
#
#
# Indices 1 2 3 4 5 6 
#
# 1 0.008843 -0.004244 -0.002801 -0.000791 -0.000573 -0.001538
# 2 -0.004244 0.026092 0.000320 -0.007614 -0.000276 0.001927
# 3 -0.002801 0.000320 0.007859 0.001561 -0.000176 -0.000330
# 4 -0.000791 -0.007614 0.001561 0.043275 0.005235 -0.002182
# 5 -0.000573 -0.000276 -0.000176 0.005235 0.018969 -0.004386
# 6 -0.001538 0.001927 -0.000330 -0.002182 -0.004386 0.025535
#
#
# Mechanical properties :
#
#
# Convention : Reuss Voigt Hill
#
# Bulk Modulus (GPa) = 34.07847 54.13967 44.10907
# Shear Modulus (GPa) = 32.50900 41.85057 37.17978
#
# Velocity S-wave (km/s) = 3.68798 4.18444 3.94403
# Velocity P-wave (km/s) = 5.69146 6.78211 6.26058
#
# Compressibility (1/GPa) = 0.02934404
#
# Stress axis : x y z
#
# Youngs Moduli (GPa) = 113.08688 38.32599 127.24331
#
# Poissons Ratio (x) = 0.16264 0.35638
# Poissons Ratio (y) = 0.47990 -0.04067
# Poissons Ratio (z) = 0.31673 -0.01225
#
# Static dielectric constant tensor:
#      x y z
#    x 1.917810 0.069020 0.027190 
#    y 0.069020 2.127630 0.064160 
#    z 0.027190 0.064160 1.985170 
# 
# From -- ./inp_files/419113.got.cif
#   From: 2010.05.17/outbox.cif.g08.bks.cpg/sg2_210_cif.got.tgz:419113.got - 2010.06.03 11:33:40.
