data_PCOD9106814
_publ_section_title
;
Structure prediction by ZEFSAII (Michael W. Deem and Ramdas Pophale) SiO2 
 PCOD9106814
Probable space group: P -1
;
_chemical_formula_sum "Si O2"
_cell_formula_units_Z 10
_cell_length_a 11.033286
_cell_length_b 5.111786
_cell_length_c 7.099245
_cell_angle_alpha 84.834552
_cell_angle_beta 57.634212
_cell_angle_gamma 98.931367
_cell_volume 326.821249
_symmetry_space_group_name_H-M "P -1"
_symmetry_group_IT_number 2
_symmetry_cell_setting 'triclinic'
loop_
_space_group_symop_operation_xyz
x,y,z
-x,-y,-z
loop_
_atom_site_type_symbol
_atom_site_label
_atom_site_fract_x
_atom_site_fract_y
_atom_site_fract_z
Si Si1 0.360791 0.802976 0.969006
Si Si2 0.263600 0.200343 0.777921
Si Si3 0.943031 0.546087 0.841107
Si Si4 0.611131 0.509421 0.691696
Si Si5 0.143504 0.973299 0.498721
O O1 0.456833 0.598201 0.831855
O O2 0.378499 0.047663 0.788215
O O3 0.182752 0.701000 0.114536
O O4 0.387612 0.765616 0.175847
O O5 0.339752 0.460782 0.568423
O O6 0.163901 0.029133 0.705481
O O7 0.159417 0.253213 0.026800
O O8 0.088222 0.644550 0.586503
O O9 0.000000 0.500000 0.000000
O O10 0.722950 0.770588 0.685348
O O11 0.000000 0.000000 0.500000
#
# Coordination Sequence:
#
# PCOD9106814 Si02
#       5
#     2   2   2   2   2
#     4  11  21  41  65  86 125 162 201 248 304 363
#     4  10  23  40  63  90 125 158 204 248 307 354
#     4  12  22  39  64  90 119 164 206 249 301 360
#     4   9  22  40  61  91 123 160 200 253 299 360
#     4  10  20  40  61  89 124 156 202 254 300 358
#
# _framework density 30.597766
#
# number of rings (size 3 to 8) (size 9 to 14) (size 15 to 20)
#    1.200    0.400    4.000    1.200    0.000    0.800 
#    3.600    7.000    0.000    0.000    0.000    0.000 
#    0.000    0.000    0.000    0.000    0.000    0.000 
#
# Total GULP energy -55746.125109 kJ/mol
# GULP energy per Si atom -5574.612511 kJ/mol
# Density = 3.052812 g / cm^3
# Si number density = 30.597766 Si / 1000 Ang^3
#
#
#
# Elastic Constant Matrix: (Units=GPa)
#
#
# Indices 1 2 3 4 5 6 
#
# 1 252.5573 33.0479 54.9467 -11.8131 38.0480 -13.3408
# 2 33.0479 107.9959 27.2580 -20.5864 15.8829 -44.0972
# 3 54.9467 27.2580 196.0605 -33.0999 29.0415 -14.2741
# 4 -11.8131 -20.5864 -33.0999 46.7373 -6.9020 17.7096
# 5 38.0480 15.8829 29.0415 -6.9020 67.0460 -18.1118
# 6 -13.3408 -44.0972 -14.2741 17.7096 -18.1118 48.0377
#
#
#
# Elastic Compliance Matrix: (Units=1/GPa)
#
#
# Indices 1 2 3 4 5 6 
#
# 1 0.004591 -0.001257 -0.000849 0.000052 -0.002199 -0.000980
# 2 -0.001257 0.015442 -0.000826 0.000882 0.001208 0.013711
# 3 -0.000849 -0.000826 0.006352 0.004152 -0.002025 -0.001401
# 4 0.000052 0.000882 0.004152 0.027840 -0.001545 -0.008788
# 5 -0.002199 0.001208 -0.002025 -0.001545 0.018617 0.007485
# 6 -0.000980 0.013711 -0.001401 -0.008788 0.007485 0.038777
#
#
# Mechanical properties :
#
#
# Convention : Reuss Voigt Hill
#
# Bulk Modulus (GPa) = 48.73277 87.45766 68.09522
# Shear Modulus (GPa) = 40.21781 61.78829 51.00305
#
# Velocity S-wave (km/s) = 3.62940 4.49862 4.08718
# Velocity P-wave (km/s) = 5.79007 7.45845 6.67658
#
# Compressibility (1/GPa) = 0.02052007
#
# Stress axis : x y z
#
# Youngs Moduli (GPa) = 217.83650 64.75933 157.42830
#
# Poissons Ratio (x) = 0.08142 0.13358
# Poissons Ratio (y) = 0.27389 0.13009
# Poissons Ratio (z) = 0.18484 0.05351
#
# Static dielectric constant tensor:
#      x y z
#    x 2.416320 -0.054430 -0.136450 
#    y -0.054430 2.727600 0.084130 
#    z -0.136450 0.084130 2.532660 
# 
# From -- ./inp_files/17082.got.cif
#   From: 2010.05.17/outbox.cif.g08.bks.cpg/sg2_9_cif.got.tgz:17082.got - 2010.06.03 11:33:40.
