data_PCOD9106707
_publ_section_title
;
Structure prediction by ZEFSAII (Michael W. Deem and Ramdas Pophale) SiO2 
 PCOD9106707
Probable space group: P -1
;
_chemical_formula_sum "Si O2"
_cell_formula_units_Z 16
_cell_length_a 9.865101
_cell_length_b 20.319926
_cell_length_c 17.059551
_cell_angle_alpha 18.931131
_cell_angle_beta 111.250029
_cell_angle_gamma 100.848042
_cell_volume 888.596008
_symmetry_space_group_name_H-M "P -1"
_symmetry_group_IT_number 2
_symmetry_cell_setting 'triclinic'
loop_
_space_group_symop_operation_xyz
x,y,z
-x,-y,-z
loop_
_atom_site_type_symbol
_atom_site_label
_atom_site_fract_x
_atom_site_fract_y
_atom_site_fract_z
Si Si1 0.601767 0.622316 0.410971
Si Si2 0.483017 0.890660 0.399864
Si Si3 0.967233 0.794220 0.385010
Si Si4 0.608243 0.870147 0.279281
Si Si5 0.179261 0.395406 0.754840
Si Si6 0.087856 0.725834 0.223104
Si Si7 0.277368 0.717669 0.626092
Si Si8 0.507358 0.797713 0.678292
O O1 0.500000 0.500000 0.500000
O O2 0.579043 0.697986 0.411152
O O3 0.793573 0.433597 0.643356
O O4 0.533263 0.863716 0.075531
O O5 0.587632 0.835727 0.404699
O O6 0.361856 0.776908 0.503734
O O7 0.582090 0.790864 0.614959
O O8 0.361070 0.173807 0.063603
O O9 0.073986 0.553806 0.628472
O O10 0.088628 0.791243 0.482783
O O11 0.790782 0.831363 0.337389
O O12 0.930539 0.019927 0.070346
O O13 0.177023 0.580513 0.483849
O O14 0.083812 0.277718 0.822867
O O15 0.321170 0.843306 0.564117
O O16 0.386420 0.445717 0.979419
O O17 0.500000 0.000000 0.500000
#
# Coordination Sequence:
#
# PCOD9106707 Si02
#       8
#     2   2   2   2   2   2   2   2
#     4  11  22  39  55  76 121 171 199 232 287 343
#     4  10  20  40  60  89 117 149 200 239 288 361
#     4  12  22  37  59  87 120 156 193 249 298 337
#     4  11  24  38  57  85 123 160 195 242 294 343
#     4  11  22  35  57  84 117 156 206 243 285 337
#     4  11  21  36  53  84 115 157 208 246 275 342
#     4   9  21  36  61  90 109 144 197 236 294 352
#     4   9  18  40  65  86 114 145 189 247 298 346
#
# _framework density 18.005932000000001
#
# number of rings (size 3 to 8) (size 9 to 14) (size 15 to 20)
#    0.750    0.750    5.000    1.125    0.000    1.000 
#    2.250    0.625    0.000    0.750    0.000    0.000 
#    0.000    0.000    0.000    0.000    0.000    0.000 
#
# Total GULP energy -89142.161454 kJ/mol
# GULP energy per Si atom -5571.385091 kJ/mol
# Density = 1.796495 g / cm^3
# Si number density = 18.005932 Si / 1000 Ang^3
#
#
#
# Elastic Constant Matrix: (Units=GPa)
#
#
# Indices 1 2 3 4 5 6 
#
# 1 60.4894 33.6500 34.0617 -3.1639 -11.4920 -0.4775
# 2 33.6500 76.6808 33.5697 -9.5449 -15.5610 -0.6139
# 3 34.0617 33.5697 81.2678 3.0083 -15.0076 -8.3298
# 4 -3.1639 -9.5449 3.0083 27.1937 -1.2503 -1.7197
# 5 -11.4920 -15.5610 -15.0076 -1.2503 18.4294 0.5730
# 6 -0.4775 -0.6139 -8.3298 -1.7197 0.5730 33.8513
#
#
#
# Elastic Compliance Matrix: (Units=1/GPa)
#
#
# Indices 1 2 3 4 5 6 
#
# 1 0.025290 -0.006947 -0.007160 0.001393 0.004216 -0.001532
# 2 -0.006947 0.020958 -0.004134 0.007455 0.010520 -0.000534
# 3 -0.007160 -0.004134 0.018878 -0.003786 0.007032 0.004158
# 4 0.001393 0.007455 -0.003786 0.040356 0.006782 0.001159
# 5 0.004216 0.010520 0.007032 0.006782 0.071925 0.001108
# 6 -0.001532 -0.000534 0.004158 0.001159 0.001108 0.030573
#
#
# Mechanical properties :
#
#
# Convention : Reuss Voigt Hill
#
# Bulk Modulus (GPa) = 34.90987 46.77787 40.84387
# Shear Modulus (GPa) = 19.68432 23.70533 21.69483
#
# Velocity S-wave (km/s) = 3.30996 3.63234 3.47489
# Velocity P-wave (km/s) = 5.83420 6.60510 6.23158
#
# Compressibility (1/GPa) = 0.02864519
#
# Stress axis : x y z
#
# Youngs Moduli (GPa) = 39.54143 47.71514 52.97046
#
# Poissons Ratio (x) = 0.33146 0.37928
# Poissons Ratio (y) = 0.27468 0.21895
# Poissons Ratio (z) = 0.28313 0.19723
#
# Static dielectric constant tensor:
#      x y z
#    x 1.651880 0.024750 -0.008610 
#    y 0.024750 1.641370 0.004130 
#    z -0.008610 0.004130 1.621150 
# 
# From -- ./inp_files/562548.got.cif
#   From: 2010.05.17/outbox.cif.g08.bks.cpg/sg2_282_cif.got.tgz:562548.got - 2010.06.03 11:33:40.
