data_PCOD9106235
_publ_section_title
;
Structure prediction by ZEFSAII (Michael W. Deem and Ramdas Pophale) SiO2 
 PCOD9106235
Probable space group: P -1
;
_chemical_formula_sum "Si O2"
_cell_formula_units_Z 12
_cell_length_a 8.384145
_cell_length_b 15.179679
_cell_length_c 6.666321
_cell_angle_alpha 93.320958
_cell_angle_beta 76.800493
_cell_angle_gamma 138.135164
_cell_volume 542.982037
_symmetry_space_group_name_H-M "P -1"
_symmetry_group_IT_number 2
_symmetry_cell_setting 'triclinic'
loop_
_space_group_symop_operation_xyz
x,y,z
-x,-y,-z
loop_
_atom_site_type_symbol
_atom_site_label
_atom_site_fract_x
_atom_site_fract_y
_atom_site_fract_z
Si Si1 0.483621 0.902263 0.113972
Si Si2 0.123844 0.874151 0.655576
Si Si3 0.713310 0.811463 0.006388
Si Si4 0.614273 0.379145 0.588010
Si Si5 0.083701 0.119442 0.612074
Si Si6 0.085849 0.677316 0.482144
O O1 0.215789 0.761472 0.249918
O O2 0.644535 0.988237 0.280925
O O3 0.605447 0.862796 0.976917
O O4 0.500000 0.000000 0.000000
O O5 0.877769 0.818797 0.814105
O O6 0.110047 0.890335 0.424714
O O7 0.119215 0.767189 0.649417
O O8 0.483340 0.666269 0.159070
O O9 0.109439 0.106075 0.836014
O O10 0.361513 0.270735 0.518660
O O11 0.799099 0.534390 0.519963
O O12 0.765675 0.350456 0.501512
O O13 0.000000 0.000000 0.500000
#
# Coordination Sequence:
#
# PCOD9106235 Si02
#       6
#     2   2   2   2   2   2
#     4  11  24  40  63  93 132 163 210 262 309 372
#     4  12  23  36  66  96 125 163 213 261 314 364
#     4   9  22  42  61  99 122 160 213 262 308 366
#     4   8  20  43  65  86 130 167 209 258 307 380
#     4  10  20  39  68  90 125 167 208 255 315 369
#     4  10  21  41  63  92 127 171 208 252 320 375
#
# _framework density 22.100176000000001
#
# number of rings (size 3 to 8) (size 9 to 14) (size 15 to 20)
#    1.000    1.000    1.667    1.000    2.333    2.667 
#    0.000    1.667    0.000    6.000    0.000    0.000 
#    0.000    0.000    0.000    0.000    0.000    0.000 
#
# Total GULP energy -66865.369983 kJ/mol
# GULP energy per Si atom -5572.114165 kJ/mol
# Density = 2.204988 g / cm^3
# Si number density = 22.100176 Si / 1000 Ang^3
#
#
#
# Elastic Constant Matrix: (Units=GPa)
#
#
# Indices 1 2 3 4 5 6 
#
# 1 63.3066 3.6399 35.7600 -5.9041 8.6395 -5.7104
# 2 3.6399 96.1215 38.1531 -36.1864 -4.3637 -2.8760
# 3 35.7600 38.1531 92.9561 -21.0080 -13.6068 -9.3879
# 4 -5.9041 -36.1864 -21.0080 45.3558 0.2265 -0.4679
# 5 8.6395 -4.3637 -13.6068 0.2265 35.2505 14.2740
# 6 -5.7104 -2.8760 -9.3879 -0.4679 14.2740 34.4725
#
#
#
# Elastic Compliance Matrix: (Units=1/GPa)
#
#
# Indices 1 2 3 4 5 6 
#
# 1 0.024905 0.003788 -0.012213 0.000739 -0.012987 0.006503
# 2 0.003788 0.016776 -0.005950 0.011144 -0.001737 0.001277
# 3 -0.012213 -0.005950 0.019933 0.002829 0.010500 -0.001400
# 4 0.000739 0.011144 0.002829 0.032356 0.001402 0.001681
# 5 -0.012987 -0.001737 0.010500 0.001402 0.042224 -0.016902
# 6 0.006503 0.001277 -0.001400 0.001681 -0.016902 0.036832
#
#
# Mechanical properties :
#
#
# Convention : Reuss Voigt Hill
#
# Bulk Modulus (GPa) = 30.42771 45.27669 37.85220
# Shear Modulus (GPa) = 23.50393 34.67119 29.08756
#
# Velocity S-wave (km/s) = 3.26470 3.96513 3.63184
# Velocity P-wave (km/s) = 5.29235 6.44162 5.89506
#
# Compressibility (1/GPa) = 0.03286478
#
# Stress axis : x y z
#
# Youngs Moduli (GPa) = 40.15278 59.60825 50.16856
#
# Poissons Ratio (x) = -0.22578 0.61269
# Poissons Ratio (y) = -0.15209 0.29848
# Poissons Ratio (z) = 0.49037 0.35464
#
# Static dielectric constant tensor:
#      x y z
#    x 1.929250 -0.021830 0.030790 
#    y -0.021830 1.819410 -0.029090 
#    z 0.030790 -0.029090 1.940590 
# 
# From -- ./inp_files/212752.got.cif
#   From: 2010.05.17/outbox.cif.g08.bks.cpg/sg2_107_cif.got.tgz:212752.got - 2010.06.03 11:33:40.
