data_PCOD9106175
_publ_section_title
;
Structure prediction by ZEFSAII (Michael W. Deem and Ramdas Pophale) SiO2 
 PCOD9106175
Probable space group: P -1
;
_chemical_formula_sum "Si O2"
_cell_formula_units_Z 14
_cell_length_a 14.619112
_cell_length_b 11.589402
_cell_length_c 7.848495
_cell_angle_alpha 37.437779
_cell_angle_beta 75.902870
_cell_angle_gamma 51.437333
_cell_volume 536.433625
_symmetry_space_group_name_H-M "P -1"
_symmetry_group_IT_number 2
_symmetry_cell_setting 'triclinic'
loop_
_space_group_symop_operation_xyz
x,y,z
-x,-y,-z
loop_
_atom_site_type_symbol
_atom_site_label
_atom_site_fract_x
_atom_site_fract_y
_atom_site_fract_z
Si Si1 0.703619 0.176754 0.438284
Si Si2 0.400484 0.321823 0.204186
Si Si3 0.354900 0.269156 0.665867
Si Si4 0.807902 0.642882 0.891788
Si Si5 0.853622 0.727887 0.393798
Si Si6 0.037782 0.060373 0.582810
Si Si7 0.828781 0.147684 0.764638
O O1 0.769221 0.125339 0.652077
O O2 0.709902 0.943105 0.673215
O O3 0.572678 0.508280 0.083285
O O4 0.808204 0.101872 0.333739
O O5 0.379472 0.344003 0.389502
O O6 0.270907 0.435632 0.020678
O O7 0.500000 0.000000 0.500000
O O8 0.262475 0.222475 0.711813
O O9 0.267305 0.535596 0.514005
O O10 0.500000 0.000000 0.000000
O O11 0.851999 0.648409 0.677962
O O12 0.939644 0.390146 0.238788
O O13 0.000000 0.500000 0.500000
O O14 0.825489 0.993330 0.091493
O O15 0.981723 0.001843 0.821577
O O16 0.000000 0.000000 0.500000
#
# Coordination Sequence:
#
# PCOD9106175 Si02
#       7
#     2   2   2   2   2   2   2
#     4  11  23  39  69 100 133 177 232 280 340 410
#     4  11  24  45  68  93 134 181 233 281 337 409
#     4  11  27  46  69  99 142 184 228 282 346 409
#     4  11  23  42  66  99 136 175 227 285 340 411
#     4  11  26  43  69 105 140 177 226 287 350 403
#     4  10  20  39  67  97 136 175 222 277 342 404
#     4  11  24  41  68 102 139 181 225 284 345 410
#
# _framework density 26.098289000000001
#
# number of rings (size 3 to 8) (size 9 to 14) (size 15 to 20)
#    0.000    1.143    2.857    3.857    6.000    1.714 
#    0.000    0.000    0.000    0.000    0.000    0.000 
#    0.000    0.000    0.000    0.000    0.000    0.000 
#
# Total GULP energy -78416.096433 kJ/mol
# GULP energy per Si atom -5601.149745 kJ/mol
# Density = 2.603889 g / cm^3
# Si number density = 26.098289 Si / 1000 Ang^3
#
#
#
# Elastic Constant Matrix: (Units=GPa)
#
#
# Indices 1 2 3 4 5 6 
#
# 1 105.1231 -3.3584 1.2191 -3.3593 -8.4027 18.4500
# 2 -3.3584 106.5764 -10.0143 7.7977 -8.3984 13.4344
# 3 1.2191 -10.0143 103.4979 -11.4328 -19.7523 -3.1342
# 4 -3.3593 7.7977 -11.4328 54.4800 -0.8284 -6.2745
# 5 -8.4027 -8.3984 -19.7523 -0.8284 43.4254 -3.2523
# 6 18.4500 13.4344 -3.1342 -6.2745 -3.2523 36.3250
#
#
#
# Elastic Compliance Matrix: (Units=1/GPa)
#
#
# Indices 1 2 3 4 5 6 
#
# 1 0.010708 0.001239 0.000183 -0.000108 0.001964 -0.005724
# 2 0.001239 0.010399 0.001133 -0.001650 0.002402 -0.004447
# 3 0.000183 0.001133 0.011120 0.002422 0.005460 0.001355
# 4 -0.000108 -0.001650 0.002422 0.019621 0.001465 0.004394
# 5 0.001964 0.002402 0.005460 0.001465 0.026475 0.001209
# 6 -0.005724 -0.004447 0.001355 0.004394 0.001209 0.033066
#
#
# Mechanical properties :
#
#
# Convention : Reuss Voigt Hill
#
# Bulk Modulus (GPa) = 26.78241 32.32114 29.55177
# Shear Modulus (GPa) = 42.11428 48.66949 45.39188
#
# Velocity S-wave (km/s) = 4.02142 4.32308 4.17498
# Velocity P-wave (km/s) = 5.64330 6.10983 5.88119
#
# Compressibility (1/GPa) = 0.03733794
#
# Stress axis : x y z
#
# Youngs Moduli (GPa) = 93.38562 96.16280 89.92712
#
# Poissons Ratio (x) = -0.11913 -0.01649
# Poissons Ratio (y) = -0.11569 -0.10189
# Poissons Ratio (z) = -0.01712 -0.10895
#
# Static dielectric constant tensor:
#      x y z
#    x 2.111260 -0.016810 0.112530 
#    y -0.016810 2.059180 -0.061830 
#    z 0.112530 -0.061830 2.239510 
# 
# From -- ./inp_files/331547.got.cif
#   From: 2010.05.17/outbox.cif.g08.bks.cpg/sg2_166_cif.got.tgz:331547.got - 2010.06.03 11:33:40.
