data_PCOD9106839
_publ_section_title
;
Structure prediction by ZEFSAII (Michael W. Deem and Ramdas Pophale) SiO2 
 PCOD9106839
Probable space group: P -1
;
_chemical_formula_sum "Si O2"
_cell_formula_units_Z 14
_cell_length_a 9.911596
_cell_length_b 9.101488
_cell_length_c 14.619280
_cell_angle_alpha 64.098749
_cell_angle_beta 57.583473
_cell_angle_gamma 108.305778
_cell_volume 692.928610
_symmetry_space_group_name_H-M "P -1"
_symmetry_group_IT_number 2
_symmetry_cell_setting 'triclinic'
loop_
_space_group_symop_operation_xyz
x,y,z
-x,-y,-z
loop_
_atom_site_type_symbol
_atom_site_label
_atom_site_fract_x
_atom_site_fract_y
_atom_site_fract_z
Si Si1 0.054705 0.859257 0.630154
Si Si2 0.227576 0.601411 0.437434
Si Si3 0.308682 0.377282 0.331845
Si Si4 0.100011 0.921959 0.796710
Si Si5 0.250502 0.383622 0.654556
Si Si6 0.249501 0.483723 0.839510
Si Si7 0.487716 0.990708 0.365690
O O1 0.974965 0.797067 0.780282
O O2 0.848195 0.689765 0.679067
O O3 0.174377 0.124997 0.496690
O O4 0.255344 0.873783 0.534702
O O5 0.332314 0.544030 0.347596
O O6 0.175977 0.467598 0.587146
O O7 0.000000 0.500000 0.500000
O O8 0.396434 0.873627 0.330276
O O9 0.561678 0.495915 0.187501
O O10 0.363099 0.055688 0.645885
O O11 0.094596 0.106617 0.776445
O O12 0.993571 0.736921 0.966742
O O13 0.500000 0.500000 0.500000
O O14 0.252062 0.448220 0.740182
O O15 0.340577 0.731185 0.760809
#
# Coordination Sequence:
#
# PCOD9106839 Si02
#       7
#     2   2   2   2   2   2   2
#     4  10  21  37  65  89 123 164 215 259 300 364
#     4  12  23  39  66  96 120 156 215 273 306 357
#     4  10  20  40  61  91 121 164 214 255 307 366
#     4  12  23  40  63  95 131 166 205 255 319 378
#     4  12  22  41  67  92 122 166 215 259 307 368
#     4  11  25  39  62  95 133 165 203 254 320 386
#     4  11  23  38  63  92 128 161 211 262 305 363
#
# _framework density 20.204104000000001
#
# number of rings (size 3 to 8) (size 9 to 14) (size 15 to 20)
#    0.000    0.857    5.714    2.143    2.000    0.571 
#    0.000    0.000    0.000    2.571    0.000    0.000 
#    0.000    0.000    0.000    0.000    0.000    0.000 
#
# Total GULP energy -78196.567832 kJ/mol
# GULP energy per Si atom -5585.469131 kJ/mol
# Density = 2.015812 g / cm^3
# Si number density = 20.204104 Si / 1000 Ang^3
#
#
#
# Elastic Constant Matrix: (Units=GPa)
#
#
# Indices 1 2 3 4 5 6 
#
# 1 99.6944 30.7781 31.8831 9.2542 9.4584 4.3401
# 2 30.7781 176.2864 45.6643 9.8777 10.1445 -0.8330
# 3 31.8831 45.6643 63.1791 16.9298 11.9362 5.5024
# 4 9.2542 9.8777 16.9298 21.9064 -1.1260 7.2745
# 5 9.4584 10.1445 11.9362 -1.1260 18.2243 6.0916
# 6 4.3401 -0.8330 5.5024 7.2745 6.0916 37.5408
#
#
#
# Elastic Compliance Matrix: (Units=1/GPa)
#
#
# Indices 1 2 3 4 5 6 
#
# 1 0.012151 -0.000646 -0.004765 -0.001311 -0.002909 0.000005
# 2 -0.000646 0.007062 -0.004860 0.000488 -0.000704 0.000963
# 3 -0.004765 -0.004860 0.030340 -0.021052 -0.016938 0.002824
# 4 -0.001311 0.000488 -0.021052 0.067964 0.022958 -0.013647
# 5 -0.002909 -0.000704 -0.016938 0.022958 0.073841 -0.013627
# 6 0.000005 0.000963 0.002824 -0.013647 -0.013627 0.031100
#
#
# Mechanical properties :
#
#
# Convention : Reuss Voigt Hill
#
# Bulk Modulus (GPa) = 34.46812 61.75677 48.11244
# Shear Modulus (GPa) = 19.78859 30.92326 25.35593
#
# Velocity S-wave (km/s) = 3.13299 3.91646 3.54643
# Velocity P-wave (km/s) = 5.49404 7.14733 6.37451
#
# Compressibility (1/GPa) = 0.02901232
#
# Stress axis : x y z
#
# Youngs Moduli (GPa) = 82.29501 141.60264 32.95953
#
# Poissons Ratio (x) = 0.09154 0.15704
# Poissons Ratio (y) = 0.05320 0.16017
# Poissons Ratio (z) = 0.39210 0.68814
#
# Static dielectric constant tensor:
#      x y z
#    x 1.727700 -0.010410 -0.001910 
#    y -0.010410 1.752520 -0.015690 
#    z -0.001910 -0.015690 1.690810 
# 
# From -- ./inp_files/174528.got.cif
#   From: 2010.05.17/outbox.cif.g08.bks.cpg/sg2_88_cif.got.tgz:174528.got - 2010.06.03 11:33:40.
