data_PCOD9106980
_publ_section_title
;
Structure prediction by ZEFSAII (Michael W. Deem and Ramdas Pophale) SiO2 
 PCOD9106980
Probable space group: P -1
;
_chemical_formula_sum "Si O2"
_cell_formula_units_Z 16
_cell_length_a 15.538088
_cell_length_b 9.260330
_cell_length_c 12.742811
_cell_angle_alpha 148.086786
_cell_angle_beta 58.603065
_cell_angle_gamma 108.489111
_cell_volume 794.918021
_symmetry_space_group_name_H-M "P -1"
_symmetry_group_IT_number 2
_symmetry_cell_setting 'triclinic'
loop_
_space_group_symop_operation_xyz
x,y,z
-x,-y,-z
loop_
_atom_site_type_symbol
_atom_site_label
_atom_site_fract_x
_atom_site_fract_y
_atom_site_fract_z
Si Si1 0.006237 0.933669 0.775071
Si Si2 0.954322 0.409253 0.253292
Si Si3 0.548258 0.214288 0.861425
Si Si4 0.146255 0.647857 0.324466
Si Si5 0.614953 0.994325 0.467180
Si Si6 0.664388 0.592382 0.793948
Si Si7 0.190213 0.133518 0.258852
Si Si8 0.731633 0.362514 0.959040
O O1 0.907218 0.825041 0.734430
O O2 0.060540 0.774076 0.747594
O O3 0.086508 0.875072 0.590540
O O4 0.960226 0.250552 0.042166
O O5 0.862207 0.695483 0.499345
O O6 0.065392 0.468480 0.239983
O O7 0.604183 0.995559 0.601563
O O8 0.500000 0.500000 0.000000
O O9 0.445350 0.184902 0.967369
O O10 0.630640 0.273098 0.926547
O O11 0.254739 0.470767 0.198966
O O12 0.179445 0.742793 0.250662
O O13 0.698103 0.703944 0.199949
O O14 0.500000 0.000000 0.500000
O O15 0.643650 0.284562 0.594279
O O16 0.722527 0.726697 0.752726
O O17 0.232566 0.805407 0.060063
#
# Coordination Sequence:
#
# PCOD9106980 Si02
#       8
#     2   2   2   2   2   2   2   2
#     4  10  21  40  63  95 126 163 217 258 301 380
#     4  10  21  39  66  91 126 166 214 258 304 377
#     4  10  20  40  62  90 123 160 212 259 298 374
#     4  11  20  38  64  92 117 174 213 248 303 381
#     4  11  21  41  65  91 121 164 219 255 295 379
#     4  11  20  41  69  87 123 170 211 253 306 377
#     4  11  24  43  60  97 135 158 203 270 321 358
#     4  12  25  39  65  96 131 162 204 268 321 358
#
# _framework density 20.127863000000001
#
# number of rings (size 3 to 8) (size 9 to 14) (size 15 to 20)
#    0.000    1.250    7.500    0.750    1.750    3.500 
#    2.250    1.875    0.000    0.000    0.000    0.000 
#    0.000    0.000    0.000    0.000    0.000    0.000 
#
# Total GULP energy -89225.849440 kJ/mol
# GULP energy per Si atom -5576.615590 kJ/mol
# Density = 2.008205 g / cm^3
# Si number density = 20.127863 Si / 1000 Ang^3
#
#
#
# Elastic Constant Matrix: (Units=GPa)
#
#
# Indices 1 2 3 4 5 6 
#
# 1 44.6883 18.3391 18.8164 -18.7898 4.8258 16.3570
# 2 18.3391 87.7496 38.2103 -7.7769 -9.4942 12.0384
# 3 18.8164 38.2103 117.8093 -25.0873 17.6247 7.2905
# 4 -18.7898 -7.7769 -25.0873 25.0983 3.3011 -8.5704
# 5 4.8258 -9.4942 17.6247 3.3011 26.6989 -2.7446
# 6 16.3570 12.0384 7.2905 -8.5704 -2.7446 22.1097
#
#
#
# Elastic Compliance Matrix: (Units=1/GPa)
#
#
# Indices 1 2 3 4 5 6 
#
# 1 0.050635 -0.010807 0.009134 0.039435 -0.026219 -0.022556
# 2 -0.010807 0.018885 -0.010053 -0.015497 0.016925 -0.002879
# 3 0.009134 -0.010053 0.018756 0.025090 -0.020742 -0.000317
# 4 0.039435 -0.015497 0.025090 0.096090 -0.040756 0.003178
# 5 -0.026219 0.016925 -0.020742 -0.040756 0.067937 0.009656
# 6 -0.022556 -0.002879 -0.000317 0.003178 0.009656 0.066019
#
#
# Mechanical properties :
#
#
# Convention : Reuss Voigt Hill
#
# Bulk Modulus (GPa) = 15.42664 44.55321 29.98993
# Shear Modulus (GPa) = 13.75967 26.44013 20.09990
#
# Velocity S-wave (km/s) = 2.61744 3.62831 3.16351
# Velocity P-wave (km/s) = 4.10068 6.30365 5.31750
#
# Compressibility (1/GPa) = 0.06482292
#
# Stress axis : x y z
#
# Youngs Moduli (GPa) = 19.74928 52.95204 53.31707
#
# Poissons Ratio (x) = 0.57225 -0.48699
# Poissons Ratio (y) = 0.21343 0.53600
# Poissons Ratio (z) = -0.18039 0.53233
#
# Static dielectric constant tensor:
#      x y z
#    x 1.695850 0.010630 0.004810 
#    y 0.010630 1.729520 -0.012140 
#    z 0.004810 -0.012140 1.780650 
# 
# From -- ./inp_files/448321.got.cif
#   From: 2010.05.17/outbox.cif.g08.bks.cpg/sg2_225_cif.got.tgz:448321.got - 2010.06.03 11:33:40.
