data_PCOD9106089
_publ_section_title
;
Structure prediction by ZEFSAII (Michael W. Deem and Ramdas Pophale) SiO2 
 PCOD9106089
Probable space group: P -1
;
_chemical_formula_sum "Si O2"
_cell_formula_units_Z 16
_cell_length_a 7.945117
_cell_length_b 9.132695
_cell_length_c 23.027375
_cell_angle_alpha 148.868988
_cell_angle_beta 52.951918
_cell_angle_gamma 125.743701
_cell_volume 679.903907
_symmetry_space_group_name_H-M "P -1"
_symmetry_group_IT_number 2
_symmetry_cell_setting 'triclinic'
loop_
_space_group_symop_operation_xyz
x,y,z
-x,-y,-z
loop_
_atom_site_type_symbol
_atom_site_label
_atom_site_fract_x
_atom_site_fract_y
_atom_site_fract_z
Si Si1 0.015492 0.825054 0.680724
Si Si2 0.370767 0.262555 0.551308
Si Si3 0.639143 0.077723 0.214800
Si Si4 0.690350 0.242830 0.906865
Si Si5 0.503962 0.095002 0.695973
Si Si6 0.842007 0.215646 0.488425
Si Si7 0.953445 0.789257 0.993603
Si Si8 0.383840 0.674450 0.918533
O O1 0.010687 0.817936 0.608826
O O2 0.940326 0.493035 0.599354
O O3 0.256457 0.947504 0.688948
O O4 0.864564 0.036004 0.806105
O O5 0.333475 0.585378 0.666689
O O6 0.610423 0.266624 0.529066
O O7 0.364548 0.092622 0.434168
O O8 0.205162 0.073374 0.563771
O O9 0.520799 0.965276 0.141603
O O10 0.475846 0.937734 0.250873
O O11 0.867566 0.975874 0.126168
O O12 0.772836 0.502388 0.933297
O O13 0.663962 0.377554 0.020945
O O14 0.514263 0.425486 0.787186
O O15 0.166082 0.667494 0.925921
O O16 0.000000 0.000000 0.000000
O O17 0.500000 0.000000 0.000000
#
# Coordination Sequence:
#
# PCOD9106089 Si02
#       8
#     2   2   2   2   2   2   2   2
#     4  10  20  39  67  93 127 173 222 271 325 400
#     4  10  22  40  66  97 129 172 218 279 332 393
#     4  12  25  44  67  98 137 176 221 276 339 393
#     4  12  24  44  71  97 137 180 223 275 336 401
#     4  11  24  44  66  93 137 174 225 276 329 397
#     4   9  20  38  64  97 125 171 225 269 328 398
#     4  12  27  44  69 104 138 174 223 281 336 399
#     4  12  27  46  71 101 132 182 227 273 336 402
#
# _framework density 23.532737999999998
#
# number of rings (size 3 to 8) (size 9 to 14) (size 15 to 20)
#    0.000    1.000    3.750    2.625    5.250    2.000 
#    0.000    0.625    0.000    0.000    0.000    0.000 
#    0.000    0.000    0.000    0.000    0.000    0.000 
#
# Total GULP energy -89511.723368 kJ/mol
# GULP energy per Si atom -5594.482710 kJ/mol
# Density = 2.347918 g / cm^3
# Si number density = 23.532738 Si / 1000 Ang^3
#
#
#
# Elastic Constant Matrix: (Units=GPa)
#
#
# Indices 1 2 3 4 5 6 
#
# 1 26.1904 6.3923 12.5056 3.2047 5.4659 -7.9159
# 2 6.3923 106.3511 32.4880 31.5202 4.1330 -6.2803
# 3 12.5056 32.4880 142.5113 30.0842 -3.9330 -6.0246
# 4 3.2047 31.5202 30.0842 41.4704 -1.7124 2.2816
# 5 5.4659 4.1330 -3.9330 -1.7124 26.0280 2.4860
# 6 -7.9159 -6.2803 -6.0246 2.2816 2.4860 26.4744
#
#
#
# Elastic Compliance Matrix: (Units=1/GPa)
#
#
# Indices 1 2 3 4 5 6 
#
# 1 0.046990 0.000359 -0.003322 -0.002802 -0.012020 0.014749
# 2 0.000359 0.012833 -0.000866 -0.009512 -0.003260 0.004080
# 3 -0.003322 -0.000866 0.008743 -0.005418 0.001695 0.001098
# 4 -0.002802 -0.009512 -0.005418 0.036104 0.004406 -0.007852
# 5 -0.012020 -0.003260 0.001695 0.004406 0.042809 -0.008381
# 6 0.014749 0.004080 0.001098 -0.007852 -0.008381 0.044864
#
#
# Mechanical properties :
#
#
# Convention : Reuss Voigt Hill
#
# Bulk Modulus (GPa) = 16.41858 41.98050 29.19954
# Shear Modulus (GPa) = 22.69603 33.70568 28.20085
#
# Velocity S-wave (km/s) = 3.10892 3.78866 3.46550
# Velocity P-wave (km/s) = 4.45861 6.08412 5.33366
#
# Compressibility (1/GPa) = 0.06090662
#
# Stress axis : x y z
#
# Youngs Moduli (GPa) = 21.28122 77.92609 114.37866
#
# Poissons Ratio (x) = -0.02798 0.37996
# Poissons Ratio (y) = -0.00764 0.09910
# Poissons Ratio (z) = 0.07070 0.06752
#
# Static dielectric constant tensor:
#      x y z
#    x 1.971380 -0.016280 0.035290 
#    y -0.016280 1.910460 -0.014070 
#    z 0.035290 -0.014070 1.875180 
# 
# From -- ./inp_files/274830.got.cif
#   From: 2010.05.17/outbox.cif.g08.bks.cpg/sg2_138_cif.got.tgz:274830.got - 2010.06.03 11:33:40.
