data_PCOD9106788
_publ_section_title
;
Structure prediction by ZEFSAII (Michael W. Deem and Ramdas Pophale) SiO2 
 PCOD9106788
Probable space group: P -1
;
_chemical_formula_sum "Si O2"
_cell_formula_units_Z 16
_cell_length_a 25.844362
_cell_length_b 19.213187
_cell_length_c 6.786145
_cell_angle_alpha 75.198911
_cell_angle_beta 85.247083
_cell_angle_gamma 17.582797
_cell_volume 821.843379
_symmetry_space_group_name_H-M "P -1"
_symmetry_group_IT_number 2
_symmetry_cell_setting 'triclinic'
loop_
_space_group_symop_operation_xyz
x,y,z
-x,-y,-z
loop_
_atom_site_type_symbol
_atom_site_label
_atom_site_fract_x
_atom_site_fract_y
_atom_site_fract_z
Si Si1 0.133814 0.892183 0.038216
Si Si2 0.303860 0.724089 0.496959
Si Si3 0.273208 0.081191 0.670566
Si Si4 0.312837 0.161973 0.332061
Si Si5 0.730471 0.677175 0.425775
Si Si6 0.858186 0.632280 0.177867
Si Si7 0.510063 0.358312 0.030445
Si Si8 0.904393 0.919866 0.340626
O O1 0.164133 0.880091 0.256738
O O2 0.357566 0.576443 0.102991
O O3 0.045451 0.074954 0.799597
O O4 0.000000 0.000000 0.000000
O O5 0.500000 0.500000 0.500000
O O6 0.173930 0.951850 0.511971
O O7 0.388691 0.547079 0.739411
O O8 0.363123 0.025937 0.552002
O O9 0.197307 0.219508 0.798181
O O10 0.079994 0.315075 0.428821
O O11 0.417810 0.820570 0.858478
O O12 0.212340 0.356992 0.364981
O O13 0.521509 0.915737 0.361839
O O14 0.169829 0.330135 0.074077
O O15 0.709612 0.768896 0.207767
O O16 0.904570 0.389495 0.506720
O O17 0.708581 0.143116 0.142832
#
# Coordination Sequence:
#
# PCOD9106788 Si02
#       8
#     2   2   2   2   2   2   2   2
#     4  11  25  43  65  93 131 161 202 264 317 368
#     4  11  21  43  69  89 121 168 207 255 318 371
#     4  10  22  38  59  92 124 154 207 257 299 363
#     4  10  22  40  62  86 128 166 198 253 315 360
#     4  10  22  40  61  90 125 159 208 253 302 367
#     4  10  20  40  61  87 123 161 203 254 304 363
#     4  11  22  41  65  92 126 162 210 260 301 378
#     4  11  22  41  65  94 124 161 215 254 302 382
#
# _framework density 19.468430000000001
#
# number of rings (size 3 to 8) (size 9 to 14) (size 15 to 20)
#    0.000    1.500    3.750    1.500    1.750    4.000 
#    4.500    0.000    0.000    0.000    0.000    0.000 
#    0.000    0.000    0.000    0.000    0.000    0.000 
#
# Total GULP energy -89361.891973 kJ/mol
# GULP energy per Si atom -5585.118248 kJ/mol
# Density = 1.942412 g / cm^3
# Si number density = 19.468430 Si / 1000 Ang^3
#
#
#
# Elastic Constant Matrix: (Units=GPa)
#
#
# Indices 1 2 3 4 5 6 
#
# 1 112.7591 38.1653 38.4778 7.5106 -4.2572 3.8882
# 2 38.1653 84.6320 44.7270 9.1195 -9.2257 25.0731
# 3 38.4778 44.7270 83.2522 25.6113 12.2521 27.0396
# 4 7.5106 9.1195 25.6113 21.6351 5.6261 -3.0714
# 5 -4.2572 -9.2257 12.2521 5.6261 33.5360 -1.7390
# 6 3.8882 25.0731 27.0396 -3.0714 -1.7390 45.0650
#
#
#
# Elastic Compliance Matrix: (Units=1/GPa)
#
#
# Indices 1 2 3 4 5 6 
#
# 1 0.012473 -0.003414 -0.009142 0.008148 0.002979 0.006979
# 2 -0.003414 0.020588 -0.009018 0.000282 0.008197 -0.005414
# 3 -0.009142 -0.009018 0.046096 -0.047638 -0.013819 -0.025632
# 4 0.008148 0.000282 -0.047638 0.103869 0.002901 0.034915
# 5 0.002979 0.008197 -0.013819 0.002901 0.037279 0.005110
# 6 0.006979 -0.005414 -0.025632 0.034915 0.005110 0.042557
#
#
# Mechanical properties :
#
#
# Convention : Reuss Voigt Hill
#
# Bulk Modulus (GPa) = 27.77091 58.15370 42.96231
# Shear Modulus (GPa) = 15.72268 30.66545 23.19407
#
# Velocity S-wave (km/s) = 2.84491 3.97311 3.45536
# Velocity P-wave (km/s) = 5.00868 7.14024 6.16725
#
# Compressibility (1/GPa) = 0.03600890
#
# Stress axis : x y z
#
# Youngs Moduli (GPa) = 80.17463 48.57129 21.69399
#
# Poissons Ratio (x) = 0.16582 0.19833
# Poissons Ratio (y) = 0.27370 0.19563
# Poissons Ratio (z) = 0.73298 0.43801
#
# Static dielectric constant tensor:
#      x y z
#    x 1.690900 -0.021290 0.005170 
#    y -0.021290 1.681940 0.015660 
#    z 0.005170 0.015660 1.666910 
# 
# From -- ./inp_files/47970.got.cif
#   From: 2010.05.17/outbox.cif.g08.bks.cpg/sg2_24_cif.got.tgz:47970.got - 2010.06.03 11:33:40.
