data_PCOD9106964
_publ_section_title
;
Structure prediction by ZEFSAII (Michael W. Deem and Ramdas Pophale) SiO2 
 PCOD9106964
Probable space group: P -1
;
_chemical_formula_sum "Si O2"
_cell_formula_units_Z 16
_cell_length_a 7.570876
_cell_length_b 6.738983
_cell_length_c 19.998172
_cell_angle_alpha 82.993910
_cell_angle_beta 126.988280
_cell_angle_gamma 115.555840
_cell_volume 721.722672
_symmetry_space_group_name_H-M "P -1"
_symmetry_group_IT_number 2
_symmetry_cell_setting 'triclinic'
loop_
_space_group_symop_operation_xyz
x,y,z
-x,-y,-z
loop_
_atom_site_type_symbol
_atom_site_label
_atom_site_fract_x
_atom_site_fract_y
_atom_site_fract_z
Si Si1 0.101798 0.338891 0.729201
Si Si2 0.643603 0.772037 0.332331
Si Si3 0.649737 0.246986 0.052266
Si Si4 0.962581 0.253869 0.342511
Si Si5 0.787385 0.620493 0.810702
Si Si6 0.242960 0.501198 0.522864
Si Si7 0.706650 0.885684 0.669249
Si Si8 0.559274 0.524465 0.907701
O O1 0.192494 0.289084 0.680966
O O2 0.289571 0.336195 0.828526
O O3 0.135748 0.588704 0.721557
O O4 0.823070 0.152519 0.686382
O O5 0.367543 0.625482 0.247516
O O6 0.679461 0.670937 0.414092
O O7 0.755059 0.039554 0.343080
O O8 0.495739 0.292834 0.073686
O O9 0.922097 0.292721 0.134931
O O10 0.674295 0.419262 0.991251
O O11 0.500000 0.000000 0.000000
O O12 0.171006 0.415395 0.435054
O O13 0.088070 0.163406 0.320501
O O14 0.689443 0.774990 0.742068
O O15 0.718176 0.608622 0.873264
O O16 0.459400 0.748572 0.576428
O O17 0.000000 0.500000 0.500000
#
# Coordination Sequence:
#
# PCOD9106964 Si02
#       8
#     2   2   2   2   2   2   2   2
#     4  10  20  40  62  89 122 162 206 254 310 364
#     4   9  21  40  61  89 123 160 209 261 301 369
#     4  11  23  42  66  97 129 162 202 253 314 374
#     4  11  21  39  63  86 122 167 210 257 315 360
#     4  10  21  43  66  92 129 165 211 255 310 375
#     4  11  21  40  58  88 125 162 209 259 313 364
#     4  10  23  40  60  89 123 161 211 261 300 371
#     4  10  23  41  65  93 129 162 205 256 305 375
#
# _framework density 22.169180000000001
#
# number of rings (size 3 to 8) (size 9 to 14) (size 15 to 20)
#    0.000    1.750    1.250    2.625    0.000    3.000 
#    9.000    7.500    0.000    0.000    0.000    0.000 
#    0.000    0.000    0.000    0.000    0.000    0.000 
#
# Total GULP energy -89482.835919 kJ/mol
# GULP energy per Si atom -5592.677245 kJ/mol
# Density = 2.211872 g / cm^3
# Si number density = 22.169180 Si / 1000 Ang^3
#
#
#
# Elastic Constant Matrix: (Units=GPa)
#
#
# Indices 1 2 3 4 5 6 
#
# 1 58.3374 22.0288 16.7286 6.7151 -3.3500 -6.3122
# 2 22.0288 87.9646 13.3491 18.1684 12.2572 4.7702
# 3 16.7286 13.3491 94.4368 -0.7354 0.4925 1.7946
# 4 6.7151 18.1684 -0.7354 20.7245 11.3491 5.8568
# 5 -3.3500 12.2572 0.4925 11.3491 42.6669 11.1136
# 6 -6.3122 4.7702 1.7946 5.8568 11.1136 23.6105
#
#
#
# Elastic Compliance Matrix: (Units=1/GPa)
#
#
# Indices 1 2 3 4 5 6 
#
# 1 0.021467 -0.004204 -0.003415 -0.007031 0.002923 0.007216
# 2 -0.004204 0.015156 -0.001463 -0.010927 -0.001602 -0.000610
# 3 -0.003415 -0.001463 0.011473 0.003623 -0.000367 -0.002216
# 4 -0.007031 -0.010927 0.003623 0.070713 -0.013345 -0.011207
# 5 0.002923 -0.001602 -0.000367 -0.013345 0.030230 -0.009786
# 6 0.007216 -0.000610 -0.002216 -0.011207 -0.009786 0.051962
#
#
# Mechanical properties :
#
#
# Convention : Reuss Voigt Hill
#
# Bulk Modulus (GPa) = 33.40975 38.32798 35.86887
# Shear Modulus (GPa) = 21.82053 29.97588 25.89820
#
# Velocity S-wave (km/s) = 3.14072 3.68114 3.42161
# Velocity P-wave (km/s) = 5.31556 5.94929 5.64133
#
# Compressibility (1/GPa) = 0.02993138
#
# Stress axis : x y z
#
# Youngs Moduli (GPa) = 46.58415 65.97994 87.16019
#
# Poissons Ratio (x) = 0.27737 0.29770
# Poissons Ratio (y) = 0.19583 0.12750
# Poissons Ratio (z) = 0.15911 0.09652
#
# Static dielectric constant tensor:
#      x y z
#    x 1.840630 0.010600 -0.000820 
#    y 0.010600 1.832090 0.006440 
#    z -0.000820 0.006440 1.794410 
# 
# From -- ./inp_files/585661.got.cif
#   From: 2010.05.17/outbox.cif.g08.bks.cpg/sg2_293_cif.got.tgz:585661.got - 2010.06.03 11:33:40.
