data_PCOD9106433
_publ_section_title
;
Structure prediction by ZEFSAII (Michael W. Deem and Ramdas Pophale) SiO2 
 PCOD9106433
Probable space group: P -1
;
_chemical_formula_sum "Si O2"
_cell_formula_units_Z 14
_cell_length_a 15.450161
_cell_length_b 8.832652
_cell_length_c 8.577041
_cell_angle_alpha 59.083106
_cell_angle_beta 66.589319
_cell_angle_gamma 115.585649
_cell_volume 543.142975
_symmetry_space_group_name_H-M "P -1"
_symmetry_group_IT_number 2
_symmetry_cell_setting 'triclinic'
loop_
_space_group_symop_operation_xyz
x,y,z
-x,-y,-z
loop_
_atom_site_type_symbol
_atom_site_label
_atom_site_fract_x
_atom_site_fract_y
_atom_site_fract_z
Si Si1 0.706902 0.007334 0.182560
Si Si2 0.845628 0.928144 0.594472
Si Si3 0.274018 0.300634 0.847522
Si Si4 0.981337 0.706491 0.237337
Si Si5 0.388787 0.177057 0.313238
Si Si6 0.613777 0.186800 0.665221
Si Si7 0.154899 0.443870 0.270145
O O1 0.669747 0.813165 0.175099
O O2 0.609955 0.816543 0.506040
O O3 0.703417 0.209877 0.048488
O O4 0.896337 0.246337 0.953522
O O5 0.780903 0.010571 0.529052
O O6 0.806753 0.699689 0.635184
O O7 0.766054 0.760812 0.908006
O O8 0.034574 0.234277 0.323597
O O9 0.382620 0.620797 0.531744
O O10 0.106423 0.056763 0.996856
O O11 0.803716 0.451558 0.432237
O O12 0.942207 0.605007 0.499456
O O13 0.424600 0.039513 0.294789
O O14 0.500000 0.500000 0.000000
O O15 0.500000 0.000000 0.000000
#
# Coordination Sequence:
#
# PCOD9106433 Si02
#       7
#     2   2   2   2   2   2   2
#     4  10  22  41  70  97 135 165 230 272 343 380
#     4  10  23  41  68  96 139 173 225 273 337 394
#     4   9  22  43  67 101 127 175 226 273 336 391
#     4   9  22  38  74 100 139 166 228 277 336 392
#     4  12  28  46  63  98 142 180 225 277 337 403
#     4  12  25  43  68  99 139 181 224 271 343 401
#     4  10  20  39  70 105 131 167 223 288 330 392
#
# _framework density 25.775901999999999
#
# number of rings (size 3 to 8) (size 9 to 14) (size 15 to 20)
#    0.857    0.857    0.000    3.429    6.000    4.571 
#    2.571    2.857    0.000    0.000    0.000    0.000 
#    0.000    0.000    0.000    0.000    0.000    0.000 
#
# Total GULP energy -78209.890837 kJ/mol
# GULP energy per Si atom -5586.420774 kJ/mol
# Density = 2.571724 g / cm^3
# Si number density = 25.775902 Si / 1000 Ang^3
#
#
#
# Elastic Constant Matrix: (Units=GPa)
#
#
# Indices 1 2 3 4 5 6 
#
# 1 86.1221 28.6775 16.9505 -1.3839 -6.8358 -24.0869
# 2 28.6775 129.2656 59.9028 1.7913 12.3822 -37.5734
# 3 16.9505 59.9028 124.9640 -16.6322 13.3378 -20.1762
# 4 -1.3839 1.7913 -16.6322 55.3057 2.1857 -4.6669
# 5 -6.8358 12.3822 13.3378 2.1857 47.8937 -13.0312
# 6 -24.0869 -37.5734 -20.1762 -4.6669 -13.0312 41.5868
#
#
#
# Elastic Compliance Matrix: (Units=1/GPa)
#
#
# Indices 1 2 3 4 5 6 
#
# 1 0.015025 -0.000863 -0.000544 0.000829 0.005018 0.009324
# 2 -0.000863 0.012587 -0.004721 -0.001140 0.000317 0.008553
# 3 -0.000544 -0.004721 0.011128 0.003615 -0.001955 0.000611
# 4 0.000829 -0.001140 0.003615 0.019520 -0.000613 0.003202
# 5 0.005018 0.000317 -0.001955 -0.000613 0.024792 0.009944
# 6 0.009324 0.008553 0.000611 0.003202 0.009944 0.040946
#
#
# Mechanical properties :
#
#
# Convention : Reuss Voigt Hill
#
# Bulk Modulus (GPa) = 37.75995 61.26815 49.51405
# Shear Modulus (GPa) = 34.46296 44.61194 39.53745
#
# Velocity S-wave (km/s) = 3.66050 4.16476 3.92074
# Velocity P-wave (km/s) = 5.70498 6.85187 6.30456
#
# Compressibility (1/GPa) = 0.02648309
#
# Stress axis : x y z
#
# Youngs Moduli (GPa) = 66.55365 79.44788 89.86643
#
# Poissons Ratio (x) = 0.06857 0.04891
# Poissons Ratio (y) = 0.05744 0.42427
# Poissons Ratio (z) = 0.03622 0.37508
#
# Static dielectric constant tensor:
#      x y z
#    x 2.233620 0.072750 -0.115960 
#    y 0.072750 1.991590 -0.075710 
#    z -0.115960 -0.075710 2.074900 
# 
# From -- ./inp_files/325751.got.cif
#   From: 2010.05.17/outbox.cif.g08.bks.cpg/sg2_163_cif.got.tgz:325751.got - 2010.06.03 11:33:40.
