data_PCOD9106297
_publ_section_title
;
Structure prediction by ZEFSAII (Michael W. Deem and Ramdas Pophale) SiO2 
 PCOD9106297
Probable space group: P -1
;
_chemical_formula_sum "Si O2"
_cell_formula_units_Z 14
_cell_length_a 15.037352
_cell_length_b 15.705672
_cell_length_c 6.040268
_cell_angle_alpha 101.684022
_cell_angle_beta 83.990702
_cell_angle_gamma 152.948390
_cell_volume 626.100215
_symmetry_space_group_name_H-M "P -1"
_symmetry_group_IT_number 2
_symmetry_cell_setting 'triclinic'
loop_
_space_group_symop_operation_xyz
x,y,z
-x,-y,-z
loop_
_atom_site_type_symbol
_atom_site_label
_atom_site_fract_x
_atom_site_fract_y
_atom_site_fract_z
Si Si1 0.729848 0.089306 0.855693
Si Si2 0.082607 0.204364 0.517228
Si Si3 0.398156 0.741617 0.417788
Si Si4 0.853530 0.552293 0.317227
Si Si5 0.716314 0.929131 0.138319
Si Si6 0.847178 0.899011 0.799679
Si Si7 0.234694 0.691458 0.040799
O O1 0.701236 0.161015 0.997466
O O2 0.921810 0.255673 0.731493
O O3 0.547345 0.904583 0.651891
O O4 0.753149 0.042073 0.024309
O O5 0.200369 0.393133 0.651381
O O6 0.209808 0.237157 0.391654
O O7 0.910312 0.082903 0.323040
O O8 0.966208 0.063107 0.682192
O O9 0.202863 0.528668 0.464522
O O10 0.529492 0.787729 0.267218
O O11 0.328682 0.760713 0.293210
O O12 0.739161 0.380912 0.111681
O O13 0.692096 0.824165 0.931153
O O14 0.000000 0.000000 0.000000
O O15 0.000000 0.500000 0.000000
#
# Coordination Sequence:
#
# PCOD9106297 Si02
#       7
#     2   2   2   2   2   2   2
#     4  11  24  45  65  92 133 180 224 272 325 387
#     4  10  20  39  68  97 131 173 215 269 329 389
#     4  12  25  41  67  96 134 176 221 275 326 386
#     4  11  24  42  64  98 131 171 222 269 330 386
#     4  11  21  40  68  97 131 172 223 268 326 392
#     4   9  19  36  67 100 128 171 218 261 328 397
#     4  10  26  42  65  96 133 175 226 271 327 388
#
# _framework density 22.360638000000002
#
# number of rings (size 3 to 8) (size 9 to 14) (size 15 to 20)
#    0.000    1.429    2.857    1.286    4.000    5.714 
#    0.000    0.714    0.000   14.571    0.000    0.000 
#    0.000    0.000    0.000    0.000    0.000    0.000 
#
# Total GULP energy -78129.968275 kJ/mol
# GULP energy per Si atom -5580.712020 kJ/mol
# Density = 2.230974 g / cm^3
# Si number density = 22.360638 Si / 1000 Ang^3
#
#
#
# Elastic Constant Matrix: (Units=GPa)
#
#
# Indices 1 2 3 4 5 6 
#
# 1 98.9250 50.9902 55.5035 13.9880 -2.7103 -47.6188
# 2 50.9902 77.4456 34.6220 -17.7336 -5.3049 10.3608
# 3 55.5035 34.6220 94.7133 -0.2096 2.4533 -12.6898
# 4 13.9880 -17.7336 -0.2096 14.6192 -14.9550 1.9887
# 5 -2.7103 -5.3049 2.4533 -14.9550 56.8793 6.8785
# 6 -47.6188 10.3608 -12.6898 1.9887 6.8785 37.8359
#
#
#
# Elastic Compliance Matrix: (Units=1/GPa)
#
#
# Indices 1 2 3 4 5 6 
#
# 1 -0.001972 0.011778 -0.004748 0.027457 0.009699 -0.010506
# 2 0.011778 0.001117 -0.005238 -0.017638 -0.005523 0.014692
# 3 -0.004748 -0.005238 0.015505 -0.004608 -0.002765 0.001404
# 4 0.027457 -0.017638 -0.004608 0.014869 -0.000726 0.037191
# 5 0.009699 -0.005523 -0.002765 -0.000726 0.016263 0.009873
# 6 -0.010506 0.014692 0.001404 0.037191 0.009873 0.005905
#
#
# Mechanical properties :
#
#
# Convention : Reuss Voigt Hill
#
# Bulk Modulus (GPa) = 54.84291 61.47948 58.16120
# Shear Modulus (GPa) = 92.28663 30.53144 61.40903
#
# Velocity S-wave (km/s) = 6.43129 3.69915 5.24620
# Velocity P-wave (km/s) = 8.92908 6.76751 7.92236
#
# Compressibility (1/GPa) = 0.01823390
#
# Stress axis : x y z
#
# Youngs Moduli (GPa) = -507.03733 895.40338 64.49724
#
# Poissons Ratio (x) = -10.54591 0.30621
# Poissons Ratio (y) = 5.97180 0.33782
# Poissons Ratio (z) = -2.40723 4.68995
#
# Static dielectric constant tensor:
#      x y z
#    x 1.839790 -0.035660 -0.094980 
#    y -0.035660 1.681410 -0.086030 
#    z -0.094980 -0.086030 1.846030 
# 
# From -- ./inp_files/56759.got.cif
#   From: 2010.05.17/outbox.cif.g08.bks.cpg/sg2_29_cif.got.tgz:56759.got - 2010.06.03 11:33:40.
