data_PCOD9106456
_publ_section_title
;
Structure prediction by ZEFSAII (Michael W. Deem and Ramdas Pophale) SiO2 
 PCOD9106456
Probable space group: P -1
;
_chemical_formula_sum "Si O2"
_cell_formula_units_Z 12
_cell_length_a 8.123840
_cell_length_b 11.103130
_cell_length_c 8.167418
_cell_angle_alpha 95.742832
_cell_angle_beta 54.171085
_cell_angle_gamma 121.558574
_cell_volume 485.736316
_symmetry_space_group_name_H-M "P -1"
_symmetry_group_IT_number 2
_symmetry_cell_setting 'triclinic'
loop_
_space_group_symop_operation_xyz
x,y,z
-x,-y,-z
loop_
_atom_site_type_symbol
_atom_site_label
_atom_site_fract_x
_atom_site_fract_y
_atom_site_fract_z
Si Si1 0.946745 0.036549 0.716124
Si Si2 0.509441 0.935627 0.759684
Si Si3 0.856572 0.110922 0.272512
Si Si4 0.757091 0.638522 0.436696
Si Si5 0.120154 0.428152 0.317177
Si Si6 0.812574 0.378800 0.963353
O O1 0.175079 0.204353 0.641146
O O2 0.701668 0.029211 0.807471
O O3 0.000000 0.000000 0.500000
O O4 0.931738 0.918339 0.831904
O O5 0.264211 0.925560 0.842578
O O6 0.662574 0.000019 0.509688
O O7 0.406329 0.768258 0.842376
O O8 0.937883 0.273749 0.303645
O O9 0.500000 0.500000 0.500000
O O10 0.751760 0.614356 0.630992
O O11 0.999680 0.648049 0.239756
O O12 0.275478 0.551241 0.105426
O O13 0.000000 0.500000 0.500000
O O14 0.000000 0.500000 0.000000
#
# Coordination Sequence:
#
# PCOD9106456 Si02
#       6
#     2   2   2   2   2   2
#     4  10  21  40  67  97 126 177 228 266 330 408
#     4  10  21  39  67  96 132 173 220 276 332 397
#     4  10  20  39  70  94 131 181 219 264 346 405
#     4  11  25  44  67  97 138 178 226 278 338 408
#     4  10  21  41  63  97 129 176 227 261 339 412
#     4  11  24  41  68 100 136 173 224 281 343 391
#
# _framework density 24.704763
#
# number of rings (size 3 to 8) (size 9 to 14) (size 15 to 20)
#    0.000    1.667    5.000    0.000    4.667    2.000 
#    3.000    2.500    0.000    0.000    0.000    0.000 
#    0.000    0.000    0.000    0.000    0.000    0.000 
#
# Total GULP energy -66936.753337 kJ/mol
# GULP energy per Si atom -5578.062778 kJ/mol
# Density = 2.464853 g / cm^3
# Si number density = 24.704763 Si / 1000 Ang^3
#
#
#
# Elastic Constant Matrix: (Units=GPa)
#
#
# Indices 1 2 3 4 5 6 
#
# 1 141.4073 40.2832 24.2809 -1.0415 34.9833 13.4559
# 2 40.2832 142.7271 34.9623 -32.5207 3.1708 6.4588
# 3 24.2809 34.9623 106.2530 -30.3826 11.4274 -7.2939
# 4 -1.0415 -32.5207 -30.3826 42.8397 -9.1041 -1.3813
# 5 34.9833 3.1708 11.4274 -9.1041 50.5702 1.8674
# 6 13.4559 6.4588 -7.2939 -1.3813 1.8674 50.0454
#
#
#
# Elastic Compliance Matrix: (Units=1/GPa)
#
#
# Indices 1 2 3 4 5 6 
#
# 1 0.010466 -0.003392 -0.002249 -0.005577 -0.007428 -0.002581
# 2 -0.003392 0.009793 -0.000659 0.007565 0.003257 -0.000361
# 3 -0.002249 -0.000659 0.012786 0.008637 0.000160 0.002786
# 4 -0.005577 0.007565 0.008637 0.036850 0.007974 0.002502
# 5 -0.007428 0.003257 0.000160 0.007974 0.026077 0.000847
# 6 -0.002581 -0.000361 0.002786 0.002502 0.000847 0.021166
#
#
# Mechanical properties :
#
#
# Convention : Reuss Voigt Hill
#
# Bulk Modulus (GPa) = 48.91090 65.49336 57.20213
# Shear Modulus (GPa) = 36.61566 48.08179 42.34872
#
# Velocity S-wave (km/s) = 3.85402 4.41642 4.14477
# Velocity P-wave (km/s) = 6.29649 7.25082 6.79044
#
# Compressibility (1/GPa) = 0.02044534
#
# Stress axis : x y z
#
# Youngs Moduli (GPa) = 95.54297 102.11577 78.21102
#
# Poissons Ratio (x) = 0.34640 0.17587
# Poissons Ratio (y) = 0.32410 0.05155
# Poissons Ratio (z) = 0.21484 0.06730
#
# Static dielectric constant tensor:
#      x y z
#    x 2.110790 -0.088150 -0.112650 
#    y -0.088150 1.909180 0.081200 
#    z -0.112650 0.081200 2.023840 
# 
# From -- ./inp_files/177618.got.cif
#   From: 2010.05.17/outbox.cif.g08.bks.cpg/sg2_89_cif.got.tgz:177618.got - 2010.06.03 11:33:40.
