data_PCOD9106858
_publ_section_title
;
Structure prediction by ZEFSAII (Michael W. Deem and Ramdas Pophale) SiO2 
 PCOD9106858
Probable space group: P -1
;
_chemical_formula_sum "Si O2"
_cell_formula_units_Z 16
_cell_length_a 11.657993
_cell_length_b 18.172853
_cell_length_c 9.265488
_cell_angle_alpha 65.047843
_cell_angle_beta 29.084907
_cell_angle_gamma 51.723005
_cell_volume 711.412646
_symmetry_space_group_name_H-M "P -1"
_symmetry_group_IT_number 2
_symmetry_cell_setting 'triclinic'
loop_
_space_group_symop_operation_xyz
x,y,z
-x,-y,-z
loop_
_atom_site_type_symbol
_atom_site_label
_atom_site_fract_x
_atom_site_fract_y
_atom_site_fract_z
Si Si1 0.089464 0.603157 0.388923
Si Si2 0.338038 0.693247 0.908189
Si Si3 0.538348 0.200191 0.080809
Si Si4 0.774090 0.998084 0.136866
Si Si5 0.239606 0.323937 0.775819
Si Si6 0.412241 0.702955 0.316572
Si Si7 0.138193 0.498320 0.121260
Si Si8 0.948254 0.797244 0.995029
O O1 0.086345 0.556769 0.278144
O O2 0.802178 0.714891 0.626874
O O3 0.055595 0.544810 0.601832
O O4 0.349372 0.614142 0.066410
O O5 0.348862 0.767502 0.938099
O O6 0.573560 0.659184 0.554636
O O7 0.059155 0.745017 0.071493
O O8 0.635600 0.091880 0.105774
O O9 0.663698 0.213549 0.785069
O O10 0.500000 0.000000 0.500000
O O11 0.000000 0.000000 0.000000
O O12 0.924161 0.897708 0.961223
O O13 0.333245 0.318196 0.839719
O O14 0.935164 0.424185 0.989834
O O15 0.300381 0.218590 0.752716
O O16 0.156284 0.738339 0.680194
O O17 0.544764 0.599667 0.174285
#
# Coordination Sequence:
#
# PCOD9106858 Si02
#       8
#     2   2   2   2   2   2   2   2
#     4  10  21  38  62  97 130 165 224 290 328 393
#     4  11  19  38  68  88 131 168 219 285 336 388
#     4  11  23  44  65 101 132 169 226 279 343 406
#     4  12  26  45  79 111 133 178 234 289 351 413
#     4  11  22  42  62  92 133 177 223 277 333 409
#     4  10  26  42  62  92 136 181 216 273 342 414
#     4  10  20  40  61  93 129 173 228 271 338 402
#     4  11  24  44  65  96 133 174 221 281 339 405
#
# _framework density 22.490462999999998
#
# number of rings (size 3 to 8) (size 9 to 14) (size 15 to 20)
#    0.000    1.250    3.750    1.875    1.750    3.500 
#    2.250    0.625    0.000    0.000    0.000    0.000 
#    0.000    0.000    0.000    0.000    0.000    0.000 
#
# Total GULP energy -89202.109783 kJ/mol
# GULP energy per Si atom -5575.131861 kJ/mol
# Density = 2.243927 g / cm^3
# Si number density = 22.490463 Si / 1000 Ang^3
#
#
#
# Elastic Constant Matrix: (Units=GPa)
#
#
# Indices 1 2 3 4 5 6 
#
# 1 61.3182 23.2935 5.0248 -1.2922 19.0456 -23.1643
# 2 23.2935 149.9693 17.3621 -22.7145 7.1116 -1.8075
# 3 5.0248 17.3621 73.0908 -9.3952 14.9588 3.2875
# 4 -1.2922 -22.7145 -9.3952 25.0966 -3.8005 7.9290
# 5 19.0456 7.1116 14.9588 -3.8005 28.6845 -6.7219
# 6 -23.1643 -1.8075 3.2875 7.9290 -6.7219 22.2652
#
#
#
# Elastic Compliance Matrix: (Units=1/GPa)
#
#
# Indices 1 2 3 4 5 6 
#
# 1 0.042259 -0.008526 -0.002670 -0.023968 -0.016675 0.047169
# 2 -0.008526 0.009616 -0.000023 0.012316 0.002150 -0.011823
# 3 -0.002670 -0.000023 0.017215 0.008432 -0.008644 -0.010934
# 4 -0.023968 0.012316 0.008432 0.068993 0.006398 -0.047818
# 5 -0.016675 0.002150 -0.008644 0.006398 0.050037 -0.003070
# 6 0.047169 -0.011823 -0.010934 -0.047818 -0.003070 0.110744
#
#
# Mechanical properties :
#
#
# Convention : Reuss Voigt Hill
#
# Bulk Modulus (GPa) = 21.43468 41.74881 31.59175
# Shear Modulus (GPa) = 14.84331 31.12245 22.98288
#
# Velocity S-wave (km/s) = 2.57180 3.72399 3.20018
# Velocity P-wave (km/s) = 4.28604 6.09048 5.26612
#
# Compressibility (1/GPa) = 0.04665338
#
# Stress axis : x y z
#
# Youngs Moduli (GPa) = 23.66352 103.99404 58.08748
#
# Poissons Ratio (x) = 0.88661 0.15508
# Poissons Ratio (y) = 0.20175 0.00135
# Poissons Ratio (z) = 0.06318 0.00241
#
# Static dielectric constant tensor:
#      x y z
#    x 1.863940 -0.020290 -0.119570 
#    y -0.020290 1.913900 0.041390 
#    z -0.119570 0.041390 1.957850 
# 
# From -- ./inp_files/39343.got.cif
#   From: 2010.05.17/outbox.cif.g08.bks.cpg/sg2_20_cif.got.tgz:39343.got - 2010.06.03 11:33:40.
