data_PCOD9106899
_publ_section_title
;
Structure prediction by ZEFSAII (Michael W. Deem and Ramdas Pophale) SiO2 
 PCOD9106899
Probable space group: P -1
;
_chemical_formula_sum "Si O2"
_cell_formula_units_Z 16
_cell_length_a 17.212365
_cell_length_b 22.669678
_cell_length_c 11.380439
_cell_angle_alpha 27.568866
_cell_angle_beta 24.108351
_cell_angle_gamma 25.762891
_cell_volume 734.666967
_symmetry_space_group_name_H-M "P -1"
_symmetry_group_IT_number 2
_symmetry_cell_setting 'triclinic'
loop_
_space_group_symop_operation_xyz
x,y,z
-x,-y,-z
loop_
_atom_site_type_symbol
_atom_site_label
_atom_site_fract_x
_atom_site_fract_y
_atom_site_fract_z
Si Si1 0.387196 0.295089 0.329878
Si Si2 0.344658 0.537450 0.387876
Si Si3 0.844217 0.586019 0.313391
Si Si4 0.803054 0.970724 0.343656
Si Si5 0.396884 0.122449 0.020899
Si Si6 0.661336 0.829660 0.609933
Si Si7 0.592641 0.236062 0.721613
Si Si8 0.761726 0.390914 0.342184
O O1 0.242904 0.364371 0.522397
O O2 0.586406 0.130199 0.360702
O O3 0.265693 0.269934 0.430557
O O4 0.497315 0.395440 0.972742
O O5 0.222772 0.524227 0.463875
O O6 0.477051 0.376786 0.547325
O O7 0.195024 0.626577 0.547425
O O8 0.724599 0.728427 0.145229
O O9 0.095157 0.544297 0.026098
O O10 0.772430 0.902469 0.624935
O O11 0.828420 0.854018 0.414777
O O12 0.000000 0.000000 0.000000
O O13 0.584447 0.115801 0.861292
O O14 0.500000 0.000000 0.000000
O O15 0.500000 0.000000 0.500000
O O16 0.538834 0.772275 0.968247
O O17 0.793074 0.248371 0.479774
O O18 0.500000 0.500000 0.500000
#
# Coordination Sequence:
#
# PCOD9106899 Si02
#       8
#     2   2   2   2   2   2   2   2
#     4  11  21  39  60  89 126 154 197 252 301 358
#     4  10  21  38  64  84 119 159 201 249 297 364
#     4  11  23  38  61  93 120 158 200 249 309 351
#     4  10  22  39  60  91 118 157 206 244 293 358
#     4  10  20  40  62  85 123 156 193 254 303 353
#     4   9  19  36  62  83 120 160 194 244 296 355
#     4   9  19  38  62  83 114 158 204 241 294 363
#     4  10  21  41  61  87 118 158 204 245 294 363
#
# _framework density 21.778575
#
# number of rings (size 3 to 8) (size 9 to 14) (size 15 to 20)
#    0.000    2.000    2.500    0.750    1.750    0.000 
#    6.750    3.125    0.000    0.000    0.000    0.000 
#    0.000    0.000    0.000    0.000    0.000    0.000 
#
# Total GULP energy -89175.942762 kJ/mol
# GULP energy per Si atom -5573.496423 kJ/mol
# Density = 2.172901 g / cm^3
# Si number density = 21.778575 Si / 1000 Ang^3
#
#
#
# Elastic Constant Matrix: (Units=GPa)
#
#
# Indices 1 2 3 4 5 6 
#
# 1 159.6223 50.5309 81.3171 5.4148 6.2719 66.5091
# 2 50.5309 71.6036 36.6150 -3.9235 0.9359 15.4342
# 3 81.3171 36.6150 150.3266 -11.8719 4.2636 32.9673
# 4 5.4148 -3.9235 -11.8719 32.2227 0.1787 6.0983
# 5 6.2719 0.9359 4.2636 0.1787 34.1371 -9.3162
# 6 66.5091 15.4342 32.9673 6.0983 -9.3162 40.8862
#
#
#
# Elastic Compliance Matrix: (Units=1/GPa)
#
#
# Indices 1 2 3 4 5 6 
#
# 1 0.035766 -0.010874 -0.003571 0.002132 -0.021216 -0.056347
# 2 -0.010874 0.019819 -0.001765 0.001173 0.005113 0.012620
# 3 -0.003571 -0.001765 0.009960 0.004538 -0.001250 -0.002517
# 4 0.002132 0.001173 0.004538 0.035158 -0.004981 -0.013948
# 5 -0.021216 0.005113 -0.001250 -0.004981 0.045428 0.044683
# 6 -0.056347 0.012620 -0.002517 -0.013948 0.044683 0.125645
#
#
# Mechanical properties :
#
#
# Convention : Reuss Voigt Hill
#
# Bulk Modulus (GPa) = 30.18962 79.83096 55.01029
# Shear Modulus (GPa) = 15.86105 35.65518 25.75811
#
# Velocity S-wave (km/s) = 2.70161 4.05058 3.44281
# Velocity P-wave (km/s) = 4.86043 7.65582 6.41231
#
# Compressibility (1/GPa) = 0.03312397
#
# Stress axis : x y z
#
# Youngs Moduli (GPa) = 27.95976 50.45549 100.40485
#
# Poissons Ratio (x) = 0.54865 0.35855
# Poissons Ratio (y) = 0.30404 0.17725
# Poissons Ratio (z) = 0.09985 0.08907
#
# Static dielectric constant tensor:
#      x y z
#    x 1.875810 0.006510 -0.080740 
#    y 0.006510 1.871580 0.137230 
#    z -0.080740 0.137230 1.769040 
# 
# From -- ./inp_files/448173.got.cif
#   From: 2010.05.17/outbox.cif.g08.bks.cpg/sg2_225_cif.got.tgz:448173.got - 2010.06.03 11:33:40.
