data_PCOD9106558
_publ_section_title
;
Structure prediction by ZEFSAII (Michael W. Deem and Ramdas Pophale) SiO2 
 PCOD9106558
Probable space group: P -1
;
_chemical_formula_sum "Si O2"
_cell_formula_units_Z 16
_cell_length_a 12.515730
_cell_length_b 15.194215
_cell_length_c 9.686043
_cell_angle_alpha 36.571542
_cell_angle_beta 111.728390
_cell_angle_gamma 138.797715
_cell_volume 580.333986
_symmetry_space_group_name_H-M "P -1"
_symmetry_group_IT_number 2
_symmetry_cell_setting 'triclinic'
loop_
_space_group_symop_operation_xyz
x,y,z
-x,-y,-z
loop_
_atom_site_type_symbol
_atom_site_label
_atom_site_fract_x
_atom_site_fract_y
_atom_site_fract_z
Si Si1 0.690772 0.238428 0.388470
Si Si2 0.204340 0.382064 0.864124
Si Si3 0.249213 0.045295 0.508194
Si Si4 0.491781 0.081239 0.756832
Si Si5 0.983023 0.283047 0.442851
Si Si6 0.382496 0.571168 0.322786
Si Si7 0.520919 0.451396 0.905727
Si Si8 0.803562 0.936519 0.067452
O O1 0.593660 0.090253 0.674822
O O2 0.875849 0.327747 0.328186
O O3 0.500000 0.000000 0.500000
O O4 0.786325 0.501453 0.142486
O O5 0.693860 0.025368 0.268706
O O6 0.333679 0.368976 0.938392
O O7 0.332264 0.611041 0.526942
O O8 0.059622 0.830222 0.586936
O O9 0.286010 0.241802 0.351787
O O10 0.435278 0.240214 0.238703
O O11 0.392432 0.184411 0.816434
O O12 0.500000 0.000000 0.000000
O O13 0.879542 0.084989 0.771197
O O14 0.220109 0.528744 0.278229
O O15 0.438257 0.575005 0.188398
O O16 0.266430 0.307925 0.666249
O O17 0.981413 0.129134 0.020843
#
# Coordination Sequence:
#
# PCOD9106558 Si02
#       8
#     2   2   2   2   2   2   2   2
#     4  10  21  45  79 111 154 212 257 320 394 461
#     4   9  22  42  75 108 158 213 253 323 395 450
#     4  10  20  39  75 109 150 198 253 339 397 458
#     4   9  20  42  75 117 150 199 269 315 395 475
#     4  12  23  43  73 109 157 206 266 323 395 466
#     4  11  26  41  74 118 152 216 259 326 400 475
#     4  10  20  41  72 113 148 200 264 324 400 475
#     4  11  25  45  71 111 165 200 265 326 394 469
#
# _framework density 27.570332000000001
#
# number of rings (size 3 to 8) (size 9 to 14) (size 15 to 20)
#    0.750    1.000    2.500    1.125    3.500    3.000 
#    0.000    0.625    2.750    3.750    0.000    0.000 
#    0.000    0.000    0.000    0.000    0.000    0.000 
#
# Total GULP energy -89485.413808 kJ/mol
# GULP energy per Si atom -5592.838363 kJ/mol
# Density = 2.750758 g / cm^3
# Si number density = 27.570332 Si / 1000 Ang^3
#
#
#
# Elastic Constant Matrix: (Units=GPa)
#
#
# Indices 1 2 3 4 5 6 
#
# 1 166.7586 78.3600 20.9755 -4.5775 1.9877 23.5518
# 2 78.3600 190.7116 22.5247 9.6009 -3.1217 33.0480
# 3 20.9755 22.5247 126.0916 21.0116 4.3280 1.5365
# 4 -4.5775 9.6009 21.0116 38.8644 4.2309 -5.7601
# 5 1.9877 -3.1217 4.3280 4.2309 37.7634 -4.5093
# 6 23.5518 33.0480 1.5365 -5.7601 -4.5093 55.8166
#
#
#
# Elastic Compliance Matrix: (Units=1/GPa)
#
#
# Indices 1 2 3 4 5 6 
#
# 1 0.007783 -0.002958 -0.001072 0.002127 -0.000932 -0.001359
# 2 -0.002958 0.007193 -0.000365 -0.002477 0.000687 -0.003201
# 3 -0.001072 -0.000365 0.009004 -0.004870 -0.000474 -0.000120
# 4 0.002127 -0.002477 -0.004870 0.030051 -0.002697 0.003587
# 5 -0.000932 0.000687 -0.000474 -0.002697 0.027172 0.001916
# 6 -0.001359 -0.003201 -0.000120 0.003587 0.001916 0.020912
#
#
# Mechanical properties :
#
#
# Convention : Reuss Voigt Hill
#
# Bulk Modulus (GPa) = 65.83569 80.80913 73.32241
# Shear Modulus (GPa) = 43.11553 50.60232 46.85892
#
# Velocity S-wave (km/s) = 3.95883 4.28879 4.12711
# Velocity P-wave (km/s) = 6.69533 7.34158 7.02589
#
# Compressibility (1/GPa) = 0.01518933
#
# Stress axis : x y z
#
# Youngs Moduli (GPa) = 128.48515 139.03176 111.06770
#
# Poissons Ratio (x) = 0.41127 0.11909
# Poissons Ratio (y) = 0.38008 0.04049
# Poissons Ratio (z) = 0.13776 0.05068
#
# Static dielectric constant tensor:
#      x y z
#    x 2.224340 -0.061630 0.046280 
#    y -0.061630 2.282260 0.009330 
#    z 0.046280 0.009330 2.238070 
# 
# From -- ./inp_files/264509.got.cif
#   From: 2010.05.17/outbox.cif.g08.bks.cpg/sg2_133_cif.got.tgz:264509.got - 2010.06.03 11:33:40.
