data_PCOD9106206
_publ_section_title
;
Structure prediction by ZEFSAII (Michael W. Deem and Ramdas Pophale) SiO2 
 PCOD9106206
Probable space group: P -1
;
_chemical_formula_sum "Si O2"
_cell_formula_units_Z 16
_cell_length_a 5.526915
_cell_length_b 8.258143
_cell_length_c 15.587036
_cell_angle_alpha 73.040763
_cell_angle_beta 100.177941
_cell_angle_gamma 121.713319
_cell_volume 578.643302
_symmetry_space_group_name_H-M "P -1"
_symmetry_group_IT_number 2
_symmetry_cell_setting 'triclinic'
loop_
_space_group_symop_operation_xyz
x,y,z
-x,-y,-z
loop_
_atom_site_type_symbol
_atom_site_label
_atom_site_fract_x
_atom_site_fract_y
_atom_site_fract_z
Si Si1 0.152323 0.126002 0.890154
Si Si2 0.520826 0.944217 0.266389
Si Si3 0.179415 0.154418 0.562939
Si Si4 0.118073 0.488031 0.882935
Si Si5 0.546389 0.859044 0.929069
Si Si6 0.370618 0.577943 0.238378
Si Si7 0.550899 0.289983 0.303082
Si Si8 0.289154 0.766442 0.504247
O O1 0.074692 0.273317 0.914221
O O2 0.314820 0.255672 0.798348
O O3 0.352446 0.094752 0.973411
O O4 0.851052 0.930831 0.889664
O O5 0.779545 0.952605 0.335492
O O6 0.300137 0.714469 0.272314
O O7 0.580319 0.043781 0.159902
O O8 0.417604 0.064745 0.300297
O O9 0.504406 0.282379 0.530353
O O10 0.001022 0.263393 0.549176
O O11 0.000000 0.000000 0.500000
O O12 0.313863 0.630559 0.946764
O O13 0.290005 0.595501 0.790270
O O14 0.822489 0.478878 0.849216
O O15 0.362627 0.386614 0.302552
O O16 0.754863 0.323826 0.390204
O O17 0.500000 0.000000 0.500000
#
# Coordination Sequence:
#
# PCOD9106206 Si02
#       8
#     2   2   2   2   2   2   2   2
#     4  10  22  46  64 106 151 183 250 307 366 446
#     4  11  22  45  68 103 134 195 244 294 379 445
#     4  10  21  39  67 102 143 188 249 314 367 457
#     4  10  22  44  65 105 148 184 249 306 363 455
#     4  10  22  42  72  99 146 199 232 312 378 438
#     4  11  25  44  71 104 149 188 243 319 355 459
#     4  10  23  43  69 100 141 193 239 300 379 442
#     4  10  20  39  68 101 141 191 247 315 370 458
#
# _framework density 27.650881999999999
#
# number of rings (size 3 to 8) (size 9 to 14) (size 15 to 20)
#    0.000    1.750    3.750    0.375    1.750    3.000 
#   15.750    1.250    0.000    0.000    0.000    0.000 
#    0.000    0.000    0.000    0.000    0.000    0.000 
#
# Total GULP energy -89410.439925 kJ/mol
# GULP energy per Si atom -5588.152495 kJ/mol
# Density = 2.758795 g / cm^3
# Si number density = 27.650882 Si / 1000 Ang^3
#
#
#
# Elastic Constant Matrix: (Units=GPa)
#
#
# Indices 1 2 3 4 5 6 
#
# 1 110.9581 46.6023 38.4708 -5.5613 35.2995 -9.4163
# 2 46.6023 134.6989 29.3242 5.2523 18.2273 -11.4730
# 3 38.4708 29.3242 187.4670 5.3774 26.4085 -13.5419
# 4 -5.5613 5.2523 5.3774 30.4245 -4.5862 12.6667
# 5 35.2995 18.2273 26.4085 -4.5862 52.8699 -10.6516
# 6 -9.4163 -11.4730 -13.5419 12.6667 -10.6516 40.6404
#
#
#
# Elastic Compliance Matrix: (Units=1/GPa)
#
#
# Indices 1 2 3 4 5 6 
#
# 1 0.013201 -0.003532 -0.001333 0.002640 -0.006906 -0.001015
# 2 -0.003532 0.009122 -0.000371 -0.003275 -0.000370 0.002557
# 3 -0.001333 -0.000371 0.006130 -0.002320 -0.001870 0.001862
# 4 0.002640 -0.003275 -0.002320 0.040028 0.001336 -0.013212
# 5 -0.006906 -0.000370 -0.001870 0.001336 0.025497 0.003938
# 6 -0.001015 0.002557 0.001862 -0.013212 0.003938 0.030863
#
#
# Mechanical properties :
#
#
# Convention : Reuss Voigt Hill
#
# Bulk Modulus (GPa) = 55.61201 73.54651 64.57926
# Shear Modulus (GPa) = 35.38373 46.03541 40.70957
#
# Velocity S-wave (km/s) = 3.58111 4.08472 3.84118
# Velocity P-wave (km/s) = 6.10369 6.99304 6.56345
#
# Compressibility (1/GPa) = 0.01798173
#
# Stress axis : x y z
#
# Youngs Moduli (GPa) = 75.75088 109.62042 163.12141
#
# Poissons Ratio (x) = 0.38718 0.21741
# Poissons Ratio (y) = 0.26755 0.06057
# Poissons Ratio (z) = 0.10096 0.04070
#
# Static dielectric constant tensor:
#      x y z
#    x 2.294850 -0.122090 -0.024800 
#    y -0.122090 2.175990 0.011800 
#    z -0.024800 0.011800 2.133170 
# 
# From -- ./inp_files/547999.got.cif
#   From: 2010.05.17/outbox.cif.g08.bks.cpg/sg2_274_cif.got.tgz:547999.got - 2010.06.03 11:33:40.
