data_PCOD9106018
_publ_section_title
;
Structure prediction by ZEFSAII (Michael W. Deem and Ramdas Pophale) SiO2 
 PCOD9106018
Probable space group: P -1
;
_chemical_formula_sum "Si O2"
_cell_formula_units_Z 16
_cell_length_a 9.421142
_cell_length_b 23.057262
_cell_length_c 9.355505
_cell_angle_alpha 50.886676
_cell_angle_beta 49.508388
_cell_angle_gamma 25.652731
_cell_volume 662.658845
_symmetry_space_group_name_H-M "P -1"
_symmetry_group_IT_number 2
_symmetry_cell_setting 'triclinic'
loop_
_space_group_symop_operation_xyz
x,y,z
-x,-y,-z
loop_
_atom_site_type_symbol
_atom_site_label
_atom_site_fract_x
_atom_site_fract_y
_atom_site_fract_z
Si Si1 0.845097 0.329706 0.324211
Si Si2 0.158990 0.366968 0.097616
Si Si3 0.226866 0.862668 0.138604
Si Si4 0.255530 0.110487 0.613839
Si Si5 0.562775 0.254888 0.292652
Si Si6 0.760892 0.888498 0.851843
Si Si7 0.696628 0.503880 0.783875
Si Si8 0.557805 0.807234 0.271596
O O1 0.472099 0.429498 0.367734
O O2 0.842927 0.418866 0.195575
O O3 0.051392 0.245943 0.465581
O O4 0.060151 0.219156 0.226942
O O5 0.408915 0.280267 0.204372
O O6 0.401155 0.264588 0.968547
O O7 0.000000 0.500000 0.000000
O O8 0.265467 0.867667 0.271480
O O9 0.044956 0.847782 0.241687
O O10 0.000000 0.000000 0.000000
O O11 0.500000 0.000000 0.500000
O O12 0.479683 0.031969 0.730878
O O13 0.357326 0.397822 0.258147
O O14 0.529247 0.194309 0.512305
O O15 0.946768 0.158692 0.194643
O O16 0.605021 0.877069 0.076034
O O17 0.079743 0.351372 0.752822
O O18 0.500000 0.500000 0.000000
#
# Coordination Sequence:
#
# PCOD9106018 Si02
#       8
#     2   2   2   2   2   2   2   2
#     4  10  20  40  65  94 133 185 229 285 342 419
#     4  12  26  45  67 105 150 181 226 303 364 407
#     4  12  22  43  74 103 132 191 241 278 346 432
#     4  10  20  39  67 101 130 171 243 295 327 403
#     4  11  25  40  63 102 141 178 231 294 359 410
#     4  10  20  42  69  95 135 182 232 288 338 422
#     4  11  19  38  66  94 133 185 235 283 342 426
#     4  12  21  39  71  99 131 182 240 276 346 425
#
# _framework density 24.145154999999999
#
# number of rings (size 3 to 8) (size 9 to 14) (size 15 to 20)
#    0.000    1.000    5.000    4.875    0.000    1.000 
#    2.250    4.375    0.000    0.000    0.000    0.000 
#    0.000    0.000    0.000    0.000    0.000    0.000 
#
# Total GULP energy -89373.774800 kJ/mol
# GULP energy per Si atom -5585.860925 kJ/mol
# Density = 2.409020 g / cm^3
# Si number density = 24.145155 Si / 1000 Ang^3
#
#
#
# Elastic Constant Matrix: (Units=GPa)
#
#
# Indices 1 2 3 4 5 6 
#
# 1 120.3898 9.3524 30.7692 -6.1979 12.7190 -26.7240
# 2 9.3524 74.9999 16.5128 -19.2151 11.7853 -19.1892
# 3 30.7692 16.5128 83.3815 -21.9254 14.8488 -1.6483
# 4 -6.1979 -19.2151 -21.9254 22.2883 -10.5454 2.1698
# 5 12.7190 11.7853 14.8488 -10.5454 40.4350 -13.6357
# 6 -26.7240 -19.1892 -1.6483 2.1698 -13.6357 34.4450
#
#
#
# Elastic Compliance Matrix: (Units=1/GPa)
#
#
# Indices 1 2 3 4 5 6 
#
# 1 0.011493 0.001994 -0.004654 -0.000237 0.000880 0.010168
# 2 0.001994 0.020675 -0.000280 0.018032 0.002505 0.012907
# 3 -0.004654 -0.000280 0.018264 0.015606 -0.002768 -0.004971
# 4 -0.000237 0.018032 0.015606 0.081247 0.013997 0.011032
# 5 0.000880 0.002505 -0.002768 0.013997 0.033179 0.014199
# 6 0.010168 0.012907 -0.004971 0.011032 0.014199 0.048799
#
#
# Mechanical properties :
#
#
# Convention : Reuss Voigt Hill
#
# Bulk Modulus (GPa) = 22.44504 43.55999 33.00251
# Shear Modulus (GPa) = 21.33224 34.24278 27.78751
#
# Velocity S-wave (km/s) = 2.97560 3.76999 3.39610
# Velocity P-wave (km/s) = 4.59583 6.08527 5.39222
#
# Compressibility (1/GPa) = 0.04455328
#
# Stress axis : x y z
#
# Youngs Moduli (GPa) = 87.01055 48.36766 54.75234
#
# Poissons Ratio (x) = -0.09646 0.25481
# Poissons Ratio (y) = -0.17352 0.01531
# Poissons Ratio (z) = 0.40494 0.01353
#
# Static dielectric constant tensor:
#      x y z
#    x 1.845040 0.013560 0.031790 
#    y 0.013560 1.882850 -0.023960 
#    z 0.031790 -0.023960 1.893610 
# 
# From -- ./inp_files/226089.got.cif
#   From: 2010.05.17/outbox.cif.g08.bks.cpg/sg2_114_cif.got.tgz:226089.got - 2010.06.03 11:33:40.
