data_PCOD9106718
_publ_section_title
;
Structure prediction by ZEFSAII (Michael W. Deem and Ramdas Pophale) SiO2 
 PCOD9106718
Probable space group: P -1
;
_chemical_formula_sum "Si O2"
_cell_formula_units_Z 16
_cell_length_a 15.262193
_cell_length_b 11.577734
_cell_length_c 7.234990
_cell_angle_alpha 118.014280
_cell_angle_beta 45.170244
_cell_angle_gamma 138.770162
_cell_volume 592.540104
_symmetry_space_group_name_H-M "P -1"
_symmetry_group_IT_number 2
_symmetry_cell_setting 'triclinic'
loop_
_space_group_symop_operation_xyz
x,y,z
-x,-y,-z
loop_
_atom_site_type_symbol
_atom_site_label
_atom_site_fract_x
_atom_site_fract_y
_atom_site_fract_z
Si Si1 0.236321 0.781012 0.101392
Si Si2 0.933421 0.971479 0.868318
Si Si3 0.717894 0.456500 0.981589
Si Si4 0.704515 0.058551 0.242795
Si Si5 0.728267 0.901395 0.624980
Si Si6 0.963341 0.413488 0.289213
Si Si7 0.467336 0.685754 0.196243
Si Si8 0.610081 0.652487 0.267303
O O1 0.328637 0.722290 0.010711
O O2 0.053139 0.592927 0.175175
O O3 0.236129 0.917613 0.314206
O O4 0.319364 0.883523 0.868360
O O5 0.093205 0.040804 0.566064
O O6 0.232317 0.235390 0.028374
O O7 0.852652 0.054885 0.006632
O O8 0.000000 0.000000 0.000000
O O9 0.898764 0.603823 0.915918
O O10 0.698484 0.431651 0.769505
O O11 0.618671 0.514126 0.235122
O O12 0.784686 0.225162 0.380099
O O13 0.536846 0.854002 0.346174
O O14 0.603049 0.784741 0.896271
O O15 0.656800 0.793866 0.457325
O O16 0.000000 0.500000 0.500000
O O17 0.463512 0.573659 0.278489
#
# Coordination Sequence:
#
# PCOD9106718 Si02
#       8
#     2   2   2   2   2   2   2   2
#     4   9  23  36  63  84 126 151 203 252 300 363
#     4   9  19  33  62  87 120 155 201 252 296 354
#     4  10  23  41  60  90 126 164 193 255 315 355
#     4  10  20  40  60  90 117 161 202 251 305 354
#     4  10  21  39  61  95 117 166 204 251 306 364
#     4  10  22  37  60  88 122 158 199 250 304 363
#     4  10  23  40  64  88 127 161 206 251 303 372
#     4  10  21  38  65  84 129 160 206 251 307 357
#
# _framework density 27.002392
#
# number of rings (size 3 to 8) (size 9 to 14) (size 15 to 20)
#    0.750    1.500    0.000    2.250    7.000    7.000 
#    0.000    3.750    0.000    0.000    0.000    0.000 
#    0.000    0.000    0.000    0.000    0.000    0.000 
#
# Total GULP energy -89150.034562 kJ/mol
# GULP energy per Si atom -5571.877160 kJ/mol
# Density = 2.694093 g / cm^3
# Si number density = 27.002392 Si / 1000 Ang^3
#
#
#
# Elastic Constant Matrix: (Units=GPa)
#
#
# Indices 1 2 3 4 5 6 
#
# 1 158.2015 42.9752 32.4321 30.8364 11.8967 -25.2026
# 2 42.9752 107.9280 35.7750 55.1645 -0.8338 8.6224
# 3 32.4321 35.7750 92.4467 32.5015 -18.1057 -15.0175
# 4 30.8364 55.1645 32.5015 55.8679 6.4461 -2.1152
# 5 11.8967 -0.8338 -18.1057 6.4461 37.8575 2.9654
# 6 -25.2026 8.6224 -15.0175 -2.1152 2.9654 46.6433
#
#
#
# Elastic Compliance Matrix: (Units=1/GPa)
#
#
# Indices 1 2 3 4 5 6 
#
# 1 0.008677 -0.003470 -0.001822 0.000364 -0.004130 0.005022
# 2 -0.003470 0.021717 -0.000103 -0.020382 0.005554 -0.007200
# 3 -0.001822 -0.000103 0.017775 -0.010313 0.010544 0.003619
# 4 0.000364 -0.020382 -0.010313 0.045519 -0.013526 0.003568
# 5 -0.004130 0.005554 0.010544 -0.013526 0.035394 -0.002727
# 6 0.005022 -0.007200 0.003619 0.003568 -0.002727 0.026984
#
#
# Mechanical properties :
#
#
# Convention : Reuss Voigt Hill
#
# Bulk Modulus (GPa) = 26.75342 64.54896 45.65119
# Shear Modulus (GPa) = 27.88368 44.56665 36.22517
#
# Velocity S-wave (km/s) = 3.21695 4.06701 3.66670
# Velocity P-wave (km/s) = 4.87111 6.78313 5.90502
#
# Compressibility (1/GPa) = 0.03737840
#
# Stress axis : x y z
#
# Youngs Moduli (GPa) = 115.24713 46.04673 56.25986
#
# Poissons Ratio (x) = 0.15979 0.10251
# Poissons Ratio (y) = 0.39993 0.00579
# Poissons Ratio (z) = 0.20999 0.00474
#
# Static dielectric constant tensor:
#      x y z
#    x 2.309370 -0.094960 -0.015240 
#    y -0.094960 2.350560 -0.193670 
#    z -0.015240 -0.193670 2.450080 
# 
# From -- ./inp_files/301284.got.cif
#   From: 2010.05.17/outbox.cif.g08.bks.cpg/sg2_151_cif.got.tgz:301284.got - 2010.06.03 11:33:40.
