data_PCOD9106722
_publ_section_title
;
Structure prediction by ZEFSAII (Michael W. Deem and Ramdas Pophale) SiO2 
 PCOD9106722
Probable space group: P -1
;
_chemical_formula_sum "Si O2"
_cell_formula_units_Z 14
_cell_length_a 7.979891
_cell_length_b 9.774168
_cell_length_c 21.243899
_cell_angle_alpha 140.712481
_cell_angle_beta 44.226130
_cell_angle_gamma 133.927353
_cell_volume 694.559076
_symmetry_space_group_name_H-M "P -1"
_symmetry_group_IT_number 2
_symmetry_cell_setting 'triclinic'
loop_
_space_group_symop_operation_xyz
x,y,z
-x,-y,-z
loop_
_atom_site_type_symbol
_atom_site_label
_atom_site_fract_x
_atom_site_fract_y
_atom_site_fract_z
Si Si1 0.709829 0.476358 0.986004
Si Si2 0.075790 0.027649 0.916484
Si Si3 0.656101 0.053958 0.778186
Si Si4 0.430297 0.239307 0.100979
Si Si5 0.728611 0.393453 0.469883
Si Si6 0.716702 0.626394 0.682314
Si Si7 0.772889 0.870435 0.559580
O O1 0.791654 0.276861 0.861313
O O2 0.500000 0.500000 0.000000
O O3 0.588860 0.390213 0.055254
O O4 0.914935 0.722354 0.020785
O O5 0.864143 0.840974 0.869158
O O6 0.359945 0.020161 0.834291
O O7 0.000000 0.000000 0.000000
O O8 0.673473 0.840245 0.735842
O O9 0.772443 0.048942 0.677493
O O10 0.435996 0.381164 0.214159
O O11 0.500000 0.000000 0.000000
O O12 0.656284 0.428594 0.574672
O O13 0.789707 0.639468 0.506205
O O14 0.492342 0.215048 0.436333
O O15 0.983688 0.327280 0.372002
O O16 0.000000 0.000000 0.500000
#
# Coordination Sequence:
#
# PCOD9106722 Si02
#       7
#     2   2   2   2   2   2   2
#     4  10  21  39  59  91 122 159 213 245 302 377
#     4  11  21  39  63  86 125 169 204 251 306 370
#     4  10  20  40  60  90 126 161 208 256 304 376
#     4  12  22  39  61  93 129 163 206 257 315 371
#     4   9  21  41  64  89 121 164 206 258 313 367
#     4  10  20  40  63  88 130 165 201 261 318 365
#     4  10  21  41  64  91 118 157 217 258 307 370
#
# _framework density 20.156673000000001
#
# number of rings (size 3 to 8) (size 9 to 14) (size 15 to 20)
#    0.000    1.714    4.286    0.857    0.000    2.857 
#   10.286    7.857    0.000    0.000    0.000    0.000 
#    0.000    0.000    0.000    0.000    0.000    0.000 
#
# Total GULP energy -78104.103500 kJ/mol
# GULP energy per Si atom -5578.864536 kJ/mol
# Density = 2.011080 g / cm^3
# Si number density = 20.156673 Si / 1000 Ang^3
#
#
#
# Elastic Constant Matrix: (Units=GPa)
#
#
# Indices 1 2 3 4 5 6 
#
# 1 62.6619 17.5777 28.6451 -8.2164 8.0039 -6.8885
# 2 17.5777 103.7708 48.6858 -24.1353 21.3841 -6.4010
# 3 28.6451 48.6858 144.7919 -28.8233 26.2646 -17.2069
# 4 -8.2164 -24.1353 -28.8233 29.1660 -11.8329 10.6617
# 5 8.0039 21.3841 26.2646 -11.8329 39.1123 -5.9331
# 6 -6.8885 -6.4010 -17.2069 10.6617 -5.9331 20.6608
#
#
#
# Elastic Compliance Matrix: (Units=1/GPa)
#
#
# Indices 1 2 3 4 5 6 
#
# 1 0.017987 -0.001554 -0.002568 -0.000240 -0.000678 0.003306
# 2 -0.001554 0.013418 -0.002359 0.008225 -0.003487 -0.003572
# 3 -0.002568 -0.002359 0.010130 0.004846 -0.002992 0.003490
# 4 -0.000240 0.008225 0.004846 0.055781 0.006058 -0.020541
# 5 -0.000678 -0.003487 -0.002992 0.006058 0.031789 0.002205
# 6 0.003306 -0.003572 0.003490 -0.020541 0.002205 0.062536
#
#
# Mechanical properties :
#
#
# Convention : Reuss Voigt Hill
#
# Bulk Modulus (GPa) = 34.99815 55.67132 45.33473
# Shear Modulus (GPa) = 23.35064 32.20887 27.77976
#
# Velocity S-wave (km/s) = 3.40730 4.00174 3.71643
# Velocity P-wave (km/s) = 5.73414 7.00223 6.39967
#
# Compressibility (1/GPa) = 0.02857294
#
# Stress axis : x y z
#
# Youngs Moduli (GPa) = 55.59550 74.52698 98.72035
#
# Poissons Ratio (x) = 0.11584 0.25350
# Poissons Ratio (y) = 0.08642 0.23285
# Poissons Ratio (z) = 0.14276 0.17578
#
# Static dielectric constant tensor:
#      x y z
#    x 1.745270 -0.020670 0.019620 
#    y -0.020670 1.655640 0.061840 
#    z 0.019620 0.061840 1.715120 
# 
# From -- ./inp_files/178549.got.cif
#   From: 2010.05.17/outbox.cif.g08.bks.cpg/sg2_90_cif.got.tgz:178549.got - 2010.06.03 11:33:40.
