data_PCOD9106081
_publ_section_title
;
Structure prediction by ZEFSAII (Michael W. Deem and Ramdas Pophale) SiO2 
 PCOD9106081
Probable space group: P -1
;
_chemical_formula_sum "Si O2"
_cell_formula_units_Z 16
_cell_length_a 8.541251
_cell_length_b 12.853223
_cell_length_c 16.397267
_cell_angle_alpha 151.715485
_cell_angle_beta 133.078966
_cell_angle_gamma 52.269286
_cell_volume 622.751757
_symmetry_space_group_name_H-M "P -1"
_symmetry_group_IT_number 2
_symmetry_cell_setting 'triclinic'
loop_
_space_group_symop_operation_xyz
x,y,z
-x,-y,-z
loop_
_atom_site_type_symbol
_atom_site_label
_atom_site_fract_x
_atom_site_fract_y
_atom_site_fract_z
Si Si1 0.011055 0.759769 0.501698
Si Si2 0.903206 0.279067 0.774902
Si Si3 0.143358 0.674119 0.785913
Si Si4 0.627845 0.381804 0.587594
Si Si5 0.759977 0.744597 0.253784
Si Si6 0.738733 0.236480 0.865421
Si Si7 0.656541 0.188817 0.214095
Si Si8 0.264125 0.045838 0.191877
O O1 0.176957 0.629630 0.412566
O O2 0.171572 0.878657 0.701857
O O3 0.868474 0.580956 0.373261
O O4 0.857935 0.865160 0.450494
O O5 0.727189 0.347934 0.690322
O O6 0.789406 0.194893 0.760101
O O7 0.116107 0.184062 0.734464
O O8 0.000000 0.500000 0.000000
O O9 0.211002 0.709525 0.742489
O O10 0.909667 0.787824 0.795424
O O11 0.299655 0.826563 0.999032
O O12 0.498788 0.605816 0.676931
O O13 0.471647 0.182300 0.377464
O O14 0.508725 0.774479 0.201754
O O15 0.801995 0.479870 0.083720
O O16 0.842742 0.047665 0.828537
O O17 0.500000 0.000000 0.000000
#
# Coordination Sequence:
#
# PCOD9106081 Si02
#       8
#     2   2   2   2   2   2   2   2
#     4  11  22  45  69  95 135 171 216 274 334 393
#     4   9  21  39  63  94 128 176 221 271 325 386
#     4  11  25  41  69  98 132 171 218 273 329 400
#     4  11  25  43  67  94 137 173 215 277 333 393
#     4   9  20  38  66  98 128 173 220 273 328 385
#     4  10  20  39  67  92 134 175 219 269 329 391
#     4  12  27  41  65 100 132 172 224 273 331 394
#     4  11  24  42  67  98 134 176 217 265 340 396
#
# _framework density 25.692422000000001
#
# number of rings (size 3 to 8) (size 9 to 14) (size 15 to 20)
#    0.000    1.500    2.500    1.500    5.250    1.500 
#    0.000    5.000    0.000    0.000    0.000    0.000 
#    0.000    0.000    0.000    0.000    0.000    0.000 
#
# Total GULP energy -89476.947540 kJ/mol
# GULP energy per Si atom -5592.309221 kJ/mol
# Density = 2.563395 g / cm^3
# Si number density = 25.692422 Si / 1000 Ang^3
#
#
#
# Elastic Constant Matrix: (Units=GPa)
#
#
# Indices 1 2 3 4 5 6 
#
# 1 94.1666 13.4565 21.9945 -9.6818 -7.6250 15.5233
# 2 13.4565 66.0229 14.0845 -9.1972 3.8891 23.5007
# 3 21.9945 14.0845 147.4682 -21.7224 12.1895 5.8885
# 4 -9.6818 -9.1972 -21.7224 54.7332 10.2702 0.6371
# 5 -7.6250 3.8891 12.1895 10.2702 34.8888 -0.6033
# 6 15.5233 23.5007 5.8885 0.6371 -0.6033 43.3919
#
#
#
# Elastic Compliance Matrix: (Units=1/GPa)
#
#
# Indices 1 2 3 4 5 6 
#
# 1 0.012060 -0.000895 -0.001708 0.000776 0.003042 -0.003567
# 2 -0.000895 0.019905 -0.000501 0.003773 -0.003532 -0.010497
# 3 -0.001708 -0.000501 0.007963 0.003557 -0.004152 -0.000308
# 4 0.000776 0.003773 0.003557 0.021997 -0.008025 -0.003238
# 5 0.003042 -0.003532 -0.004152 -0.008025 0.033568 0.001972
# 6 -0.003567 -0.010497 -0.000308 -0.003238 0.001972 0.030124
#
#
# Mechanical properties :
#
#
# Convention : Reuss Voigt Hill
#
# Bulk Modulus (GPa) = 29.65521 45.19210 37.42365
# Shear Modulus (GPa) = 34.94885 43.81092 39.37988
#
# Velocity S-wave (km/s) = 3.69220 4.13390 3.91927
# Velocity P-wave (km/s) = 5.45379 6.35715 5.92272
#
# Compressibility (1/GPa) = 0.03372089
#
# Stress axis : x y z
#
# Youngs Moduli (GPa) = 82.91536 50.23739 125.57860
#
# Poissons Ratio (x) = 0.04497 0.21450
# Poissons Ratio (y) = 0.07422 0.06290
# Poissons Ratio (z) = 0.14163 0.02516
#
# Static dielectric constant tensor:
#      x y z
#    x 1.983010 -0.011350 -0.061060 
#    y -0.011350 2.160140 0.044440 
#    z -0.061060 0.044440 2.132210 
# 
# From -- ./inp_files/501051.got.cif
#   From: 2010.05.17/outbox.cif.g08.bks.cpg/sg2_251_cif.got.tgz:501051.got - 2010.06.03 11:33:40.
