data_PCOD9106787
_publ_section_title
;
Structure prediction by ZEFSAII (Michael W. Deem and Ramdas Pophale) SiO2 
 PCOD9106787
Probable space group: P -1
;
_chemical_formula_sum "Si O2"
_cell_formula_units_Z 16
_cell_length_a 8.089705
_cell_length_b 13.918121
_cell_length_c 8.133807
_cell_angle_alpha 109.126241
_cell_angle_beta 125.035452
_cell_angle_gamma 86.117904
_cell_volume 699.839721
_symmetry_space_group_name_H-M "P -1"
_symmetry_group_IT_number 2
_symmetry_cell_setting 'triclinic'
loop_
_space_group_symop_operation_xyz
x,y,z
-x,-y,-z
loop_
_atom_site_type_symbol
_atom_site_label
_atom_site_fract_x
_atom_site_fract_y
_atom_site_fract_z
Si Si1 0.982749 0.012312 0.694394
Si Si2 0.295572 0.465175 0.474316
Si Si3 0.044497 0.669579 0.994676
Si Si4 0.790334 0.774544 0.131767
Si Si5 0.181501 0.843783 0.908534
Si Si6 0.405312 0.113640 0.637104
Si Si7 0.460733 0.696360 0.385189
Si Si8 0.650904 0.314274 0.306499
O O1 0.065949 0.930222 0.813589
O O2 0.736488 0.990792 0.559501
O O3 0.122882 0.121536 0.861232
O O4 0.000000 0.000000 0.500000
O O5 0.500000 0.500000 0.500000
O O6 0.356447 0.369982 0.557792
O O7 0.261733 0.566464 0.609767
O O8 0.109323 0.421330 0.226079
O O9 0.271913 0.646466 0.137120
O O10 0.953787 0.701441 0.135133
O O11 0.069043 0.768630 0.942126
O O12 0.739586 0.817007 0.305126
O O13 0.575396 0.714969 0.913377
O O14 0.220457 0.766242 0.741867
O O15 0.403200 0.893283 0.138013
O O16 0.479852 0.186743 0.570318
O O17 0.380099 0.697331 0.524183
#
# Coordination Sequence:
#
# PCOD9106787 Si02
#       8
#     2   2   2   2   2   2   2   2
#     4  10  22  38  64  87 117 156 202 238 295 350
#     4  10  20  40  61  87 122 152 197 244 294 345
#     4  11  22  40  61  91 120 155 197 241 293 354
#     4  10  21  40  60  86 120 156 197 241 296 344
#     4  10  23  42  60  88 124 151 196 249 290 349
#     4   9  21  41  59  87 119 156 195 244 293 347
#     4  10  21  39  63  87 119 156 196 243 291 351
#     4  10  22  40  64  84 120 161 192 245 302 338
#
# _framework density 22.862379000000001
#
# number of rings (size 3 to 8) (size 9 to 14) (size 15 to 20)
#    0.000    2.000    2.500    0.750    3.500    7.500 
#    0.000    6.875    0.000    0.000    0.000    0.000 
#    0.000    0.000    0.000    0.000    0.000    0.000 
#
# Total GULP energy -89310.543928 kJ/mol
# GULP energy per Si atom -5581.908996 kJ/mol
# Density = 2.281034 g / cm^3
# Si number density = 22.862379 Si / 1000 Ang^3
#
#
#
# Elastic Constant Matrix: (Units=GPa)
#
#
# Indices 1 2 3 4 5 6 
#
# 1 35.7995 49.7782 124.9549 38.6631 18.6008 19.4881
# 2 49.7782 -94.5383 -312.2517 -97.6170 -94.8645 -58.4818
# 3 124.9549 -312.2517 -785.4085 -237.3525 -198.4446 -146.6040
# 4 38.6631 -97.6170 -237.3525 -38.4058 -52.7962 -44.3497
# 5 18.6008 -94.8645 -198.4446 -52.7962 -17.9663 -28.0203
# 6 19.4881 -58.4818 -146.6040 -44.3497 -28.0203 1.9804
#
#
#
# Elastic Compliance Matrix: (Units=1/GPa)
#
#
# Indices 1 2 3 4 5 6 
#
# 1 0.020810 0.006330 -0.001353 -0.002618 0.012412 -0.001057
# 2 0.006330 0.049591 -0.024214 -0.001756 0.029803 -0.008004
# 3 -0.001353 -0.024214 0.015241 -0.007421 -0.018473 -0.001033
# 4 -0.002618 -0.001756 -0.007421 0.032029 -0.009832 0.002718
# 5 0.012412 0.029803 -0.018473 -0.009832 0.057522 -0.015876
# 6 -0.001057 -0.008004 -0.001033 0.002718 -0.015876 0.038770
#
#
# Mechanical properties :
#
#
# Convention : Reuss Voigt Hill
#
# Bulk Modulus (GPa) = 21.20090 -124.35385 -51.57648
# Shear Modulus (GPa) = 18.64559 -57.98692 -19.67066
#
# Velocity S-wave (km/s) = 2.85890 -5.04168 -2.93643
# Velocity P-wave (km/s) = 4.49345 9.40222 5.83998
#
# Compressibility (1/GPa) = 0.04716781
#
# Stress axis : x y z
#
# Youngs Moduli (GPa) = 48.05477 20.16483 65.61230
#
# Poissons Ratio (x) = -0.12765 0.08881
# Poissons Ratio (y) = -0.30421 1.58874
# Poissons Ratio (z) = 0.06504 0.48827
#
# Static dielectric constant tensor:
#      x y z
#    x 1.910190 -0.033450 -0.007610 
#    y -0.033450 1.885340 0.032060 
#    z -0.007610 0.032060 1.874240 
# 
# From -- ./inp_files/203402.got.cif
#   From: 2010.05.17/outbox.cif.g08.bks.cpg/sg2_102_cif.got.tgz:203402.got - 2010.06.03 11:33:40.
