data_PCOD9106501
_publ_section_title
;
Structure prediction by ZEFSAII (Michael W. Deem and Ramdas Pophale) SiO2 
 PCOD9106501
Probable space group: P -1
;
_chemical_formula_sum "Si O2"
_cell_formula_units_Z 16
_cell_length_a 12.042807
_cell_length_b 13.648763
_cell_length_c 8.721194
_cell_angle_alpha 66.539883
_cell_angle_beta 135.680008
_cell_angle_gamma 139.408748
_cell_volume 617.530869
_symmetry_space_group_name_H-M "P -1"
_symmetry_group_IT_number 2
_symmetry_cell_setting 'triclinic'
loop_
_space_group_symop_operation_xyz
x,y,z
-x,-y,-z
loop_
_atom_site_type_symbol
_atom_site_label
_atom_site_fract_x
_atom_site_fract_y
_atom_site_fract_z
Si Si1 0.755129 0.534193 0.449324
Si Si2 0.672111 0.999879 0.580917
Si Si3 0.083436 0.008259 0.406342
Si Si4 0.752559 0.677810 0.611841
Si Si5 0.722288 0.340846 0.789613
Si Si6 0.051124 0.709984 0.143178
Si Si7 0.771267 0.359339 0.165218
Si Si8 0.390502 0.225217 0.112291
O O1 0.794063 0.669461 0.478537
O O2 0.681181 0.419463 0.589317
O O3 0.538572 0.403379 0.202406
O O4 0.011197 0.613321 0.608142
O O5 0.909350 0.181731 0.758764
O O6 0.500000 0.000000 0.500000
O O7 0.739326 0.997575 0.473321
O O8 0.666399 0.885403 0.739311
O O9 0.223131 0.188346 0.399986
O O10 0.000000 0.000000 0.500000
O O11 0.847120 0.878018 0.153391
O O12 0.500000 0.500000 0.500000
O O13 0.933449 0.705252 0.882044
O O14 0.720217 0.237129 0.740619
O O15 0.639978 0.282225 0.918562
O O16 0.000000 0.500000 0.000000
O O17 0.890370 0.535878 0.162055
O O18 0.581546 0.259440 0.172795
#
# Coordination Sequence:
#
# PCOD9106501 Si02
#       8
#     2   2   2   2   2   2   2   2
#     4  10  20  41  69 109 144 197 249 299 359 451
#     4  12  27  52  78 104 150 203 246 303 377 450
#     4  12  32  55  71 110 157 192 249 314 380 442
#     4  12  24  42  75 101 142 196 250 295 377 439
#     4   8  15  36  65 101 149 182 243 302 351 425
#     4  10  20  41  71 108 138 194 250 299 354 455
#     4  10  20  39  71 111 152 188 252 303 362 441
#     4  12  26  43  78 110 153 192 240 321 376 425
#
# _framework density 25.909638000000001
#
# number of rings (size 3 to 8) (size 9 to 14) (size 15 to 20)
#    0.000    1.500    5.000    3.000    3.500    4.000 
#    0.000    3.125    0.000    0.000    0.000    0.000 
#    0.000    0.000    0.000    0.000    0.000    0.000 
#
# Total GULP energy -89301.185579 kJ/mol
# GULP energy per Si atom -5581.324099 kJ/mol
# Density = 2.585067 g / cm^3
# Si number density = 25.909638 Si / 1000 Ang^3
#
#
#
# Elastic Constant Matrix: (Units=GPa)
#
#
# Indices 1 2 3 4 5 6 
#
# 1 171.5644 64.5749 47.8051 35.4986 -16.8743 -14.0542
# 2 64.5749 59.9401 4.5080 10.3287 -8.8333 -23.6314
# 3 47.8051 4.5080 86.6981 18.1857 -8.6850 -11.7713
# 4 35.4986 10.3287 18.1857 27.9127 1.2714 -17.1995
# 5 -16.8743 -8.8333 -8.6850 1.2714 45.4432 15.9849
# 6 -14.0542 -23.6314 -11.7713 -17.1995 15.9849 64.9310
#
#
#
# Elastic Compliance Matrix: (Units=1/GPa)
#
#
# Indices 1 2 3 4 5 6 
#
# 1 0.018734 -0.019737 -0.006033 -0.019661 0.006387 -0.011003
# 2 -0.019737 0.040760 0.007270 0.016132 -0.004543 0.017272
# 3 -0.006033 0.007270 0.015745 -0.003507 0.001239 0.002960
# 4 -0.019661 0.016132 -0.003507 0.072622 -0.015304 0.023984
# 5 0.006387 -0.004543 0.001239 -0.015304 0.028028 -0.011000
# 6 -0.011003 0.017272 0.002960 0.023984 -0.011000 0.028903
#
#
# Mechanical properties :
#
#
# Convention : Reuss Voigt Hill
#
# Bulk Modulus (GPa) = 26.15269 61.33096 43.74182
# Shear Modulus (GPa) = 19.64333 41.07835 30.36084
#
# Velocity S-wave (km/s) = 2.75644 3.98609 3.42687
# Velocity P-wave (km/s) = 4.49959 6.70132 5.70763
#
# Compressibility (1/GPa) = 0.03823699
#
# Stress axis : x y z
#
# Youngs Moduli (GPa) = 53.37983 24.53395 63.51324
#
# Poissons Ratio (x) = 0.48423 0.38319
# Poissons Ratio (y) = 1.05356 -0.46172
# Poissons Ratio (z) = 0.32206 -0.17835
#
# Static dielectric constant tensor:
#      x y z
#    x 2.259560 0.058170 0.080200 
#    y 0.058170 2.100200 0.176240 
#    z 0.080200 0.176240 2.265230 
# 
# From -- ./inp_files/273013.got.cif
#   From: 2010.05.17/outbox.cif.g08.bks.cpg/sg2_137_cif.got.tgz:273013.got - 2010.06.03 11:33:40.
