data_PCOD9106851
_publ_section_title
;
Structure prediction by ZEFSAII (Michael W. Deem and Ramdas Pophale) SiO2 
 PCOD9106851
Probable space group: P -1
;
_chemical_formula_sum "Si O2"
_cell_formula_units_Z 16
_cell_length_a 8.837363
_cell_length_b 8.925881
_cell_length_c 14.920402
_cell_angle_alpha 75.173952
_cell_angle_beta 123.163247
_cell_angle_gamma 64.724263
_cell_volume 679.620184
_symmetry_space_group_name_H-M "P -1"
_symmetry_group_IT_number 2
_symmetry_cell_setting 'triclinic'
loop_
_space_group_symop_operation_xyz
x,y,z
-x,-y,-z
loop_
_atom_site_type_symbol
_atom_site_label
_atom_site_fract_x
_atom_site_fract_y
_atom_site_fract_z
Si Si1 0.973666 0.754839 0.751171
Si Si2 0.996806 0.385747 0.599051
Si Si3 0.053178 0.284678 0.047279
Si Si4 0.262367 0.083896 0.967769
Si Si5 0.613168 0.634464 0.168967
Si Si6 0.248610 0.437699 0.339425
Si Si7 0.481013 0.422888 0.248808
Si Si8 0.912516 0.020294 0.366018
O O1 0.917877 0.798665 0.831402
O O2 0.250746 0.516344 0.852128
O O3 0.971677 0.917788 0.671807
O O4 0.795254 0.719844 0.665695
O O5 0.214060 0.332979 0.739697
O O6 0.000000 0.500000 0.500000
O O7 0.743679 0.543352 0.554771
O O8 0.042479 0.180870 0.619615
O O9 0.798432 0.373393 0.907142
O O10 0.000000 0.500000 0.000000
O O11 0.268562 0.124507 0.068512
O O12 0.998726 0.311374 0.810966
O O13 0.500000 0.000000 0.000000
O O14 0.329529 0.861688 0.021784
O O15 0.626124 0.495386 0.270513
O O16 0.463411 0.366665 0.351665
O O17 0.611666 0.229091 0.250035
O O18 0.000000 0.000000 0.500000
#
# Coordination Sequence:
#
# PCOD9106851 Si02
#       8
#     2   2   2   2   2   2   2   2
#     4  10  20  40  61  92 132 165 210 256 314 370
#     4  11  23  42  66  87 118 165 212 264 318 371
#     4  11  21  35  62  96 136 164 206 257 310 372
#     4  11  19  35  61  88 131 167 207 246 314 372
#     4  10  22  38  60  88 127 168 208 250 310 376
#     4  10  21  39  63  89 129 164 203 260 309 372
#     4  10  23  40  63  93 130 166 205 261 312 366
#     4  11  25  44  68  91 123 164 217 263 315 378
#
# _framework density 23.542560999999999
#
# number of rings (size 3 to 8) (size 9 to 14) (size 15 to 20)
#    0.000    1.500    5.000    2.250    1.750    7.000 
#    0.000    6.250    0.000    0.000    0.000    0.000 
#    0.000    0.000    0.000    0.000    0.000    0.000 
#
# Total GULP energy -89241.233484 kJ/mol
# GULP energy per Si atom -5577.577093 kJ/mol
# Density = 2.348898 g / cm^3
# Si number density = 23.542561 Si / 1000 Ang^3
#
#
#
# Elastic Constant Matrix: (Units=GPa)
#
#
# Indices 1 2 3 4 5 6 
#
# 1 177.0742 77.5035 19.5888 5.7850 -49.8374 -15.2700
# 2 77.5035 114.0874 10.6505 6.4088 -20.4169 -6.7983
# 3 19.5888 10.6505 47.1640 0.2992 -25.4281 -5.8831
# 4 5.7850 6.4088 0.2992 28.2110 -3.1976 -10.4886
# 5 -49.8374 -20.4169 -25.4281 -3.1976 45.4975 7.6885
# 6 -15.2700 -6.7983 -5.8831 -10.4886 7.6885 49.4843
#
#
#
# Elastic Compliance Matrix: (Units=1/GPa)
#
#
# Indices 1 2 3 4 5 6 
#
# 1 0.011004 -0.005754 0.002730 0.000773 0.010812 0.001413
# 2 -0.005754 0.012627 -0.001260 -0.001981 -0.001414 -0.000391
# 3 0.002730 -0.001260 0.031193 0.002300 0.019716 0.001802
# 4 0.000773 -0.001981 0.002300 0.039024 0.002616 0.008105
# 5 0.010812 -0.001414 0.019716 0.002616 0.044540 -0.000880
# 6 0.001413 -0.000391 0.001802 0.008105 -0.000880 0.022660
#
#
# Mechanical properties :
#
#
# Convention : Reuss Voigt Hill
#
# Bulk Modulus (GPa) = 21.61944 61.53456 41.57700
# Shear Modulus (GPa) = 27.02208 40.01075 33.51641
#
# Velocity S-wave (km/s) = 3.39159 4.12698 3.77722
# Velocity P-wave (km/s) = 4.95381 6.99311 6.05986
#
# Compressibility (1/GPa) = 0.04625466
#
# Stress axis : x y z
#
# Youngs Moduli (GPa) = 90.87861 79.19674 32.05849
#
# Poissons Ratio (x) = 0.45572 -0.08752
# Poissons Ratio (y) = 0.52294 0.04040
# Poissons Ratio (z) = -0.24810 0.09980
#
# Static dielectric constant tensor:
#      x y z
#    x 2.091910 0.030920 -0.028270 
#    y 0.030920 1.953570 -0.067290 
#    z -0.028270 -0.067290 2.029100 
# 
# From -- ./inp_files/379195.got.cif
#   From: 2010.05.17/outbox.cif.g08.bks.cpg/sg2_190_cif.got.tgz:379195.got - 2010.06.03 11:33:40.
