data_PCOD9106256
_publ_section_title
;
Structure prediction by ZEFSAII (Michael W. Deem and Ramdas Pophale) SiO2 
 PCOD9106256
Probable space group: P -1
;
_chemical_formula_sum "Si O2"
_cell_formula_units_Z 16
_cell_length_a 13.142556
_cell_length_b 9.383778
_cell_length_c 12.957347
_cell_angle_alpha 129.930826
_cell_angle_beta 45.190657
_cell_angle_gamma 94.619645
_cell_volume 634.623012
_symmetry_space_group_name_H-M "P -1"
_symmetry_group_IT_number 2
_symmetry_cell_setting 'triclinic'
loop_
_space_group_symop_operation_xyz
x,y,z
-x,-y,-z
loop_
_atom_site_type_symbol
_atom_site_label
_atom_site_fract_x
_atom_site_fract_y
_atom_site_fract_z
Si Si1 0.472481 0.271022 0.643629
Si Si2 0.838452 0.223293 0.139354
Si Si3 0.596737 0.819295 0.945495
Si Si4 0.863711 0.964811 0.345123
Si Si5 0.954506 0.296933 0.497192
Si Si6 0.321811 0.778138 0.048479
Si Si7 0.099287 0.624146 0.193825
Si Si8 0.504588 0.207235 0.354406
O O1 0.697456 0.516983 0.412784
O O2 0.670472 0.076232 0.475432
O O3 0.476526 0.195914 0.490532
O O4 0.285167 0.364066 0.885054
O O5 0.684568 0.194224 0.214294
O O6 0.000000 0.000000 0.000000
O O7 0.957201 0.184605 0.934999
O O8 0.462904 0.753026 0.015698
O O9 0.560111 0.978061 0.143855
O O10 0.820631 0.555005 0.647168
O O11 0.500000 0.000000 0.000000
O O12 0.851923 0.186686 0.498969
O O13 0.920933 0.781383 0.314143
O O14 0.939407 0.388173 0.667100
O O15 0.183964 0.039916 0.204000
O O16 0.173032 0.773697 0.211516
O O17 0.440187 0.525053 0.777876
#
# Coordination Sequence:
#
# PCOD9106256 Si02
#       8
#     2   2   2   2   2   2   2   2
#     4  10  20  39  68  94 121 159 213 266 309 368
#     4  11  23  37  69  90 120 172 219 261 308 369
#     4  12  29  41  60  94 138 172 204 255 328 390
#     4  11  19  36  67  98 120 156 218 270 310 360
#     4  11  22  42  66  95 130 165 213 267 320 371
#     4   9  21  41  66  95 125 161 213 261 315 365
#     4   9  21  38  69 101 118 162 219 275 308 363
#     4  11  25  42  60  93 130 166 215 258 314 379
#
# _framework density 25.211819999999999
#
# number of rings (size 3 to 8) (size 9 to 14) (size 15 to 20)
#    0.750    0.750    3.750    1.500    8.750    4.500 
#    0.000    0.625    0.000    1.500    0.000    0.000 
#    0.000    0.000    0.000    0.000    0.000    0.000 
#
# Total GULP energy -89504.645831 kJ/mol
# GULP energy per Si atom -5594.040364 kJ/mol
# Density = 2.515444 g / cm^3
# Si number density = 25.211820 Si / 1000 Ang^3
#
#
#
# Elastic Constant Matrix: (Units=GPa)
#
#
# Indices 1 2 3 4 5 6 
#
# 1 109.0795 29.1687 59.4297 25.3943 3.6553 -18.2897
# 2 29.1687 86.2920 47.3541 20.0290 -7.2314 -20.6896
# 3 59.4297 47.3541 133.5954 21.1595 -1.3823 -15.4830
# 4 25.3943 20.0290 21.1595 52.3679 -16.8011 5.5677
# 5 3.6553 -7.2314 -1.3823 -16.8011 47.5247 12.5537
# 6 -18.2897 -20.6896 -15.4830 5.5677 12.5537 32.1387
#
#
#
# Elastic Compliance Matrix: (Units=1/GPa)
#
#
# Indices 1 2 3 4 5 6 
#
# 1 0.016349 0.002248 -0.004822 -0.011047 -0.008578 0.013692
# 2 0.002248 0.018550 -0.004447 -0.009424 -0.004648 0.014527
# 3 -0.004822 -0.004447 0.011299 -0.000588 -0.000188 0.000012
# 4 -0.011047 -0.009424 -0.000588 0.037481 0.019739 -0.026840
# 5 -0.008578 -0.004648 -0.000188 0.019739 0.034537 -0.024875
# 6 0.013692 0.014527 0.000012 -0.026840 -0.024875 0.062631
#
#
# Mechanical properties :
#
#
# Convention : Reuss Voigt Hill
#
# Bulk Modulus (GPa) = 31.09844 66.76354 48.93099
# Shear Modulus (GPa) = 24.31826 39.27391 31.79608
#
# Velocity S-wave (km/s) = 3.10910 3.95113 3.55513
# Velocity P-wave (km/s) = 5.02497 6.88140 6.02512
#
# Compressibility (1/GPa) = 0.03215595
#
# Stress axis : x y z
#
# Youngs Moduli (GPa) = 61.16735 53.90883 88.50255
#
# Poissons Ratio (x) = -0.12118 0.42673
# Poissons Ratio (y) = -0.13750 0.39358
# Poissons Ratio (z) = 0.29493 0.23974
#
# Static dielectric constant tensor:
#      x y z
#    x 1.996320 0.077090 -0.023280 
#    y 0.077090 2.072880 0.010580 
#    z -0.023280 0.010580 1.999960 
# 
# From -- ./inp_files/451632.got.cif
#   From: 2010.05.17/outbox.cif.g08.bks.cpg/sg2_226_cif.got.tgz:451632.got - 2010.06.03 11:33:40.
