data_PCOD9106619
_publ_section_title
;
Structure prediction by ZEFSAII (Michael W. Deem and Ramdas Pophale) SiO2 
 PCOD9106619
Probable space group: P -1
;
_chemical_formula_sum "Si O2"
_cell_formula_units_Z 14
_cell_length_a 9.924987
_cell_length_b 7.962069
_cell_length_c 9.014744
_cell_angle_alpha 113.312145
_cell_angle_beta 120.521383
_cell_angle_gamma 80.949399
_cell_volume 562.711132
_symmetry_space_group_name_H-M "P -1"
_symmetry_group_IT_number 2
_symmetry_cell_setting 'triclinic'
loop_
_space_group_symop_operation_xyz
x,y,z
-x,-y,-z
loop_
_atom_site_type_symbol
_atom_site_label
_atom_site_fract_x
_atom_site_fract_y
_atom_site_fract_z
Si Si1 0.400061 0.378821 0.115706
Si Si2 0.806633 0.711321 0.475923
Si Si3 0.131324 0.882351 0.718406
Si Si4 0.347161 0.701248 0.561403
Si Si5 0.389339 0.101272 0.778972
Si Si6 0.160416 0.421463 0.216448
Si Si7 0.820661 0.404606 0.124460
O O1 0.536224 0.422367 0.326264
O O2 0.247468 0.309615 0.102163
O O3 0.473214 0.226788 0.995167
O O4 0.331161 0.532173 0.024910
O O5 0.649909 0.788041 0.349819
O O6 0.805584 0.653693 0.625871
O O7 0.844601 0.551111 0.324191
O O8 0.945426 0.871298 0.601574
O O9 0.196016 0.734525 0.588671
O O10 0.178329 0.798453 0.874664
O O11 0.225275 0.057082 0.763237
O O12 0.266041 0.613996 0.340996
O O13 0.437107 0.902198 0.684002
O O14 0.973964 0.427717 0.113201
#
# Coordination Sequence:
#
# PCOD9106619 Si02
#       7
#     2   2   2   2   2   2   2
#     4  11  23  34  53  83 112 136 170 221 274 301
#     4  10  16  34  59  81  98 142 184 213 254 314
#     4   9  17  32  59  77 102 133 186 214 248 308
#     4  10  20  37  56  75 109 143 177 210 260 321
#     4   9  20  35  55  79 104 142 177 214 259 314
#     4  11  20  37  56  80 107 137 177 224 256 311
#     4  10  18  36  56  81 102 141 179 217 258 312
#
# _framework density 24.879550999999999
#
# number of rings (size 3 to 8) (size 9 to 14) (size 15 to 20)
#    0.857    1.143    2.857    2.571    0.000    0.571 
#    0.000    5.000    0.000    0.000    0.000    0.000 
#    0.000    0.000    0.000    0.000    0.000    0.000 
#
# Total GULP energy -78002.319619 kJ/mol
# GULP energy per Si atom -5571.594258 kJ/mol
# Density = 2.482292 g / cm^3
# Si number density = 24.879551 Si / 1000 Ang^3
#
#
#
# Elastic Constant Matrix: (Units=GPa)
#
#
# Indices 1 2 3 4 5 6 
#
# 1 64.7395 13.7692 19.7034 6.8156 -0.4508 -2.4960
# 2 13.7692 53.4250 15.0797 -13.9878 -1.5814 0.7523
# 3 19.7034 15.0797 64.0811 -7.3216 4.8106 -5.6019
# 4 6.8156 -13.9878 -7.3216 22.3151 -2.4387 -2.5860
# 5 -0.4508 -1.5814 4.8106 -2.4387 41.5268 -8.0227
# 6 -2.4960 0.7523 -5.6019 -2.5860 -8.0227 26.9300
#
#
#
# Elastic Compliance Matrix: (Units=1/GPa)
#
#
# Indices 1 2 3 4 5 6 
#
# 1 0.019974 -0.006678 -0.006005 -0.012324 -0.000151 -0.000440
# 2 -0.006678 0.025755 -0.002090 0.017824 0.002319 0.000629
# 3 -0.006005 -0.002090 0.019182 0.007128 -0.001211 0.003816
# 4 -0.012324 0.017824 0.007128 0.063478 0.004875 0.007390
# 5 -0.000151 0.002319 -0.001211 0.004875 0.026124 0.007920
# 6 -0.000440 0.000629 0.003816 0.007390 0.007920 0.040938
#
#
# Mechanical properties :
#
#
# Convention : Reuss Voigt Hill
#
# Bulk Modulus (GPa) = 28.27621 31.03889 29.65755
# Shear Modulus (GPa) = 21.11608 27.06725 24.09167
#
# Velocity S-wave (km/s) = 2.91646 3.30196 3.11518
# Velocity P-wave (km/s) = 4.76769 5.20000 4.98853
#
# Compressibility (1/GPa) = 0.03536541
#
# Stress axis : x y z
#
# Youngs Moduli (GPa) = 50.06516 38.82672 52.13109
#
# Poissons Ratio (x) = 0.25928 0.31306
# Poissons Ratio (y) = 0.33433 0.10896
# Poissons Ratio (z) = 0.30066 0.08115
#
# Static dielectric constant tensor:
#      x y z
#    x 1.998490 0.054100 0.018350 
#    y 0.054100 2.046390 0.037520 
#    z 0.018350 0.037520 1.974110 
# 
# From -- ./inp_files/183333.got.cif
#   From: 2010.05.17/outbox.cif.g08.bks.cpg/sg2_92_cif.got.tgz:183333.got - 2010.06.03 11:33:40.
