data_PCOD9106104
_publ_section_title
;
Structure prediction by ZEFSAII (Michael W. Deem and Ramdas Pophale) SiO2 
 PCOD9106104
Probable space group: P -1
;
_chemical_formula_sum "Si O2"
_cell_formula_units_Z 14
_cell_length_a 12.520795
_cell_length_b 11.418828
_cell_length_c 8.948263
_cell_angle_alpha 121.930965
_cell_angle_beta 59.052727
_cell_angle_gamma 135.798219
_cell_volume 736.994606
_symmetry_space_group_name_H-M "P -1"
_symmetry_group_IT_number 2
_symmetry_cell_setting 'triclinic'
loop_
_space_group_symop_operation_xyz
x,y,z
-x,-y,-z
loop_
_atom_site_type_symbol
_atom_site_label
_atom_site_fract_x
_atom_site_fract_y
_atom_site_fract_z
Si Si1 0.658738 0.946243 0.437863
Si Si2 0.395191 0.712167 0.058552
Si Si3 0.441601 0.578654 0.206266
Si Si4 0.857041 0.009772 0.616006
Si Si5 0.145923 0.702082 0.034848
Si Si6 0.575820 0.627281 0.671760
Si Si7 0.362355 0.909508 0.747412
O O1 0.591716 0.760318 0.288721
O O2 0.506575 0.903401 0.606477
O O3 0.800088 0.019380 0.499189
O O4 0.694937 0.073927 0.360940
O O5 0.440247 0.619242 0.851950
O O6 0.349852 0.622811 0.194643
O O7 0.269659 0.725151 0.081079
O O8 0.554078 0.906027 0.104403
O O9 0.357649 0.444274 0.311649
O O10 0.500000 0.500000 0.000000
O O11 0.893796 0.169629 0.796731
O O12 0.708163 0.825014 0.663314
O O13 0.000000 0.000000 0.500000
O O14 0.231372 0.763566 0.853707
O O15 0.000000 0.500000 0.000000
O O16 0.500000 0.500000 0.500000
#
# Coordination Sequence:
#
# PCOD9106104 Si02
#       7
#     2   2   2   2   2   2   2
#     4  10  20  39  67  94 120 157 215 262 312 369
#     4  10  20  40  66  89 122 157 216 263 306 373
#     4   9  20  34  61  96 120 150 201 260 314 363
#     4  12  26  42  59  94 135 171 206 255 322 384
#     4  12  26  42  62  94 131 171 211 259 325 375
#     4  11  21  37  65  92 123 162 210 257 310 373
#     4  10  20  40  70  92 116 158 216 272 307 363
#
# _framework density 18.996068999999999
#
# number of rings (size 3 to 8) (size 9 to 14) (size 15 to 20)
#    0.000    1.429    4.286    1.286    2.000    0.000 
#    2.571    1.429    0.000    0.000    0.000    0.000 
#    0.000    0.000    0.000    0.000    0.000    0.000 
#
# Total GULP energy -78138.370231 kJ/mol
# GULP energy per Si atom -5581.312159 kJ/mol
# Density = 1.895283 g / cm^3
# Si number density = 18.996069 Si / 1000 Ang^3
#
#
#
# Elastic Constant Matrix: (Units=GPa)
#
#
# Indices 1 2 3 4 5 6 
#
# 1 117.9917 44.6236 47.6787 -23.3576 7.1957 -8.3377
# 2 44.6236 105.5670 52.8321 2.3996 11.9450 -18.7145
# 3 47.6787 52.8321 119.9910 10.0988 4.1439 -1.5112
# 4 -23.3576 2.3996 10.0988 28.3901 -10.0873 4.3775
# 5 7.1957 11.9450 4.1439 -10.0873 27.6566 -0.2306
# 6 -8.3377 -18.7145 -1.5112 4.3775 -0.2306 20.8746
#
#
#
# Elastic Compliance Matrix: (Units=1/GPa)
#
#
# Indices 1 2 3 4 5 6 
#
# 1 0.015773 -0.005322 -0.005643 0.017783 0.005505 -0.002548
# 2 -0.005322 0.018008 -0.004454 -0.010024 -0.009251 0.015697
# 3 -0.005643 -0.004454 0.013337 -0.009197 -0.001989 -0.003374
# 4 0.017783 -0.010024 -0.009197 0.065222 0.024736 -0.015954
# 5 0.005505 -0.009251 -0.001989 0.024736 0.047950 -0.010897
# 6 -0.002548 0.015697 -0.003374 -0.015954 -0.010897 0.063941
#
#
# Mechanical properties :
#
#
# Convention : Reuss Voigt Hill
#
# Bulk Modulus (GPa) = 61.41958 70.42426 65.92192
# Shear Modulus (GPa) = 19.19423 28.61195 23.90309
#
# Velocity S-wave (km/s) = 3.18218 3.88519 3.55113
# Velocity P-wave (km/s) = 6.77530 7.56835 7.18277
#
# Compressibility (1/GPa) = 0.01628145
#
# Stress axis : x y z
#
# Youngs Moduli (GPa) = 63.40125 55.52967 74.97762
#
# Poissons Ratio (x) = 0.29553 0.42309
# Poissons Ratio (y) = 0.33742 0.33392
# Poissons Ratio (z) = 0.35776 0.24731
#
# Static dielectric constant tensor:
#      x y z
#    x 1.687540 -0.057030 0.004920 
#    y -0.057030 1.661770 0.008460 
#    z 0.004920 0.008460 1.684580 
# 
# From -- ./inp_files/205280.got.cif
#   From: 2010.05.17/outbox.cif.g08.bks.cpg/sg2_103_cif.got.tgz:205280.got - 2010.06.03 11:33:40.
