data_PCOD9106871
_publ_section_title
;
Structure prediction by ZEFSAII (Michael W. Deem and Ramdas Pophale) SiO2 
 PCOD9106871
Probable space group: P -1
;
_chemical_formula_sum "Si O2"
_cell_formula_units_Z 16
_cell_length_a 5.017206
_cell_length_b 15.149730
_cell_length_c 13.195739
_cell_angle_alpha 46.997864
_cell_angle_beta 98.715315
_cell_angle_gamma 73.006243
_cell_volume 606.837462
_symmetry_space_group_name_H-M "P -1"
_symmetry_group_IT_number 2
_symmetry_cell_setting 'triclinic'
loop_
_space_group_symop_operation_xyz
x,y,z
-x,-y,-z
loop_
_atom_site_type_symbol
_atom_site_label
_atom_site_fract_x
_atom_site_fract_y
_atom_site_fract_z
Si Si1 0.448599 0.667584 0.484814
Si Si2 0.209754 0.909653 0.743257
Si Si3 0.156738 0.492303 0.680701
Si Si4 0.242239 0.795655 0.154935
Si Si5 0.515534 0.914899 0.360728
Si Si6 0.914910 0.568254 0.827619
Si Si7 0.672140 0.344167 0.188297
Si Si8 0.537707 0.908465 0.955315
O O1 0.234317 0.612268 0.561116
O O2 0.270885 0.761516 0.301669
O O3 0.811161 0.533746 0.584365
O O4 0.535643 0.766406 0.477638
O O5 0.255281 0.038839 0.611773
O O6 0.321108 0.782204 0.770989
O O7 0.846905 0.971988 0.708762
O O8 0.442387 0.845904 0.904149
O O9 0.451533 0.345900 0.767342
O O10 0.118525 0.484149 0.806737
O O11 0.311003 0.916811 0.026116
O O12 0.911523 0.822108 0.071537
O O13 0.547941 0.945286 0.220061
O O14 0.551575 0.614647 0.759927
O O15 0.970822 0.697017 0.739449
O O16 0.000000 0.500000 0.000000
O O17 0.500000 0.500000 0.000000
#
# Coordination Sequence:
#
# PCOD9106871 Si02
#       8
#     2   2   2   2   2   2   2   2
#     4  12  26  46  68  94 136 192 236 265 317 415
#     4  10  20  40  62 100 136 176 209 277 348 391
#     4  12  26  45  67  96 142 179 222 278 347 402
#     4  12  24  41  69 100 138 178 228 284 335 399
#     4  10  22  41  67  96 134 186 228 275 329 394
#     4  10  23  39  64 100 132 164 212 278 339 403
#     4  10  21  36  64  97 135 159 207 262 351 412
#     4  10  22  38  64 102 132 172 223 280 348 374
#
# _framework density 26.366202999999999
#
# number of rings (size 3 to 8) (size 9 to 14) (size 15 to 20)
#    0.750    0.500    1.250    4.500    3.500    2.000 
#    0.000    0.000    0.000   15.000    0.000    0.000 
#    0.000    0.000    0.000    0.000    0.000    0.000 
#
# Total GULP energy -89399.733598 kJ/mol
# GULP energy per Si atom -5587.483350 kJ/mol
# Density = 2.630619 g / cm^3
# Si number density = 26.366203 Si / 1000 Ang^3
#
#
#
# Elastic Constant Matrix: (Units=GPa)
#
#
# Indices 1 2 3 4 5 6 
#
# 1 191.9702 3.2280 18.3924 9.8644 -34.4179 -25.4416
# 2 3.2280 72.3354 5.1942 -4.3189 -17.4983 -14.0369
# 3 18.3924 5.1942 120.9152 8.2326 -40.9875 -9.6768
# 4 9.8644 -4.3189 8.2326 30.4782 2.0605 -0.3723
# 5 -34.4179 -17.4983 -40.9875 2.0605 53.4740 2.6297
# 6 -25.4416 -14.0369 -9.6768 -0.3723 2.6297 29.1786
#
#
#
# Elastic Compliance Matrix: (Units=1/GPa)
#
#
# Indices 1 2 3 4 5 6 
#
# 1 0.007337 0.002447 0.001842 -0.002884 0.006675 0.007547
# 2 0.002447 0.017810 0.002721 0.000524 0.008937 0.010805
# 3 0.001842 0.002721 0.012573 -0.004317 0.011585 0.005986
# 4 -0.002884 0.000524 -0.004317 0.035372 -0.006225 -0.002682
# 5 0.006675 0.008937 0.011585 -0.006225 0.034512 0.010772
# 6 0.007547 0.010805 0.005986 -0.002682 0.010772 0.047030
#
#
# Mechanical properties :
#
#
# Convention : Reuss Voigt Hill
#
# Bulk Modulus (GPa) = 19.32714 48.76108 34.04411
# Shear Modulus (GPa) = 31.67360 46.51989 39.09675
#
# Velocity S-wave (km/s) = 3.46973 4.20500 3.85494
# Velocity P-wave (km/s) = 4.83717 6.48922 5.72312
#
# Compressibility (1/GPa) = 0.05174071
#
# Stress axis : x y z
#
# Youngs Moduli (GPa) = 136.30287 56.14819 79.53351
#
# Poissons Ratio (x) = -0.13741 -0.14649
# Poissons Ratio (y) = -0.33357 -0.21643
# Poissons Ratio (z) = -0.25105 -0.15280
#
# Static dielectric constant tensor:
#      x y z
#    x 2.277250 0.085710 0.245610 
#    y 0.085710 2.134460 0.049550 
#    z 0.245610 0.049550 2.362290 
# 
# From -- ./inp_files/367492.got.cif
#   From: 2010.05.17/outbox.cif.g08.bks.cpg/sg2_184_cif.got.tgz:367492.got - 2010.06.03 11:33:40.
