data_PCOD9106187
_publ_section_title
;
Structure prediction by ZEFSAII (Michael W. Deem and Ramdas Pophale) SiO2 
 PCOD9106187
Probable space group: P -1
;
_chemical_formula_sum "Si O2"
_cell_formula_units_Z 12
_cell_length_a 9.782789
_cell_length_b 13.482534
_cell_length_c 7.974356
_cell_angle_alpha 147.784579
_cell_angle_beta 68.515864
_cell_angle_gamma 96.953734
_cell_volume 482.492064
_symmetry_space_group_name_H-M "P -1"
_symmetry_group_IT_number 2
_symmetry_cell_setting 'triclinic'
loop_
_space_group_symop_operation_xyz
x,y,z
-x,-y,-z
loop_
_atom_site_type_symbol
_atom_site_label
_atom_site_fract_x
_atom_site_fract_y
_atom_site_fract_z
Si Si1 0.500486 0.718084 0.368371
Si Si2 0.039412 0.783877 0.464402
Si Si3 0.340548 0.825320 0.299465
Si Si4 0.395374 0.543669 0.445510
Si Si5 0.181546 0.220934 0.747508
Si Si6 0.964246 0.263206 0.210484
O O1 0.365401 0.893691 0.574188
O O2 0.437675 0.716674 0.580705
O O3 0.674557 0.714747 0.271079
O O4 0.500000 0.500000 0.000000
O O5 0.934383 0.742495 0.307046
O O6 0.221809 0.708938 0.210535
O O7 0.028855 0.707039 0.548124
O O8 0.993856 0.025340 0.840040
O O9 0.268748 0.984303 0.415295
O O10 0.523072 0.683553 0.987432
O O11 0.500000 0.500000 0.500000
O O12 0.208706 0.616655 0.618001
O O13 0.088024 0.299032 0.077130
#
# Coordination Sequence:
#
# PCOD9106187 Si02
#       6
#     2   2   2   2   2   2
#     4  10  23  43  64  90 135 175 209 272 337 377
#     4  10  20  39  67  98 134 171 215 268 326 388
#     4  10  20  41  68  91 132 172 208 265 336 386
#     4  11  21  40  66  93 130 175 211 264 333 387
#     4  11  22  42  69  99 125 172 226 263 321 399
#     4  10  21  39  67  98 134 170 215 272 324 383
#
# _framework density 24.870877
#
# number of rings (size 3 to 8) (size 9 to 14) (size 15 to 20)
#    0.000    1.667    1.667    4.500    0.000    0.000 
#    6.000   12.500    0.000    0.000    0.000    0.000 
#    0.000    0.000    0.000    0.000    0.000    0.000 
#
# Total GULP energy -66972.875282 kJ/mol
# GULP energy per Si atom -5581.072940 kJ/mol
# Density = 2.481427 g / cm^3
# Si number density = 24.870877 Si / 1000 Ang^3
#
#
#
# Elastic Constant Matrix: (Units=GPa)
#
#
# Indices 1 2 3 4 5 6 
#
# 1 189.6117 71.3452 16.0158 -11.2919 -23.8725 -1.0813
# 2 71.3452 134.7645 6.6307 1.5301 3.6510 -6.8164
# 3 16.0158 6.6307 31.7748 2.2440 -20.6752 -4.0688
# 4 -11.2919 1.5301 2.2440 29.2990 -6.1890 -11.9806
# 5 -23.8725 3.6510 -20.6752 -6.1890 40.0915 -2.9356
# 6 -1.0813 -6.8164 -4.0688 -11.9806 -2.9356 55.9090
#
#
#
# Elastic Compliance Matrix: (Units=1/GPa)
#
#
# Indices 1 2 3 4 5 6 
#
# 1 0.008002 -0.004459 0.000914 0.005074 0.006507 0.001107
# 2 -0.004459 0.010144 -0.003485 -0.003272 -0.005890 -0.000114
# 3 0.000914 -0.003485 0.050365 0.004966 0.028026 0.005794
# 4 0.005074 -0.003272 0.004966 0.042716 0.013200 0.009907
# 5 0.006507 -0.005890 0.028026 0.013200 0.046336 0.006709
# 6 0.001107 -0.000114 0.005794 0.009907 0.006709 0.020791
#
#
# Mechanical properties :
#
#
# Convention : Reuss Voigt Hill
#
# Bulk Modulus (GPa) = 18.36511 60.45939 39.41225
# Shear Modulus (GPa) = 23.74582 42.53719 33.14151
#
# Velocity S-wave (km/s) = 3.09328 4.14009 3.65436
# Velocity P-wave (km/s) = 4.48977 6.87138 5.80405
#
# Compressibility (1/GPa) = 0.05445107
#
# Stress axis : x y z
#
# Youngs Moduli (GPa) = 124.96302 98.58412 19.85519
#
# Poissons Ratio (x) = 0.43963 -0.01815
# Poissons Ratio (y) = 0.55726 0.06919
# Poissons Ratio (z) = -0.11426 0.34354
#
# Static dielectric constant tensor:
#      x y z
#    x -2.143850 4.407490 -4.604250 
#    y 4.407490 -2.651280 4.961050 
#    z -4.604250 4.961050 -3.084820 
# 
# From -- ./inp_files/145640.got.cif
#   From: 2010.05.17/outbox.cif.g08.bks.cpg/sg2_73_cif.got.tgz:145640.got - 2010.06.03 11:33:40.
