data_PCOD9106845
_publ_section_title
;
Structure prediction by ZEFSAII (Michael W. Deem and Ramdas Pophale) SiO2 
 PCOD9106845
Probable space group: P -1
;
_chemical_formula_sum "Si O2"
_cell_formula_units_Z 16
_cell_length_a 15.365696
_cell_length_b 18.317555
_cell_length_c 11.775170
_cell_angle_alpha 129.305364
_cell_angle_beta 131.355058
_cell_angle_gamma 16.585600
_cell_volume 710.131234
_symmetry_space_group_name_H-M "P -1"
_symmetry_group_IT_number 2
_symmetry_cell_setting 'triclinic'
loop_
_space_group_symop_operation_xyz
x,y,z
-x,-y,-z
loop_
_atom_site_type_symbol
_atom_site_label
_atom_site_fract_x
_atom_site_fract_y
_atom_site_fract_z
Si Si1 0.510243 0.340399 0.385744
Si Si2 0.000006 0.350658 0.586925
Si Si3 0.424843 0.539222 0.293530
Si Si4 0.770056 0.009708 0.108453
Si Si5 0.056102 0.893794 0.051254
Si Si6 0.614000 0.980804 0.774575
Si Si7 0.090596 0.466229 0.669695
Si Si8 0.733060 0.406811 0.242776
O O1 0.186748 0.553795 0.376490
O O2 0.482506 0.431401 0.345289
O O3 0.673590 0.281838 0.565314
O O4 0.656548 0.136697 0.255044
O O5 0.922737 0.519419 0.664196
O O6 0.906740 0.363005 0.406169
O O7 0.372259 0.075522 0.655169
O O8 0.712549 0.344270 0.265209
O O9 0.138258 0.710845 0.147710
O O10 0.783858 0.078512 0.088561
O O11 0.590894 0.058099 0.946563
O O12 0.364333 0.701123 0.189406
O O13 0.134332 0.735034 0.899316
O O14 0.000000 0.000000 0.000000
O O15 0.456303 0.167396 0.724127
O O16 0.955135 0.673863 0.764298
O O17 0.000000 0.500000 0.500000
#
# Coordination Sequence:
#
# PCOD9106845 Si02
#       8
#     2   2   2   2   2   2   2   2
#     4  10  20  40  61  92 120 172 212 265 317 383
#     4   9  23  39  63  89 126 168 219 261 314 382
#     4   9  20  37  63  86 124 166 210 266 320 384
#     4  11  23  36  62  89 130 162 217 264 328 377
#     4  10  21  35  57  90 122 161 203 263 326 385
#     4  10  25  42  64 101 124 173 214 265 324 377
#     4  10  23  44  67  92 131 167 220 260 318 381
#     4   9  19  38  56  88 124 156 210 260 322 382
#
# _framework density 22.531047000000001
#
# number of rings (size 3 to 8) (size 9 to 14) (size 15 to 20)
#    0.750    1.500    0.000    1.500    3.500    3.500 
#    0.000    3.750    0.000    0.000    0.000    0.000 
#    0.000    0.000    0.000    0.000    0.000    0.000 
#
# Total GULP energy -89111.710180 kJ/mol
# GULP energy per Si atom -5569.481886 kJ/mol
# Density = 2.247977 g / cm^3
# Si number density = 22.531047 Si / 1000 Ang^3
#
#
#
# Elastic Constant Matrix: (Units=GPa)
#
#
# Indices 1 2 3 4 5 6 
#
# 1 74.1157 11.7047 9.8199 -3.5228 -10.8568 5.5645
# 2 11.7047 62.4122 27.6643 2.0099 4.5039 11.5623
# 3 9.8199 27.6643 139.2454 -5.9203 -0.4105 -6.8875
# 4 -3.5228 2.0099 -5.9203 36.7165 -8.9815 -0.7186
# 5 -10.8568 4.5039 -0.4105 -8.9815 36.6145 2.3819
# 6 5.5645 11.5623 -6.8875 -0.7186 2.3819 28.7352
#
#
#
# Elastic Compliance Matrix: (Units=1/GPa)
#
#
# Indices 1 2 3 4 5 6 
#
# 1 0.015126 -0.002668 -0.000516 0.002852 0.005662 -0.002377
# 2 -0.002668 0.020432 -0.004438 -0.003130 -0.003565 -0.008551
# 3 -0.000516 -0.004438 0.008369 0.001783 0.000672 0.003881
# 4 0.002852 -0.003130 0.001783 0.030084 0.008554 0.001178
# 5 0.005662 -0.003565 0.000672 0.008554 0.031659 -0.001911
# 6 -0.002377 -0.008551 0.003881 0.001178 -0.001911 0.039820
#
#
# Mechanical properties :
#
#
# Convention : Reuss Voigt Hill
#
# Bulk Modulus (GPa) = 34.86334 41.57235 38.21785
# Shear Modulus (GPa) = 29.36102 35.51887 32.43994
#
# Velocity S-wave (km/s) = 3.61381 3.97475 3.79857
# Velocity P-wave (km/s) = 5.73759 6.28936 6.01980
#
# Compressibility (1/GPa) = 0.02868342
#
# Stress axis : x y z
#
# Youngs Moduli (GPa) = 66.11330 48.94273 119.48349
#
# Poissons Ratio (x) = 0.13057 0.06169
# Poissons Ratio (y) = 0.17638 0.53023
# Poissons Ratio (z) = 0.03413 0.21719
#
# Static dielectric constant tensor:
#      x y z
#    x 1.880380 0.036900 0.020400 
#    y 0.036900 1.920690 0.050760 
#    z 0.020400 0.050760 1.841980 
# 
# From -- ./inp_files/456985.got.cif
#   From: 2010.05.17/outbox.cif.g08.bks.cpg/sg2_229_cif.got.tgz:456985.got - 2010.06.03 11:33:40.
