data_PCOD9106400
_publ_section_title
;
Structure prediction by ZEFSAII (Michael W. Deem and Ramdas Pophale) SiO2 
 PCOD9106400
Probable space group: P -1
;
_chemical_formula_sum "Si O2"
_cell_formula_units_Z 15
_cell_length_a 17.630334
_cell_length_b 10.505126
_cell_length_c 7.445480
_cell_angle_alpha 115.419491
_cell_angle_beta 133.912379
_cell_angle_gamma 43.711997
_cell_volume 679.247351
_symmetry_space_group_name_H-M "P -1"
_symmetry_group_IT_number 2
_symmetry_cell_setting 'triclinic'
loop_
_space_group_symop_operation_xyz
x,y,z
-x,-y,-z
loop_
_atom_site_type_symbol
_atom_site_label
_atom_site_fract_x
_atom_site_fract_y
_atom_site_fract_z
Si Si1 0.349277 0.198084 0.816699
Si Si2 0.346093 0.085308 0.354515
Si Si3 0.135541 0.994939 0.410871
Si Si4 0.668143 0.502906 0.853844
Si Si5 0.136177 0.264964 0.796126
Si Si6 0.000000 0.500000 0.000000
Si Si7 0.635718 0.224212 0.630898
Si Si8 0.935670 0.258433 0.914300
O O1 0.319363 0.182962 0.556817
O O2 0.230717 0.242888 0.779420
O O3 0.351932 0.362411 0.948386
O O4 0.500000 0.000000 0.000000
O O5 0.500000 0.000000 0.500000
O O6 0.338648 0.926166 0.285093
O O7 0.226058 0.224369 0.100095
O O8 0.288962 0.863167 0.491338
O O9 0.093148 0.869800 0.300697
O O10 0.121431 0.114770 0.625484
O O11 0.689893 0.325948 0.853081
O O12 0.527893 0.625495 0.581287
O O13 0.793935 0.427294 0.883055
O O14 0.981098 0.345086 0.914363
O O15 0.000041 0.466828 0.755745
O O16 0.957408 0.866760 0.823913
#
# Coordination Sequence:
#
# PCOD9106400 Si02
#       8
#     2   2   2   2   2   1   2   2
#     4  12  21  42  68  95 132 181 217 277 350 401
#     4  12  24  39  67 102 134 172 230 278 333 417
#     4  10  22  45  71  94 134 193 227 270 353 420
#     4  10  20  39  69  98 131 179 223 277 349 407
#     4  12  25  42  68  99 137 180 228 279 341 408
#     4  12  26  40  64 108 140 168 236 294 324 410
#     4  10  20  39  69  98 133 172 225 283 339 411
#     4  10  23  43  70 100 136 181 231 282 343 413
#
# _framework density 22.083269000000001
#
# number of rings (size 3 to 8) (size 9 to 14) (size 15 to 20)
#    0.000    1.067    5.333    0.800    0.000    2.133 
#    0.000    2.000    0.000    0.000    0.000    0.000 
#    0.000    0.000    0.000    0.000    0.000    0.000 
#
# Total GULP energy -83638.132865 kJ/mol
# GULP energy per Si atom -5575.875524 kJ/mol
# Density = 2.203301 g / cm^3
# Si number density = 22.083269 Si / 1000 Ang^3
#
#
#
# Elastic Constant Matrix: (Units=GPa)
#
#
# Indices 1 2 3 4 5 6 
#
# 1 119.2336 30.6693 40.8747 16.3234 16.1030 0.8662
# 2 30.6693 81.8707 38.5821 31.7447 9.7697 -6.4029
# 3 40.8747 38.5821 98.3032 27.9239 -5.4138 1.9436
# 4 16.3234 31.7447 27.9239 56.5810 -3.1655 11.6147
# 5 16.1030 9.7697 -5.4138 -3.1655 36.2111 9.0310
# 6 0.8662 -6.4029 1.9436 11.6147 9.0310 48.2864
#
#
#
# Elastic Compliance Matrix: (Units=1/GPa)
#
#
# Indices 1 2 3 4 5 6 
#
# 1 0.010980 -0.000920 -0.004219 -0.001128 -0.005658 0.001181
# 2 -0.000920 0.020885 -0.005381 -0.010773 -0.008776 0.007235
# 3 -0.004219 -0.005381 0.015115 -0.002547 0.005793 -0.001717
# 4 -0.001128 -0.010773 -0.002547 0.027670 0.007796 -0.009419
# 5 -0.005658 -0.008776 0.005793 0.007796 0.036543 -0.010005
# 6 0.001181 0.007235 -0.001717 -0.009419 -0.010005 0.025854
#
#
# Mechanical properties :
#
#
# Convention : Reuss Voigt Hill
#
# Bulk Modulus (GPa) = 38.54904 57.73995 48.14450
# Shear Modulus (GPa) = 29.98811 40.83447 35.41129
#
# Velocity S-wave (km/s) = 3.68904 4.30480 4.00876
# Velocity P-wave (km/s) = 5.96988 7.13524 6.57842
#
# Compressibility (1/GPa) = 0.02594098
#
# Stress axis : x y z
#
# Youngs Moduli (GPa) = 91.07575 47.88162 66.15878
#
# Poissons Ratio (x) = 0.04405 0.27911
# Poissons Ratio (y) = 0.08378 0.35598
# Poissons Ratio (z) = 0.38423 0.25764
#
# Static dielectric constant tensor:
#      x y z
#    x 1.807430 0.029350 0.008200 
#    y 0.029350 1.820150 -0.011180 
#    z 0.008200 -0.011180 1.845450 
# 
# From -- ./inp_files/331380.got.cif
#   From: 2010.05.17/outbox.cif.g08.bks.cpg/sg2_166_cif.got.tgz:331380.got - 2010.06.03 11:33:40.
