data_PCOD9106136
_publ_section_title
;
Structure prediction by ZEFSAII (Michael W. Deem and Ramdas Pophale) SiO2 
 PCOD9106136
Probable space group: P -1
;
_chemical_formula_sum "Si O2"
_cell_formula_units_Z 14
_cell_length_a 8.331648
_cell_length_b 26.326745
_cell_length_c 4.907784
_cell_angle_alpha 109.436613
_cell_angle_beta 89.356173
_cell_angle_gamma 35.844974
_cell_volume 511.762253
_symmetry_space_group_name_H-M "P -1"
_symmetry_group_IT_number 2
_symmetry_cell_setting 'triclinic'
loop_
_space_group_symop_operation_xyz
x,y,z
-x,-y,-z
loop_
_atom_site_type_symbol
_atom_site_label
_atom_site_fract_x
_atom_site_fract_y
_atom_site_fract_z
Si Si1 0.394113 0.415973 0.040713
Si Si2 0.427627 0.699368 0.679569
Si Si3 0.638333 0.074053 0.449476
Si Si4 0.867084 0.658113 0.435546
Si Si5 0.817599 0.874743 0.695450
Si Si6 0.167257 0.621602 0.832973
Si Si7 0.974311 0.077117 0.332185
O O1 0.420185 0.357722 0.135289
O O2 0.705622 0.360104 0.011520
O O3 0.097458 0.541213 0.307763
O O4 0.413023 0.390227 0.687873
O O5 0.525884 0.730186 0.626132
O O6 0.053054 0.797504 0.806754
O O7 0.317267 0.138249 0.476523
O O8 0.669627 0.128936 0.502443
O O9 0.744860 0.028260 0.667708
O O10 0.909770 0.970440 0.059423
O O11 0.936147 0.686808 0.694107
O O12 0.001192 0.635772 0.099986
O O13 0.015336 0.862350 0.499020
O O14 0.500000 0.000000 0.000000
O O15 0.500000 0.500000 0.500000
#
# Coordination Sequence:
#
# PCOD9106136 Si02
#       7
#     2   2   2   2   2   2   2
#     4  11  22  41  63  96 130 168 212 271 320 398
#     4  12  25  39  63  97 130 169 222 264 335 382
#     4   9  18  35  61  85 112 149 210 256 318 367
#     4  11  21  40  67  96 132 170 212 266 324 393
#     4  10  23  43  65  88 130 173 219 270 324 380
#     4  10  20  39  67  95 129 176 210 255 331 395
#     4   9  18  35  60  87 109 154 203 263 311 372
#
# _framework density 27.356452000000001
#
# number of rings (size 3 to 8) (size 9 to 14) (size 15 to 20)
#    0.000    1.714    0.000    6.429    0.000    4.571 
#    5.143    0.000    3.143    0.000    0.000    0.000 
#    0.000    0.000    0.000    0.000    0.000    0.000 
#
# Total GULP energy -78417.872783 kJ/mol
# GULP energy per Si atom -5601.276627 kJ/mol
# Density = 2.729419 g / cm^3
# Si number density = 27.356452 Si / 1000 Ang^3
#
#
#
# Elastic Constant Matrix: (Units=GPa)
#
#
# Indices 1 2 3 4 5 6 
#
# 1 167.5407 24.3332 16.8147 4.2550 -14.2008 -28.8101
# 2 24.3332 78.4477 34.2027 11.4538 -16.9619 -13.5118
# 3 16.8147 34.2027 83.8427 -5.6606 -10.3149 -5.8047
# 4 4.2550 11.4538 -5.6606 35.6612 -4.8011 -7.2727
# 5 -14.2008 -16.9619 -10.3149 -4.8011 34.6455 -13.3909
# 6 -28.8101 -13.5118 -5.8047 -7.2727 -13.3909 54.7559
#
#
#
# Elastic Compliance Matrix: (Units=1/GPa)
#
#
# Indices 1 2 3 4 5 6 
#
# 1 0.007294 -0.000352 -0.000329 0.000851 0.004768 0.004995
# 2 -0.000352 0.019297 -0.006700 -0.004964 0.008681 0.005330
# 3 -0.000329 -0.006700 0.015432 0.005167 0.002305 0.001059
# 4 0.000851 -0.004964 0.005167 0.032304 0.006078 0.005548
# 5 0.004768 0.008681 0.002305 0.006078 0.042851 0.016182
# 6 0.004995 0.005330 0.001059 0.005548 0.016182 0.027013
#
#
# Mechanical properties :
#
#
# Convention : Reuss Voigt Hill
#
# Bulk Modulus (GPa) = 36.68128 53.39247 45.03687
# Shear Modulus (GPa) = 29.75451 41.97788 35.86619
#
# Velocity S-wave (km/s) = 3.30155 3.92149 3.62480
# Velocity P-wave (km/s) = 5.28880 6.32960 5.83246
#
# Compressibility (1/GPa) = 0.02726186
#
# Stress axis : x y z
#
# Youngs Moduli (GPa) = 137.09138 51.82064 64.80053
#
# Poissons Ratio (x) = 0.01823 0.02135
# Poissons Ratio (y) = 0.04823 0.43414
# Poissons Ratio (z) = 0.04516 0.34718
#
# Static dielectric constant tensor:
#      x y z
#    x 2.182830 -0.013630 -0.047540 
#    y -0.013630 2.133400 0.018210 
#    z -0.047540 0.018210 2.079800 
# 
# From -- ./inp_files/56919.got.cif
#   From: 2010.05.17/outbox.cif.g08.bks.cpg/sg2_29_cif.got.tgz:56919.got - 2010.06.03 11:33:40.
