data_PCOD9106516
_publ_section_title
;
Structure prediction by ZEFSAII (Michael W. Deem and Ramdas Pophale) SiO2 
 PCOD9106516
Probable space group: P -1
;
_chemical_formula_sum "Si O2"
_cell_formula_units_Z 12
_cell_length_a 8.467877
_cell_length_b 11.328617
_cell_length_c 13.132297
_cell_angle_alpha 32.084230
_cell_angle_beta 131.124220
_cell_angle_gamma 130.070905
_cell_volume 492.141465
_symmetry_space_group_name_H-M "P -1"
_symmetry_group_IT_number 2
_symmetry_cell_setting 'triclinic'
loop_
_space_group_symop_operation_xyz
x,y,z
-x,-y,-z
loop_
_atom_site_type_symbol
_atom_site_label
_atom_site_fract_x
_atom_site_fract_y
_atom_site_fract_z
Si Si1 0.738741 0.863982 0.200674
Si Si2 0.765113 0.969012 0.475944
Si Si3 0.046419 0.294869 0.102860
Si Si4 0.570775 0.179651 0.738187
Si Si5 0.986265 0.744682 0.224223
Si Si6 0.277284 0.540529 0.834410
O O1 0.558164 0.714914 0.305451
O O2 0.929454 0.762963 0.305475
O O3 0.854759 0.076583 0.164556
O O4 0.626478 0.968217 0.982468
O O5 0.763498 0.788157 0.697226
O O6 0.586755 0.897414 0.366793
O O7 0.738312 0.201973 0.345199
O O8 0.000000 0.000000 0.500000
O O9 0.103938 0.389922 0.946240
O O10 0.000000 0.500000 0.000000
O O11 0.793052 0.306180 0.688271
O O12 0.786379 0.565554 0.224233
O O13 0.000000 0.000000 0.000000
O O14 0.500000 0.500000 0.000000
#
# Coordination Sequence:
#
# PCOD9106516 Si02
#       6
#     2   2   2   2   2   2
#     4  10  20  39  71  98 137 187 234 288 357 420
#     4  12  25  44  73 107 143 184 243 294 355 429
#     4  12  24  45  73 101 140 188 236 289 359 426
#     4  10  20  40  70  96 138 185 230 291 349 416
#     4  10  20  40  69  99 136 189 234 284 355 426
#     4  12  25  46  72 105 147 185 233 302 361 415
#
# _framework density 24.383233000000001
#
# number of rings (size 3 to 8) (size 9 to 14) (size 15 to 20)
#    0.000    1.000    6.667    2.000    0.000    2.000 
#    0.000    4.167    3.667    0.000    0.000    0.000 
#    0.000    0.000    0.000    0.000    0.000    0.000 
#
# Total GULP energy -67119.715901 kJ/mol
# GULP energy per Si atom -5593.309658 kJ/mol
# Density = 2.432774 g / cm^3
# Si number density = 24.383233 Si / 1000 Ang^3
#
#
#
# Elastic Constant Matrix: (Units=GPa)
#
#
# Indices 1 2 3 4 5 6 
#
# 1 144.3290 28.0177 20.1202 -14.6865 22.3094 -1.5208
# 2 28.0177 136.3450 54.5627 27.5219 20.7093 -15.2681
# 3 20.1202 54.5627 126.5173 -1.6796 0.4341 -11.2413
# 4 -14.6865 27.5219 -1.6796 36.9179 -5.7862 6.2682
# 5 22.3094 20.7093 0.4341 -5.7862 47.0957 0.2969
# 6 -1.5208 -15.2681 -11.2413 6.2682 0.2969 34.0191
#
#
#
# Elastic Compliance Matrix: (Units=1/GPa)
#
#
# Indices 1 2 3 4 5 6 
#
# 1 0.008290 -0.002446 -0.000345 0.005056 -0.002216 -0.001753
# 2 -0.002446 0.015027 -0.005590 -0.014858 -0.007271 0.007589
# 3 -0.000345 -0.005590 0.010423 0.005001 0.003140 -0.000029
# 4 0.005056 -0.014858 0.005001 0.044114 0.009594 -0.013002
# 5 -0.002216 -0.007271 0.003140 0.009594 0.026657 -0.004325
# 6 -0.001753 0.007589 -0.000029 -0.013002 -0.004325 0.035147
#
#
# Mechanical properties :
#
#
# Convention : Reuss Voigt Hill
#
# Bulk Modulus (GPa) = 58.89527 68.06582 63.48055
# Shear Modulus (GPa) = 30.84920 43.90592 37.37756
#
# Velocity S-wave (km/s) = 3.56080 4.24802 3.91950
# Velocity P-wave (km/s) = 6.41188 7.21364 6.82454
#
# Compressibility (1/GPa) = 0.01697929
#
# Stress axis : x y z
#
# Youngs Moduli (GPa) = 120.62690 66.54534 95.94548
#
# Poissons Ratio (x) = 0.16277 0.03306
# Poissons Ratio (y) = 0.29505 0.53632
# Poissons Ratio (z) = 0.04156 0.37197
#
# Static dielectric constant tensor:
#      x y z
#    x 1.971240 0.132370 0.026440 
#    y 0.132370 1.714620 0.015470 
#    z 0.026440 0.015470 1.946530 
# 
# From -- ./inp_files/264547.got.cif
#   From: 2010.05.17/outbox.cif.g08.bks.cpg/sg2_133_cif.got.tgz:264547.got - 2010.06.03 11:33:40.
