data_PCOD9106730
_publ_section_title
;
Structure prediction by ZEFSAII (Michael W. Deem and Ramdas Pophale) SiO2 
 PCOD9106730
Probable space group: P -1
;
_chemical_formula_sum "Si O2"
_cell_formula_units_Z 16
_cell_length_a 11.617649
_cell_length_b 9.670846
_cell_length_c 12.206921
_cell_angle_alpha 38.821974
_cell_angle_beta 132.414669
_cell_angle_gamma 112.026307
_cell_volume 600.284433
_symmetry_space_group_name_H-M "P -1"
_symmetry_group_IT_number 2
_symmetry_cell_setting 'triclinic'
loop_
_space_group_symop_operation_xyz
x,y,z
-x,-y,-z
loop_
_atom_site_type_symbol
_atom_site_label
_atom_site_fract_x
_atom_site_fract_y
_atom_site_fract_z
Si Si1 0.096362 0.845286 0.487956
Si Si2 0.620902 0.957404 0.418282
Si Si3 0.194005 0.451425 0.636141
Si Si4 0.684255 0.812890 0.785530
Si Si5 0.000930 0.588193 0.768657
Si Si6 0.837202 0.287279 0.987267
Si Si7 0.185319 0.838572 0.241834
Si Si8 0.389564 0.910981 0.123301
O O1 0.218281 0.970050 0.541401
O O2 0.217212 0.617834 0.645354
O O3 0.979027 0.773727 0.543443
O O4 0.972738 0.029090 0.212499
O O5 0.466363 0.163495 0.244161
O O6 0.561458 0.877972 0.315159
O O7 0.655360 0.787100 0.653235
O O8 0.203237 0.580218 0.449631
O O9 0.000000 0.500000 0.500000
O O10 0.308429 0.185051 0.875168
O O11 0.723957 0.053496 0.675531
O O12 0.850865 0.630423 0.047125
O O13 0.095067 0.665731 0.881116
O O14 0.871929 0.477187 0.810115
O O15 0.657949 0.250852 0.898173
O O16 0.285995 0.846727 0.193739
O O17 0.000000 0.000000 0.000000
#
# Coordination Sequence:
#
# PCOD9106730 Si02
#       8
#     2   2   2   2   2   2   2   2
#     4  12  22  42  65  93 127 158 206 255 309 370
#     4  10  22  40  63  91 129 161 193 259 314 366
#     4  12  22  33  59  94 122 155 197 252 313 361
#     4  10  20  40  60  91 126 161 199 247 310 372
#     4  11  24  40  70  87 119 170 212 251 306 356
#     4  11  24  44  62  92 122 162 216 259 290 364
#     4  11  19  34  59  89 124 156 192 256 310 358
#     4  11  24  38  59  90 127 159 205 251 309 359
#
# _framework density 26.654029999999999
#
# number of rings (size 3 to 8) (size 9 to 14) (size 15 to 20)
#    0.000    1.000    5.000    2.625    1.750    2.000 
#    0.000    1.250    0.000    0.000    0.000    0.000 
#    0.000    0.000    0.000    0.000    0.000    0.000 
#
# Total GULP energy -89442.180724 kJ/mol
# GULP energy per Si atom -5590.136295 kJ/mol
# Density = 2.659336 g / cm^3
# Si number density = 26.654030 Si / 1000 Ang^3
#
#
#
# Elastic Constant Matrix: (Units=GPa)
#
#
# Indices 1 2 3 4 5 6 
#
# 1 69.5658 9.2411 28.0923 -6.3348 -17.7386 13.0268
# 2 9.2411 170.3027 51.5400 18.5938 -8.0016 25.1053
# 3 28.0923 51.5400 141.2750 -6.2624 -30.4363 20.5169
# 4 -6.3348 18.5938 -6.2624 38.8282 11.8346 0.4782
# 5 -17.7386 -8.0016 -30.4363 11.8346 46.3739 1.7493
# 6 13.0268 25.1053 20.5169 0.4782 1.7493 37.4726
#
#
#
# Elastic Compliance Matrix: (Units=1/GPa)
#
#
# Indices 1 2 3 4 5 6 
#
# 1 0.017593 0.000604 -0.001562 0.000611 0.005877 -0.005948
# 2 0.000604 0.007648 -0.002209 -0.004280 0.001349 -0.004132
# 3 -0.001562 -0.002209 0.009948 0.000779 0.005491 -0.003690
# 4 0.000611 -0.004280 0.000779 0.030389 -0.007832 0.002206
# 5 0.005877 0.001349 0.005491 -0.007832 0.029921 -0.007250
# 6 -0.005948 -0.004132 -0.003690 0.002206 -0.007250 0.033853
#
#
# Mechanical properties :
#
#
# Convention : Reuss Voigt Hill
#
# Bulk Modulus (GPa) = 34.65473 62.09892 48.37682
# Shear Modulus (GPa) = 34.41043 44.01963 39.21503
#
# Velocity S-wave (km/s) = 3.59695 4.06830 3.83986
# Velocity P-wave (km/s) = 5.50279 6.73920 6.15213
#
# Compressibility (1/GPa) = 0.02885609
#
# Stress axis : x y z
#
# Youngs Moduli (GPa) = 56.83950 130.76073 100.51939
#
# Poissons Ratio (x) = -0.07901 0.15699
# Poissons Ratio (y) = -0.03435 0.22206
# Poissons Ratio (z) = 0.08877 0.28886
#
# Static dielectric constant tensor:
#      x y z
#    x 2.103930 -0.114380 0.014890 
#    y -0.114380 2.346680 -0.006360 
#    z 0.014890 -0.006360 2.119810 
# 
# From -- ./inp_files/521443.got.cif
#   From: 2010.05.17/outbox.cif.g08.bks.cpg/sg2_261_cif.got.tgz:521443.got - 2010.06.03 11:33:40.
