data_PCOD9106314
_publ_section_title
;
Structure prediction by ZEFSAII (Michael W. Deem and Ramdas Pophale) SiO2 
 PCOD9106314
Probable space group: P -1
;
_chemical_formula_sum "Si O2"
_cell_formula_units_Z 16
_cell_length_a 15.277968
_cell_length_b 5.783340
_cell_length_c 15.598842
_cell_angle_alpha 103.460018
_cell_angle_beta 36.774536
_cell_angle_gamma 84.252717
_cell_volume 698.519925
_symmetry_space_group_name_H-M "P -1"
_symmetry_group_IT_number 2
_symmetry_cell_setting 'triclinic'
loop_
_space_group_symop_operation_xyz
x,y,z
-x,-y,-z
loop_
_atom_site_type_symbol
_atom_site_label
_atom_site_fract_x
_atom_site_fract_y
_atom_site_fract_z
Si Si1 0.631023 0.095049 0.928170
Si Si2 0.063911 0.351510 0.801535
Si Si3 0.542483 0.581685 0.140602
Si Si4 0.265085 0.152631 0.476767
Si Si5 0.917599 0.800683 0.544839
Si Si6 0.206467 0.234968 0.058601
Si Si7 0.556747 0.272754 0.276173
Si Si8 0.856178 0.297049 0.105589
O O1 0.751844 0.996520 0.744989
O O2 0.747944 0.941537 0.906371
O O3 0.500000 0.000000 0.000000
O O4 0.517545 0.407423 0.072476
O O5 0.194266 0.106283 0.618179
O O6 0.143215 0.459953 0.819806
O O7 0.978181 0.593357 0.819007
O O8 0.922875 0.312283 0.958828
O O9 0.549001 0.442856 0.213495
O O10 0.402062 0.887486 0.295470
O O11 0.715091 0.567390 0.975576
O O12 0.120114 0.262690 0.527535
O O13 0.373305 0.300774 0.432353
O O14 0.000000 0.500000 0.500000
O O15 0.000000 0.000000 0.500000
O O16 0.314262 0.038315 0.879111
O O17 0.670487 0.330683 0.258303
O O18 0.000000 0.000000 0.000000
#
# Coordination Sequence:
#
# PCOD9106314 Si02
#       8
#     2   2   2   2   2   2   2   2
#     4  11  25  43  73 103 138 193 248 297 357 441
#     4  11  24  42  68 103 134 179 234 295 368 429
#     4  10  22  42  69  96 139 185 236 286 358 431
#     4  11  27  44  68 103 146 185 237 301 367 433
#     4  12  30  50  72 111 155 194 251 314 370 432
#     4  10  20  39  68  98 133 180 240 281 356 427
#     4  10  21  42  68  99 133 183 230 291 356 435
#     4  11  23  43  72 101 134 175 238 292 358 452
#
# _framework density 22.905574999999999
#
# number of rings (size 3 to 8) (size 9 to 14) (size 15 to 20)
#    0.000    1.250    2.500    3.000    7.000    2.500 
#    0.000    1.250    0.000    0.000    0.000    0.000 
#    0.000    0.000    0.000    0.000    0.000    0.000 
#
# Total GULP energy -89172.900628 kJ/mol
# GULP energy per Si atom -5573.306289 kJ/mol
# Density = 2.285344 g / cm^3
# Si number density = 22.905575 Si / 1000 Ang^3
#
#
#
# Elastic Constant Matrix: (Units=GPa)
#
#
# Indices 1 2 3 4 5 6 
#
# 1 110.4301 30.9475 37.7289 -9.7218 2.1389 13.0456
# 2 30.9475 73.1388 15.1636 -6.7004 -7.6500 10.8424
# 3 37.7289 15.1636 98.1780 -21.1266 12.4164 8.1713
# 4 -9.7218 -6.7004 -21.1266 28.9199 3.7374 -2.1327
# 5 2.1389 -7.6500 12.4164 3.7374 30.2020 -6.0753
# 6 13.0456 10.8424 8.1713 -2.1327 -6.0753 38.9688
#
#
#
# Elastic Compliance Matrix: (Units=1/GPa)
#
#
# Indices 1 2 3 4 5 6 
#
# 1 0.011665 -0.003942 -0.003492 0.000409 -0.000880 -0.002191
# 2 -0.003942 0.016466 -0.001204 0.000877 0.004378 -0.002279
# 3 -0.003492 -0.001204 0.015196 0.010518 -0.008083 -0.002367
# 4 0.000409 0.000877 0.010518 0.043753 -0.009894 -0.001734
# 5 -0.000880 0.004378 -0.008083 -0.009894 0.040134 0.006487
# 6 -0.002191 -0.002279 -0.002367 -0.001734 0.006487 0.028442
#
#
# Mechanical properties :
#
#
# Convention : Reuss Voigt Hill
#
# Bulk Modulus (GPa) = 38.38492 49.93633 44.16062
# Shear Modulus (GPa) = 27.53066 32.81196 30.17131
#
# Velocity S-wave (km/s) = 3.47063 3.78893 3.63327
# Velocity P-wave (km/s) = 5.73190 6.40231 6.07636
#
# Compressibility (1/GPa) = 0.02605190
#
# Stress axis : x y z
#
# Youngs Moduli (GPa) = 85.72507 60.73078 65.80631
#
# Poissons Ratio (x) = 0.23938 0.22982
# Poissons Ratio (y) = 0.33790 0.07921
# Poissons Ratio (z) = 0.29938 0.07311
#
# Static dielectric constant tensor:
#      x y z
#    x 1.938130 0.007100 -0.066400 
#    y 0.007100 1.925860 0.014020 
#    z -0.066400 0.014020 1.894670 
# 
# From -- ./inp_files/47426.got.cif
#   From: 2010.05.17/outbox.cif.g08.bks.cpg/sg2_24_cif.got.tgz:47426.got - 2010.06.03 11:33:40.
