data_PCOD9106848
_publ_section_title
;
Structure prediction by ZEFSAII (Michael W. Deem and Ramdas Pophale) SiO2 
 PCOD9106848
Probable space group: P -1
;
_chemical_formula_sum "Si O2"
_cell_formula_units_Z 16
_cell_length_a 24.075991
_cell_length_b 8.785036
_cell_length_c 18.863137
_cell_angle_alpha 29.732285
_cell_angle_beta 20.342598
_cell_angle_gamma 39.290277
_cell_volume 668.853890
_symmetry_space_group_name_H-M "P -1"
_symmetry_group_IT_number 2
_symmetry_cell_setting 'triclinic'
loop_
_space_group_symop_operation_xyz
x,y,z
-x,-y,-z
loop_
_atom_site_type_symbol
_atom_site_label
_atom_site_fract_x
_atom_site_fract_y
_atom_site_fract_z
Si Si1 0.275738 0.342035 0.267173
Si Si2 0.906136 0.176568 0.484734
Si Si3 0.561016 0.366763 0.552516
Si Si4 0.411467 0.279513 0.478098
Si Si5 0.904554 0.172993 0.971164
Si Si6 0.267010 0.471650 0.084472
Si Si7 0.105057 0.834075 0.766998
Si Si8 0.389269 0.808997 0.068571
O O1 0.271970 0.596941 0.107644
O O2 0.327589 0.522045 0.205555
O O3 0.121403 0.074469 0.584043
O O4 0.428339 0.191574 0.124073
O O5 0.742941 0.222857 0.699624
O O6 0.016295 0.525296 0.196313
O O7 0.836281 0.887798 0.632596
O O8 0.000000 0.000000 0.500000
O O9 0.500000 0.500000 0.500000
O O10 0.623140 0.595447 0.453351
O O11 0.711557 0.207185 0.418926
O O12 0.409535 0.120881 0.870224
O O13 0.500000 0.000000 0.500000
O O14 0.552264 0.516133 0.169149
O O15 0.243774 0.106453 0.709918
O O16 0.826076 0.344837 0.931816
O O17 0.029900 0.994147 0.856792
O O18 0.000000 0.500000 0.000000
#
# Coordination Sequence:
#
# PCOD9106848 Si02
#       8
#     2   2   2   2   2   2   2   2
#     4  10  23  40  66  94 123 169 218 264 324 388
#     4  10  20  40  61  92 128 167 203 268 327 377
#     4  11  24  41  67  95 124 175 226 265 324 396
#     4  10  21  40  64  93 130 169 210 268 317 389
#     4  10  21  40  66  92 134 169 207 271 332 374
#     4  10  22  41  69  95 125 173 219 256 325 402
#     4  11  22  42  64  93 134 164 211 281 330 371
#     4  10  21  41  64  90 126 163 216 276 314 382
#
# _framework density 23.921517000000001
#
# number of rings (size 3 to 8) (size 9 to 14) (size 15 to 20)
#    0.000    1.750    3.750    0.000    3.500    1.000 
#    4.500    0.000    0.000    4.500    0.000    0.000 
#    0.000    0.000    0.000    0.000    0.000    0.000 
#
# Total GULP energy -89272.883938 kJ/mol
# GULP energy per Si atom -5579.555246 kJ/mol
# Density = 2.386707 g / cm^3
# Si number density = 23.921517 Si / 1000 Ang^3
#
#
#
# Elastic Constant Matrix: (Units=GPa)
#
#
# Indices 1 2 3 4 5 6 
#
# 1 57.8573 -7.7915 18.9219 -10.7172 13.4533 -18.1135
# 2 -7.7915 78.7072 13.2324 1.0408 -8.9044 4.0161
# 3 18.9219 13.2324 116.6320 -23.9229 -10.0727 1.1280
# 4 -10.7172 1.0408 -23.9229 38.1186 0.8099 -6.5770
# 5 13.4533 -8.9044 -10.0727 0.8099 17.7135 -4.7168
# 6 -18.1135 4.0161 1.1280 -6.5770 -4.7168 16.9556
#
#
#
# Elastic Compliance Matrix: (Units=1/GPa)
#
#
# Indices 1 2 3 4 5 6 
#
# 1 0.041803 -0.000073 -0.005948 0.016244 -0.024010 0.044693
# 2 -0.000073 0.013713 -0.001408 -0.001808 0.005598 -0.002377
# 3 -0.005948 -0.001408 0.011586 0.005061 0.009591 -0.002160
# 4 0.016244 -0.001808 0.005061 0.039587 -0.003720 0.031766
# 5 -0.024010 0.005598 0.009591 -0.003720 0.081422 -0.006406
# 6 0.044693 -0.002377 -0.002160 0.031766 -0.006406 0.117969
#
#
# Mechanical properties :
#
#
# Convention : Reuss Voigt Hill
#
# Bulk Modulus (GPa) = 19.14100 33.54692 26.34396
# Shear Modulus (GPa) = 14.77745 29.81311 22.29528
#
# Velocity S-wave (km/s) = 2.48815 3.53411 3.05621
# Velocity P-wave (km/s) = 4.03404 5.54143 4.84669
#
# Compressibility (1/GPa) = 0.05224389
#
# Stress axis : x y z
#
# Youngs Moduli (GPa) = 23.92161 72.92166 86.31135
#
# Poissons Ratio (x) = 0.00535 0.51335
# Poissons Ratio (y) = 0.00176 0.12155
# Poissons Ratio (z) = 0.14228 0.10270
#
# Static dielectric constant tensor:
#      x y z
#    x 2.001050 0.067960 -0.016670 
#    y 0.067960 2.078300 -0.020910 
#    z -0.016670 -0.020910 1.992780 
# 
# From -- ./inp_files/602263.got.cif
#   From: 2010.05.17/outbox.cif.g08.bks.cpg/sg2_302_cif.got.tgz:602263.got - 2010.06.03 11:33:40.
