data_PCOD9106567
_publ_section_title
;
Structure prediction by ZEFSAII (Michael W. Deem and Ramdas Pophale) SiO2 
 PCOD9106567
Probable space group: P -1
;
_chemical_formula_sum "Si O2"
_cell_formula_units_Z 14
_cell_length_a 10.227500
_cell_length_b 10.625774
_cell_length_c 11.998356
_cell_angle_alpha 89.966873
_cell_angle_beta 64.895011
_cell_angle_gamma 139.402952
_cell_volume 642.863261
_symmetry_space_group_name_H-M "P -1"
_symmetry_group_IT_number 2
_symmetry_cell_setting 'triclinic'
loop_
_space_group_symop_operation_xyz
x,y,z
-x,-y,-z
loop_
_atom_site_type_symbol
_atom_site_label
_atom_site_fract_x
_atom_site_fract_y
_atom_site_fract_z
Si Si1 0.510418 0.147062 0.451448
Si Si2 0.980235 0.823239 0.215651
Si Si3 0.138447 0.197800 0.077115
Si Si4 0.152845 0.524681 0.859930
Si Si5 0.428537 0.271078 0.683679
Si Si6 0.322033 0.392545 0.243146
Si Si7 0.249607 0.065318 0.339078
O O1 0.773311 0.351879 0.281816
O O2 0.507375 0.242916 0.553046
O O3 0.276615 0.019452 0.450037
O O4 0.500000 0.000000 0.500000
O O5 0.973194 0.697733 0.138601
O O6 0.695636 0.686890 0.315568
O O7 0.169906 0.073819 0.101292
O O8 0.066221 0.866652 0.312574
O O9 0.175822 0.300103 0.178655
O O10 0.367314 0.397900 0.908130
O O11 0.827678 0.977920 0.160641
O O12 0.441889 0.717033 0.810311
O O13 0.000000 0.500000 0.000000
O O14 0.661328 0.476763 0.682544
O O15 0.211354 0.188574 0.346532
#
# Coordination Sequence:
#
# PCOD9106567 Si02
#       7
#     2   2   2   2   2   2   2
#     4  10  24  43  57  85 119 161 199 236 297 349
#     4   9  19  36  60  95 108 152 194 237 310 328
#     4   8  19  31  55  93 123 147 184 241 289 355
#     4  10  22  40  62  84 118 160 192 244 284 354
#     4  10  19  35  62  85 119 153 185 251 286 351
#     4  10  16  34  58  92 119 149 192 236 296 339
#     4   9  20  38  59  85 118 146 199 246 276 361
#
# _framework density 21.777571999999999
#
# number of rings (size 3 to 8) (size 9 to 14) (size 15 to 20)
#    1.714    0.857    1.429    0.429    0.000    5.714 
#    2.571    0.714    0.000    0.000    0.000    0.000 
#    0.000    0.000    0.000    0.000    0.000    0.000 
#
# Total GULP energy -78000.815931 kJ/mol
# GULP energy per Si atom -5571.486852 kJ/mol
# Density = 2.172800 g / cm^3
# Si number density = 21.777572 Si / 1000 Ang^3
#
#
#
# Elastic Constant Matrix: (Units=GPa)
#
#
# Indices 1 2 3 4 5 6 
#
# 1 70.1540 36.4944 37.4202 18.7804 10.6532 -13.5627
# 2 36.4944 131.0912 52.9845 41.6343 1.0541 2.0734
# 3 37.4202 52.9845 110.4516 27.9844 7.1063 -18.8390
# 4 18.7804 41.6343 27.9844 55.1291 -3.1105 5.0616
# 5 10.6532 1.0541 7.1063 -3.1105 30.2796 3.6515
# 6 -13.5627 2.0734 -18.8390 5.0616 3.6515 29.7227
#
#
#
# Elastic Compliance Matrix: (Units=1/GPa)
#
#
# Indices 1 2 3 4 5 6 
#
# 1 0.022228 -0.003885 -0.001818 -0.005268 -0.009160 0.011284
# 2 -0.003885 0.012052 -0.004041 -0.005205 0.001906 -0.004522
# 3 -0.001818 -0.004041 0.014967 -0.005133 -0.004510 0.010366
# 4 -0.005268 -0.005205 -0.005133 0.027895 0.007426 -0.010957
# 5 -0.009160 0.001906 -0.004510 0.007426 0.039607 -0.013302
# 6 0.011284 -0.004522 0.010366 -0.010957 -0.013302 0.049179
#
#
# Mechanical properties :
#
#
# Convention : Reuss Voigt Hill
#
# Bulk Modulus (GPa) = 33.60296 62.83279 48.21788
# Shear Modulus (GPa) = 25.59697 35.34611 30.47154
#
# Velocity S-wave (km/s) = 3.43210 4.03308 3.74467
# Velocity P-wave (km/s) = 5.58295 7.11353 6.39421
#
# Compressibility (1/GPa) = 0.02975928
#
# Stress axis : x y z
#
# Youngs Moduli (GPa) = 44.98843 82.97320 66.81431
#
# Poissons Ratio (x) = 0.32232 0.12150
# Poissons Ratio (y) = 0.17477 0.26998
# Poissons Ratio (z) = 0.08181 0.33527
#
# Static dielectric constant tensor:
#      x y z
#    x 1.797430 0.014170 0.024830 
#    y 0.014170 1.852780 -0.017220 
#    z 0.024830 -0.017220 1.891780 
# 
# From -- ./inp_files/423882.got.cif
#   From: 2010.05.17/outbox.cif.g08.bks.cpg/sg2_212_cif.got.tgz:423882.got - 2010.06.03 11:33:40.
