data_PCOD9106128
_publ_section_title
;
Structure prediction by ZEFSAII (Michael W. Deem and Ramdas Pophale) SiO2 
 PCOD9106128
Probable space group: P -1
;
_chemical_formula_sum "Si O2"
_cell_formula_units_Z 12
_cell_length_a 9.454349
_cell_length_b 13.202024
_cell_length_c 9.503854
_cell_angle_alpha 88.539366
_cell_angle_beta 131.629405
_cell_angle_gamma 57.817145
_cell_volume 600.565973
_symmetry_space_group_name_H-M "P -1"
_symmetry_group_IT_number 2
_symmetry_cell_setting 'triclinic'
loop_
_space_group_symop_operation_xyz
x,y,z
-x,-y,-z
loop_
_atom_site_type_symbol
_atom_site_label
_atom_site_fract_x
_atom_site_fract_y
_atom_site_fract_z
Si Si1 0.888253 0.129862 0.315622
Si Si2 0.938402 0.678427 0.929147
Si Si3 0.529011 0.676032 0.739750
Si Si4 0.678429 0.877019 0.496975
Si Si5 0.312453 0.672762 0.330778
Si Si6 0.288625 0.863063 0.113908
O O1 0.620757 0.281524 0.213821
O O2 0.134137 0.113998 0.456542
O O3 0.788511 0.128064 0.098595
O O4 0.000000 0.000000 0.500000
O O5 0.664939 0.732863 0.809214
O O6 0.883789 0.726933 0.730550
O O7 0.205779 0.499782 0.108510
O O8 0.026955 0.739384 0.079051
O O9 0.308796 0.739306 0.468155
O O10 0.492276 0.877415 0.277199
O O11 0.500000 0.000000 0.500000
O O12 0.500000 0.500000 0.500000
O O13 0.413663 0.711639 0.276134
O O14 0.000000 0.000000 0.000000
#
# Coordination Sequence:
#
# PCOD9106128 Si02
#       6
#     2   2   2   2   2   2
#     4  12  26  41  63  98 131 162 219 276 317 372
#     4  10  20  40  67  91 127 175 209 252 325 387
#     4  10  22  39  65  96 131 163 214 266 313 377
#     4  12  23  41  67  92 124 173 217 260 325 384
#     4  10  20  39  67  95 125 171 214 254 318 386
#     4  12  23  42  68  94 126 172 219 262 322 393
#
# _framework density 19.981152000000002
#
# number of rings (size 3 to 8) (size 9 to 14) (size 15 to 20)
#    0.000    1.000    5.000    2.000    0.000    2.667 
#    0.000    0.833    0.000    0.000    0.000    0.000 
#    0.000    0.000    0.000    0.000    0.000    0.000 
#
# Total GULP energy -66966.155541 kJ/mol
# GULP energy per Si atom -5580.512962 kJ/mol
# Density = 1.993567 g / cm^3
# Si number density = 19.981152 Si / 1000 Ang^3
#
#
#
# Elastic Constant Matrix: (Units=GPa)
#
#
# Indices 1 2 3 4 5 6 
#
# 1 173.7843 57.7312 69.0977 33.7962 15.9531 14.8232
# 2 57.7312 63.4465 56.1699 31.3156 11.8723 5.9275
# 3 69.0977 56.1699 138.0621 50.8161 0.7645 13.5912
# 4 33.7962 31.3156 50.8161 53.4875 11.7497 -0.9501
# 5 15.9531 11.8723 0.7645 11.7497 42.5749 7.8571
# 6 14.8232 5.9275 13.5912 -0.9501 7.8571 40.9852
#
#
#
# Elastic Compliance Matrix: (Units=1/GPa)
#
#
# Indices 1 2 3 4 5 6 
#
# 1 0.008678 -0.005929 -0.001741 -0.000105 -0.001268 -0.001463
# 2 -0.005929 0.032089 -0.007706 -0.006625 -0.004916 0.000848
# 3 -0.001741 -0.007706 0.015658 -0.010758 0.006398 -0.004924
# 4 -0.000105 -0.006625 -0.010758 0.034935 -0.008867 0.007073
# 5 -0.001268 -0.004916 0.006398 -0.008867 0.028902 -0.006698
# 6 -0.001463 0.000848 -0.004924 0.007073 -0.006698 0.027887
#
#
# Mechanical properties :
#
#
# Convention : Reuss Voigt Hill
#
# Bulk Modulus (GPa) = 38.95041 82.36563 60.65802
# Shear Modulus (GPa) = 26.67273 40.22912 33.45093
#
# Velocity S-wave (km/s) = 3.65758 4.49191 4.09605
# Velocity P-wave (km/s) = 6.11336 8.25919 7.26592
#
# Compressibility (1/GPa) = 0.02567367
#
# Stress axis : x y z
#
# Youngs Moduli (GPa) = 115.23752 31.16378 63.86335
#
# Poissons Ratio (x) = 0.18476 0.11121
# Poissons Ratio (y) = 0.68320 0.49210
# Poissons Ratio (z) = 0.20067 0.24014
#
# Static dielectric constant tensor:
#      x y z
#    x 1.691180 0.070580 -0.006550 
#    y 0.070580 1.819440 -0.064600 
#    z -0.006550 -0.064600 1.749150 
# 
# From -- ./inp_files/162782.got.cif
#   From: 2010.05.17/outbox.cif.g08.bks.cpg/sg2_82_cif.got.tgz:162782.got - 2010.06.03 11:33:40.
