data_PCOD9106037
_publ_section_title
;
Structure prediction by ZEFSAII (Michael W. Deem and Ramdas Pophale) SiO2 
 PCOD9106037
Probable space group: P -1
;
_chemical_formula_sum "Si O2"
_cell_formula_units_Z 16
_cell_length_a 6.745814
_cell_length_b 15.328847
_cell_length_c 7.120697
_cell_angle_alpha 98.730344
_cell_angle_beta 114.971781
_cell_angle_gamma 107.322622
_cell_volume 603.565175
_symmetry_space_group_name_H-M "P -1"
_symmetry_group_IT_number 2
_symmetry_cell_setting 'triclinic'
loop_
_space_group_symop_operation_xyz
x,y,z
-x,-y,-z
loop_
_atom_site_type_symbol
_atom_site_label
_atom_site_fract_x
_atom_site_fract_y
_atom_site_fract_z
Si Si1 0.179320 0.969517 0.804017
Si Si2 0.113385 0.773805 0.787063
Si Si3 0.479936 0.143350 0.726653
Si Si4 0.599936 0.351327 0.766265
Si Si5 0.582441 0.707421 0.715481
Si Si6 0.350410 0.089527 0.256300
Si Si7 0.967659 0.426738 0.243047
Si Si8 0.373677 0.502410 0.688224
O O1 0.274651 0.053797 0.717253
O O2 0.168173 0.865075 0.703585
O O3 0.336750 0.011698 0.070328
O O4 0.912643 0.946462 0.765158
O O5 0.140973 0.675098 0.718020
O O6 0.839937 0.735728 0.729806
O O7 0.276471 0.820845 0.047480
O O8 0.439330 0.243091 0.740237
O O9 0.509288 0.114139 0.515320
O O10 0.605955 0.332587 0.542412
O O11 0.481332 0.427853 0.772211
O O12 0.858705 0.392508 0.982517
O O13 0.594995 0.812189 0.808759
O O14 0.539999 0.616538 0.801065
O O15 0.852846 0.500036 0.283840
O O16 0.246617 0.470189 0.420921
#
# Coordination Sequence:
#
# PCOD9106037 Si02
#       8
#     2   2   2   2   2   2   2   2
#     4  10  20  39  67  85 128 175 197 266 333 356
#     4  10  21  39  61  93 123 164 209 260 309 390
#     4  10  21  38  63  93 127 168 212 262 316 378
#     4  10  21  39  62  90 125 162 211 255 306 394
#     4  10  21  39  64  86 127 165 202 258 326 361
#     4   9  21  38  59  97 124 157 224 255 304 403
#     4  10  23  39  63  91 128 153 220 255 306 387
#     4  11  22  41  64  90 123 172 196 268 319 363
#
# _framework density 26.509149000000001
#
# number of rings (size 3 to 8) (size 9 to 14) (size 15 to 20)
#    0.000    2.000    1.250    1.500    3.500    1.000 
#    4.500    0.000    2.750    0.000    0.000    0.000 
#    0.000    0.000    0.000    0.000    0.000    0.000 
#
# Total GULP energy -89438.247323 kJ/mol
# GULP energy per Si atom -5589.890458 kJ/mol
# Density = 2.644881 g / cm^3
# Si number density = 26.509149 Si / 1000 Ang^3
#
#
#
# Elastic Constant Matrix: (Units=GPa)
#
#
# Indices 1 2 3 4 5 6 
#
# 1 66.1528 58.9759 27.6685 1.2214 -3.8712 -3.6925
# 2 58.9759 266.0796 34.9349 11.2939 -4.0440 -5.2729
# 3 27.6685 34.9349 140.2913 5.8726 4.5317 7.0665
# 4 1.2214 11.2939 5.8726 33.1382 -0.2264 -2.2448
# 5 -3.8712 -4.0440 4.5317 -0.2264 35.0440 13.8210
# 6 -3.6925 -5.2729 7.0665 -2.2448 13.8210 55.2159
#
#
#
# Elastic Compliance Matrix: (Units=1/GPa)
#
#
# Indices 1 2 3 4 5 6 
#
# 1 0.020190 -0.004072 -0.003128 0.001276 0.001793 0.000965
# 2 -0.004072 0.004769 -0.000336 -0.001405 0.000076 0.000150
# 3 -0.003128 -0.000336 0.007967 -0.001261 -0.001004 -0.001061
# 4 0.001276 -0.001405 -0.001261 0.030927 -0.000220 0.001425
# 5 0.001793 0.000076 -0.001004 -0.000220 0.031925 -0.007744
# 6 0.000965 0.000150 -0.001061 0.001425 -0.007744 0.020322
#
#
# Mechanical properties :
#
#
# Convention : Reuss Voigt Hill
#
# Bulk Modulus (GPa) = 56.00684 79.52026 67.76355
# Shear Modulus (GPa) = 36.46364 48.07593 42.26979
#
# Velocity S-wave (km/s) = 3.71281 4.26321 3.99750
# Velocity P-wave (km/s) = 6.28913 7.36856 6.85014
#
# Compressibility (1/GPa) = 0.01785496
#
# Stress axis : x y z
#
# Youngs Moduli (GPa) = 49.52845 209.70110 125.51600
#
# Poissons Ratio (x) = 0.85396 0.39259
# Poissons Ratio (y) = 0.20169 0.04211
# Poissons Ratio (z) = 0.15492 0.07036
#
# Static dielectric constant tensor:
#      x y z
#    x 2.145400 0.013090 0.004790 
#    y 0.013090 2.129260 -0.035610 
#    z 0.004790 -0.035610 2.103850 
# 
# From -- ./inp_files/202307.got.cif
#   From: 2010.05.17/outbox.cif.g08.bks.cpg/sg2_102_cif.got.tgz:202307.got - 2010.06.03 11:33:40.
