data_PCOD9106318
_publ_section_title
;
Structure prediction by ZEFSAII (Michael W. Deem and Ramdas Pophale) SiO2 
 PCOD9106318
Probable space group: P -1
;
_chemical_formula_sum "Si O2"
_cell_formula_units_Z 12
_cell_length_a 8.129213
_cell_length_b 9.808768
_cell_length_c 13.390442
_cell_angle_alpha 98.302041
_cell_angle_beta 128.601866
_cell_angle_gamma 44.186303
_cell_volume 483.303817
_symmetry_space_group_name_H-M "P -1"
_symmetry_group_IT_number 2
_symmetry_cell_setting 'triclinic'
loop_
_space_group_symop_operation_xyz
x,y,z
-x,-y,-z
loop_
_atom_site_type_symbol
_atom_site_label
_atom_site_fract_x
_atom_site_fract_y
_atom_site_fract_z
Si Si1 0.555542 0.336292 0.436332
Si Si2 0.495435 0.199005 0.586241
Si Si3 0.142099 0.657073 0.605821
Si Si4 0.266403 0.248429 0.891118
Si Si5 0.769519 0.991623 0.875993
Si Si6 0.382987 0.478007 0.051141
O O1 0.500000 0.500000 0.500000
O O2 0.871137 0.217790 0.469939
O O3 0.168879 0.525949 0.253549
O O4 0.625256 0.177365 0.524691
O O5 0.336216 0.422625 0.601475
O O6 0.205686 0.231967 0.470555
O O7 0.747685 0.012864 0.750779
O O8 0.370339 0.601641 0.774608
O O9 0.399400 0.192485 0.819436
O O10 0.384934 0.318722 0.005770
O O11 0.500000 0.000000 0.000000
O O12 0.981865 0.740339 0.955019
O O13 0.000000 0.000000 0.000000
O O14 0.500000 0.500000 0.000000
#
# Coordination Sequence:
#
# PCOD9106318 Si02
#       6
#     2   2   2   2   2   2
#     4  10  22  40  69  98 135 189 229 281 353 412
#     4  10  20  40  67 101 140 181 231 285 353 414
#     4  10  20  39  68  98 140 185 229 288 345 414
#     4  12  27  45  69 106 141 181 237 292 349 413
#     4  12  23  43  72 101 136 186 224 288 353 407
#     4  12  24  43  73 106 139 184 240 283 349 424
#
# _framework density 24.829103
#
# number of rings (size 3 to 8) (size 9 to 14) (size 15 to 20)
#    0.000    1.000    3.333    5.000    2.333    2.667 
#    0.000    5.000    0.000   14.000    0.000    0.000 
#    0.000    0.000    0.000    0.000    0.000    0.000 
#
# Total GULP energy -67182.407395 kJ/mol
# GULP energy per Si atom -5598.533950 kJ/mol
# Density = 2.477259 g / cm^3
# Si number density = 24.829103 Si / 1000 Ang^3
#
#
#
# Elastic Constant Matrix: (Units=GPa)
#
#
# Indices 1 2 3 4 5 6 
#
# 1 169.0768 45.8490 55.1391 19.0144 -17.9377 10.1783
# 2 45.8490 134.5668 37.8925 23.8784 6.2968 15.0263
# 3 55.1391 37.8925 142.3684 21.6980 -6.9432 27.2880
# 4 19.0144 23.8784 21.6980 30.0642 9.5936 1.6897
# 5 -17.9377 6.2968 -6.9432 9.5936 37.8544 0.7314
# 6 10.1783 15.0263 27.2880 1.6897 0.7314 50.7612
#
#
#
# Elastic Compliance Matrix: (Units=1/GPa)
#
#
# Indices 1 2 3 4 5 6 
#
# 1 0.007890 -0.001721 -0.001775 -0.003829 0.004671 -0.000058
# 2 -0.001721 0.009444 -0.000713 -0.005441 -0.001102 -0.001870
# 3 -0.001775 -0.000713 0.009819 -0.005999 0.002687 -0.004550
# 4 -0.003829 -0.005441 -0.005999 0.048706 -0.014434 0.004190
# 5 0.004671 -0.001102 0.002687 -0.014434 0.033004 -0.002050
# 6 -0.000058 -0.001870 -0.004550 0.004190 -0.002050 0.022602
#
#
# Mechanical properties :
#
#
# Convention : Reuss Voigt Hill
#
# Bulk Modulus (GPa) = 53.37739 80.41925 66.89832
# Shear Modulus (GPa) = 34.21668 44.21139 39.21403
#
# Velocity S-wave (km/s) = 3.71629 4.22433 3.97842
# Velocity P-wave (km/s) = 6.32131 7.50018 6.93584
#
# Compressibility (1/GPa) = 0.01873452
#
# Stress axis : x y z
#
# Youngs Moduli (GPa) = 126.74760 105.88332 101.84521
#
# Poissons Ratio (x) = 0.18221 0.18079
# Poissons Ratio (y) = 0.21812 0.07263
# Poissons Ratio (z) = 0.22499 0.07551
#
# Static dielectric constant tensor:
#      x y z
#    x 2.017900 -0.062770 -0.005360 
#    y -0.062770 2.039040 -0.151720 
#    z -0.005360 -0.151720 2.043140 
# 
# From -- ./inp_files/493529.got.cif
#   From: 2010.05.17/outbox.cif.g08.bks.cpg/sg2_247_cif.got.tgz:493529.got - 2010.06.03 11:33:40.
