data_PCOD9106398
_publ_section_title
;
Structure prediction by ZEFSAII (Michael W. Deem and Ramdas Pophale) SiO2 
 PCOD9106398
Probable space group: P -1
;
_chemical_formula_sum "Si O2"
_cell_formula_units_Z 16
_cell_length_a 5.429976
_cell_length_b 19.126733
_cell_length_c 9.482581
_cell_angle_alpha 129.881858
_cell_angle_beta 59.753868
_cell_angle_gamma 122.827658
_cell_volume 616.156178
_symmetry_space_group_name_H-M "P -1"
_symmetry_group_IT_number 2
_symmetry_cell_setting 'triclinic'
loop_
_space_group_symop_operation_xyz
x,y,z
-x,-y,-z
loop_
_atom_site_type_symbol
_atom_site_label
_atom_site_fract_x
_atom_site_fract_y
_atom_site_fract_z
Si Si1 0.155808 0.807180 0.222526
Si Si2 0.620897 0.960551 0.588749
Si Si3 0.512103 0.544363 0.400680
Si Si4 0.300890 0.177279 0.404900
Si Si5 0.811122 0.345884 0.571833
Si Si6 0.219305 0.174367 0.874421
Si Si7 0.981312 0.105361 0.153542
Si Si8 0.648802 0.442731 0.988369
O O1 0.440531 0.771780 0.103711
O O2 0.931318 0.784358 0.390756
O O3 0.950440 0.769498 0.097394
O O4 0.290186 0.925360 0.314876
O O5 0.759970 0.929213 0.649037
O O6 0.712259 0.902566 0.358624
O O7 0.274863 0.916623 0.677674
O O8 0.500000 0.500000 0.500000
O O9 0.284188 0.590195 0.442224
O O10 0.846376 0.624679 0.432622
O O11 0.493828 0.451311 0.189579
O O12 0.643971 0.239126 0.426002
O O13 0.264317 0.175094 0.246932
O O14 0.644139 0.354851 0.777272
O O15 0.009182 0.137138 0.023474
O O16 0.000000 0.000000 0.000000
O O17 0.500000 0.500000 0.000000
O O18 0.000000 0.500000 0.000000
#
# Coordination Sequence:
#
# PCOD9106398 Si02
#       8
#     2   2   2   2   2   2   2   2
#     4  11  22  41  61  85 121 163 220 274 315 387
#     4  11  23  41  62  87 123 169 233 267 331 382
#     4  10  20  39  69  98 130 163 205 252 306 387
#     4  11  25  40  62  91 130 174 214 281 339 375
#     4  10  22  39  64  96 130 166 207 253 322 383
#     4  11  23  38  59  88 113 152 218 281 322 374
#     4  12  23  38  65  88 123 175 232 281 329 380
#     4   8  16  34  60  92 119 156 201 234 287 385
#
# _framework density 25.96744
#
# number of rings (size 3 to 8) (size 9 to 14) (size 15 to 20)
#    0.000    1.500    2.500    3.750    3.500    1.000 
#    0.000    3.750    0.000    0.000    0.000    0.000 
#    0.000    0.000    0.000    0.000    0.000    0.000 
#
# Total GULP energy -89142.275282 kJ/mol
# GULP energy per Si atom -5571.392205 kJ/mol
# Density = 2.590834 g / cm^3
# Si number density = 25.967440 Si / 1000 Ang^3
#
#
#
# Elastic Constant Matrix: (Units=GPa)
#
#
# Indices 1 2 3 4 5 6 
#
# 1 156.1945 11.6930 18.0718 -6.3001 29.0577 4.8856
# 2 11.6930 62.9251 18.4338 -5.4696 11.8565 -6.1076
# 3 18.0718 18.4338 124.2303 -13.6148 49.3689 -8.8186
# 4 -6.3001 -5.4696 -13.6148 33.7704 -6.6065 11.3921
# 5 29.0577 11.8565 49.3689 -6.6065 35.5287 -5.0843
# 6 4.8856 -6.1076 -8.8186 11.3921 -5.0843 44.3646
#
#
#
# Elastic Compliance Matrix: (Units=1/GPa)
#
#
# Indices 1 2 3 4 5 6 
#
# 1 0.008266 -0.000466 0.003370 0.001259 -0.011330 -0.001926
# 2 -0.000466 0.017173 -0.000653 0.001128 -0.004012 0.001536
# 3 0.003370 -0.000653 0.019561 0.002910 -0.029275 -0.000675
# 4 0.001259 0.001128 0.002910 0.033888 -0.000313 -0.008143
# 5 -0.011330 -0.004012 -0.029275 -0.000313 0.079962 0.004120
# 6 -0.001926 0.001536 -0.000675 -0.008143 0.004120 0.025393
#
#
# Mechanical properties :
#
#
# Convention : Reuss Voigt Hill
#
# Bulk Modulus (GPa) = 20.20117 48.86081 34.53099
# Shear Modulus (GPa) = 25.47878 42.40950 33.94414
#
# Velocity S-wave (km/s) = 3.13578 4.04565 3.61942
# Velocity P-wave (km/s) = 4.57243 6.37809 5.54920
#
# Compressibility (1/GPa) = 0.04950207
#
# Stress axis : x y z
#
# Youngs Moduli (GPa) = 120.97807 58.23072 51.12198
#
# Poissons Ratio (x) = 0.02714 -0.17230
# Poissons Ratio (y) = 0.05639 0.03339
# Poissons Ratio (z) = -0.40774 0.03804
#
# Static dielectric constant tensor:
#      x y z
#    x 2.191170 0.088700 -0.016400 
#    y 0.088700 2.265130 -0.013960 
#    z -0.016400 -0.013960 2.013870 
# 
# From -- ./inp_files/137818.got.cif
#   From: 2010.05.17/outbox.cif.g08.bks.cpg/sg2_69_cif.got.tgz:137818.got - 2010.06.03 11:33:40.
