data_PCOD9106825
_publ_section_title
;
Structure prediction by ZEFSAII (Michael W. Deem and Ramdas Pophale) SiO2 
 PCOD9106825
Probable space group: P -1
;
_chemical_formula_sum "Si O2"
_cell_formula_units_Z 14
_cell_length_a 5.183151
_cell_length_b 10.256912
_cell_length_c 22.752590
_cell_angle_alpha 26.868652
_cell_angle_beta 98.042734
_cell_angle_gamma 101.004085
_cell_volume 535.364676
_symmetry_space_group_name_H-M "P -1"
_symmetry_group_IT_number 2
_symmetry_cell_setting 'triclinic'
loop_
_space_group_symop_operation_xyz
x,y,z
-x,-y,-z
loop_
_atom_site_type_symbol
_atom_site_label
_atom_site_fract_x
_atom_site_fract_y
_atom_site_fract_z
Si Si1 0.284498 0.034198 0.145096
Si Si2 0.775488 0.889291 0.345682
Si Si3 0.193252 0.075023 0.911528
Si Si4 0.552413 0.651561 0.867344
Si Si5 0.397755 0.518111 0.190617
Si Si6 0.727302 0.319255 0.504386
Si Si7 0.566670 0.491184 0.679097
O O1 0.244769 0.150860 0.162909
O O2 0.078271 0.022990 0.089638
O O3 0.277919 0.680391 0.293322
O O4 0.502421 0.315190 0.021008
O O5 0.791894 0.663178 0.384063
O O6 0.506769 0.790798 0.413472
O O7 0.018027 0.834956 0.416052
O O8 0.719690 0.207080 0.195742
O O9 0.286667 0.362306 0.839108
O O10 0.388110 0.193076 0.816799
O O11 0.266234 0.807043 0.058757
O O12 0.637688 0.651373 0.802448
O O13 0.306963 0.389661 0.303220
O O14 0.601536 0.300205 0.443297
#
# Coordination Sequence:
#
# PCOD9106825 Si02
#       7
#     2   2   2   2   2   2   2
#     4  11  22  36  66  92 125 163 205 263 328 377
#     4  10  23  41  64  90 129 165 219 268 320 370
#     4   9  20  38  61  87 128 170 202 244 318 402
#     4  11  22  40  57 102 128 151 212 275 323 372
#     4   9  20  39  57  91 132 158 208 253 326 386
#     4  10  22  41  64  90 120 178 219 259 310 392
#     4  10  20  40  61  90 121 166 217 252 299 413
#
# _framework density 26.150399
#
# number of rings (size 3 to 8) (size 9 to 14) (size 15 to 20)
#    0.857    1.143    2.857    0.000    2.000    5.143 
#    0.000    1.429    0.000    0.000    0.000    0.000 
#    0.000    0.000    0.000    0.000    0.000    0.000 
#
# Total GULP energy -77997.504362 kJ/mol
# GULP energy per Si atom -5571.250312 kJ/mol
# Density = 2.609088 g / cm^3
# Si number density = 26.150399 Si / 1000 Ang^3
#
#
#
# Elastic Constant Matrix: (Units=GPa)
#
#
# Indices 1 2 3 4 5 6 
#
# 1 50.1963 1.1761 8.2439 0.2138 6.0637 7.4819
# 2 1.1761 138.5788 22.4226 22.8416 -18.5457 0.1530
# 3 8.2439 22.4226 84.8149 15.9633 9.9187 2.4101
# 4 0.2138 22.8416 15.9633 51.3708 10.1314 9.2862
# 5 6.0637 -18.5457 9.9187 10.1314 11.8128 8.7101
# 6 7.4819 0.1530 2.4101 9.2862 8.7101 26.3638
#
#
#
# Elastic Compliance Matrix: (Units=1/GPa)
#
#
# Indices 1 2 3 4 5 6 
#
# 1 0.023103 -0.004995 0.000805 0.007114 -0.026129 -0.000474
# 2 -0.004995 0.020780 -0.009362 -0.017200 0.068410 -0.014390
# 3 0.000805 -0.009362 0.017861 0.005035 -0.042024 0.010304
# 4 0.007114 -0.017200 0.005035 0.038631 -0.074335 0.008573
# 5 -0.026129 0.068410 -0.042024 -0.074335 0.366468 -0.084030
# 6 -0.000474 -0.014390 0.010304 0.008573 -0.084030 0.061949
#
#
# Mechanical properties :
#
#
# Convention : Reuss Voigt Hill
#
# Bulk Modulus (GPa) = 28.86814 37.47500 33.17157
# Shear Modulus (GPa) = 8.81145 34.02598 21.41872
#
# Velocity S-wave (km/s) = 1.83762 3.61108 2.86503
# Velocity P-wave (km/s) = 3.94534 5.63455 4.86384
#
# Compressibility (1/GPa) = 0.03464026
#
# Stress axis : x y z
#
# Youngs Moduli (GPa) = 43.28369 48.12433 55.98679
#
# Poissons Ratio (x) = 0.24039 -0.04508
# Poissons Ratio (y) = 0.21621 0.52415
# Poissons Ratio (z) = -0.03485 0.45054
#
# Static dielectric constant tensor:
#      x y z
#    x 2.421730 -0.220320 0.079130 
#    y -0.220320 2.181300 -0.050320 
#    z 0.079130 -0.050320 2.145370 
# 
# From -- ./inp_files/615365.got.cif
#   From: 2010.05.17/outbox.cif.g08.bks.cpg/sg2_308_cif.got.tgz:615365.got - 2010.06.03 11:33:40.
