data_PCOD9106481
_publ_section_title
;
Structure prediction by ZEFSAII (Michael W. Deem and Ramdas Pophale) SiO2 
 PCOD9106481
Probable space group: P -1
;
_chemical_formula_sum "Si O2"
_cell_formula_units_Z 16
_cell_length_a 8.617278
_cell_length_b 21.979600
_cell_length_c 11.860198
_cell_angle_alpha 32.245465
_cell_angle_beta 126.769043
_cell_angle_gamma 138.309370
_cell_volume 793.712125
_symmetry_space_group_name_H-M "P -1"
_symmetry_group_IT_number 2
_symmetry_cell_setting 'triclinic'
loop_
_space_group_symop_operation_xyz
x,y,z
-x,-y,-z
loop_
_atom_site_type_symbol
_atom_site_label
_atom_site_fract_x
_atom_site_fract_y
_atom_site_fract_z
Si Si1 0.375052 0.448619 0.386761
Si Si2 0.377690 0.653486 0.195562
Si Si3 0.924485 0.993924 0.850892
Si Si4 0.694008 0.737756 0.538897
Si Si5 0.558560 0.090251 0.272115
Si Si6 0.792253 0.339339 0.651836
Si Si7 0.862706 0.739443 0.088984
Si Si8 0.039888 0.148343 0.296323
O O1 0.242189 0.503604 0.311677
O O2 0.422835 0.356080 0.635175
O O3 0.275130 0.368821 0.351718
O O4 0.627170 0.589419 0.246260
O O5 0.284805 0.693328 0.199746
O O6 0.400798 0.758882 0.945341
O O7 0.694083 0.995528 0.762186
O O8 0.868706 0.856570 0.979900
O O9 0.124645 0.117244 0.669910
O O10 0.000000 0.000000 0.000000
O O11 0.428385 0.691295 0.469736
O O12 0.772557 0.760363 0.667049
O O13 0.787862 0.113587 0.279244
O O14 0.500000 0.000000 0.500000
O O15 0.000000 0.500000 0.500000
O O16 0.911534 0.263392 0.781074
O O17 0.879068 0.775770 0.907223
O O18 0.000000 0.000000 0.500000
#
# Coordination Sequence:
#
# PCOD9106481 Si02
#       8
#     2   2   2   2   2   2   2   2
#     4  10  22  41  70  99 133 178 233 279 349 404
#     4  10  20  39  70  97 132 181 221 286 340 411
#     4  12  26  42  70 104 134 181 241 289 338 414
#     4  11  24  43  66 100 141 177 236 282 341 417
#     4  12  23  44  70  97 141 188 228 276 351 410
#     4  11  22  41  70 103 135 174 228 290 354 405
#     4  12  23  43  74  96 136 188 223 291 359 398
#     4  12  26  46  67 100 145 187 224 286 350 415
#
# _framework density 20.158441
#
# number of rings (size 3 to 8) (size 9 to 14) (size 15 to 20)
#    0.000    0.750    7.500    1.500    1.750    2.000 
#    0.000    0.625    0.000    0.000    0.000    0.000 
#    0.000    0.000    0.000    0.000    0.000    0.000 
#
# Total GULP energy -89142.444422 kJ/mol
# GULP energy per Si atom -5571.402776 kJ/mol
# Density = 2.011256 g / cm^3
# Si number density = 20.158441 Si / 1000 Ang^3
#
#
#
# Elastic Constant Matrix: (Units=GPa)
#
#
# Indices 1 2 3 4 5 6 
#
# 1 107.2810 51.9328 38.5643 9.4304 9.6848 -2.8427
# 2 51.9328 124.3840 40.0674 20.4276 -0.2909 -3.5517
# 3 38.5643 40.0674 117.9631 7.1413 -10.7338 -0.4139
# 4 9.4304 20.4276 7.1413 39.2443 -4.3611 -4.1315
# 5 9.6848 -0.2909 -10.7338 -4.3611 39.4934 3.8342
# 6 -2.8427 -3.5517 -0.4139 -4.1315 3.8342 38.7854
#
#
#
# Elastic Compliance Matrix: (Units=1/GPa)
#
#
# Indices 1 2 3 4 5 6 
#
# 1 0.012986 -0.004284 -0.003130 -0.000699 -0.004228 0.000870
# 2 -0.004284 0.011251 -0.002150 -0.004408 0.000041 0.000220
# 3 -0.003130 -0.002150 0.010548 0.000296 0.003714 -0.000649
# 4 -0.000699 -0.004408 0.000296 0.028479 0.003144 0.002271
# 5 -0.004228 0.000041 0.003714 0.003144 0.027976 -0.002697
# 6 0.000870 0.000220 -0.000649 0.002271 -0.002697 0.026368
#
#
# Mechanical properties :
#
#
# Convention : Reuss Voigt Hill
#
# Bulk Modulus (GPa) = 63.86132 67.86190 65.86161
# Shear Modulus (GPa) = 35.22218 38.10886 36.66552
#
# Velocity S-wave (km/s) = 4.18457 4.35267 4.26944
# Velocity P-wave (km/s) = 7.42266 7.68103 7.55295
#
# Compressibility (1/GPa) = 0.01565893
#
# Stress axis : x y z
#
# Youngs Moduli (GPa) = 77.00311 88.88024 94.80187
#
# Poissons Ratio (x) = 0.38077 0.29670
# Poissons Ratio (y) = 0.32989 0.20379
# Poissons Ratio (z) = 0.24100 0.19106
#
# Static dielectric constant tensor:
#      x y z
#    x 1.797790 0.009710 -0.026870 
#    y 0.009710 1.730110 -0.016230 
#    z -0.026870 -0.016230 1.746270 
# 
# From -- ./inp_files/406577.got.cif
#   From: 2010.05.17/outbox.cif.g08.bks.cpg/sg2_204_cif.got.tgz:406577.got - 2010.06.03 11:33:40.
