data_PCOD9106306
_publ_section_title
;
Structure prediction by ZEFSAII (Michael W. Deem and Ramdas Pophale) SiO2 
 PCOD9106306
Probable space group: P -1
;
_chemical_formula_sum "Si O2"
_cell_formula_units_Z 16
_cell_length_a 7.859788
_cell_length_b 14.614093
_cell_length_c 12.556511
_cell_angle_alpha 41.893030
_cell_angle_beta 133.474681
_cell_angle_gamma 106.624532
_cell_volume 618.162725
_symmetry_space_group_name_H-M "P -1"
_symmetry_group_IT_number 2
_symmetry_cell_setting 'triclinic'
loop_
_space_group_symop_operation_xyz
x,y,z
-x,-y,-z
loop_
_atom_site_type_symbol
_atom_site_label
_atom_site_fract_x
_atom_site_fract_y
_atom_site_fract_z
Si Si1 0.145900 0.499553 0.427749
Si Si2 0.557491 0.697894 0.748205
Si Si3 0.584111 0.083124 0.692835
Si Si4 0.416333 0.223067 0.078960
Si Si5 0.145306 0.658362 0.848016
Si Si6 0.053279 0.224350 0.554717
Si Si7 0.826751 0.079599 0.017968
Si Si8 0.292729 0.609766 0.182222
O O1 0.227133 0.524391 0.322429
O O2 0.389797 0.482800 0.620472
O O3 0.121453 0.343163 0.544916
O O4 0.864976 0.648343 0.199697
O O5 0.611876 0.778923 0.803003
O O6 0.730636 0.514906 0.993593
O O7 0.256935 0.724329 0.604942
O O8 0.572123 0.775122 0.577104
O O9 0.501203 0.947081 0.780168
O O10 0.877136 0.992355 0.840697
O O11 0.635354 0.130878 0.789477
O O12 0.639953 0.276605 0.111920
O O13 0.117807 0.633996 0.982148
O O14 0.929804 0.760487 0.579002
O O15 0.198462 0.053152 0.812160
O O16 0.767397 0.224030 0.941336
#
# Coordination Sequence:
#
# PCOD9106306 Si02
#       8
#     2   2   2   2   2   2   2   2
#     4  11  23  42  65  89 131 170 206 264 309 370
#     4  10  20  39  68  98 128 154 215 272 304 374
#     4  10  22  38  67  94 123 172 209 255 325 367
#     4  11  20  42  67  96 124 166 218 256 309 383
#     4  11  23  41  67 100 124 166 209 263 321 371
#     4  10  21  43  68  89 128 168 212 261 313 372
#     4  10  23  43  61  91 132 167 212 261 308 381
#     4  11  27  41  60  95 136 164 211 263 312 376
#
# _framework density 25.883150000000001
#
# number of rings (size 3 to 8) (size 9 to 14) (size 15 to 20)
#    0.000    1.500    3.750    1.125    5.250    3.000 
#    0.000    0.000    0.000    0.000    0.000    0.000 
#    0.000    0.000    0.000    0.000    0.000    0.000 
#
# Total GULP energy -89774.953578 kJ/mol
# GULP energy per Si atom -5610.934599 kJ/mol
# Density = 2.582424 g / cm^3
# Si number density = 25.883150 Si / 1000 Ang^3
#
#
#
# Elastic Constant Matrix: (Units=GPa)
#
#
# Indices 1 2 3 4 5 6 
#
# 1 61.1830 6.0141 31.3663 7.0582 -7.1227 10.7950
# 2 6.0141 90.3318 31.2777 -10.7892 6.3809 4.4922
# 3 31.3663 31.2777 123.9792 9.0318 -0.0907 7.3927
# 4 7.0582 -10.7892 9.0318 56.4460 4.4192 -5.3612
# 5 -7.1227 6.3809 -0.0907 4.4192 47.5211 10.9262
# 6 10.7950 4.4922 7.3927 -5.3612 10.9262 44.3010
#
#
#
# Elastic Compliance Matrix: (Units=1/GPa)
#
#
# Indices 1 2 3 4 5 6 
#
# 1 0.020606 -0.000145 -0.004630 -0.002773 0.004673 -0.005722
# 2 -0.000145 0.012789 -0.003437 0.003197 -0.002092 0.000215
# 3 -0.004630 -0.003437 0.010261 -0.001768 0.000058 -0.000464
# 4 -0.002773 0.003197 -0.001768 0.019606 -0.003568 0.003899
# 5 0.004673 -0.002092 0.000058 -0.003568 0.024034 -0.007296
# 6 -0.005722 0.000215 -0.000464 0.003899 -0.007296 0.026294
#
#
# Mechanical properties :
#
#
# Convention : Reuss Voigt Hill
#
# Bulk Modulus (GPa) = 36.72289 45.86783 41.29536
# Shear Modulus (GPa) = 35.94763 43.44267 39.69515
#
# Velocity S-wave (km/s) = 3.73076 4.10129 3.92041
# Velocity P-wave (km/s) = 5.72511 6.33932 6.04003
#
# Compressibility (1/GPa) = 0.02723097
#
# Stress axis : x y z
#
# Youngs Moduli (GPa) = 48.53039 78.19254 97.45834
#
# Poissons Ratio (x) = 0.01138 0.45122
# Poissons Ratio (y) = 0.00706 0.33495
# Poissons Ratio (z) = 0.22469 0.26874
#
# Static dielectric constant tensor:
#      x y z
#    x 2.167810 -0.003860 0.000350 
#    y -0.003860 1.896400 0.041860 
#    z 0.000350 0.041860 1.977290 
# 
# From -- ./inp_files/205143.got.cif
#   From: 2010.05.17/outbox.cif.g08.bks.cpg/sg2_103_cif.got.tgz:205143.got - 2010.06.03 11:33:40.
