data_PCOD9106009
_publ_section_title
;
Structure prediction by ZEFSAII (Michael W. Deem and Ramdas Pophale) SiO2 
 PCOD9106009
Probable space group: P -1
;
_chemical_formula_sum "Si O2"
_cell_formula_units_Z 12
_cell_length_a 9.905132
_cell_length_b 15.332643
_cell_length_c 15.083764
_cell_angle_alpha 153.828821
_cell_angle_beta 150.019316
_cell_angle_gamma 38.892385
_cell_volume 504.884039
_symmetry_space_group_name_H-M "P -1"
_symmetry_group_IT_number 2
_symmetry_cell_setting 'triclinic'
loop_
_space_group_symop_operation_xyz
x,y,z
-x,-y,-z
loop_
_atom_site_type_symbol
_atom_site_label
_atom_site_fract_x
_atom_site_fract_y
_atom_site_fract_z
Si Si1 0.987050 0.203309 0.777864
Si Si2 0.371022 0.107462 0.390002
Si Si3 0.005103 0.759145 0.861431
Si Si4 0.888600 0.254424 0.576093
Si Si5 0.234381 0.374677 0.715520
Si Si6 0.350658 0.191295 0.131771
O O1 0.678254 0.164478 0.596074
O O2 0.980324 0.312000 0.778929
O O3 0.112585 0.984976 0.635811
O O4 0.167097 0.287420 0.037530
O O5 0.301526 0.190736 0.523188
O O6 0.174620 0.210280 0.299828
O O7 0.287595 0.877771 0.122926
O O8 0.044128 0.530307 0.697292
O O9 0.851217 0.858566 0.948183
O O10 0.589834 0.310479 0.424152
O O11 0.093918 0.311658 0.668428
O O12 0.500000 0.500000 0.000000
O O13 0.500000 0.000000 0.000000
#
# Coordination Sequence:
#
# PCOD9106009 Si02
#       6
#     2   2   2   2   2   2
#     4  10  20  40  70  97 131 177 227 273 336 400
#     4  11  23  45  71  99 136 183 226 279 339 402
#     4  11  24  43  70 100 139 179 227 282 337 403
#     4  10  22  41  64  99 135 171 224 282 331 401
#     4  12  26  45  67 101 137 179 230 278 340 406
#     4  10  20  39  67 100 131 176 224 273 340 395
#
# _framework density 23.767834000000001
#
# number of rings (size 3 to 8) (size 9 to 14) (size 15 to 20)
#    0.000    1.333    1.667    4.500    0.000    2.667 
#    6.000    1.667    0.000    0.000    0.000    0.000 
#    0.000    0.000    0.000    0.000    0.000    0.000 
#
# Total GULP energy -67151.055697 kJ/mol
# GULP energy per Si atom -5595.921308 kJ/mol
# Density = 2.371374 g / cm^3
# Si number density = 23.767834 Si / 1000 Ang^3
#
#
#
# Elastic Constant Matrix: (Units=GPa)
#
#
# Indices 1 2 3 4 5 6 
#
# 1 113.9247 34.7330 4.2212 -32.2455 -30.7549 46.5010
# 2 34.7330 99.5495 43.4378 -23.8249 -5.2531 26.2919
# 3 4.2212 43.4378 54.3620 -43.2347 -65.2181 45.1677
# 4 -32.2455 -23.8249 -43.2347 47.1777 -6.6338 -10.9736
# 5 -30.7549 -5.2531 -65.2181 -6.6338 0.0335 11.2739
# 6 46.5010 26.2919 45.1677 -10.9736 11.2739 41.1405
#
#
#
# Elastic Compliance Matrix: (Units=1/GPa)
#
#
# Indices 1 2 3 4 5 6 
#
# 1 0.008788 -0.000578 -0.004609 0.000005 -0.005698 -0.002940
# 2 -0.000578 0.013391 -0.002042 0.003498 0.001332 -0.005095
# 3 -0.004609 -0.002042 0.003356 -0.001278 -0.009769 0.005166
# 4 0.000005 0.003498 -0.001278 0.022341 -0.008404 0.007423
# 5 -0.005698 0.001332 -0.009769 -0.008404 0.006466 0.012301
# 6 -0.002940 -0.005095 0.005166 0.007423 0.012301 0.023823
#
#
# Mechanical properties :
#
#
# Convention : Reuss Voigt Hill
#
# Bulk Modulus (GPa) = 90.27757 48.06891 69.17324
# Shear Modulus (GPa) = 51.91251 30.03329 40.97290
#
# Velocity S-wave (km/s) = 4.67856 3.55859 4.15647
# Velocity P-wave (km/s) = 8.20066 6.09532 7.22509
#
# Compressibility (1/GPa) = 0.01107695
#
# Stress axis : x y z
#
# Youngs Moduli (GPa) = 113.79008 74.67727 297.95464
#
# Poissons Ratio (x) = 0.04314 1.37341
# Poissons Ratio (y) = 0.06573 0.60844
# Poissons Ratio (z) = 0.52451 0.15249
#
# Static dielectric constant tensor:
#      x y z
#    x 1.884070 -0.008070 -0.024070 
#    y -0.008070 1.951460 0.013320 
#    z -0.024070 0.013320 1.918710 
# 
# From -- ./inp_files/174668.got.cif
#   From: 2010.05.17/outbox.cif.g08.bks.cpg/sg2_88_cif.got.tgz:174668.got - 2010.06.03 11:33:40.
