data_PCOD9106093
_publ_section_title
;
Structure prediction by ZEFSAII (Michael W. Deem and Ramdas Pophale) SiO2 
 PCOD9106093
Probable space group: P -1
;
_chemical_formula_sum "Si O2"
_cell_formula_units_Z 16
_cell_length_a 14.268262
_cell_length_b 17.001885
_cell_length_c 7.693613
_cell_angle_alpha 62.472253
_cell_angle_beta 90.275921
_cell_angle_gamma 142.732589
_cell_volume 738.537786
_symmetry_space_group_name_H-M "P -1"
_symmetry_group_IT_number 2
_symmetry_cell_setting 'triclinic'
loop_
_space_group_symop_operation_xyz
x,y,z
-x,-y,-z
loop_
_atom_site_type_symbol
_atom_site_label
_atom_site_fract_x
_atom_site_fract_y
_atom_site_fract_z
Si Si1 0.621277 0.458849 0.462810
Si Si2 0.752211 0.299677 0.162693
Si Si3 0.155320 0.718706 0.320686
Si Si4 0.763115 0.782934 0.773746
Si Si5 0.644388 0.482027 0.046158
Si Si6 0.767661 0.465764 0.747078
Si Si7 0.544908 0.976488 0.288371
Si Si8 0.226843 0.227631 0.804496
O O1 0.697006 0.503145 0.224000
O O2 0.628919 0.383386 0.670538
O O3 0.395035 0.315126 0.605665
O O4 0.759008 0.655213 0.346118
O O5 0.672618 0.135400 0.278713
O O6 0.602809 0.213685 0.400912
O O7 0.711292 0.321550 0.966716
O O8 0.000000 0.500000 0.000000
O O9 0.000000 0.500000 0.500000
O O10 0.002175 0.655567 0.484014
O O11 0.349311 0.854723 0.306005
O O12 0.268862 0.868112 0.011646
O O13 0.607773 0.726882 0.760083
O O14 0.708396 0.638381 0.853558
O O15 0.726852 0.747885 0.016392
O O16 0.000000 0.000000 0.500000
O O17 0.744492 0.507749 0.871921
O O18 0.000000 0.000000 0.000000
#
# Coordination Sequence:
#
# PCOD9106093 Si02
#       8
#     2   2   2   2   2   2   2   2
#     4  10  23  42  62  96 134 171 222 284 337 401
#     4  11  22  44  69  98 136 181 228 285 352 415
#     4  11  22  44  69  98 136 181 229 284 352 416
#     4  10  20  39  67  93 128 180 223 267 344 410
#     4  10  23  42  62  96 135 170 223 284 334 406
#     4  12  24  44  68 102 136 179 226 292 347 400
#     4  10  22  42  70  98 127 184 230 278 350 425
#     4  10  20  39  67  93 130 178 222 268 344 409
#
# _framework density 21.664428000000001
#
# number of rings (size 3 to 8) (size 9 to 14) (size 15 to 20)
#    0.000    1.500    3.750    0.750    3.500    2.000 
#    4.500    1.250    0.000    0.000    0.000    0.000 
#    0.000    0.000    0.000    0.000    0.000    0.000 
#
# Total GULP energy -89140.816886 kJ/mol
# GULP energy per Si atom -5571.301055 kJ/mol
# Density = 2.161512 g / cm^3
# Si number density = 21.664428 Si / 1000 Ang^3
#
#
#
# Elastic Constant Matrix: (Units=GPa)
#
#
# Indices 1 2 3 4 5 6 
#
# 1 58.4791 17.9855 34.8980 1.2540 -22.8710 -3.3929
# 2 17.9855 70.0872 22.8705 -10.6376 -9.2583 -0.3905
# 3 34.8980 22.8705 151.2133 5.9132 -31.0959 0.8601
# 4 1.2540 -10.6376 5.9132 52.1130 0.7606 2.4825
# 5 -22.8710 -9.2583 -31.0959 0.7606 40.4436 17.3017
# 6 -3.3929 -0.3905 0.8601 2.4825 17.3017 18.5533
#
#
#
# Elastic Compliance Matrix: (Units=1/GPa)
#
#
# Indices 1 2 3 4 5 6 
#
# 1 0.025259 -0.003919 -0.001690 -0.000942 0.016765 -0.010893
# 2 -0.003919 0.016458 -0.001486 0.003694 0.001130 -0.001850
# 3 -0.001690 -0.001486 0.009477 -0.000995 0.010457 -0.010398
# 4 -0.000942 0.003694 -0.000995 0.020227 0.000575 -0.003291
# 5 0.016765 0.001130 0.010457 0.000575 0.068900 -0.061724
# 6 -0.010893 -0.001850 -0.010398 -0.003291 -0.061724 0.110350
#
#
# Mechanical properties :
#
#
# Convention : Reuss Voigt Hill
#
# Bulk Modulus (GPa) = 27.02538 47.92085 37.47311
# Shear Modulus (GPa) = 18.03774 35.82369 26.93072
#
# Velocity S-wave (km/s) = 2.88861 4.07083 3.52957
# Velocity P-wave (km/s) = 4.86076 6.65305 5.82624
#
# Compressibility (1/GPa) = 0.03700225
#
# Stress axis : x y z
#
# Youngs Moduli (GPa) = 39.58962 60.75927 105.52339
#
# Poissons Ratio (x) = 0.23814 0.17837
# Poissons Ratio (y) = 0.15517 0.15683
# Poissons Ratio (z) = 0.06692 0.09030
#
# Static dielectric constant tensor:
#      x y z
#    x 1.822350 -0.036250 0.019930 
#    y -0.036250 1.846220 0.026950 
#    z 0.019930 0.026950 1.866120 
# 
# From -- ./inp_files/279059.got.cif
#   From: 2010.05.17/outbox.cif.g08.bks.cpg/sg2_140_cif.got.tgz:279059.got - 2010.06.03 11:33:40.
