data_PCOD9106411
_publ_section_title
;
Structure prediction by ZEFSAII (Michael W. Deem and Ramdas Pophale) SiO2 
 PCOD9106411
Probable space group: P -1
;
_chemical_formula_sum "Si O2"
_cell_formula_units_Z 14
_cell_length_a 5.291730
_cell_length_b 8.005750
_cell_length_c 16.161258
_cell_angle_alpha 53.379545
_cell_angle_beta 91.143004
_cell_angle_gamma 87.210805
_cell_volume 547.834932
_symmetry_space_group_name_H-M "P -1"
_symmetry_group_IT_number 2
_symmetry_cell_setting 'triclinic'
loop_
_space_group_symop_operation_xyz
x,y,z
-x,-y,-z
loop_
_atom_site_type_symbol
_atom_site_label
_atom_site_fract_x
_atom_site_fract_y
_atom_site_fract_z
Si Si1 0.557878 0.213739 0.891935
Si Si2 0.706234 0.173065 0.715905
Si Si3 0.226845 0.939271 0.765746
Si Si4 0.461758 0.628332 0.559793
Si Si5 0.239781 0.618722 0.996649
Si Si6 0.195288 0.588741 0.733992
Si Si7 0.947194 0.773185 0.534906
O O1 0.685360 0.172563 0.816116
O O2 0.726041 0.345145 0.916326
O O3 0.299259 0.361339 0.831025
O O4 0.500000 0.000000 0.000000
O O5 0.572417 0.393396 0.620146
O O6 0.510456 0.005675 0.735612
O O7 0.995654 0.116023 0.708877
O O8 0.168823 0.753845 0.757981
O O9 0.216875 0.841576 0.885942
O O10 0.404799 0.659521 0.648510
O O11 0.182146 0.685795 0.507318
O O12 0.676024 0.774820 0.492146
O O13 0.500000 0.500000 0.000000
O O14 0.000000 0.500000 0.000000
O O15 0.959416 0.616001 0.660929
O O16 0.000000 0.000000 0.500000
#
# Coordination Sequence:
#
# PCOD9106411 Si02
#       7
#     2   2   2   2   2   2   2
#     4  11  23  45  64  95 128 177 224 265 322 380
#     4  11  25  40  64  94 127 174 211 267 317 384
#     4  12  24  40  62  90 128 172 217 259 331 374
#     4   9  21  39  64  95 126 160 210 262 311 380
#     4  12  26  42  62  88 129 171 220 277 321 371
#     4   9  24  38  66  92 129 163 217 263 314 381
#     4  10  20  39  70 100 123 161 211 264 320 382
#
# _framework density 25.555143000000001
#
# number of rings (size 3 to 8) (size 9 to 14) (size 15 to 20)
#    0.857    0.571    2.857    2.143    2.000    2.857 
#    0.000    0.000    0.000    5.143    0.000    0.000 
#    0.000    0.000    0.000    0.000    0.000    0.000 
#
# Total GULP energy -78372.912311 kJ/mol
# GULP energy per Si atom -5598.065165 kJ/mol
# Density = 2.549698 g / cm^3
# Si number density = 25.555143 Si / 1000 Ang^3
#
#
#
# Elastic Constant Matrix: (Units=GPa)
#
#
# Indices 1 2 3 4 5 6 
#
# 1 120.3151 7.4600 5.2690 -1.7040 -0.4310 0.1441
# 2 7.4600 105.5865 27.7224 12.2038 5.6492 -14.3561
# 3 5.2690 27.7224 111.9524 1.6810 27.1239 1.0446
# 4 -1.7040 12.2038 1.6810 46.3699 1.2007 5.2360
# 5 -0.4310 5.6492 27.1239 1.2007 32.5697 -7.2148
# 6 0.1441 -14.3561 1.0446 5.2360 -7.2148 48.4637
#
#
#
# Elastic Compliance Matrix: (Units=1/GPa)
#
#
# Indices 1 2 3 4 5 6 
#
# 1 0.008373 -0.000602 -0.000362 0.000488 0.000459 -0.000180
# 2 -0.000602 0.011175 -0.003130 -0.003343 0.001667 0.003989
# 3 -0.000362 -0.003130 0.012235 0.000953 -0.010313 -0.002828
# 4 0.000488 -0.003343 0.000953 0.022903 -0.001886 -0.003768
# 5 0.000459 0.001667 -0.010313 -0.001886 0.040621 0.006966
# 6 -0.000180 0.003989 -0.002828 -0.003768 0.006966 0.023321
#
#
# Mechanical properties :
#
#
# Convention : Reuss Voigt Hill
#
# Bulk Modulus (GPa) = 42.37970 46.52853 44.45412
# Shear Modulus (GPa) = 37.12463 45.30752 41.21607
#
# Velocity S-wave (km/s) = 3.81560 4.21519 4.02036
# Velocity P-wave (km/s) = 6.00261 6.47588 6.24373
#
# Compressibility (1/GPa) = 0.02359620
#
# Stress axis : x y z
#
# Youngs Moduli (GPa) = 119.42514 89.48754 81.73219
#
# Poissons Ratio (x) = 0.05387 0.02957
# Poissons Ratio (y) = 0.07189 0.25580
# Poissons Ratio (z) = 0.04321 0.28007
#
# Static dielectric constant tensor:
#      x y z
#    x 2.034970 0.055270 0.048760 
#    y 0.055270 2.005590 0.074880 
#    z 0.048760 0.074880 2.084870 
# 
# From -- ./inp_files/603545.got.cif
#   From: 2010.05.17/outbox.cif.g08.bks.cpg/sg2_302_cif.got.tgz:603545.got - 2010.06.03 11:33:40.
