data_PCOD9106480
_publ_section_title
;
Structure prediction by ZEFSAII (Michael W. Deem and Ramdas Pophale) SiO2 
 PCOD9106480
Probable space group: P -1
;
_chemical_formula_sum "Si O2"
_cell_formula_units_Z 16
_cell_length_a 11.998099
_cell_length_b 18.127410
_cell_length_c 9.589072
_cell_angle_alpha 55.934872
_cell_angle_beta 116.106471
_cell_angle_gamma 152.959936
_cell_volume 775.776659
_symmetry_space_group_name_H-M "P -1"
_symmetry_group_IT_number 2
_symmetry_cell_setting 'triclinic'
loop_
_space_group_symop_operation_xyz
x,y,z
-x,-y,-z
loop_
_atom_site_type_symbol
_atom_site_label
_atom_site_fract_x
_atom_site_fract_y
_atom_site_fract_z
Si Si1 0.730630 0.916494 0.711285
Si Si2 0.104587 0.526270 0.173491
Si Si3 0.256603 0.766844 0.230734
Si Si4 0.338864 0.162950 0.920597
Si Si5 0.723549 0.705259 0.441526
Si Si6 0.816608 0.092295 0.093239
Si Si7 0.324869 0.812468 0.546490
Si Si8 0.817292 0.814674 0.665940
O O1 0.488381 0.824859 0.643785
O O2 0.709004 0.807733 0.736380
O O3 0.733952 0.894348 0.899466
O O4 0.975577 0.126022 0.574483
O O5 0.144802 0.619895 0.226133
O O6 0.368638 0.654905 0.136541
O O7 0.912197 0.335849 0.326949
O O8 0.000000 0.500000 0.000000
O O9 0.230200 0.754459 0.396047
O O10 0.556327 0.943707 0.189144
O O11 0.145529 0.788549 0.081928
O O12 0.262438 0.204108 0.754558
O O13 0.234466 0.012393 0.942565
O O14 0.500000 0.500000 0.500000
O O15 0.649699 0.687053 0.577593
O O16 0.035423 0.181730 0.206864
O O17 0.500000 0.000000 0.500000
O O18 0.000000 0.000000 0.500000
#
# Coordination Sequence:
#
# PCOD9106480 Si02
#       8
#     2   2   2   2   2   2   2   2
#     4  11  23  43  71  91 133 176 220 265 332 398
#     4  11  25  45  65  98 137 173 221 282 335 389
#     4  10  23  40  69  97 131 178 221 278 332 394
#     4  11  22  43  68  95 131 176 217 272 331 398
#     4  11  25  41  66 100 131 168 221 274 332 385
#     4  10  20  39  70  97 132 169 228 268 336 394
#     4  12  26  44  69 102 134 176 230 272 334 403
#     4  10  20  41  65  96 128 174 215 273 326 394
#
# _framework density 20.624493000000001
#
# number of rings (size 3 to 8) (size 9 to 14) (size 15 to 20)
#    0.000    1.250    3.750    3.000    7.000    1.000 
#    0.000    0.625    0.000    0.000    0.000    0.000 
#    0.000    0.000    0.000    0.000    0.000    0.000 
#
# Total GULP energy -89191.166965 kJ/mol
# GULP energy per Si atom -5574.447935 kJ/mol
# Density = 2.057755 g / cm^3
# Si number density = 20.624493 Si / 1000 Ang^3
#
#
#
# Elastic Constant Matrix: (Units=GPa)
#
#
# Indices 1 2 3 4 5 6 
#
# 1 53.6002 40.4079 55.0550 -16.0100 4.8601 -40.0242
# 2 40.4079 80.5268 21.1835 6.9486 -18.2825 9.9515
# 3 55.0550 21.1835 107.8789 22.2407 -20.7106 3.2835
# 4 -16.0100 6.9486 22.2407 17.6735 6.7406 -25.9424
# 5 4.8601 -18.2825 -20.7106 6.7406 44.4264 23.2431
# 6 -40.0242 9.9515 3.2835 -25.9424 23.2431 -29.7142
#
#
#
# Elastic Compliance Matrix: (Units=1/GPa)
#
#
# Indices 1 2 3 4 5 6 
#
# 1 0.013542 -0.002786 -0.004656 -0.003160 0.003221 -0.014411
# 2 -0.002786 0.013535 -0.001846 0.003199 0.001250 0.006266
# 3 -0.004656 -0.001846 0.012559 -0.003742 0.000553 0.010740
# 4 -0.003160 0.003199 -0.003742 0.029751 0.004557 -0.017496
# 5 0.003221 0.001250 0.000553 0.004557 0.018689 0.006782
# 6 -0.014411 0.006266 0.010740 -0.017496 0.006782 0.009623
#
#
# Mechanical properties :
#
#
# Convention : Reuss Voigt Hill
#
# Bulk Modulus (GPa) = 47.48274 52.81095 50.14684
# Shear Modulus (GPa) = 40.55271 14.83445 27.69358
#
# Velocity S-wave (km/s) = 4.43904 2.68482 3.66833
# Velocity P-wave (km/s) = 7.02467 5.93907 6.50455
#
# Compressibility (1/GPa) = 0.02106029
#
# Stress axis : x y z
#
# Youngs Moduli (GPa) = 73.84197 73.88082 79.62432
#
# Poissons Ratio (x) = 0.20583 0.37072
# Poissons Ratio (y) = 0.20572 0.14701
# Poissons Ratio (z) = 0.34380 0.13641
#
# Static dielectric constant tensor:
#      x y z
#    x 1.698690 0.067810 -0.027150 
#    y 0.067810 1.835290 0.032440 
#    z -0.027150 0.032440 1.701090 
# 
# From -- ./inp_files/279105.got.cif
#   From: 2010.05.17/outbox.cif.g08.bks.cpg/sg2_140_cif.got.tgz:279105.got - 2010.06.03 11:33:40.
