data_PCOD9106655
_publ_section_title
;
Structure prediction by ZEFSAII (Michael W. Deem and Ramdas Pophale) SiO2 
 PCOD9106655
Probable space group: P -1
;
_chemical_formula_sum "Si O2"
_cell_formula_units_Z 14
_cell_length_a 5.154053
_cell_length_b 12.555440
_cell_length_c 11.747018
_cell_angle_alpha 103.621792
_cell_angle_beta 61.129808
_cell_angle_gamma 108.366182
_cell_volume 628.593323
_symmetry_space_group_name_H-M "P -1"
_symmetry_group_IT_number 2
_symmetry_cell_setting 'triclinic'
loop_
_space_group_symop_operation_xyz
x,y,z
-x,-y,-z
loop_
_atom_site_type_symbol
_atom_site_label
_atom_site_fract_x
_atom_site_fract_y
_atom_site_fract_z
Si Si1 0.485447 0.108332 0.398622
Si Si2 0.702194 0.271493 0.194679
Si Si3 0.113428 0.441848 0.639879
Si Si4 0.748323 0.597044 0.627701
Si Si5 0.152481 0.497760 0.088510
Si Si6 0.162460 0.927805 0.031775
Si Si7 0.940999 0.957322 0.331395
O O1 0.641284 0.215708 0.317766
O O2 0.273134 0.125142 0.553861
O O3 0.751974 0.052218 0.371725
O O4 0.257320 0.019421 0.341349
O O5 0.391735 0.314321 0.250032
O O6 0.973193 0.380489 0.151013
O O7 0.786932 0.182364 0.069290
O O8 0.449063 0.497620 0.632160
O O9 0.123499 0.357492 0.512330
O O10 0.977917 0.537274 0.627843
O O11 0.903563 0.408269 0.786598
O O12 0.500000 0.500000 0.000000
O O13 0.000000 0.500000 0.000000
O O14 0.998523 0.907959 0.184337
O O15 0.500000 0.000000 0.000000
O O16 0.000000 0.000000 0.000000
#
# Coordination Sequence:
#
# PCOD9106655 Si02
#       7
#     2   2   2   2   2   2   2
#     4  10  21  37  66  86 127 165 218 257 312 374
#     4  11  23  41  67  97 123 178 218 256 322 390
#     4   9  18  38  60  82 117 154 200 261 319 356
#     4   9  19  34  62  89 109 153 209 256 301 375
#     4  11  24  41  63  91 130 166 210 272 324 376
#     4  12  23  39  65  96 134 171 209 259 318 386
#     4  10  20  40  59  93 127 170 202 267 313 364
#
# _framework density 22.271951000000001
#
# number of rings (size 3 to 8) (size 9 to 14) (size 15 to 20)
#    0.000    1.714    2.857    1.714    0.000    6.857 
#    2.571    0.000    6.286    0.000    0.000    0.000 
#    0.000    0.000    0.000    0.000    0.000    0.000 
#
# Total GULP energy -78166.991922 kJ/mol
# GULP energy per Si atom -5583.356566 kJ/mol
# Density = 2.222126 g / cm^3
# Si number density = 22.271951 Si / 1000 Ang^3
#
#
#
# Elastic Constant Matrix: (Units=GPa)
#
#
# Indices 1 2 3 4 5 6 
#
# 1 120.9135 14.3748 30.7715 -3.8929 -2.0938 -6.6465
# 2 14.3748 58.4624 36.9471 -10.3946 -4.8547 -1.2284
# 3 30.7715 36.9471 225.3328 -0.5544 0.1795 -1.4932
# 4 -3.8929 -10.3946 -0.5544 49.8827 -1.5840 -6.3491
# 5 -2.0938 -4.8547 0.1795 -1.5840 39.5432 -3.4263
# 6 -6.6465 -1.2284 -1.4932 -6.3491 -3.4263 18.9211
#
#
#
# Elastic Compliance Matrix: (Units=1/GPa)
#
#
# Indices 1 2 3 4 5 6 
#
# 1 0.008897 -0.001291 -0.000979 0.000864 0.000644 0.003371
# 2 -0.001291 0.020531 -0.003163 0.004576 0.002883 0.002687
# 3 -0.000979 -0.003163 0.005086 -0.000760 -0.000537 -0.000500
# 4 0.000864 0.004576 -0.000760 0.022199 0.002227 0.008393
# 5 0.000644 0.002883 -0.000537 0.002227 0.026278 0.005877
# 6 0.003371 0.002687 -0.000500 0.008393 0.005877 0.058051
#
#
# Mechanical properties :
#
#
# Convention : Reuss Voigt Hill
#
# Bulk Modulus (GPa) = 42.28914 63.21063 52.74988
# Shear Modulus (GPa) = 31.29102 43.17707 37.23404
#
# Velocity S-wave (km/s) = 3.75233 4.40776 4.09319
# Velocity P-wave (km/s) = 6.14835 7.37207 6.78784
#
# Compressibility (1/GPa) = 0.02364673
#
# Stress axis : x y z
#
# Youngs Moduli (GPa) = 112.39314 48.70671 196.63513
#
# Poissons Ratio (x) = 0.06287 0.19259
# Poissons Ratio (y) = 0.14508 0.62203
# Poissons Ratio (z) = 0.11008 0.15408
#
# Static dielectric constant tensor:
#      x y z
#    x 1.803840 0.005690 -0.001030 
#    y 0.005690 1.831870 0.078250 
#    z -0.001030 0.078250 1.738870 
# 
# From -- ./inp_files/363119.got.cif
#   From: 2010.05.17/outbox.cif.g08.bks.cpg/sg2_182_cif.got.tgz:363119.got - 2010.06.03 11:33:40.
