data_PCOD9106382
_publ_section_title
;
Structure prediction by ZEFSAII (Michael W. Deem and Ramdas Pophale) SiO2 
 PCOD9106382
Probable space group: P -1
;
_chemical_formula_sum "Si O2"
_cell_formula_units_Z 16
_cell_length_a 16.133456
_cell_length_b 19.958054
_cell_length_c 5.604429
_cell_angle_alpha 98.425263
_cell_angle_beta 87.558571
_cell_angle_gamma 21.915820
_cell_volume 583.212224
_symmetry_space_group_name_H-M "P -1"
_symmetry_group_IT_number 2
_symmetry_cell_setting 'triclinic'
loop_
_space_group_symop_operation_xyz
x,y,z
-x,-y,-z
loop_
_atom_site_type_symbol
_atom_site_label
_atom_site_fract_x
_atom_site_fract_y
_atom_site_fract_z
Si Si1 0.619973 0.202652 0.547565
Si Si2 0.339840 0.112161 0.829708
Si Si3 0.302235 0.325306 0.204853
Si Si4 0.829563 0.943366 0.795949
Si Si5 0.874735 0.200684 0.989345
Si Si6 0.000263 0.691617 0.361076
Si Si7 0.445536 0.444585 0.047458
Si Si8 0.796529 0.589157 0.260334
O O1 0.560189 0.321316 0.732681
O O2 0.353712 0.365691 0.643344
O O3 0.754617 0.049996 0.645407
O O4 0.843626 0.039555 0.243554
O O5 0.176293 0.172463 0.783195
O O6 0.500000 0.000000 0.500000
O O7 0.089602 0.349359 0.052563
O O8 0.500000 0.000000 0.000000
O O9 0.083416 0.551618 0.341565
O O10 0.251039 0.327156 0.460333
O O11 0.310501 0.297939 0.912596
O O12 0.589014 0.130312 0.097361
O O13 0.079246 0.782263 0.795156
O O14 0.864335 0.839644 0.655985
O O15 0.740474 0.349852 0.880943
O O16 0.677344 0.292696 0.096775
O O17 0.267419 0.523434 0.211103
#
# Coordination Sequence:
#
# PCOD9106382 Si02
#       8
#     2   2   2   2   2   2   2   2
#     4  11  21  43  63  93 139 182 234 284 349 413
#     4  11  23  42  71 106 137 174 234 290 352 429
#     4  10  21  40  65  99 133 176 230 283 330 419
#     4  11  23  38  65  98 129 188 233 284 338 420
#     4  11  25  39  63  99 140 177 246 288 335 405
#     4  11  23  42  68  96 135 182 229 282 363 416
#     4  11  23  43  62  97 138 187 231 295 345 412
#     4  10  20  39  69  95 132 180 223 279 351 411
#
# _framework density 27.434266999999998
#
# number of rings (size 3 to 8) (size 9 to 14) (size 15 to 20)
#    0.000    1.250    6.250    1.875    1.750    2.000 
#    0.000    0.000    0.000   19.500    0.000    0.000 
#    0.000    0.000    0.000    0.000    0.000    0.000 
#
# Total GULP energy -89373.487263 kJ/mol
# GULP energy per Si atom -5585.842954 kJ/mol
# Density = 2.737183 g / cm^3
# Si number density = 27.434267 Si / 1000 Ang^3
#
#
#
# Elastic Constant Matrix: (Units=GPa)
#
#
# Indices 1 2 3 4 5 6 
#
# 1 108.9814 57.7458 36.3488 -0.0788 -0.6792 -32.1895
# 2 57.7458 159.3867 63.2687 3.6034 -9.1944 -44.1444
# 3 36.3488 63.2687 156.0238 -12.9392 5.9816 -12.5571
# 4 -0.0788 3.6034 -12.9392 47.8717 0.4785 5.0843
# 5 -0.6792 -9.1944 5.9816 0.4785 28.7828 -1.5102
# 6 -32.1895 -44.1444 -12.5571 5.0843 -1.5102 62.5799
#
#
#
# Elastic Compliance Matrix: (Units=1/GPa)
#
#
# Indices 1 2 3 4 5 6 
#
# 1 0.012345 -0.002708 -0.001491 -0.000624 -0.000034 0.004190
# 2 -0.002708 0.010529 -0.003553 -0.002398 0.004373 0.005622
# 3 -0.001491 -0.003553 0.008392 0.002764 -0.003059 -0.001888
# 4 -0.000624 -0.002398 0.002764 0.022186 -0.001897 -0.003306
# 5 -0.000034 0.004373 -0.003059 -0.001897 0.036990 0.003500
# 6 0.004190 0.005622 -0.001888 -0.003306 0.003500 0.022075
#
#
# Mechanical properties :
#
#
# Convention : Reuss Voigt Hill
#
# Bulk Modulus (GPa) = 63.44241 82.12427 72.78334
# Shear Modulus (GPa) = 37.51661 45.64878 41.58269
#
# Velocity S-wave (km/s) = 3.70200 4.08356 3.89745
# Velocity P-wave (km/s) = 6.43805 7.22730 6.84406
#
# Compressibility (1/GPa) = 0.01576233
#
# Stress axis : x y z
#
# Youngs Moduli (GPa) = 81.00349 94.97701 119.16238
#
# Poissons Ratio (x) = 0.25720 0.17768
# Poissons Ratio (y) = 0.21936 0.42335
# Poissons Ratio (z) = 0.12078 0.33743
#
# Static dielectric constant tensor:
#      x y z
#    x 2.267750 -0.057040 0.042020 
#    y -0.057040 2.126290 -0.052520 
#    z 0.042020 -0.052520 2.200600 
# 
# From -- ./inp_files/112902.got.cif
#   From: 2010.05.17/outbox.cif.g08.bks.cpg/sg2_57_cif.got.tgz:112902.got - 2010.06.03 11:33:40.
