data_PCOD9106426
_publ_section_title
;
Structure prediction by ZEFSAII (Michael W. Deem and Ramdas Pophale) SiO2 
 PCOD9106426
Probable space group: P -1
;
_chemical_formula_sum "Si O2"
_cell_formula_units_Z 15
_cell_length_a 16.821274
_cell_length_b 8.849101
_cell_length_c 7.709844
_cell_angle_alpha 106.056683
_cell_angle_beta 84.373711
_cell_angle_gamma 41.061413
_cell_volume 633.251134
_symmetry_space_group_name_H-M "P -1"
_symmetry_group_IT_number 2
_symmetry_cell_setting 'triclinic'
loop_
_space_group_symop_operation_xyz
x,y,z
-x,-y,-z
loop_
_atom_site_type_symbol
_atom_site_label
_atom_site_fract_x
_atom_site_fract_y
_atom_site_fract_z
Si Si1 0.890613 0.255435 0.230913
Si Si2 0.461546 0.981960 0.182724
Si Si3 0.965327 0.699584 0.305944
Si Si4 0.348600 0.545403 0.816177
Si Si5 0.000000 0.000000 0.500000
Si Si6 0.207874 0.270437 0.502494
Si Si7 0.794531 0.921149 0.058876
Si Si8 0.562174 0.134326 0.379785
O O1 0.748435 0.437272 0.227538
O O2 0.909106 0.162347 0.390275
O O3 0.897613 0.430809 0.305322
O O4 0.000000 0.000000 0.000000
O O5 0.560075 0.676682 0.119722
O O6 0.302836 0.180511 0.297382
O O7 0.493302 0.078189 0.332670
O O8 0.500000 0.000000 0.000000
O O9 0.871198 0.766440 0.494143
O O10 0.870673 0.857956 0.201053
O O11 0.096551 0.377786 0.135372
O O12 0.013686 0.789069 0.390952
O O13 0.446935 0.425072 0.592256
O O14 0.252753 0.850392 0.968849
O O15 0.323456 0.072245 0.563289
O O16 0.650069 0.066032 0.183155
#
# Coordination Sequence:
#
# PCOD9106426 Si02
#       8
#     2   2   2   2   1   2   2   2
#     4  12  25  42  71 106 150 198 247 306 378 447
#     4  11  23  41  71 111 143 194 250 311 371 441
#     4  10  23  43  73 109 148 196 245 314 368 446
#     4  11  20  43  67 104 144 196 242 296 375 443
#     4  12  28  46  72 114 148 194 262 310 374 450
#     4  10  21  44  69 101 147 192 244 301 377 446
#     4  10  21  40  73 109 145 194 250 293 380 454
#     4  10  20  39  70 102 137 190 243 297 366 450
#
# _framework density 23.687286
#
# number of rings (size 3 to 8) (size 9 to 14) (size 15 to 20)
#    0.000    1.333    4.000    2.000    3.733    2.667 
#    0.000    2.000    0.000    0.000    0.000    0.000 
#    0.000    0.000    0.000    0.000    0.000    0.000 
#
# Total GULP energy -83571.313145 kJ/mol
# GULP energy per Si atom -5571.420876 kJ/mol
# Density = 2.363337 g / cm^3
# Si number density = 23.687286 Si / 1000 Ang^3
#
#
#
# Elastic Constant Matrix: (Units=GPa)
#
#
# Indices 1 2 3 4 5 6 
#
# 1 112.1050 45.4581 45.9137 16.4164 8.1582 26.8032
# 2 45.4581 116.4603 41.0263 22.2622 6.2589 15.4233
# 3 45.9137 41.0263 94.1298 12.6605 -5.6748 6.1521
# 4 16.4164 22.2622 12.6605 33.2961 1.2953 9.9612
# 5 8.1582 6.2589 -5.6748 1.2953 26.0273 0.3232
# 6 26.8032 15.4233 6.1521 9.9612 0.3232 36.3860
#
#
#
# Elastic Compliance Matrix: (Units=1/GPa)
#
#
# Indices 1 2 3 4 5 6 
#
# 1 0.014793 -0.002082 -0.005945 -0.000822 -0.005283 -0.008738
# 2 -0.002082 0.011980 -0.003592 -0.005054 -0.002741 -0.001530
# 3 -0.005945 -0.003592 0.015472 -0.001913 0.006149 0.003755
# 4 -0.000822 -0.005054 -0.001913 0.036653 -0.000682 -0.006957
# 5 -0.005283 -0.002741 0.006149 -0.000682 0.042064 0.003827
# 6 -0.008738 -0.001530 0.003755 -0.006957 0.003827 0.035804
#
#
# Mechanical properties :
#
#
# Convention : Reuss Voigt Hill
#
# Bulk Modulus (GPa) = 52.61038 65.27678 58.94358
# Shear Modulus (GPa) = 26.83284 31.82836 29.33060
#
# Velocity S-wave (km/s) = 3.36935 3.66961 3.52268
# Velocity P-wave (km/s) = 6.11517 6.75073 6.44079
#
# Compressibility (1/GPa) = 0.01900766
#
# Stress axis : x y z
#
# Youngs Moduli (GPa) = 67.59887 83.46924 64.63458
#
# Poissons Ratio (x) = 0.17376 0.38427
# Poissons Ratio (y) = 0.14072 0.23215
# Poissons Ratio (z) = 0.40189 0.29981
#
# Static dielectric constant tensor:
#      x y z
#    x 1.934110 -0.033330 -0.085580 
#    y -0.033330 1.933680 0.032530 
#    z -0.085580 0.032530 2.035490 
# 
# From -- ./inp_files/298526.got.cif
#   From: 2010.05.17/outbox.cif.g08.bks.cpg/sg2_150_cif.got.tgz:298526.got - 2010.06.03 11:33:40.
