data_PCOD9106953
_publ_section_title
;
Structure prediction by ZEFSAII (Michael W. Deem and Ramdas Pophale) SiO2 
 PCOD9106953
Probable space group: P -1
;
_chemical_formula_sum "Si O2"
_cell_formula_units_Z 14
_cell_length_a 5.389732
_cell_length_b 10.924843
_cell_length_c 13.524643
_cell_angle_alpha 124.806178
_cell_angle_beta 100.647839
_cell_angle_gamma 80.683113
_cell_volume 641.047610
_symmetry_space_group_name_H-M "P -1"
_symmetry_group_IT_number 2
_symmetry_cell_setting 'triclinic'
loop_
_space_group_symop_operation_xyz
x,y,z
-x,-y,-z
loop_
_atom_site_type_symbol
_atom_site_label
_atom_site_fract_x
_atom_site_fract_y
_atom_site_fract_z
Si Si1 0.225820 0.351329 0.336661
Si Si2 0.080697 0.608692 0.140379
Si Si3 0.599835 0.337772 0.544147
Si Si4 0.715179 0.100021 0.771245
Si Si5 0.466460 0.052427 0.133349
Si Si6 0.913441 0.166042 0.348591
Si Si7 0.389560 0.324038 0.732680
O O1 0.429354 0.347663 0.438327
O O2 0.255579 0.510647 0.363530
O O3 0.297184 0.209887 0.205510
O O4 0.971310 0.315250 0.359441
O O5 0.878244 0.613997 0.216408
O O6 0.084804 0.776857 0.175517
O O7 0.376605 0.575384 0.173879
O O8 0.000000 0.500000 0.000000
O O9 0.803756 0.206139 0.466455
O O10 0.427656 0.309856 0.612334
O O11 0.475081 0.168014 0.722551
O O12 0.654911 0.074968 0.869562
O O13 0.831970 0.939655 0.671433
O O14 0.722491 0.082845 0.225866
O O15 0.500000 0.000000 0.000000
#
# Coordination Sequence:
#
# PCOD9106953 Si02
#       7
#     2   2   2   2   2   2   2
#     4   9  21  38  60  91 123 170 211 275 316 379
#     4  10  22  43  63  91 132 169 214 264 318 382
#     4  10  21  39  62  90 131 162 222 263 324 382
#     4   9  22  38  62  90 127 164 212 263 324 375
#     4  10  21  40  60  91 125 168 217 263 323 385
#     4  10  20  40  62  88 126 169 211 269 325 375
#     4  10  23  40  65  97 125 168 214 260 325 379
#
# _framework density 21.839251999999998
#
# number of rings (size 3 to 8) (size 9 to 14) (size 15 to 20)
#    0.857    1.429    0.000    1.714    2.000    4.000 
#    5.143    7.143    0.000    0.000    0.000    0.000 
#    0.000    0.000    0.000    0.000    0.000    0.000 
#
# Total GULP energy -78072.050670 kJ/mol
# GULP energy per Si atom -5576.575048 kJ/mol
# Density = 2.178955 g / cm^3
# Si number density = 21.839252 Si / 1000 Ang^3
#
#
#
# Elastic Constant Matrix: (Units=GPa)
#
#
# Indices 1 2 3 4 5 6 
#
# 1 82.3650 24.4812 28.0406 -4.7552 -14.7846 23.1163
# 2 24.4812 69.3725 58.9992 -7.6491 -13.0225 17.4224
# 3 28.0406 58.9992 135.3791 -12.8768 -28.6415 16.3877
# 4 -4.7552 -7.6491 -12.8768 24.3853 15.4204 -0.3657
# 5 -14.7846 -13.0225 -28.6415 15.4204 31.3797 -7.4150
# 6 23.1163 17.4224 16.3877 -0.3657 -7.4150 35.0551
#
#
#
# Elastic Compliance Matrix: (Units=1/GPa)
#
#
# Indices 1 2 3 4 5 6 
#
# 1 0.016115 -0.002581 -0.000300 -0.000978 0.004791 -0.008201
# 2 -0.002581 0.025424 -0.010057 0.004349 -0.003625 -0.006954
# 3 -0.000300 -0.010057 0.013482 -0.001819 0.009072 0.000793
# 4 -0.000978 0.004349 -0.001819 0.061426 -0.032112 -0.006818
# 5 0.004791 -0.003625 0.009072 -0.032112 0.058187 0.006374
# 6 -0.008201 -0.006954 0.000793 -0.006818 0.006374 0.038297
#
#
# Mechanical properties :
#
#
# Convention : Reuss Voigt Hill
#
# Bulk Modulus (GPa) = 34.30984 56.68427 45.49706
# Shear Modulus (GPa) = 20.11889 29.87041 24.99465
#
# Velocity S-wave (km/s) = 3.03846 3.70231 3.38669
# Velocity P-wave (km/s) = 5.29660 6.65490 6.01422
#
# Compressibility (1/GPa) = 0.02914616
#
# Stress axis : x y z
#
# Youngs Moduli (GPa) = 62.05246 39.33228 74.17345
#
# Poissons Ratio (x) = 0.10151 0.02224
# Poissons Ratio (y) = 0.16015 0.74596
# Poissons Ratio (z) = 0.01861 0.39556
#
# Static dielectric constant tensor:
#      x y z
#    x 1.888810 0.004040 -0.002400 
#    y 0.004040 1.841240 0.011730 
#    z -0.002400 0.011730 1.756060 
# 
# From -- ./inp_files/83857.got.cif
#   From: 2010.05.17/outbox.cif.g08.bks.cpg/sg2_42_cif.got.tgz:83857.got - 2010.06.03 11:33:40.
