data_PCOD9106373
_publ_section_title
;
Structure prediction by ZEFSAII (Michael W. Deem and Ramdas Pophale) SiO2 
 PCOD9106373
Probable space group: P -1
;
_chemical_formula_sum "Si O2"
_cell_formula_units_Z 14
_cell_length_a 9.921983
_cell_length_b 13.866395
_cell_length_c 7.625409
_cell_angle_alpha 124.575709
_cell_angle_beta 135.562418
_cell_angle_gamma 57.152225
_cell_volume 587.407873
_symmetry_space_group_name_H-M "P -1"
_symmetry_group_IT_number 2
_symmetry_cell_setting 'triclinic'
loop_
_space_group_symop_operation_xyz
x,y,z
-x,-y,-z
loop_
_atom_site_type_symbol
_atom_site_label
_atom_site_fract_x
_atom_site_fract_y
_atom_site_fract_z
Si Si1 0.199362 0.039006 0.863268
Si Si2 0.865055 0.619033 0.084362
Si Si3 0.390787 0.016347 0.633336
Si Si4 0.503193 0.571961 0.899087
Si Si5 0.546416 0.658766 0.546248
Si Si6 0.534881 0.198321 0.736432
Si Si7 0.123163 0.793310 0.448008
O O1 0.145587 0.909901 0.698423
O O2 0.285519 0.034205 0.739614
O O3 0.008690 0.148751 0.785024
O O4 0.377495 0.041195 0.161442
O O5 0.005850 0.707469 0.347954
O O6 0.724265 0.582161 0.062496
O O7 0.709515 0.681162 0.854424
O O8 0.000000 0.500000 0.000000
O O9 0.389914 0.139395 0.658910
O O10 0.326907 0.919673 0.347945
O O11 0.431540 0.484653 0.605383
O O12 0.500000 0.500000 0.000000
O O13 0.386716 0.709417 0.969790
O O14 0.557484 0.719317 0.430092
O O15 0.333918 0.719486 0.495823
#
# Coordination Sequence:
#
# PCOD9106373 Si02
#       7
#     2   2   2   2   2   2   2
#     4  10  22  39  66  99 129 174 230 275 321 394
#     4  12  25  42  74  99 127 176 231 273 327 402
#     4  10  20  39  69  94 131 179 221 276 330 389
#     4  10  23  43  68  96 135 174 213 275 340 394
#     4  11  23  44  68  94 135 176 220 278 330 394
#     4  10  21  37  66  96 132 177 215 267 345 389
#     4  11  23  39  67 100 132 165 230 276 322 392
#
# _framework density 23.833525000000002
#
# number of rings (size 3 to 8) (size 9 to 14) (size 15 to 20)
#    0.000    1.429    2.857    2.143    4.000    0.000 
#    0.000    3.571   18.857    0.000    0.000    0.000 
#    0.000    0.000    0.000    0.000    0.000    0.000 
#
# Total GULP energy -78248.826834 kJ/mol
# GULP energy per Si atom -5589.201917 kJ/mol
# Density = 2.377928 g / cm^3
# Si number density = 23.833525 Si / 1000 Ang^3
#
#
#
# Elastic Constant Matrix: (Units=GPa)
#
#
# Indices 1 2 3 4 5 6 
#
# 1 83.5758 39.4283 33.1317 -5.5662 7.6719 25.2048
# 2 39.4283 110.2954 31.5724 19.0633 6.3321 8.3735
# 3 33.1317 31.5724 100.2804 36.2416 7.3681 -5.6384
# 4 -5.5662 19.0633 36.2416 55.7993 -0.2833 9.4531
# 5 7.6719 6.3321 7.3681 -0.2833 34.5360 0.0680
# 6 25.2048 8.3735 -5.6384 9.4531 0.0680 52.2167
#
#
#
# Elastic Compliance Matrix: (Units=1/GPa)
#
#
# Indices 1 2 3 4 5 6 
#
# 1 0.026877 -0.007326 -0.013374 0.016615 -0.001606 -0.016249
# 2 -0.007326 0.012297 0.000943 -0.006015 -0.000883 0.002756
# 3 -0.013374 0.000943 0.021188 -0.017417 -0.001888 0.011748
# 4 0.016615 -0.006015 -0.017417 0.035559 0.001450 -0.015375
# 5 -0.001606 -0.000883 -0.001888 0.001450 0.029888 0.000411
# 6 -0.016249 0.002756 0.011748 -0.015375 0.000411 0.030604
#
#
# Mechanical properties :
#
#
# Convention : Reuss Voigt Hill
#
# Bulk Modulus (GPa) = 47.96571 55.82404 51.89487
# Shear Modulus (GPa) = 24.64584 41.17834 32.91209
#
# Velocity S-wave (km/s) = 3.21920 4.16113 3.72010
# Velocity P-wave (km/s) = 5.82981 6.82349 6.34613
#
# Compressibility (1/GPa) = 0.02084823
#
# Stress axis : x y z
#
# Youngs Moduli (GPa) = 37.20650 81.32312 47.19709
#
# Poissons Ratio (x) = 0.59574 0.63120
# Poissons Ratio (y) = 0.27256 -0.04449
# Poissons Ratio (z) = 0.49759 -0.07666
#
# Static dielectric constant tensor:
#      x y z
#    x 1.902880 -0.003170 -0.012830 
#    y -0.003170 1.937320 0.032340 
#    z -0.012830 0.032340 1.934110 
# 
# From -- ./inp_files/266076.got.cif
#   From: 2010.05.17/outbox.cif.g08.bks.cpg/sg2_134_cif.got.tgz:266076.got - 2010.06.03 11:33:40.
