data_PCOD9106111
_publ_section_title
;
Structure prediction by ZEFSAII (Michael W. Deem and Ramdas Pophale) SiO2 
 PCOD9106111
Probable space group: P -1
;
_chemical_formula_sum "Si O2"
_cell_formula_units_Z 16
_cell_length_a 10.890211
_cell_length_b 9.589145
_cell_length_c 17.681634
_cell_angle_alpha 46.718595
_cell_angle_beta 40.668553
_cell_angle_gamma 77.502966
_cell_volume 673.110470
_symmetry_space_group_name_H-M "P -1"
_symmetry_group_IT_number 2
_symmetry_cell_setting 'triclinic'
loop_
_space_group_symop_operation_xyz
x,y,z
-x,-y,-z
loop_
_atom_site_type_symbol
_atom_site_label
_atom_site_fract_x
_atom_site_fract_y
_atom_site_fract_z
Si Si1 0.078885 0.607343 0.690048
Si Si2 0.013746 0.713666 0.005531
Si Si3 0.712112 0.356166 0.696517
Si Si4 0.356708 0.619031 0.816966
Si Si5 0.239583 0.186385 0.548218
Si Si6 0.229521 0.271896 0.137995
Si Si7 0.584587 0.769085 0.380708
Si Si8 0.396482 0.789963 0.023346
O O1 0.946113 0.724676 0.724291
O O2 0.876832 0.372084 0.820176
O O3 0.354791 0.761085 0.474487
O O4 0.085823 0.493300 0.807382
O O5 0.209150 0.714954 0.866710
O O6 0.169806 0.990027 0.862829
O O7 0.798714 0.609348 0.085377
O O8 0.689066 0.547976 0.598742
O O9 0.634535 0.299992 0.841892
O O10 0.000000 0.500000 0.500000
O O11 0.542465 0.083021 0.841187
O O12 0.606712 0.829297 0.580438
O O13 0.366014 0.512730 0.930568
O O14 0.325867 0.181522 0.592166
O O15 0.956567 0.967750 0.740617
O O16 0.431267 0.256489 0.080453
O O17 0.500000 0.500000 0.500000
#
# Coordination Sequence:
#
# PCOD9106111 Si02
#       8
#     2   2   2   2   2   2   2   2
#     4  11  26  43  65  96 136 168 210 268 327 383
#     4  10  22  41  63  94 129 167 206 260 324 380
#     4  11  25  43  67  95 126 175 219 264 311 376
#     4  10  20  39  67  94 124 160 217 267 312 379
#     4  12  23  41  69  94 127 167 221 265 320 377
#     4  11  22  43  69  96 124 171 219 270 320 375
#     4  12  28  41  63  98 135 172 210 262 327 392
#     4  11  25  44  67  94 132 172 221 261 318 385
#
# _framework density 23.770243000000001
#
# number of rings (size 3 to 8) (size 9 to 14) (size 15 to 20)
#    0.000    1.000    5.000    1.125    3.500    2.500 
#    0.000    0.625    0.000    0.000    0.000    0.000 
#    0.000    0.000    0.000    0.000    0.000    0.000 
#
# Total GULP energy -89469.740367 kJ/mol
# GULP energy per Si atom -5591.858773 kJ/mol
# Density = 2.371614 g / cm^3
# Si number density = 23.770243 Si / 1000 Ang^3
#
#
#
# Elastic Constant Matrix: (Units=GPa)
#
#
# Indices 1 2 3 4 5 6 
#
# 1 71.5042 6.7682 12.2963 -3.3658 -19.3876 -1.5889
# 2 6.7682 59.8202 12.9306 -6.1968 -4.4603 -5.4607
# 3 12.2963 12.9306 82.2914 -8.2826 -20.4931 4.9218
# 4 -3.3658 -6.1968 -8.2826 39.1387 -1.3970 -9.3100
# 5 -19.3876 -4.4603 -20.4931 -1.3970 44.7574 -8.2496
# 6 -1.5889 -5.4607 4.9218 -9.3100 -8.2496 24.2420
#
#
#
# Elastic Compliance Matrix: (Units=1/GPa)
#
#
# Indices 1 2 3 4 5 6 
#
# 1 0.016463 -0.000472 -0.000451 0.002655 0.007836 0.004751
# 2 -0.000472 0.018469 -0.002344 0.004084 0.001951 0.006837
# 3 -0.000451 -0.002344 0.014434 0.002795 0.006212 -0.000301
# 4 0.002655 0.004084 0.002795 0.030701 0.006471 0.014519
# 5 0.007836 0.001951 0.006212 0.006471 0.031345 0.012844
# 6 0.004751 0.006837 -0.000301 0.014519 0.012844 0.053110
#
#
# Mechanical properties :
#
#
# Convention : Reuss Voigt Hill
#
# Bulk Modulus (GPa) = 23.34715 30.84510 27.09613
# Shear Modulus (GPa) = 26.97839 33.73566 30.35702
#
# Velocity S-wave (km/s) = 3.37258 3.77137 3.57753
# Velocity P-wave (km/s) = 5.00090 5.65410 5.33750
#
# Compressibility (1/GPa) = 0.04283178
#
# Stress axis : x y z
#
# Youngs Moduli (GPa) = 60.74351 54.14356 69.28189
#
# Poissons Ratio (x) = 0.02556 0.03126
# Poissons Ratio (y) = 0.02868 0.16238
# Poissons Ratio (z) = 0.02741 0.12690
#
# Static dielectric constant tensor:
#      x y z
#    x 1.861940 0.022820 0.007610 
#    y 0.022820 1.993510 0.014280 
#    z 0.007610 0.014280 2.011910 
# 
# From -- ./inp_files/81399.got.cif
#   From: 2010.05.17/outbox.cif.g08.bks.cpg/sg2_41_cif.got.tgz:81399.got - 2010.06.03 11:33:40.
