data_PCOD9106341
_publ_section_title
;
Structure prediction by ZEFSAII (Michael W. Deem and Ramdas Pophale) SiO2 
 PCOD9106341
Probable space group: P -1
;
_chemical_formula_sum "Si O2"
_cell_formula_units_Z 16
_cell_length_a 8.124525
_cell_length_b 8.895844
_cell_length_c 12.177955
_cell_angle_alpha 130.463205
_cell_angle_beta 91.376811
_cell_angle_gamma 92.234304
_cell_volume 667.723493
_symmetry_space_group_name_H-M "P -1"
_symmetry_group_IT_number 2
_symmetry_cell_setting 'triclinic'
loop_
_space_group_symop_operation_xyz
x,y,z
-x,-y,-z
loop_
_atom_site_type_symbol
_atom_site_label
_atom_site_fract_x
_atom_site_fract_y
_atom_site_fract_z
Si Si1 0.654955 0.028681 0.869732
Si Si2 0.166824 0.634420 0.085733
Si Si3 0.913193 0.437997 0.356453
Si Si4 0.346265 0.262592 0.895014
Si Si5 0.086275 0.746479 0.375173
Si Si6 0.386889 0.320073 0.472069
Si Si7 0.282026 0.111924 0.581996
Si Si8 0.838806 0.001397 0.072359
O O1 0.798152 0.198492 0.924729
O O2 0.494468 0.142906 0.888612
O O3 0.661001 0.836007 0.700539
O O4 0.687754 0.976881 0.971459
O O5 0.146190 0.745882 0.251905
O O6 0.319801 0.493115 0.025096
O O7 0.000000 0.500000 0.000000
O O8 0.748760 0.551531 0.413672
O O9 0.857180 0.212404 0.231687
O O10 0.000000 0.500000 0.500000
O O11 0.046361 0.522302 0.308721
O O12 0.338152 0.224843 0.746779
O O13 0.189832 0.156847 0.907027
O O14 0.904901 0.828421 0.421296
O O15 0.230274 0.880693 0.501203
O O16 0.500000 0.500000 0.500000
O O17 0.402563 0.169799 0.508087
O O18 0.000000 0.000000 0.000000
#
# Coordination Sequence:
#
# PCOD9106341 Si02
#       8
#     2   2   2   2   2   2   2   2
#     4  12  27  48  67 106 149 189 240 299 369 435
#     4  12  23  44  73 103 138 187 241 294 357 434
#     4  11  23  42  71 106 137 182 244 297 355 420
#     4  12  26  45  68 106 146 191 238 301 364 430
#     4  10  20  39  69 102 134 181 241 302 341 416
#     4  11  25  47  71  99 143 193 237 293 360 436
#     4  10  22  42  71 100 138 184 241 298 357 415
#     4  12  26  46  75 106 146 193 241 296 363 436
#
# _framework density 23.962015000000001
#
# number of rings (size 3 to 8) (size 9 to 14) (size 15 to 20)
#    0.000    0.750    2.500    5.250    1.750    0.500 
#    4.500    0.000    0.000    0.000    0.000    0.000 
#    0.000    0.000    0.000    0.000    0.000    0.000 
#
# Total GULP energy -89290.509560 kJ/mol
# GULP energy per Si atom -5580.656848 kJ/mol
# Density = 2.390748 g / cm^3
# Si number density = 23.962015 Si / 1000 Ang^3
#
#
#
# Elastic Constant Matrix: (Units=GPa)
#
#
# Indices 1 2 3 4 5 6 
#
# 1 83.9283 6.2922 14.5071 -0.9280 -2.0038 8.5464
# 2 6.2922 136.0384 34.5494 0.0547 3.1732 30.8746
# 3 14.5071 34.5494 96.9531 11.4927 -1.1021 14.3774
# 4 -0.9280 0.0547 11.4927 45.5433 -3.3610 -7.3606
# 5 -2.0038 3.1732 -1.1021 -3.3610 23.6217 0.0932
# 6 8.5464 30.8746 14.3774 -7.3606 0.0932 23.9318
#
#
#
# Elastic Compliance Matrix: (Units=1/GPa)
#
#
# Indices 1 2 3 4 5 6 
#
# 1 0.012608 0.000843 -0.001466 -0.000073 0.000896 -0.004735
# 2 0.000843 0.010974 -0.001750 -0.001943 -0.001705 -0.013998
# 3 -0.001466 -0.001750 0.012547 -0.004160 0.000128 -0.006037
# 4 -0.000073 -0.001943 -0.004160 0.025345 0.003616 0.012813
# 5 0.000896 -0.001705 0.000128 0.003616 0.043149 0.002747
# 6 -0.004735 -0.013998 -0.006037 0.012813 0.002747 0.069092
#
#
# Mechanical properties :
#
#
# Convention : Reuss Voigt Hill
#
# Bulk Modulus (GPa) = 31.86438 47.51300 39.68869
# Shear Modulus (GPa) = 26.46605 36.05743 31.26174
#
# Velocity S-wave (km/s) = 3.32701 3.88335 3.61589
# Velocity P-wave (km/s) = 5.29956 6.32287 5.83370
#
# Compressibility (1/GPa) = 0.03138300
#
# Stress axis : x y z
#
# Youngs Moduli (GPa) = 79.31539 91.12649 79.70039
#
# Poissons Ratio (x) = -0.07682 0.11682
# Poissons Ratio (y) = -0.06686 0.13948
# Poissons Ratio (z) = 0.11626 0.15947
#
# Static dielectric constant tensor:
#      x y z
#    x 1.924180 -0.098680 0.349730 
#    y -0.098680 1.849190 0.678570 
#    z 0.349730 0.678570 -0.138990 
# 
# From -- ./inp_files/383557.got.cif
#   From: 2010.05.17/outbox.cif.g08.bks.cpg/sg2_192_cif.got.tgz:383557.got - 2010.06.03 11:33:40.
