data_PCOD9106012
_publ_section_title
;
Structure prediction by ZEFSAII (Michael W. Deem and Ramdas Pophale) SiO2 
 PCOD9106012
Probable space group: P -1
;
_chemical_formula_sum "Si O2"
_cell_formula_units_Z 12
_cell_length_a 7.501102
_cell_length_b 8.411945
_cell_length_c 12.459810
_cell_angle_alpha 99.364658
_cell_angle_beta 88.196608
_cell_angle_gamma 145.649044
_cell_volume 430.172642
_symmetry_space_group_name_H-M "P -1"
_symmetry_group_IT_number 2
_symmetry_cell_setting 'triclinic'
loop_
_space_group_symop_operation_xyz
x,y,z
-x,-y,-z
loop_
_atom_site_type_symbol
_atom_site_label
_atom_site_fract_x
_atom_site_fract_y
_atom_site_fract_z
Si Si1 0.445229 0.239725 0.904485
Si Si2 0.547847 0.854249 0.437567
Si Si3 0.423048 0.632411 0.639891
Si Si4 0.901515 0.263290 0.301363
Si Si5 0.945881 0.812854 0.226586
Si Si6 0.833587 0.164246 0.978628
O O1 0.329107 0.308096 0.849666
O O2 0.268775 0.961207 0.814214
O O3 0.830099 0.525039 0.941234
O O4 0.272355 0.093212 0.007527
O O5 0.514439 0.708592 0.521505
O O6 0.269676 0.594946 0.330578
O O7 0.500000 0.000000 0.500000
O O8 0.861053 0.116517 0.389927
O O9 0.289885 0.713305 0.674230
O O10 0.163984 0.325290 0.668710
O O11 0.745617 0.844650 0.723522
O O12 0.080620 0.773629 0.142214
O O13 0.500000 0.000000 0.000000
#
# Coordination Sequence:
#
# PCOD9106012 Si02
#       6
#     2   2   2   2   2   2
#     4  12  26  46  68 102 142 178 223 287 352 408
#     4  10  20  39  67 100 135 178 231 284 332 393
#     4  11  22  41  67  98 133 181 233 278 332 411
#     4  11  22  40  67  99 135 181 230 284 335 397
#     4  12  25  44  68 100 140 183 223 280 350 411
#     4  12  26  46  72 101 132 181 236 285 336 410
#
# _framework density 27.895778
#
# number of rings (size 3 to 8) (size 9 to 14) (size 15 to 20)
#    0.000    0.667    0.000   10.500    0.000    2.667 
#    0.000    5.000    0.000    0.000    0.000    0.000 
#    0.000    0.000    0.000    0.000    0.000    0.000 
#
# Total GULP energy -67179.481232 kJ/mol
# GULP energy per Si atom -5598.290103 kJ/mol
# Density = 2.783229 g / cm^3
# Si number density = 27.895778 Si / 1000 Ang^3
#
#
#
# Elastic Constant Matrix: (Units=GPa)
#
#
# Indices 1 2 3 4 5 6 
#
# 1 103.7658 19.0683 3.4357 9.3920 7.7965 11.2438
# 2 19.0683 196.5390 42.9288 7.9117 7.8775 14.1517
# 3 3.4357 42.9288 92.6413 4.7989 17.5954 6.8548
# 4 9.3920 7.9117 4.7989 73.2287 -0.4934 14.7251
# 5 7.7965 7.8775 17.5954 -0.4934 35.1001 1.4043
# 6 11.2438 14.1517 6.8548 14.7251 1.4043 37.0663
#
#
#
# Elastic Compliance Matrix: (Units=1/GPa)
#
#
# Indices 1 2 3 4 5 6 
#
# 1 0.010290 -0.000839 0.000681 -0.000781 -0.002348 -0.002527
# 2 -0.000839 0.005838 -0.002608 -0.000053 0.000242 -0.001480
# 3 0.000681 -0.002608 0.013266 -0.000466 -0.006173 -0.001245
# 4 -0.000781 -0.000053 -0.000466 0.014928 0.000854 -0.005619
# 5 -0.002348 0.000242 -0.006173 0.000854 0.032055 0.000208
# 6 -0.002527 -0.001480 -0.001245 -0.005619 0.000208 0.030765
#
#
# Mechanical properties :
#
#
# Convention : Reuss Voigt Hill
#
# Bulk Modulus (GPa) = 41.90889 58.20129 50.05509
# Shear Modulus (GPa) = 41.44922 50.91323 46.18122
#
# Velocity S-wave (km/s) = 3.85887 4.27678 4.07319
# Velocity P-wave (km/s) = 5.90851 6.73030 6.33275
#
# Compressibility (1/GPa) = 0.02386128
#
# Stress axis : x y z
#
# Youngs Moduli (GPa) = 97.18325 171.28772 75.37935
#
# Poissons Ratio (x) = 0.14379 -0.05133
# Poissons Ratio (y) = 0.08158 0.19658
# Poissons Ratio (z) = -0.06617 0.44670
#
# Static dielectric constant tensor:
#      x y z
#    x 2.266630 -0.065890 -0.015480 
#    y -0.065890 2.077790 -0.083590 
#    z -0.015480 -0.083590 2.281370 
# 
# From -- ./inp_files/492981.got.cif
#   From: 2010.05.17/outbox.cif.g08.bks.cpg/sg2_247_cif.got.tgz:492981.got - 2010.06.03 11:33:40.
