data_PCOD9106874
_publ_section_title
;
Structure prediction by ZEFSAII (Michael W. Deem and Ramdas Pophale) SiO2 
 PCOD9106874
Probable space group: P -1
;
_chemical_formula_sum "Si O2"
_cell_formula_units_Z 14
_cell_length_a 11.922651
_cell_length_b 5.090306
_cell_length_c 13.552907
_cell_angle_alpha 80.657304
_cell_angle_beta 139.566157
_cell_angle_gamma 91.023463
_cell_volume 519.158487
_symmetry_space_group_name_H-M "P -1"
_symmetry_group_IT_number 2
_symmetry_cell_setting 'triclinic'
loop_
_space_group_symop_operation_xyz
x,y,z
-x,-y,-z
loop_
_atom_site_type_symbol
_atom_site_label
_atom_site_fract_x
_atom_site_fract_y
_atom_site_fract_z
Si Si1 0.440078 0.290761 0.394086
Si Si2 0.406074 0.771890 0.996478
Si Si3 0.476062 0.294499 0.707462
Si Si4 0.161056 0.618707 0.690645
Si Si5 0.080272 0.175626 0.809242
Si Si6 0.174235 0.126881 0.088057
Si Si7 0.171759 0.948257 0.485403
O O1 0.500000 0.500000 0.500000
O O2 0.536389 0.401439 0.358611
O O3 0.244465 0.292120 0.215916
O O4 0.500000 0.000000 0.500000
O O5 0.341511 0.625687 0.868484
O O6 0.218019 0.902751 0.909806
O O7 0.513510 0.681080 0.170607
O O8 0.500000 0.000000 0.000000
O O9 0.657479 0.110057 0.802517
O O10 0.323512 0.131111 0.583909
O O11 0.116529 0.346509 0.726295
O O12 0.182905 0.704511 0.587187
O O13 0.999821 0.841500 0.605782
O O14 0.883819 0.126949 0.658311
O O15 0.127452 0.283024 0.941974
O O16 0.000000 0.000000 0.000000
#
# Coordination Sequence:
#
# PCOD9106874 Si02
#       7
#     2   2   2   2   2   2   2
#     4  12  27  53  79 110 145 195 256 319 380 443
#     4  10  20  40  64  99 141 188 236 299 359 446
#     4  11  24  46  72 106 150 190 252 303 378 442
#     4  10  20  40  62 100 144 190 239 293 362 440
#     4  10  23  41  66 102 143 190 245 296 374 434
#     4  11  27  48  74 107 145 196 251 315 383 445
#     4  10  22  39  68 100 145 192 236 301 364 445
#
# _framework density 26.966716999999999
#
# number of rings (size 3 to 8) (size 9 to 14) (size 15 to 20)
#    0.000    1.429    2.857    1.286    2.000    3.429 
#    2.571    0.000    0.000    0.000    0.000    0.000 
#    0.000    0.000    0.000    0.000    0.000    0.000 
#
# Total GULP energy -78229.897973 kJ/mol
# GULP energy per Si atom -5587.849855 kJ/mol
# Density = 2.690534 g / cm^3
# Si number density = 26.966717 Si / 1000 Ang^3
#
#
#
# Elastic Constant Matrix: (Units=GPa)
#
#
# Indices 1 2 3 4 5 6 
#
# 1 80.1441 27.5475 57.9543 11.3264 -4.4212 22.0709
# 2 27.5475 154.3137 99.0464 10.4579 -20.0175 32.7909
# 3 57.9543 99.0464 282.1778 36.5427 2.4522 29.7806
# 4 11.3264 10.4579 36.5427 65.0100 3.0557 -2.4983
# 5 -4.4212 -20.0175 2.4522 3.0557 54.1596 -7.4392
# 6 22.0709 32.7909 29.7806 -2.4983 -7.4392 49.3948
#
#
#
# Elastic Compliance Matrix: (Units=1/GPa)
#
#
# Indices 1 2 3 4 5 6 
#
# 1 0.016129 0.000213 -0.002572 -0.001658 0.000815 -0.005759
# 2 0.000213 0.009696 -0.002996 -0.000225 0.003164 -0.004261
# 3 -0.002572 -0.002996 0.005458 -0.002086 -0.001514 -0.000486
# 4 -0.001658 -0.000225 -0.002086 0.017024 -0.000686 0.002906
# 5 0.000815 0.003164 -0.001514 -0.000686 0.020003 0.001426
# 6 -0.005759 -0.004261 -0.000486 0.002906 0.001426 0.026302
#
#
# Mechanical properties :
#
#
# Convention : Reuss Voigt Hill
#
# Bulk Modulus (GPa) = 48.60330 98.41469 73.50899
# Shear Modulus (GPa) = 44.57119 55.85203 50.21161
#
# Velocity S-wave (km/s) = 4.06990 4.55592 4.31975
# Velocity P-wave (km/s) = 6.33625 8.01557 7.22487
#
# Compressibility (1/GPa) = 0.02057473
#
# Stress axis : x y z
#
# Youngs Moduli (GPa) = 61.99832 103.13213 183.20810
#
# Poissons Ratio (x) = -0.02201 0.47123
# Poissons Ratio (y) = -0.01323 0.54888
# Poissons Ratio (z) = 0.15947 0.30898
#
# Static dielectric constant tensor:
#      x y z
#    x 2.287990 -0.109020 -0.003610 
#    y -0.109020 2.140930 -0.019580 
#    z -0.003610 -0.019580 2.019290 
# 
# From -- ./inp_files/525650.got.cif
#   From: 2010.05.17/outbox.cif.g08.bks.cpg/sg2_263_cif.got.tgz:525650.got - 2010.06.03 11:33:40.
