data_PCOD9106389
_publ_section_title
;
Structure prediction by ZEFSAII (Michael W. Deem and Ramdas Pophale) SiO2 
 PCOD9106389
Probable space group: P -1
;
_chemical_formula_sum "Si O2"
_cell_formula_units_Z 16
_cell_length_a 13.413220
_cell_length_b 9.123910
_cell_length_c 13.036724
_cell_angle_alpha 92.321621
_cell_angle_beta 101.877167
_cell_angle_gamma 149.958434
_cell_volume 699.442253
_symmetry_space_group_name_H-M "P -1"
_symmetry_group_IT_number 2
_symmetry_cell_setting 'triclinic'
loop_
_space_group_symop_operation_xyz
x,y,z
-x,-y,-z
loop_
_atom_site_type_symbol
_atom_site_label
_atom_site_fract_x
_atom_site_fract_y
_atom_site_fract_z
Si Si1 0.907239 0.238763 0.531428
Si Si2 0.834025 0.743426 0.050275
Si Si3 0.737089 0.531050 0.344557
Si Si4 0.387155 0.109044 0.825715
Si Si5 0.945278 0.063712 0.285670
Si Si6 0.598873 0.401844 0.678378
Si Si7 0.288869 0.686387 0.872387
Si Si8 0.366307 0.242456 0.372362
O O1 0.000000 0.500000 0.500000
O O2 0.097757 0.361219 0.552021
O O3 0.647390 0.911462 0.431731
O O4 0.852884 0.119862 0.635870
O O5 0.863381 0.615695 0.097575
O O6 0.880276 0.914976 0.156415
O O7 0.566754 0.405956 0.952695
O O8 0.000000 0.000000 0.000000
O O9 0.657967 0.340901 0.219859
O O10 0.529235 0.334298 0.356553
O O11 0.886746 0.861035 0.347094
O O12 0.558159 0.277628 0.776548
O O13 0.219279 0.011413 0.738155
O O14 0.234128 0.779360 0.824130
O O15 0.212360 0.436349 0.343783
O O16 0.678250 0.675357 0.709395
O O17 0.500000 0.000000 0.000000
O O18 0.500000 0.500000 0.500000
#
# Coordination Sequence:
#
# PCOD9106389 Si02
#       8
#     2   2   2   2   2   2   2   2
#     4  11  25  43  66  97 138 175 222 283 342 404
#     4  10  20  39  69  96 135 174 228 275 330 404
#     4  11  22  43  72  96 133 183 224 281 344 398
#     4  11  21  41  67  96 137 172 220 284 337 396
#     4  11  22  38  69 100 126 181 227 277 339 400
#     4  11  22  40  66  98 129 172 230 279 328 407
#     4   9  22  42  68  98 139 175 217 280 338 397
#     4  10  23  42  68 100 127 173 231 278 327 406
#
# _framework density 22.875368000000002
#
# number of rings (size 3 to 8) (size 9 to 14) (size 15 to 20)
#    0.000    1.500    3.750    1.125    0.000    4.500 
#    0.000    4.375    2.750    0.000    0.000    0.000 
#    0.000    0.000    0.000    0.000    0.000    0.000 
#
# Total GULP energy -89233.528671 kJ/mol
# GULP energy per Si atom -5577.095542 kJ/mol
# Density = 2.282330 g / cm^3
# Si number density = 22.875368 Si / 1000 Ang^3
#
#
#
# Elastic Constant Matrix: (Units=GPa)
#
#
# Indices 1 2 3 4 5 6 
#
# 1 96.0968 56.5272 22.3606 -5.6834 18.9331 6.4289
# 2 56.5272 170.3680 28.0158 -9.1805 8.3192 -13.3543
# 3 22.3606 28.0158 65.0268 7.3303 -1.7620 -5.2423
# 4 -5.6834 -9.1805 7.3303 44.7282 -5.6721 7.2253
# 5 18.9331 8.3192 -1.7620 -5.6721 41.3447 -8.4351
# 6 6.4289 -13.3543 -5.2423 7.2253 -8.4351 46.3421
#
#
#
# Elastic Compliance Matrix: (Units=1/GPa)
#
#
# Indices 1 2 3 4 5 6 
#
# 1 0.016125 -0.004604 -0.004430 0.001795 -0.007568 -0.005722
# 2 -0.004604 0.007888 -0.001674 0.001006 0.001154 0.002776
# 3 -0.004430 -0.001674 0.018449 -0.004070 0.003298 0.003454
# 4 0.001795 0.001006 -0.004070 0.024267 0.001323 -0.003962
# 5 -0.007568 0.001154 0.003298 0.001323 0.029141 0.006853
# 6 -0.005722 0.002776 0.003454 -0.003962 0.006853 0.025428
#
#
# Mechanical properties :
#
#
# Convention : Reuss Voigt Hill
#
# Bulk Modulus (GPa) = 47.51266 60.58876 54.05071
# Shear Modulus (GPa) = 33.39371 41.45553 37.42462
#
# Velocity S-wave (km/s) = 3.82489 4.26165 4.04917
# Velocity P-wave (km/s) = 6.34994 7.12457 6.74838
#
# Compressibility (1/GPa) = 0.02104702
#
# Stress axis : x y z
#
# Youngs Moduli (GPa) = 62.01459 126.77658 54.20271
#
# Poissons Ratio (x) = 0.58369 0.24012
# Poissons Ratio (y) = 0.28552 0.09071
# Poissons Ratio (z) = 0.27473 0.21217
#
# Static dielectric constant tensor:
#      x y z
#    x 1.842300 -0.029150 -0.001030 
#    y -0.029150 1.881230 -0.076340 
#    z -0.001030 -0.076340 1.585460 
# 
# From -- ./inp_files/515664.got.cif
#   From: 2010.05.17/outbox.cif.g08.bks.cpg/sg2_258_cif.got.tgz:515664.got - 2010.06.03 11:33:40.
