data_PCOD9106174
_publ_section_title
;
Structure prediction by ZEFSAII (Michael W. Deem and Ramdas Pophale) SiO2 
 PCOD9106174
Probable space group: P -1
;
_chemical_formula_sum "Si O2"
_cell_formula_units_Z 16
_cell_length_a 9.016302
_cell_length_b 5.384321
_cell_length_c 14.815963
_cell_angle_alpha 98.082744
_cell_angle_beta 70.254975
_cell_angle_gamma 96.014797
_cell_volume 668.983915
_symmetry_space_group_name_H-M "P -1"
_symmetry_group_IT_number 2
_symmetry_cell_setting 'triclinic'
loop_
_space_group_symop_operation_xyz
x,y,z
-x,-y,-z
loop_
_atom_site_type_symbol
_atom_site_label
_atom_site_fract_x
_atom_site_fract_y
_atom_site_fract_z
Si Si1 0.034223 0.088191 0.184833
Si Si2 0.592596 0.377117 0.193244
Si Si3 0.812601 0.028090 0.557756
Si Si4 0.857058 0.316118 0.985039
Si Si5 0.676487 0.954728 0.760705
Si Si6 0.169522 0.498028 0.516612
Si Si7 0.619896 0.407034 0.898742
Si Si8 0.851612 0.580547 0.270151
O O1 0.092856 0.955483 0.074149
O O2 0.940671 0.844610 0.237991
O O3 0.176944 0.174667 0.228128
O O4 0.927387 0.322460 0.209180
O O5 0.489415 0.154942 0.251196
O O6 0.446902 0.487321 0.174414
O O7 0.683809 0.562236 0.252865
O O8 0.719200 0.297813 0.087892
O O9 0.768173 0.114426 0.671289
O O10 0.745847 0.739790 0.551488
O O11 0.754904 0.227408 0.508769
O O12 0.000000 0.000000 0.500000
O O13 0.786264 0.449132 0.917191
O O14 0.000000 0.500000 0.000000
O O15 0.615903 0.112129 0.865772
O O16 0.153071 0.447787 0.622944
O O17 0.000000 0.500000 0.500000
O O18 0.500000 0.500000 0.000000
#
# Coordination Sequence:
#
# PCOD9106174 Si02
#       8
#     2   2   2   2   2   2   2   2
#     4  11  25  42  72 103 142 184 247 288 353 416
#     4  11  26  43  68  99 149 190 234 292 358 431
#     4  10  21  40  68  99 133 173 234 295 352 415
#     4  10  21  45  68 107 141 191 239 300 342 421
#     4  11  25  42  71 104 136 193 236 296 358 428
#     4  10  20  39  67  97 134 171 228 296 353 406
#     4   9  23  43  68  98 147 185 234 276 360 419
#     4  12  25  45  71 108 139 188 240 300 353 425
#
# _framework density 23.916868000000001
#
# number of rings (size 3 to 8) (size 9 to 14) (size 15 to 20)
#    0.000    1.500    1.250    3.750    7.000    5.000 
#    2.250    1.250    0.000    0.000    0.000    0.000 
#    0.000    0.000    0.000    0.000    0.000    0.000 
#
# Total GULP energy -89218.813303 kJ/mol
# GULP energy per Si atom -5576.175831 kJ/mol
# Density = 2.386243 g / cm^3
# Si number density = 23.916868 Si / 1000 Ang^3
#
#
#
# Elastic Constant Matrix: (Units=GPa)
#
#
# Indices 1 2 3 4 5 6 
#
# 1 118.3564 44.0775 40.6927 -1.0694 18.4918 28.8029
# 2 44.0775 101.2611 12.9847 3.0472 -3.7321 -2.9441
# 3 40.6927 12.9847 100.3397 -6.7992 6.2490 5.3352
# 4 -1.0694 3.0472 -6.7992 34.1036 -5.3249 -2.9613
# 5 18.4918 -3.7321 6.2490 -5.3249 36.7228 1.8247
# 6 28.8029 -2.9441 5.3352 -2.9613 1.8247 39.3368
#
#
#
# Elastic Compliance Matrix: (Units=1/GPa)
#
#
# Indices 1 2 3 4 5 6 
#
# 1 0.017183 -0.007436 -0.004986 -0.002144 -0.008262 -0.012240
# 2 -0.007436 0.013379 0.000664 -0.000032 0.004681 0.006136
# 3 -0.004986 0.000664 0.011901 0.002476 0.000801 0.002236
# 4 -0.002144 -0.000032 0.002476 0.030814 0.004958 0.003321
# 5 -0.008262 0.004681 0.000801 0.004958 0.032193 0.005171
# 6 -0.012240 0.006136 0.002236 0.003321 0.005171 0.034550
#
#
# Mechanical properties :
#
#
# Convention : Reuss Voigt Hill
#
# Bulk Modulus (GPa) = 52.77723 57.27413 55.02568
# Shear Modulus (GPa) = 29.43749 36.84612 33.14180
#
# Velocity S-wave (km/s) = 3.51212 3.92929 3.72655
# Velocity P-wave (km/s) = 6.20979 6.67720 6.44773
#
# Compressibility (1/GPa) = 0.01894757
#
# Stress axis : x y z
#
# Youngs Moduli (GPa) = 58.19789 74.74430 84.02424
#
# Poissons Ratio (x) = 0.55579 0.41895
# Poissons Ratio (y) = 0.43275 -0.05582
# Poissons Ratio (z) = 0.29018 -0.04965
#
# Static dielectric constant tensor:
#      x y z
#    x 1.980590 0.176560 0.106120 
#    y 0.176560 2.569720 0.155540 
#    z 0.106120 0.155540 2.046220 
# 
# From -- ./inp_files/38142.got.cif
#   From: 2010.05.17/outbox.cif.g08.bks.cpg/sg2_20_cif.got.tgz:38142.got - 2010.06.03 11:33:40.
