data_PCOD9106005
_publ_section_title
;
Structure prediction by ZEFSAII (Michael W. Deem and Ramdas Pophale) SiO2 
 PCOD9106005
Probable space group: P -1
;
_chemical_formula_sum "Si O2"
_cell_formula_units_Z 12
_cell_length_a 5.183341
_cell_length_b 8.008327
_cell_length_c 11.493296
_cell_angle_alpha 104.448049
_cell_angle_beta 115.107540
_cell_angle_gamma 87.466305
_cell_volume 417.308916
_symmetry_space_group_name_H-M "P -1"
_symmetry_group_IT_number 2
_symmetry_cell_setting 'triclinic'
loop_
_space_group_symop_operation_xyz
x,y,z
-x,-y,-z
loop_
_atom_site_type_symbol
_atom_site_label
_atom_site_fract_x
_atom_site_fract_y
_atom_site_fract_z
Si Si1 0.367311 0.614737 0.653638
Si Si2 0.949602 0.978545 0.152608
Si Si3 0.135185 0.425335 0.782143
Si Si4 0.056009 0.292009 0.075740
Si Si5 0.549238 0.257413 0.551208
Si Si6 0.401843 0.093705 0.710605
O O1 0.141539 0.569939 0.704904
O O2 0.658356 0.658226 0.787708
O O3 0.373517 0.426944 0.561170
O O4 0.362809 0.747488 0.568120
O O5 0.813030 0.002152 0.256064
O O6 0.288492 0.971990 0.222148
O O7 0.855941 0.795767 0.042517
O O8 0.881672 0.132144 0.080177
O O9 0.382069 0.295857 0.783797
O O10 0.122744 0.540569 0.914914
O O11 0.846948 0.303070 0.684061
O O12 0.368174 0.112830 0.567794
#
# Coordination Sequence:
#
# PCOD9106005 Si02
#       6
#     2   2   2   2   2   2
#     4   9  19  36  66  94 128 162 218 256 312 380
#     4  11  26  44  66  88 138 167 212 258 322 379
#     4  10  20  39  67 100 124 164 218 258 319 369
#     4  10  25  42  63  96 122 179 211 260 311 385
#     4   9  18  39  62  98 127 165 204 269 316 371
#     4  11  23  43  67  95 127 172 204 269 321 366
#
# _framework density 28.755676000000001
#
# number of rings (size 3 to 8) (size 9 to 14) (size 15 to 20)
#    0.000    2.000    1.667    0.500    4.667    4.000 
#    0.000    1.667    0.000    0.000    0.000    0.000 
#    0.000    0.000    0.000    0.000    0.000    0.000 
#
# Total GULP energy -67174.935192 kJ/mol
# GULP energy per Si atom -5597.911266 kJ/mol
# Density = 2.869023 g / cm^3
# Si number density = 28.755676 Si / 1000 Ang^3
#
#
#
# Elastic Constant Matrix: (Units=GPa)
#
#
# Indices 1 2 3 4 5 6 
#
# 1 152.7220 19.9956 43.5527 -1.8144 -43.2254 2.9237
# 2 19.9956 109.0747 6.6504 -11.9128 -20.8189 16.6030
# 3 43.5527 6.6504 92.1056 16.5418 -38.0850 -5.2083
# 4 -1.8144 -11.9128 16.5418 40.1842 2.0786 -23.3621
# 5 -43.2254 -20.8189 -38.0850 2.0786 62.2589 -0.3228
# 6 2.9237 16.6030 -5.2083 -23.3621 -0.3228 46.4919
#
#
#
# Elastic Compliance Matrix: (Units=1/GPa)
#
#
# Indices 1 2 3 4 5 6 
#
# 1 0.008513 -0.000481 -0.002413 0.000938 0.004242 -0.000133
# 2 -0.000481 0.010461 0.000589 0.000784 0.003481 -0.003221
# 3 -0.002413 0.000589 0.017329 -0.009072 0.009411 -0.002611
# 4 0.000938 0.000784 -0.009072 0.040103 -0.005878 0.018755
# 5 0.004242 0.003481 0.009411 -0.005878 0.026108 -0.003228
# 6 -0.000133 -0.003221 -0.002611 0.018755 -0.003228 0.031777
#
#
# Mechanical properties :
#
#
# Convention : Reuss Voigt Hill
#
# Bulk Modulus (GPa) = 31.55392 54.92217 43.23805
# Shear Modulus (GPa) = 33.45252 48.70057 41.07654
#
# Velocity S-wave (km/s) = 3.41447 4.11980 3.78361
# Velocity P-wave (km/s) = 5.15187 6.46308 5.84436
#
# Compressibility (1/GPa) = 0.03169178
#
# Stress axis : x y z
#
# Youngs Moduli (GPa) = 117.46524 95.59523 57.70720
#
# Poissons Ratio (x) = 0.04600 0.13924
# Poissons Ratio (y) = 0.05653 -0.03397
# Poissons Ratio (z) = 0.28343 -0.05627
#
# Static dielectric constant tensor:
#      x y z
#    x 2.169220 0.040270 -0.039740 
#    y 0.040270 2.338400 -0.010270 
#    z -0.039740 -0.010270 2.249580 
# 
# From -- ./inp_files/19860.got.cif
#   From: 2010.05.17/outbox.cif.g08.bks.cpg/sg2_10_cif.got.tgz:19860.got - 2010.06.03 11:33:40.
