data_PCOD9106149
_publ_section_title
;
Structure prediction by ZEFSAII (Michael W. Deem and Ramdas Pophale) SiO2 
 PCOD9106149
Probable space group: P -1
;
_chemical_formula_sum "Si O2"
_cell_formula_units_Z 12
_cell_length_a 9.160522
_cell_length_b 11.919604
_cell_length_c 7.498578
_cell_angle_alpha 132.924673
_cell_angle_beta 65.573357
_cell_angle_gamma 85.373449
_cell_volume 458.250995
_symmetry_space_group_name_H-M "P -1"
_symmetry_group_IT_number 2
_symmetry_cell_setting 'triclinic'
loop_
_space_group_symop_operation_xyz
x,y,z
-x,-y,-z
loop_
_atom_site_type_symbol
_atom_site_label
_atom_site_fract_x
_atom_site_fract_y
_atom_site_fract_z
Si Si1 0.317616 0.626657 0.599418
Si Si2 0.928466 0.491978 0.330807
Si Si3 0.454064 0.136878 0.011576
Si Si4 0.649558 0.113264 0.359953
Si Si5 0.721914 0.502369 0.923333
Si Si6 0.197418 0.863825 0.348371
O O1 0.500000 0.500000 0.500000
O O2 0.125949 0.657066 0.817081
O O3 0.306625 0.812246 0.759898
O O4 0.313659 0.545328 0.313759
O O5 0.091027 0.490252 0.135657
O O6 0.000000 0.500000 0.500000
O O7 0.281187 0.326671 0.379148
O O8 0.628568 0.139336 0.842339
O O9 0.373393 0.056098 0.822902
O O10 0.500000 0.000000 0.000000
O O11 0.808097 0.068340 0.375336
O O12 0.454700 0.297201 0.722828
O O13 0.748592 0.341869 0.863213
O O14 0.000000 0.000000 0.500000
#
# Coordination Sequence:
#
# PCOD9106149 Si02
#       6
#     2   2   2   2   2   2
#     4  10  20  39  67  96 127 169 216 266 322 384
#     4  10  21  42  66  92 128 169 213 264 321 387
#     4  12  25  45  67  96 133 174 219 273 331 390
#     4  11  24  44  69  97 132 176 220 271 328 389
#     4  10  22  45  69  95 130 175 222 267 324 394
#     4  11  23  43  68  98 134 173 219 273 327 390
#
# _framework density 26.186523999999999
#
# number of rings (size 3 to 8) (size 9 to 14) (size 15 to 20)
#    0.000    1.333    0.000    7.500    0.000    0.000 
#    0.000   39.167    0.000    0.000    0.000    0.000 
#    0.000    0.000    0.000    0.000    0.000    0.000 
#
# Total GULP energy -67188.013201 kJ/mol
# GULP energy per Si atom -5599.001100 kJ/mol
# Density = 2.612692 g / cm^3
# Si number density = 26.186524 Si / 1000 Ang^3
#
#
#
# Elastic Constant Matrix: (Units=GPa)
#
#
# Indices 1 2 3 4 5 6 
#
# 1 205.0528 86.9192 42.0583 6.9715 -28.5403 36.2887
# 2 86.9192 169.8235 24.9751 20.4084 -17.8861 7.5233
# 3 42.0583 24.9751 89.6972 29.8567 1.1594 10.0054
# 4 6.9715 20.4084 29.8567 32.8138 -19.2057 2.0248
# 5 -28.5403 -17.8861 1.1594 -19.2057 41.3217 -3.7930
# 6 36.2887 7.5233 10.0054 2.0248 -3.7930 76.8419
#
#
#
# Elastic Compliance Matrix: (Units=1/GPa)
#
#
# Indices 1 2 3 4 5 6 
#
# 1 0.010363 -0.004479 -0.008857 0.016303 0.012760 -0.003102
# 2 -0.004479 0.008439 0.002606 -0.008780 -0.003502 0.001008
# 3 -0.008857 0.002606 0.027906 -0.039164 -0.023962 0.000143
# 4 0.016303 -0.008780 -0.039164 0.100457 0.055096 -0.001667
# 5 0.012760 -0.003502 -0.023962 0.055096 0.057671 -0.001168
# 6 -0.003102 0.001008 0.000143 -0.001667 -0.001168 0.014347
#
#
# Mechanical properties :
#
#
# Convention : Reuss Voigt Hill
#
# Bulk Modulus (GPa) = 39.60919 85.83098 62.72008
# Shear Modulus (GPa) = 20.07542 50.90352 35.48947
#
# Velocity S-wave (km/s) = 2.77182 4.41373 3.68538
# Velocity P-wave (km/s) = 5.04010 7.66959 6.48942
#
# Compressibility (1/GPa) = 0.02524667
#
# Stress axis : x y z
#
# Youngs Moduli (GPa) = 96.49860 118.49151 35.83439
#
# Poissons Ratio (x) = 0.53075 0.31740
# Poissons Ratio (y) = 0.43224 -0.09338
# Poissons Ratio (z) = 0.85473 -0.30876
#
# Static dielectric constant tensor:
#      x y z
#    x 1.697320 -0.131550 -0.575300 
#    y -0.131550 2.097310 -0.267300 
#    z -0.575300 -0.267300 1.080880 
# 
# From -- ./inp_files/183098.got.cif
#   From: 2010.05.17/outbox.cif.g08.bks.cpg/sg2_92_cif.got.tgz:183098.got - 2010.06.03 11:33:40.
