data_PCOD9106057
_publ_section_title
;
Structure prediction by ZEFSAII (Michael W. Deem and Ramdas Pophale) SiO2 
 PCOD9106057
Probable space group: P -1
;
_chemical_formula_sum "Si O2"
_cell_formula_units_Z 14
_cell_length_a 7.603689
_cell_length_b 8.854178
_cell_length_c 11.258228
_cell_angle_alpha 120.986137
_cell_angle_beta 115.196626
_cell_angle_gamma 91.565272
_cell_volume 557.488490
_symmetry_space_group_name_H-M "P -1"
_symmetry_group_IT_number 2
_symmetry_cell_setting 'triclinic'
loop_
_space_group_symop_operation_xyz
x,y,z
-x,-y,-z
loop_
_atom_site_type_symbol
_atom_site_label
_atom_site_fract_x
_atom_site_fract_y
_atom_site_fract_z
Si Si1 0.186519 0.343030 0.045691
Si Si2 0.455307 0.692112 0.601843
Si Si3 0.586806 0.219160 0.122861
Si Si4 0.270505 0.487603 0.881012
Si Si5 0.843848 0.836426 0.466297
Si Si6 0.640243 0.247535 0.653139
Si Si7 0.840918 0.998573 0.768912
O O1 0.141026 0.404667 0.925635
O O2 0.013199 0.153732 0.950701
O O3 0.392599 0.290006 0.080129
O O4 0.247834 0.533635 0.210958
O O5 0.500000 0.500000 0.500000
O O6 0.335618 0.698427 0.691284
O O7 0.356628 0.769142 0.494706
O O8 0.677286 0.848860 0.739852
O O9 0.724707 0.313869 0.088213
O O10 0.500000 0.000000 0.000000
O O11 0.180230 0.349747 0.690188
O O12 0.500000 0.500000 0.000000
O O13 0.598327 0.808374 0.397282
O O14 0.918667 0.882093 0.642876
O O15 0.000000 0.000000 0.500000
O O16 0.734948 0.121761 0.708599
#
# Coordination Sequence:
#
# PCOD9106057 Si02
#       7
#     2   2   2   2   2   2   2
#     4  11  22  43  66  98 131 175 224 283 328 394
#     4  11  22  45  66  90 142 182 217 271 343 409
#     4  11  24  41  69  99 131 181 222 273 349 398
#     4  10  20  39  67  89 133 168 219 275 334 378
#     4  11  19  36  63  98 130 164 214 276 339 378
#     4  11  23  42  67  98 132 179 227 271 337 396
#     4  11  25  39  69 101 128 178 233 273 325 405
#
# _framework density 25.112625999999999
#
# number of rings (size 3 to 8) (size 9 to 14) (size 15 to 20)
#    0.000    1.143    5.714    3.000    2.000    2.857 
#    0.000    0.000    0.000    2.571    0.000    0.000 
#    0.000    0.000    0.000    0.000    0.000    0.000 
#
# Total GULP energy -78177.228573 kJ/mol
# GULP energy per Si atom -5584.087755 kJ/mol
# Density = 2.505547 g / cm^3
# Si number density = 25.112626 Si / 1000 Ang^3
#
#
#
# Elastic Constant Matrix: (Units=GPa)
#
#
# Indices 1 2 3 4 5 6 
#
# 1 43.1820 -2.1827 19.2182 -10.9843 7.2499 8.9923
# 2 -2.1827 114.4100 37.1482 5.5587 -2.8332 13.2149
# 3 19.2182 37.1482 120.9312 34.0275 -4.0417 2.5300
# 4 -10.9843 5.5587 34.0275 50.4067 15.9053 3.0458
# 5 7.2499 -2.8332 -4.0417 15.9053 36.3473 4.4072
# 6 8.9923 13.2149 2.5300 3.0458 4.4072 35.0136
#
#
#
# Elastic Compliance Matrix: (Units=1/GPa)
#
#
# Indices 1 2 3 4 5 6 
#
# 1 0.044289 0.005950 -0.017186 0.027973 -0.021047 -0.012162
# 2 0.005950 0.011030 -0.005733 0.005075 -0.002531 -0.005400
# 3 -0.017186 -0.005733 0.018821 -0.020346 0.013333 0.005309
# 4 0.027973 0.005075 -0.020346 0.048316 -0.027575 -0.008362
# 5 -0.021047 -0.002531 0.013333 -0.027575 0.044801 0.002157
# 6 -0.012162 -0.005400 0.005309 -0.008362 0.002157 0.033794
#
#
# Mechanical properties :
#
#
# Convention : Reuss Voigt Hill
#
# Bulk Modulus (GPa) = 24.87528 42.98785 33.93156
# Shear Modulus (GPa) = 20.12962 39.30949 29.71955
#
# Velocity S-wave (km/s) = 2.83428 3.96071 3.44386
# Velocity P-wave (km/s) = 4.54289 6.17021 5.41800
#
# Compressibility (1/GPa) = 0.04020056
#
# Stress axis : x y z
#
# Youngs Moduli (GPa) = 22.57901 90.66142 53.13194
#
# Poissons Ratio (x) = -0.53940 0.91312
# Poissons Ratio (y) = -0.13434 0.30463
# Poissons Ratio (z) = 0.38804 0.51981
#
# Static dielectric constant tensor:
#      x y z
#    x 2.046300 -0.011360 -0.022720 
#    y -0.011360 1.965850 -0.059020 
#    z -0.022720 -0.059020 1.937570 
# 
# From -- ./inp_files/277891.got.cif
#   From: 2010.05.17/outbox.cif.g08.bks.cpg/sg2_139_cif.got.tgz:277891.got - 2010.06.03 11:33:40.
