data_PCOD9106870
_publ_section_title
;
Structure prediction by ZEFSAII (Michael W. Deem and Ramdas Pophale) SiO2 
 PCOD9106870
Probable space group: P -1
;
_chemical_formula_sum "Si O2"
_cell_formula_units_Z 16
_cell_length_a 5.060180
_cell_length_b 11.287985
_cell_length_c 10.556121
_cell_angle_alpha 102.176894
_cell_angle_beta 93.113027
_cell_angle_gamma 99.147532
_cell_volume 579.480594
_symmetry_space_group_name_H-M "P -1"
_symmetry_group_IT_number 2
_symmetry_cell_setting 'triclinic'
loop_
_space_group_symop_operation_xyz
x,y,z
-x,-y,-z
loop_
_atom_site_type_symbol
_atom_site_label
_atom_site_fract_x
_atom_site_fract_y
_atom_site_fract_z
Si Si1 0.991539 0.864976 0.583005
Si Si2 0.312922 0.545124 0.400253
Si Si3 0.545247 0.992579 0.723119
Si Si4 0.361559 0.824681 0.887992
Si Si5 0.628145 0.772960 0.331268
Si Si6 0.648143 0.381780 0.984668
Si Si7 0.064323 0.428187 0.785239
Si Si8 0.795613 0.706929 0.756147
O O1 0.823328 0.952323 0.679210
O O2 0.872004 0.847502 0.436796
O O3 0.922835 0.735552 0.627096
O O4 0.304326 0.915967 0.615235
O O5 0.500000 0.500000 0.500000
O O6 0.444665 0.683890 0.403538
O O7 0.000966 0.556026 0.362738
O O8 0.307376 0.438499 0.268063
O O9 0.459849 0.960775 0.860889
O O10 0.527049 0.131247 0.717825
O O11 0.460529 0.755559 0.997155
O O12 0.520811 0.758521 0.771545
O O13 0.036273 0.786629 0.863986
O O14 0.744512 0.674196 0.224788
O O15 0.834953 0.439091 0.121275
O O16 0.500000 0.500000 0.000000
O O17 0.821048 0.375871 0.862050
#
# Coordination Sequence:
#
# PCOD9106870 Si02
#       8
#     2   2   2   2   2   2   2   2
#     4  10  22  41  65  94 138 188 235 277 336 415
#     4  12  25  41  63 100 145 183 217 285 361 426
#     4  10  24  42  67  98 137 190 233 284 337 416
#     4  10  21  40  71  94 132 175 235 287 335 409
#     4  12  25  40  63  98 140 181 231 286 345 418
#     4  11  23  46  71  97 135 180 240 295 352 413
#     4  11  26  41  68 100 135 180 231 292 355 414
#     4  10  20  40  62 100 133 176 226 280 345 413
#
# _framework density 27.610931999999998
#
# number of rings (size 3 to 8) (size 9 to 14) (size 15 to 20)
#    0.000    1.250    2.500    3.000    5.250    1.500 
#    0.000    0.625    0.000    3.000    0.000    0.000 
#    0.000    0.000    0.000    0.000    0.000    0.000 
#
# Total GULP energy -89240.104216 kJ/mol
# GULP energy per Si atom -5577.506513 kJ/mol
# Density = 2.754809 g / cm^3
# Si number density = 27.610932 Si / 1000 Ang^3
#
#
#
# Elastic Constant Matrix: (Units=GPa)
#
#
# Indices 1 2 3 4 5 6 
#
# 1 94.9668 5.9657 -2.8023 0.4061 -9.6206 -7.0638
# 2 5.9657 168.3579 14.0215 -40.5141 -10.9330 -15.5981
# 3 -2.8023 14.0215 70.7102 -7.5466 3.9788 -3.8741
# 4 0.4061 -40.5141 -7.5466 40.9386 -11.2210 1.7253
# 5 -9.6206 -10.9330 3.9788 -11.2210 32.1473 -5.4307
# 6 -7.0638 -15.5981 -3.8741 1.7253 -5.4307 44.0271
#
#
#
# Elastic Compliance Matrix: (Units=1/GPa)
#
#
# Indices 1 2 3 4 5 6 
#
# 1 0.011133 0.000444 0.000402 0.001498 0.004371 0.002460
# 2 0.000444 0.009662 -0.000918 0.011471 0.008208 0.003977
# 3 0.000402 -0.000918 0.014608 0.001366 -0.001388 0.000800
# 4 0.001498 0.011471 0.001366 0.041117 0.019412 0.005208
# 5 0.004371 0.008208 -0.001388 0.019412 0.043521 0.008095
# 6 0.002460 0.003977 0.000800 0.005208 0.008095 0.025382
#
#
# Mechanical properties :
#
#
# Convention : Reuss Voigt Hill
#
# Bulk Modulus (GPa) = 28.36146 40.93387 34.64767
# Shear Modulus (GPa) = 31.78226 44.54594 38.16410
#
# Velocity S-wave (km/s) = 3.39643 4.02100 3.72184
# Velocity P-wave (km/s) = 5.06706 6.03452 5.57183
#
# Compressibility (1/GPa) = 0.03525912
#
# Stress axis : x y z
#
# Youngs Moduli (GPa) = 89.82038 103.49588 68.45590
#
# Poissons Ratio (x) = -0.04597 -0.02750
# Poissons Ratio (y) = -0.03990 0.06285
# Poissons Ratio (z) = -0.03609 0.09503
#
# Static dielectric constant tensor:
#      x y z
#    x 2.272880 -0.027890 0.142470 
#    y -0.027890 2.278550 -0.112590 
#    z 0.142470 -0.112590 2.278400 
# 
# From -- ./inp_files/363195.got.cif
#   From: 2010.05.17/outbox.cif.g08.bks.cpg/sg2_182_cif.got.tgz:363195.got - 2010.06.03 11:33:40.
