data_PCOD9106289
_publ_section_title
;
Structure prediction by ZEFSAII (Michael W. Deem and Ramdas Pophale) SiO2 
 PCOD9106289
Probable space group: P -1
;
_chemical_formula_sum "Si O2"
_cell_formula_units_Z 14
_cell_length_a 14.129014
_cell_length_b 8.101355
_cell_length_c 7.839434
_cell_angle_alpha 105.565272
_cell_angle_beta 80.934976
_cell_angle_gamma 51.459090
_cell_volume 610.099877
_symmetry_space_group_name_H-M "P -1"
_symmetry_group_IT_number 2
_symmetry_cell_setting 'triclinic'
loop_
_space_group_symop_operation_xyz
x,y,z
-x,-y,-z
loop_
_atom_site_type_symbol
_atom_site_label
_atom_site_fract_x
_atom_site_fract_y
_atom_site_fract_z
Si Si1 0.382142 0.779429 0.076585
Si Si2 0.885902 0.497719 0.526017
Si Si3 0.453897 0.742130 0.653322
Si Si4 0.607688 0.860805 0.778728
Si Si5 0.909031 0.985497 0.810692
Si Si6 0.806905 0.770851 0.286590
Si Si7 0.022794 0.717656 0.065807
O O1 0.232558 0.900736 0.188174
O O2 0.404513 0.925971 0.215763
O O3 0.500000 0.500000 0.000000
O O4 0.392555 0.795571 0.874842
O O5 0.763361 0.646503 0.733047
O O6 0.808406 0.650672 0.418619
O O7 0.000000 0.500000 0.500000
O O8 0.966036 0.223731 0.400808
O O9 0.500000 0.500000 0.500000
O O10 0.567877 0.746566 0.644033
O O11 0.335125 0.971924 0.641148
O O12 0.500000 0.000000 0.000000
O O13 0.909322 0.187081 0.890600
O O14 0.941978 0.851065 0.946407
O O15 0.917567 0.784436 0.255463
O O16 0.867363 0.567199 0.070585
#
# Coordination Sequence:
#
# PCOD9106289 Si02
#       7
#     2   2   2   2   2   2   2
#     4  11  24  44  67  96 140 182 225 277 348 407
#     4  11  23  42  68  96 132 171 225 278 335 406
#     4  11  26  43  67  94 138 178 235 279 327 406
#     4  10  25  46  67  95 137 183 219 277 352 406
#     4  10  20  39  68  96 130 168 222 278 332 402
#     4  10  22  39  65  94 132 173 223 278 336 391
#     4   9  20  38  65  98 128 167 215 280 339 389
#
# _framework density 22.947061999999999
#
# number of rings (size 3 to 8) (size 9 to 14) (size 15 to 20)
#    0.000    1.714    2.857    0.000    6.000    1.714 
#    2.571    0.714    0.000    0.000    0.000    0.000 
#    0.000    0.000    0.000    0.000    0.000    0.000 
#
# Total GULP energy -78195.947604 kJ/mol
# GULP energy per Si atom -5585.424829 kJ/mol
# Density = 2.289483 g / cm^3
# Si number density = 22.947062 Si / 1000 Ang^3
#
#
#
# Elastic Constant Matrix: (Units=GPa)
#
#
# Indices 1 2 3 4 5 6 
#
# 1 155.0194 52.8471 44.9493 37.8998 3.0113 10.8324
# 2 52.8471 113.1899 36.2733 35.0691 4.8155 -2.0097
# 3 44.9493 36.2733 90.1121 26.0264 -7.9244 -5.9467
# 4 37.8998 35.0691 26.0264 48.1530 1.2867 2.1350
# 5 3.0113 4.8155 -7.9244 1.2867 39.5027 13.8645
# 6 10.8324 -2.0097 -5.9467 2.1350 13.8645 28.8678
#
#
#
# Elastic Compliance Matrix: (Units=1/GPa)
#
#
# Indices 1 2 3 4 5 6 
#
# 1 0.009302 -0.002329 -0.002786 -0.003948 0.000632 -0.004238
# 2 -0.002329 0.012753 -0.002173 -0.006345 -0.002685 0.003073
# 3 -0.002786 -0.002173 0.015123 -0.004606 0.002567 0.003117
# 4 -0.003948 -0.006345 -0.004606 0.031083 -0.000105 -0.002158
# 5 0.000632 -0.002685 0.002567 -0.000105 0.031359 -0.014948
# 6 -0.004238 0.003073 0.003117 -0.002158 -0.014948 0.044426
#
#
# Mechanical properties :
#
#
# Convention : Reuss Voigt Hill
#
# Bulk Modulus (GPa) = 44.24258 69.60675 56.92466
# Shear Modulus (GPa) = 30.09229 38.25481 34.17355
#
# Velocity S-wave (km/s) = 3.62523 4.08743 3.86325
# Velocity P-wave (km/s) = 6.07002 7.25780 6.69032
#
# Compressibility (1/GPa) = 0.02260266
#
# Stress axis : x y z
#
# Youngs Moduli (GPa) = 107.50674 78.41353 66.12320
#
# Poissons Ratio (x) = 0.18262 0.18423
# Poissons Ratio (y) = 0.25038 0.14365
# Poissons Ratio (z) = 0.29953 0.17036
#
# Static dielectric constant tensor:
#      x y z
#    x 1.926780 -0.004350 -0.033410 
#    y -0.004350 1.867100 -0.045930 
#    z -0.033410 -0.045930 1.976550 
# 
# From -- ./inp_files/296077.got.cif
#   From: 2010.05.17/outbox.cif.g08.bks.cpg/sg2_149_cif.got.tgz:296077.got - 2010.06.03 11:33:40.
