data_PCOD9106759
_publ_section_title
;
Structure prediction by ZEFSAII (Michael W. Deem and Ramdas Pophale) SiO2 
 PCOD9106759
Probable space group: P -1
;
_chemical_formula_sum "Si O2"
_cell_formula_units_Z 12
_cell_length_a 19.069461
_cell_length_b 17.762842
_cell_length_c 7.495888
_cell_angle_alpha 128.629457
_cell_angle_beta 36.825425
_cell_angle_gamma 157.936763
_cell_volume 487.529021
_symmetry_space_group_name_H-M "P -1"
_symmetry_group_IT_number 2
_symmetry_cell_setting 'triclinic'
loop_
_space_group_symop_operation_xyz
x,y,z
-x,-y,-z
loop_
_atom_site_type_symbol
_atom_site_label
_atom_site_fract_x
_atom_site_fract_y
_atom_site_fract_z
Si Si1 0.880756 0.002449 0.639314
Si Si2 0.326541 0.260614 0.651016
Si Si3 0.785884 0.634911 0.815138
Si Si4 0.685275 0.413358 0.429252
Si Si5 0.584712 0.953842 0.778470
Si Si6 0.676579 0.046969 0.122041
O O1 0.119506 0.231531 0.357535
O O2 0.666383 0.791684 0.623850
O O3 0.767633 0.015059 0.986057
O O4 0.000000 0.000000 0.500000
O O5 0.543381 0.372407 0.506331
O O6 0.364755 0.403035 0.805233
O O7 0.000000 0.000000 0.000000
O O8 0.615499 0.415971 0.760132
O O9 0.079222 0.819394 0.582848
O O10 0.581859 0.231768 0.306125
O O11 0.025888 0.677406 0.124318
O O12 0.500000 0.000000 0.000000
O O13 0.526674 0.894859 0.021346
O O14 0.500000 0.000000 0.500000
#
# Coordination Sequence:
#
# PCOD9106759 Si02
#       6
#     2   2   2   2   2   2
#     4   9  18  35  58  81 117 149 191 243 278 333
#     4  10  16  34  60  82 112 149 182 235 296 339
#     4   9  20  33  57  89 111 148 189 232 293 348
#     4  10  18  37  62  81 119 150 186 242 292 332
#     4  10  20  37  60  85 117 148 194 242 283 344
#     4  10  23  40  56  83 117 161 199 230 284 347
#
# _framework density 24.613918999999999
#
# number of rings (size 3 to 8) (size 9 to 14) (size 15 to 20)
#    0.000    2.667    5.000    0.500    0.000    4.667 
#    0.000    3.333    7.333    0.000    0.000    0.000 
#    0.000    0.000    0.000    0.000    0.000    0.000 
#
# Total GULP energy -66955.811084 kJ/mol
# GULP energy per Si atom -5579.650924 kJ/mol
# Density = 2.455790 g / cm^3
# Si number density = 24.613919 Si / 1000 Ang^3
#
#
#
# Elastic Constant Matrix: (Units=GPa)
#
#
# Indices 1 2 3 4 5 6 
#
# 1 72.2546 39.4160 55.1056 12.6876 -20.7104 -5.5733
# 2 39.4160 163.1129 45.8255 66.1559 3.7674 -1.5969
# 3 55.1056 45.8255 191.1795 64.2934 -20.9532 -1.1163
# 4 12.6876 66.1559 64.2934 58.1614 -3.8997 -2.4592
# 5 -20.7104 3.7674 -20.9532 -3.8997 44.4353 17.9057
# 6 -5.5733 -1.5969 -1.1163 -2.4592 17.9057 32.5936
#
#
#
# Elastic Compliance Matrix: (Units=1/GPa)
#
#
# Indices 1 2 3 4 5 6 
#
# 1 0.028717 -0.012672 -0.011117 0.021170 0.011374 -0.000742
# 2 -0.012672 0.017910 0.007514 -0.026321 -0.006390 0.000492
# 3 -0.011117 0.007514 0.013854 -0.021555 -0.000123 -0.002617
# 4 0.021170 -0.026321 -0.021555 0.066911 0.006589 0.003021
# 5 0.011374 -0.006390 -0.000123 0.006589 0.035976 -0.017639
# 6 -0.000742 0.000492 -0.002617 0.003021 -0.017639 0.040407
#
#
# Mechanical properties :
#
#
# Convention : Reuss Voigt Hill
#
# Bulk Modulus (GPa) = 35.80404 78.58237 57.19320
# Shear Modulus (GPa) = 20.35539 46.11805 33.23672
#
# Velocity S-wave (km/s) = 2.87886 4.33327 3.67866
# Velocity P-wave (km/s) = 5.06244 7.55193 6.42884
#
# Compressibility (1/GPa) = 0.02792981
#
# Stress axis : x y z
#
# Youngs Moduli (GPa) = 34.82289 55.83599 72.17954
#
# Poissons Ratio (x) = 0.70757 0.80242
# Poissons Ratio (y) = 0.44128 -0.54235
# Poissons Ratio (z) = 0.38713 -0.41954
#
# Static dielectric constant tensor:
#      x y z
#    x 2.273080 0.021240 0.147210 
#    y 0.021240 2.080340 0.028170 
#    z 0.147210 0.028170 2.041640 
# 
# From -- ./inp_files/228884.got.cif
#   From: 2010.05.17/outbox.cif.g08.bks.cpg/sg2_115_cif.got.tgz:228884.got - 2010.06.03 11:33:40.
