data_PCOD9106355
_publ_section_title
;
Structure prediction by ZEFSAII (Michael W. Deem and Ramdas Pophale) SiO2 
 PCOD9106355
Probable space group: P -1
;
_chemical_formula_sum "Si O2"
_cell_formula_units_Z 14
_cell_length_a 15.960997
_cell_length_b 5.308852
_cell_length_c 16.026070
_cell_angle_alpha 79.881694
_cell_angle_beta 26.124492
_cell_angle_gamma 73.700830
_cell_volume 564.479868
_symmetry_space_group_name_H-M "P -1"
_symmetry_group_IT_number 2
_symmetry_cell_setting 'triclinic'
loop_
_space_group_symop_operation_xyz
x,y,z
-x,-y,-z
loop_
_atom_site_type_symbol
_atom_site_label
_atom_site_fract_x
_atom_site_fract_y
_atom_site_fract_z
Si Si1 0.996307 0.612927 0.301406
Si Si2 0.677488 0.632051 0.851176
Si Si3 0.358918 0.770510 0.571960
Si Si4 0.374166 0.539123 0.401027
Si Si5 0.538883 0.022264 0.820644
Si Si6 0.147964 0.092333 0.081378
Si Si7 0.687536 0.067158 0.221526
O O1 0.117825 0.549529 0.283074
O O2 0.089515 0.368497 0.168103
O O3 0.766041 0.621508 0.505263
O O4 0.028846 0.884124 0.223521
O O5 0.698929 0.787657 0.738625
O O6 0.500000 0.500000 0.000000
O O7 0.589345 0.828814 0.994842
O O8 0.500000 0.500000 0.500000
O O9 0.276586 0.671714 0.568074
O O10 0.236311 0.910383 0.754156
O O11 0.498235 0.951917 0.408801
O O12 0.386109 0.768216 0.312616
O O13 0.589592 0.356510 0.249376
O O14 0.375093 0.942358 0.916407
O O15 0.163991 0.114904 0.966345
#
# Coordination Sequence:
#
# PCOD9106355 Si02
#       7
#     2   2   2   2   2   2   2
#     4  11  26  40  64  97 140 163 214 272 333 365
#     4  10  20  40  61  91 123 172 218 264 306 392
#     4   9  20  37  65  95 123 159 220 266 307 382
#     4  11  23  40  63  99 129 168 208 277 325 374
#     4  10  21  37  67  87 123 171 224 254 313 386
#     4  11  22  42  65  95 124 182 215 258 313 401
#     4  10  20  39  69  90 123 171 224 252 311 391
#
# _framework density 24.801594999999999
#
# number of rings (size 3 to 8) (size 9 to 14) (size 15 to 20)
#    0.000    1.714    2.857    1.714    4.000    0.571 
#    0.000    2.143    0.000    0.000    0.000    0.000 
#    0.000    0.000    0.000    0.000    0.000    0.000 
#
# Total GULP energy -78276.393128 kJ/mol
# GULP energy per Si atom -5591.170938 kJ/mol
# Density = 2.474515 g / cm^3
# Si number density = 24.801595 Si / 1000 Ang^3
#
#
#
# Elastic Constant Matrix: (Units=GPa)
#
#
# Indices 1 2 3 4 5 6 
#
# 1 126.8381 19.9077 36.8712 -14.0703 0.3259 4.1053
# 2 19.9077 97.1436 29.5912 -20.1544 7.4027 -9.3232
# 3 36.8712 29.5912 71.4066 -16.1900 -1.6047 -9.9017
# 4 -14.0703 -20.1544 -16.1900 47.5556 6.5279 6.8779
# 5 0.3259 7.4027 -1.6047 6.5279 47.5724 -5.3563
# 6 4.1053 -9.3232 -9.9017 6.8779 -5.3563 39.5264
#
#
#
# Elastic Compliance Matrix: (Units=1/GPa)
#
#
# Indices 1 2 3 4 5 6 
#
# 1 0.009607 -0.000384 -0.004843 0.001508 -0.000675 -0.002656
# 2 -0.000384 0.012759 -0.004080 0.004119 -0.002577 0.000961
# 3 -0.004843 -0.004080 0.019402 0.002650 0.001424 0.004133
# 4 0.001508 0.004119 0.002650 0.025237 -0.004420 -0.003511
# 5 -0.000675 -0.002577 0.001424 -0.004420 0.022490 0.003636
# 6 -0.002656 0.000961 0.004133 -0.003511 0.003636 0.027941
#
#
# Mechanical properties :
#
#
# Convention : Reuss Voigt Hill
#
# Bulk Modulus (GPa) = 43.18914 52.01425 47.60169
# Shear Modulus (GPa) = 34.77844 40.86544 37.82194
#
# Velocity S-wave (km/s) = 3.74875 4.06358 3.90934
# Velocity P-wave (km/s) = 6.01574 6.56008 6.29380
#
# Compressibility (1/GPa) = 0.02315397
#
# Stress axis : x y z
#
# Youngs Moduli (GPa) = 104.08911 78.37743 51.54215
#
# Poissons Ratio (x) = 0.03011 0.24962
# Poissons Ratio (y) = 0.03999 0.21027
# Poissons Ratio (z) = 0.50411 0.31974
#
# Static dielectric constant tensor:
#      x y z
#    x 2.101460 0.003520 0.009660 
#    y 0.003520 2.003930 0.061590 
#    z 0.009660 0.061590 1.995140 
# 
# From -- ./inp_files/34408.got.cif
#   From: 2010.05.17/outbox.cif.g08.bks.cpg/sg2_18_cif.got.tgz:34408.got - 2010.06.03 11:33:40.
