data_PCOD9106856
_publ_section_title
;
Structure prediction by ZEFSAII (Michael W. Deem and Ramdas Pophale) SiO2 
 PCOD9106856
Probable space group: P -1
;
_chemical_formula_sum "Si O2"
_cell_formula_units_Z 14
_cell_length_a 12.237982
_cell_length_b 7.721187
_cell_length_c 11.969898
_cell_angle_alpha 127.526042
_cell_angle_beta 35.812562
_cell_angle_gamma 129.552506
_cell_volume 499.396686
_symmetry_space_group_name_H-M "P -1"
_symmetry_group_IT_number 2
_symmetry_cell_setting 'triclinic'
loop_
_space_group_symop_operation_xyz
x,y,z
-x,-y,-z
loop_
_atom_site_type_symbol
_atom_site_label
_atom_site_fract_x
_atom_site_fract_y
_atom_site_fract_z
Si Si1 0.500000 0.500000 0.000000
Si Si2 0.157135 0.794749 0.594917
Si Si3 0.096496 0.726790 0.866769
Si Si4 0.487765 0.964561 0.742014
Si Si5 0.341638 0.465625 0.878338
Si Si6 0.697781 0.628628 0.510441
Si Si7 0.124556 0.290032 0.385818
Si Si8 0.500000 0.000000 0.000000
O O1 0.646287 0.598172 0.028271
O O2 0.317476 0.388596 0.192204
O O3 0.134191 0.852569 0.763942
O O4 0.068462 0.515199 0.557913
O O5 0.037935 0.868980 0.622462
O O6 0.378928 0.873987 0.398649
O O7 0.258263 0.879497 0.875166
O O8 0.159181 0.493391 0.710680
O O9 0.867286 0.655456 0.051263
O O10 0.581339 0.756629 0.583065
O O11 0.532923 0.090108 0.873651
O O12 0.522909 0.438930 0.645511
O O13 0.378966 0.742787 0.955193
O O14 0.806087 0.797733 0.590788
#
# Coordination Sequence:
#
# PCOD9106856 Si02
#       8
#     1   2   2   2   2   2   2   1
#     4  10  16  34  60  88 120 154 210 254 294 384
#     4  10  20  36  63  92 120 163 208 258 315 370
#     4  11  22  42  68  91 127 176 202 257 326 374
#     4  11  23  40  63  93 132 161 216 262 308 376
#     4  10  21  41  65  90 128 164 212 256 316 371
#     4   9  22  38  61  93 124 168 211 255 309 376
#     4   9  18  33  59  88 118 163 206 255 315 364
#     4  10  24  40  60  94 124 166 208 266 306 364
#
# _framework density 28.033826999999999
#
# number of rings (size 3 to 8) (size 9 to 14) (size 15 to 20)
#    0.000    2.000    1.429    1.714    4.000    2.857 
#    5.143    0.000    3.143    6.000    0.000    0.000 
#    0.000    0.000    0.000    0.000    0.000    0.000 
#
# Total GULP energy -77990.689729 kJ/mol
# GULP energy per Si atom -5570.763552 kJ/mol
# Density = 2.797002 g / cm^3
# Si number density = 28.033827 Si / 1000 Ang^3
#
#
#
# Elastic Constant Matrix: (Units=GPa)
#
#
# Indices 1 2 3 4 5 6 
#
# 1 155.9382 26.2848 16.0398 -1.5854 -2.2468 20.6624
# 2 26.2848 74.3848 16.7864 0.7748 -12.8898 6.8056
# 3 16.0398 16.7864 64.2839 -7.5033 -8.6088 3.0829
# 4 -1.5854 0.7748 -7.5033 35.4133 3.9318 -7.0656
# 5 -2.2468 -12.8898 -8.6088 3.9318 59.3371 -9.3942
# 6 20.6624 6.8056 3.0829 -7.0656 -9.3942 35.4790
#
#
#
# Elastic Compliance Matrix: (Units=1/GPa)
#
#
# Indices 1 2 3 4 5 6 
#
# 1 0.007440 -0.002115 -0.001309 -0.000626 -0.000991 -0.004201
# 2 -0.002115 0.015527 -0.003300 -0.001651 0.002756 -0.001059
# 3 -0.001309 -0.003300 0.017351 0.003718 0.001674 0.001071
# 4 -0.000626 -0.001651 0.003718 0.030363 -0.000878 0.006173
# 5 -0.000991 0.002756 0.001674 -0.000878 0.018445 0.004612
# 6 -0.004201 -0.001059 0.001071 0.006173 0.004612 0.033193
#
#
# Mechanical properties :
#
#
# Convention : Reuss Voigt Hill
#
# Bulk Modulus (GPa) = 37.21328 45.86989 41.54159
# Shear Modulus (GPa) = 34.54909 41.74559 38.14734
#
# Velocity S-wave (km/s) = 3.51437 3.86309 3.69285
# Velocity P-wave (km/s) = 5.45628 6.02460 5.74747
#
# Compressibility (1/GPa) = 0.02687213
#
# Stress axis : x y z
#
# Youngs Moduli (GPa) = 134.41297 64.40337 57.63373
#
# Poissons Ratio (x) = 0.13618 0.07541
# Poissons Ratio (y) = 0.28422 0.19018
# Poissons Ratio (z) = 0.17588 0.21252
#
# Static dielectric constant tensor:
#      x y z
#    x 2.341830 -0.306140 -0.178420 
#    y -0.306140 2.662750 0.191710 
#    z -0.178420 0.191710 2.198540 
# 
# From -- ./inp_files/154680.got.cif
#   From: 2010.05.17/outbox.cif.g08.bks.cpg/sg2_78_cif.got.tgz:154680.got - 2010.06.03 11:33:40.
