data_PCOD9106046
_publ_section_title
;
Structure prediction by ZEFSAII (Michael W. Deem and Ramdas Pophale) SiO2 
 PCOD9106046
Probable space group: P -1
;
_chemical_formula_sum "Si O2"
_cell_formula_units_Z 16
_cell_length_a 21.702894
_cell_length_b 8.791339
_cell_length_c 18.530491
_cell_angle_alpha 138.750291
_cell_angle_beta 19.589783
_cell_angle_gamma 139.084768
_cell_volume 763.453586
_symmetry_space_group_name_H-M "P -1"
_symmetry_group_IT_number 2
_symmetry_cell_setting 'triclinic'
loop_
_space_group_symop_operation_xyz
x,y,z
-x,-y,-z
loop_
_atom_site_type_symbol
_atom_site_label
_atom_site_fract_x
_atom_site_fract_y
_atom_site_fract_z
Si Si1 0.336265 0.112087 0.692360
Si Si2 0.722663 0.537039 0.781217
Si Si3 0.173028 0.490447 0.055405
Si Si4 0.042180 0.295372 0.285210
Si Si5 0.846307 0.815694 0.377431
Si Si6 0.047990 0.675483 0.901731
Si Si7 0.668788 0.725290 0.402305
Si Si8 0.944171 0.035199 0.656310
O O1 0.335263 0.110983 0.605683
O O2 0.500000 0.000000 0.500000
O O3 0.162475 0.942089 0.864152
O O4 0.350797 0.379215 0.799534
O O5 0.788885 0.565974 0.801584
O O6 0.842768 0.354310 0.551519
O O7 0.821688 0.787579 0.727931
O O8 0.500000 0.500000 0.000000
O O9 0.090324 0.394756 0.188691
O O10 0.180291 0.765706 0.136525
O O11 0.029351 0.374414 0.111155
O O12 0.016449 0.013978 0.225040
O O13 0.850992 0.538872 0.270924
O O14 0.679704 0.829942 0.508715
O O15 0.884395 0.887467 0.446327
O O16 0.867969 0.651676 0.142821
O O17 0.500000 0.500000 0.500000
O O18 0.000000 0.000000 0.500000
#
# Coordination Sequence:
#
# PCOD9106046 Si02
#       8
#     2   2   2   2   2   2   2   2
#     4  11  23  41  62  92 131 169 219 271 321 396
#     4  10  22  42  63  95 127 167 218 283 330 386
#     4  10  20  39  67  88 121 175 213 253 336 396
#     4  10  20  40  66  90 133 171 214 273 336 394
#     4  10  21  37  63  94 123 172 213 258 335 386
#     4  10  21  40  63  86 127 167 212 268 324 385
#     4  11  22  39  62  92 128 167 217 272 320 392
#     4  10  20  41  70  91 129 170 215 271 330 399
#
# _framework density 20.957397
#
# number of rings (size 3 to 8) (size 9 to 14) (size 15 to 20)
#    0.000    1.750    1.250    4.125    0.000    1.000 
#   15.750    3.125    0.000    0.000    0.000    0.000 
#    0.000    0.000    0.000    0.000    0.000    0.000 
#
# Total GULP energy -89082.793182 kJ/mol
# GULP energy per Si atom -5567.674574 kJ/mol
# Density = 2.090970 g / cm^3
# Si number density = 20.957397 Si / 1000 Ang^3
#
#
#
# Elastic Constant Matrix: (Units=GPa)
#
#
# Indices 1 2 3 4 5 6 
#
# 1 165.1544 25.2491 44.2523 -1.3772 18.9605 8.2906
# 2 25.2491 100.5890 26.0140 10.1978 3.5213 -1.1472
# 3 44.2523 26.0140 65.5216 2.0406 -12.4019 6.3238
# 4 -1.3772 10.1978 2.0406 35.9358 -6.4028 -6.1659
# 5 18.9605 3.5213 -12.4019 -6.4028 25.8413 -4.9690
# 6 8.2906 -1.1472 6.3238 -6.1659 -4.9690 30.7942
#
#
#
# Elastic Compliance Matrix: (Units=1/GPa)
#
#
# Indices 1 2 3 4 5 6 
#
# 1 0.010032 0.000437 -0.009004 -0.002100 -0.012904 -0.003338
# 2 0.000437 0.012018 -0.006038 -0.004143 -0.005924 -0.000215
# 3 -0.009004 -0.006038 0.027673 0.003821 0.021811 0.000801
# 4 -0.002100 -0.004143 0.003821 0.032563 0.013612 0.008343
# 5 -0.012904 -0.005924 0.021811 0.013612 0.065122 0.012008
# 6 -0.003338 -0.000215 0.000801 0.008343 0.012008 0.036808
#
#
# Mechanical properties :
#
#
# Convention : Reuss Voigt Hill
#
# Bulk Modulus (GPa) = 48.75015 58.03288 53.39151
# Shear Modulus (GPa) = 22.70005 34.23088 28.46547
#
# Velocity S-wave (km/s) = 3.29470 4.04586 3.68945
# Velocity P-wave (km/s) = 6.14699 7.04105 6.60915
#
# Compressibility (1/GPa) = 0.02051276
#
# Stress axis : x y z
#
# Youngs Moduli (GPa) = 99.67899 83.20604 36.13678
#
# Poissons Ratio (x) = -0.03635 0.32537
# Poissons Ratio (y) = -0.04355 0.21820
# Poissons Ratio (z) = 0.89750 0.50242
#
# Static dielectric constant tensor:
#      x y z
#    x 1.855630 0.030140 0.037710 
#    y 0.030140 1.781030 0.064070 
#    z 0.037710 0.064070 1.860140 
# 
# From -- ./inp_files/577620.got.cif
#   From: 2010.05.17/outbox.cif.g08.bks.cpg/sg2_289_cif.got.tgz:577620.got - 2010.06.03 11:33:40.
