data_PCOD9106598
_publ_section_title
;
Structure prediction by ZEFSAII (Michael W. Deem and Ramdas Pophale) SiO2 
 PCOD9106598
Probable space group: P -1
;
_chemical_formula_sum "Si O2"
_cell_formula_units_Z 16
_cell_length_a 8.548306
_cell_length_b 5.410707
_cell_length_c 24.828686
_cell_angle_alpha 72.250986
_cell_angle_beta 136.739308
_cell_angle_gamma 120.229511
_cell_volume 676.275990
_symmetry_space_group_name_H-M "P -1"
_symmetry_group_IT_number 2
_symmetry_cell_setting 'triclinic'
loop_
_space_group_symop_operation_xyz
x,y,z
-x,-y,-z
loop_
_atom_site_type_symbol
_atom_site_label
_atom_site_fract_x
_atom_site_fract_y
_atom_site_fract_z
Si Si1 0.721739 0.288916 0.555059
Si Si2 0.154062 0.330174 0.232733
Si Si3 0.672335 0.904011 0.085800
Si Si4 0.833394 0.672529 0.462509
Si Si5 0.238619 0.219685 0.677144
Si Si6 0.962653 0.612274 0.687961
Si Si7 0.812789 0.054735 0.820905
Si Si8 0.436398 0.509620 0.821005
O O1 0.706075 0.522851 0.495772
O O2 0.737387 0.372403 0.615344
O O3 0.989088 0.274408 0.616402
O O4 0.500000 0.000000 0.500000
O O5 0.144989 0.278690 0.297058
O O6 0.269266 0.146938 0.240106
O O7 0.859594 0.170429 0.151235
O O8 0.237014 0.664240 0.216110
O O9 0.884201 0.849859 0.107506
O O10 0.515137 0.651948 0.105317
O O11 0.500000 0.000000 0.000000
O O12 0.673295 0.664280 0.369103
O O13 0.000000 0.500000 0.500000
O O14 0.000000 0.000000 0.500000
O O15 0.387936 0.339656 0.762822
O O16 0.132116 0.875153 0.674122
O O17 0.163774 0.502140 0.766925
O O18 0.651424 0.830806 0.841698
#
# Coordination Sequence:
#
# PCOD9106598 Si02
#       8
#     2   2   2   2   2   2   2   2
#     4  10  23  39  60  94 127 171 225 277 339 398
#     4  10  22  44  64 100 139 170 227 276 332 402
#     4  10  23  44  71 100 141 179 220 281 339 400
#     4  10  20  40  58  83 124 159 208 268 320 386
#     4  10  21  39  63  89 126 175 220 272 338 398
#     4  11  20  40  69  89 135 181 223 278 342 401
#     4  10  24  43  65 103 137 169 235 272 332 404
#     4  11  23  42  69  98 133 181 226 277 337 404
#
# _framework density 23.65898
#
# number of rings (size 3 to 8) (size 9 to 14) (size 15 to 20)
#    0.750    1.000    3.750    0.000    3.500    2.500 
#    0.000    0.625    0.000    0.000    0.000    0.000 
#    0.000    0.000    0.000    0.000    0.000    0.000 
#
# Total GULP energy -89339.088470 kJ/mol
# GULP energy per Si atom -5583.693029 kJ/mol
# Density = 2.360513 g / cm^3
# Si number density = 23.658980 Si / 1000 Ang^3
#
#
#
# Elastic Constant Matrix: (Units=GPa)
#
#
# Indices 1 2 3 4 5 6 
#
# 1 69.7778 4.7496 14.4489 -7.1467 3.4153 0.3227
# 2 4.7496 129.6337 4.2220 -18.4809 -9.3600 13.7231
# 3 14.4489 4.2220 79.5424 -31.1527 -1.9816 10.4529
# 4 -7.1467 -18.4809 -31.1527 36.9675 -0.3823 -6.6035
# 5 3.4153 -9.3600 -1.9816 -0.3823 28.6890 -8.9658
# 6 0.3227 13.7231 10.4529 -6.6035 -8.9658 44.5685
#
#
#
# Elastic Compliance Matrix: (Units=1/GPa)
#
#
# Indices 1 2 3 4 5 6 
#
# 1 0.015059 -0.000587 -0.002626 0.000444 -0.002053 0.000340
# 2 -0.000587 0.008895 0.002272 0.005943 0.002627 -0.001858
# 3 -0.002626 0.002272 0.019972 0.017039 0.001892 -0.002459
# 4 0.000444 0.005943 0.017039 0.044804 0.004175 0.001649
# 5 -0.002053 0.002627 0.001892 0.004175 0.038363 0.007098
# 6 0.000340 -0.001858 -0.002459 0.001649 0.007098 0.025256
#
#
# Mechanical properties :
#
#
# Convention : Reuss Voigt Hill
#
# Bulk Modulus (GPa) = 23.78508 36.19942 29.99225
# Shear Modulus (GPa) = 29.71809 39.08057 34.39933
#
# Velocity S-wave (km/s) = 3.54800 4.06868 3.81723
# Velocity P-wave (km/s) = 5.18262 6.11604 5.66857
#
# Compressibility (1/GPa) = 0.04204316
#
# Stress axis : x y z
#
# Youngs Moduli (GPa) = 66.40354 112.41933 50.07030
#
# Poissons Ratio (x) = 0.06601 0.13150
# Poissons Ratio (y) = 0.03899 -0.11375
# Poissons Ratio (z) = 0.17440 -0.25539
#
# Static dielectric constant tensor:
#      x y z
#    x 2.023830 -0.016470 0.009540 
#    y -0.016470 1.986890 0.010230 
#    z 0.009540 0.010230 1.865370 
# 
# From -- ./inp_files/605850.got.cif
#   From: 2010.05.17/outbox.cif.g08.bks.cpg/sg2_303_cif.got.tgz:605850.got - 2010.06.03 11:33:40.
