data_PCOD9106525
_publ_section_title
;
Structure prediction by ZEFSAII (Michael W. Deem and Ramdas Pophale) SiO2 
 PCOD9106525
Probable space group: P -1
;
_chemical_formula_sum "Si O2"
_cell_formula_units_Z 16
_cell_length_a 26.056214
_cell_length_b 9.399229
_cell_length_c 8.936300
_cell_angle_alpha 132.006647
_cell_angle_beta 136.208198
_cell_angle_gamma 24.296056
_cell_volume 622.686501
_symmetry_space_group_name_H-M "P -1"
_symmetry_group_IT_number 2
_symmetry_cell_setting 'triclinic'
loop_
_space_group_symop_operation_xyz
x,y,z
-x,-y,-z
loop_
_atom_site_type_symbol
_atom_site_label
_atom_site_fract_x
_atom_site_fract_y
_atom_site_fract_z
Si Si1 0.100397 0.614055 0.394199
Si Si2 0.226631 0.242175 0.708429
Si Si3 0.279012 0.711755 0.379496
Si Si4 0.604039 0.408624 0.745385
Si Si5 0.284115 0.511731 0.557940
Si Si6 0.857578 0.854721 0.087341
Si Si7 0.533320 0.034673 0.938897
Si Si8 0.977156 0.278316 0.138089
O O1 0.196997 0.360863 0.559004
O O2 0.195824 0.513438 0.403913
O O3 0.992271 0.676292 0.190200
O O4 0.000000 0.000000 0.500000
O O5 0.085294 0.535293 0.701602
O O6 0.296883 0.885783 0.606254
O O7 0.315974 0.218123 0.951891
O O8 0.360622 0.513780 0.258194
O O9 0.297897 0.525886 0.422825
O O10 0.123407 0.041548 0.245161
O O11 0.500000 0.500000 0.500000
O O12 0.531443 0.624324 0.896480
O O13 0.751570 0.038550 0.859814
O O14 0.210846 0.844240 0.728274
O O15 0.432601 0.176945 0.702079
O O16 0.887350 0.595789 0.058307
O O17 0.500000 0.000000 0.000000
O O18 0.000000 0.000000 0.000000
#
# Coordination Sequence:
#
# PCOD9106525 Si02
#       8
#     2   2   2   2   2   2   2   2
#     4  10  20  39  72 103 134 187 243 286 344 434
#     4  12  23  45  76  98 143 192 234 295 360 421
#     4  12  25  46  71 101 149 183 238 302 358 417
#     4  11  26  47  70 107 142 190 240 296 355 431
#     4  10  22  42  75 107 139 189 243 291 353 432
#     4  10  22  45  73 100 146 194 241 285 367 429
#     4  11  24  45  75 103 141 191 244 283 352 438
#     4  12  27  44  69 111 148 183 241 308 360 419
#
# _framework density 25.695111000000001
#
# number of rings (size 3 to 8) (size 9 to 14) (size 15 to 20)
#    0.000    1.000    5.000    1.875    1.750    3.000 
#    6.750    0.625    0.000    0.000    0.000    0.000 
#    0.000    0.000    0.000    0.000    0.000    0.000 
#
# Total GULP energy -89440.859967 kJ/mol
# GULP energy per Si atom -5590.053748 kJ/mol
# Density = 2.563663 g / cm^3
# Si number density = 25.695111 Si / 1000 Ang^3
#
#
#
# Elastic Constant Matrix: (Units=GPa)
#
#
# Indices 1 2 3 4 5 6 
#
# 1 159.4239 29.7756 33.3570 -8.1471 -2.3124 15.9805
# 2 29.7756 58.4215 24.8188 -21.2324 -3.6711 9.7769
# 3 33.3570 24.8188 108.3536 -15.9476 15.1195 16.7712
# 4 -8.1471 -21.2324 -15.9476 52.3728 0.9453 -6.6200
# 5 -2.3124 -3.6711 15.1195 0.9453 56.7146 -3.1703
# 6 15.9805 9.7769 16.7712 -6.6200 -3.1703 56.6333
#
#
#
# Elastic Compliance Matrix: (Units=1/GPa)
#
#
# Indices 1 2 3 4 5 6 
#
# 1 0.007251 -0.003104 -0.001520 -0.000743 0.000450 -0.001122
# 2 -0.003104 0.023255 -0.003347 0.007746 0.002079 -0.001126
# 3 -0.001520 -0.003347 0.011580 0.001690 -0.003529 -0.002423
# 4 -0.000743 0.007746 0.001690 0.022767 -0.000302 0.001016
# 5 0.000450 0.002079 -0.003529 -0.000302 0.018819 0.001578
# 6 -0.001122 -0.001126 -0.002423 0.001016 0.001578 0.019093
#
#
# Mechanical properties :
#
#
# Convention : Reuss Voigt Hill
#
# Bulk Modulus (GPa) = 38.24891 55.78910 47.01900
# Shear Modulus (GPa) = 39.23974 49.02731 44.13352
#
# Velocity S-wave (km/s) = 3.91209 4.37285 4.14887
# Velocity P-wave (km/s) = 5.94339 6.87422 6.42568
#
# Compressibility (1/GPa) = 0.02614454
#
# Stress axis : x y z
#
# Youngs Moduli (GPa) = 137.90526 43.00131 86.35783
#
# Poissons Ratio (x) = 0.13349 0.13124
# Poissons Ratio (y) = 0.42809 0.28902
# Poissons Ratio (z) = 0.20959 0.14392
#
# Static dielectric constant tensor:
#      x y z
#    x 1.997570 0.056090 0.040760 
#    y 0.056090 2.424170 0.269030 
#    z 0.040760 0.269030 2.148880 
# 
# From -- ./inp_files/352346.got.cif
#   From: 2010.05.17/outbox.cif.g08.bks.cpg/sg2_177_cif.got.tgz:352346.got - 2010.06.03 11:33:40.
