data_PCOD9106723
_publ_section_title
;
Structure prediction by ZEFSAII (Michael W. Deem and Ramdas Pophale) SiO2 
 PCOD9106723
Probable space group: P -1
;
_chemical_formula_sum "Si O2"
_cell_formula_units_Z 16
_cell_length_a 15.105817
_cell_length_b 15.252567
_cell_length_c 12.366376
_cell_angle_alpha 147.852405
_cell_angle_beta 35.767205
_cell_angle_gamma 150.850797
_cell_volume 709.441938
_symmetry_space_group_name_H-M "P -1"
_symmetry_group_IT_number 2
_symmetry_cell_setting 'triclinic'
loop_
_space_group_symop_operation_xyz
x,y,z
-x,-y,-z
loop_
_atom_site_type_symbol
_atom_site_label
_atom_site_fract_x
_atom_site_fract_y
_atom_site_fract_z
Si Si1 0.811886 0.470687 0.695161
Si Si2 0.567570 0.399388 0.662196
Si Si3 0.401065 0.596816 0.744782
Si Si4 0.365296 0.998135 0.959427
Si Si5 0.828773 0.873098 0.151699
Si Si6 0.159406 0.543502 0.735760
Si Si7 0.260844 0.701492 0.177792
Si Si8 0.242536 0.139425 0.028984
O O1 0.662658 0.371492 0.641664
O O2 0.742767 0.335615 0.730859
O O3 0.000000 0.500000 0.500000
O O4 0.848699 0.688819 0.913885
O O5 0.346080 0.221927 0.694992
O O6 0.691992 0.439839 0.477419
O O7 0.603503 0.616593 0.872730
O O8 0.500000 0.500000 0.500000
O O9 0.569786 0.842117 0.839931
O O10 0.225802 0.527359 0.769750
O O11 0.319430 0.569295 0.918267
O O12 0.291448 0.045372 0.976219
O O13 0.570567 0.068007 0.787208
O O14 0.211428 0.769275 0.909621
O O15 0.778545 0.929108 0.146179
O O16 0.032218 0.069456 0.191912
O O17 0.944242 0.376950 0.741321
#
# Coordination Sequence:
#
# PCOD9106723 Si02
#       8
#     2   2   2   2   2   2   2   2
#     4  11  20  39  63 100 130 172 209 256 325 373
#     4  11  23  38  66  90 134 170 212 261 311 386
#     4  10  24  45  70  92 124 170 214 267 322 375
#     4  10  23  40  68  93 128 163 213 272 311 383
#     4  10  22  37  64  88 130 175 211 260 307 382
#     4  12  23  43  65  98 126 168 214 264 321 375
#     4  10  23  41  69  89 134 168 206 267 317 378
#     4  10  20  40  60  90 127 167 214 258 316 370
#
# _framework density 22.552937
#
# number of rings (size 3 to 8) (size 9 to 14) (size 15 to 20)
#    0.750    0.750    1.250    5.250    1.750    1.000 
#    2.250    1.875    0.000    0.000    0.000    0.000 
#    0.000    0.000    0.000    0.000    0.000    0.000 
#
# Total GULP energy -89344.955703 kJ/mol
# GULP energy per Si atom -5584.059731 kJ/mol
# Density = 2.250161 g / cm^3
# Si number density = 22.552937 Si / 1000 Ang^3
#
#
#
# Elastic Constant Matrix: (Units=GPa)
#
#
# Indices 1 2 3 4 5 6 
#
# 1 93.5593 13.2135 -2.3778 -8.6822 -3.1695 11.8371
# 2 13.2135 64.8393 -3.1596 -24.7472 -6.7438 24.7525
# 3 -2.3778 -3.1596 81.8441 -22.7284 -1.2481 -1.8924
# 4 -8.6822 -24.7472 -22.7284 32.7844 -0.9609 -4.5834
# 5 -3.1695 -6.7438 -1.2481 -0.9609 25.8834 -6.3168
# 6 11.8371 24.7525 -1.8924 -4.5834 -6.3168 26.1577
#
#
#
# Elastic Compliance Matrix: (Units=1/GPa)
#
#
# Indices 1 2 3 4 5 6 
#
# 1 0.011688 0.001886 0.001631 0.004842 0.000734 -0.005930
# 2 0.001886 0.041847 0.010775 0.035194 0.005083 -0.032279
# 3 0.001631 0.010775 0.018353 0.020667 0.003399 -0.005164
# 4 0.004842 0.035194 0.020667 0.070185 0.008574 -0.019631
# 5 0.000734 0.005083 0.003399 0.008574 0.042189 0.006795
# 6 -0.005930 -0.032279 -0.005164 -0.019631 0.006795 0.069286
#
#
# Mechanical properties :
#
#
# Convention : Reuss Voigt Hill
#
# Bulk Modulus (GPa) = 9.95305 28.39944 19.17625
# Shear Modulus (GPa) = 19.34569 32.46952 25.90760
#
# Velocity S-wave (km/s) = 2.93198 3.79846 3.39299
# Velocity P-wave (km/s) = 3.98557 5.64424 4.88581
#
# Compressibility (1/GPa) = 0.10047169
#
# Stress axis : x y z
#
# Youngs Moduli (GPa) = 85.55791 23.89660 54.48588
#
# Poissons Ratio (x) = -0.04506 -0.08887
# Poissons Ratio (y) = -0.16134 -0.58708
# Poissons Ratio (z) = -0.13955 -0.25748
#
# Static dielectric constant tensor:
#      x y z
#    x 1.823800 0.007270 -0.003780 
#    y 0.007270 1.850960 0.048830 
#    z -0.003780 0.048830 1.944060 
# 
# From -- ./inp_files/455062.got.cif
#   From: 2010.05.17/outbox.cif.g08.bks.cpg/sg2_228_cif.got.tgz:455062.got - 2010.06.03 11:33:40.
