data_PCOD9106229
_publ_section_title
;
Structure prediction by ZEFSAII (Michael W. Deem and Ramdas Pophale) SiO2 
 PCOD9106229
Probable space group: P -1
;
_chemical_formula_sum "Si O2"
_cell_formula_units_Z 14
_cell_length_a 21.748638
_cell_length_b 9.279931
_cell_length_c 8.793297
_cell_angle_alpha 109.084157
_cell_angle_beta 149.563634
_cell_angle_gamma 59.060770
_cell_volume 742.969260
_symmetry_space_group_name_H-M "P -1"
_symmetry_group_IT_number 2
_symmetry_cell_setting 'triclinic'
loop_
_space_group_symop_operation_xyz
x,y,z
-x,-y,-z
loop_
_atom_site_type_symbol
_atom_site_label
_atom_site_fract_x
_atom_site_fract_y
_atom_site_fract_z
Si Si1 0.145431 0.371012 0.843253
Si Si2 0.657527 0.881191 0.241199
Si Si3 0.331084 0.757092 0.148223
Si Si4 0.100680 0.317627 0.071767
Si Si5 0.793863 0.986609 0.308534
Si Si6 0.629591 0.619701 0.862721
Si Si7 0.949714 0.996060 0.219032
O O1 0.000000 0.500000 0.500000
O O2 0.186013 0.180546 0.801306
O O3 0.135980 0.366240 0.000829
O O4 0.260292 0.418706 0.048955
O O5 0.763829 0.794675 0.576281
O O6 0.713886 0.984424 0.289308
O O7 0.661410 0.724945 0.094909
O O8 0.500000 0.000000 0.000000
O O9 0.475163 0.736218 0.509581
O O10 0.351665 0.564104 0.105968
O O11 0.288432 0.853946 0.928291
O O12 0.212112 0.862723 0.057793
O O13 0.035421 0.190246 0.856214
O O14 0.000000 0.500000 0.000000
O O15 0.946793 0.967006 0.651162
O O16 0.000000 0.000000 0.500000
#
# Coordination Sequence:
#
# PCOD9106229 Si02
#       7
#     2   2   2   2   2   2   2
#     4  11  22  40  66  94 123 172 223 264 317 390
#     4  11  26  42  62  96 141 169 209 273 339 384
#     4  10  20  39  68  95 118 169 230 263 307 375
#     4  12  25  40  64  99 135 166 210 276 336 373
#     4  10  22  39  70  89 122 176 221 257 318 390
#     4  10  23  39  67  92 129 168 226 263 312 397
#     4  10  20  39  68  89 124 165 219 264 306 385
#
# _framework density 18.843309999999999
#
# number of rings (size 3 to 8) (size 9 to 14) (size 15 to 20)
#    0.000    1.429    2.857    3.429    8.000    1.714 
#    0.000    3.571    0.000    0.000    0.000    0.000 
#    0.000    0.000    0.000    0.000    0.000    0.000 
#
# Total GULP energy -78167.281209 kJ/mol
# GULP energy per Si atom -5583.377229 kJ/mol
# Density = 1.880042 g / cm^3
# Si number density = 18.843310 Si / 1000 Ang^3
#
#
#
# Elastic Constant Matrix: (Units=GPa)
#
#
# Indices 1 2 3 4 5 6 
#
# 1 153.0085 30.6635 76.0168 -14.1442 5.3421 6.3288
# 2 30.6635 57.6724 41.0574 -3.4716 -5.8867 -4.2060
# 3 76.0168 41.0574 134.0475 -12.3260 9.6690 13.1940
# 4 -14.1442 -3.4716 -12.3260 38.2839 -0.8401 -2.0237
# 5 5.3421 -5.8867 9.6690 -0.8401 34.1602 -3.0899
# 6 6.3288 -4.2060 13.1940 -2.0237 -3.0899 28.9605
#
#
#
# Elastic Compliance Matrix: (Units=1/GPa)
#
#
# Indices 1 2 3 4 5 6 
#
# 1 0.009325 -0.001638 -0.004580 0.001807 -0.000409 -0.000106
# 2 -0.001638 0.025564 -0.008350 -0.000345 0.007802 0.008683
# 3 -0.004580 -0.008350 0.013816 0.001516 -0.005225 -0.006958
# 4 0.001807 -0.000345 0.001516 0.027285 -0.000031 0.000767
# 5 -0.000409 0.007802 -0.005225 -0.000031 0.032803 0.007101
# 6 -0.000106 0.008683 -0.006958 0.000767 0.007101 0.039795
#
#
# Mechanical properties :
#
#
# Convention : Reuss Voigt Hill
#
# Bulk Modulus (GPa) = 51.10366 71.13376 61.11871
# Shear Modulus (GPa) = 27.13734 33.41362 30.27548
#
# Velocity S-wave (km/s) = 3.79906 4.21555 4.01271
# Velocity P-wave (km/s) = 6.81344 7.84389 7.34675
#
# Compressibility (1/GPa) = 0.01956807
#
# Stress axis : x y z
#
# Youngs Moduli (GPa) = 107.23657 39.11813 72.37873
#
# Poissons Ratio (x) = 0.06408 0.33152
# Poissons Ratio (y) = 0.17566 0.60437
# Poissons Ratio (z) = 0.49117 0.32664
#
# Static dielectric constant tensor:
#      x y z
#    x 1.645050 0.005760 0.053580 
#    y 0.005760 1.651910 0.010880 
#    z 0.053580 0.010880 1.638240 
# 
# From -- ./inp_files/184111.got.cif
#   From: 2010.05.17/outbox.cif.g08.bks.cpg/sg2_93_cif.got.tgz:184111.got - 2010.06.03 11:33:40.
