data_PCOD9106865
_publ_section_title
;
Structure prediction by ZEFSAII (Michael W. Deem and Ramdas Pophale) SiO2 
 PCOD9106865
Probable space group: P -1
;
_chemical_formula_sum "Si O2"
_cell_formula_units_Z 16
_cell_length_a 5.555780
_cell_length_b 19.590328
_cell_length_c 11.707478
_cell_angle_alpha 138.324847
_cell_angle_beta 60.302351
_cell_angle_gamma 134.500110
_cell_volume 603.236890
_symmetry_space_group_name_H-M "P -1"
_symmetry_group_IT_number 2
_symmetry_cell_setting 'triclinic'
loop_
_space_group_symop_operation_xyz
x,y,z
-x,-y,-z
loop_
_atom_site_type_symbol
_atom_site_label
_atom_site_fract_x
_atom_site_fract_y
_atom_site_fract_z
Si Si1 0.493140 0.777838 0.896140
Si Si2 0.607594 0.911279 0.818266
Si Si3 0.879752 0.660623 0.623783
Si Si4 0.096651 0.091467 0.484734
Si Si5 0.212829 0.640170 0.343494
Si Si6 0.470720 0.631922 0.057899
Si Si7 0.782374 0.213188 0.807636
Si Si8 0.749097 0.531932 0.705484
O O1 0.705288 0.870072 0.857525
O O2 0.670680 0.707738 0.788802
O O3 0.114110 0.663923 0.809229
O O4 0.450613 0.845103 0.097039
O O5 0.263087 0.780962 0.700544
O O6 0.859588 0.956586 0.707600
O O7 0.500000 0.000000 0.000000
O O8 0.894736 0.640381 0.459290
O O9 0.761718 0.537883 0.572650
O O10 0.468747 0.218570 0.576124
O O11 0.833358 0.130746 0.603764
O O12 0.000000 0.000000 0.500000
O O13 0.211657 0.566083 0.141755
O O14 0.274550 0.579744 0.362067
O O15 0.370602 0.719607 0.134576
O O16 0.839432 0.699640 0.118026
O O17 0.489195 0.550546 0.855185
#
# Coordination Sequence:
#
# PCOD9106865 Si02
#       8
#     2   2   2   2   2   2   2   2
#     4  10  21  38  63  94 127 171 216 267 331 396
#     4  10  22  40  66  92 128 168 223 275 328 393
#     4  10  21  39  63  91 132 167 215 268 334 395
#     4  10  22  43  66  94 130 172 224 276 335 391
#     4  10  22  39  63  93 131 170 219 271 332 395
#     4  10  21  40  64  96 132 176 221 270 328 394
#     4  10  21  41  67  94 132 176 220 273 330 393
#     4  10  20  40  61  95 129 172 215 269 328 399
#
# _framework density 26.523577
#
# number of rings (size 3 to 8) (size 9 to 14) (size 15 to 20)
#    0.000    2.000    1.250    1.500    1.750    2.000 
#    4.500    6.250    0.000    0.000    0.000    0.000 
#    0.000    0.000    0.000    0.000    0.000    0.000 
#
# Total GULP energy -89408.275576 kJ/mol
# GULP energy per Si atom -5588.017223 kJ/mol
# Density = 2.646321 g / cm^3
# Si number density = 26.523577 Si / 1000 Ang^3
#
#
#
# Elastic Constant Matrix: (Units=GPa)
#
#
# Indices 1 2 3 4 5 6 
#
# 1 86.7784 34.3780 27.3008 -6.4088 -8.6093 2.7577
# 2 34.3780 165.0876 77.1254 -34.0639 -4.2407 -7.4094
# 3 27.3008 77.1254 200.8240 -51.3146 -24.1150 3.7642
# 4 -6.4088 -34.0639 -51.3146 66.0686 6.1536 -2.0828
# 5 -8.6093 -4.2407 -24.1150 6.1536 44.1199 6.4686
# 6 2.7577 -7.4094 3.7642 -2.0828 6.4686 51.3948
#
#
#
# Elastic Compliance Matrix: (Units=1/GPa)
#
#
# Indices 1 2 3 4 5 6 
#
# 1 0.012953 -0.002544 -0.000713 -0.000856 0.002207 -0.001322
# 2 -0.002544 0.008253 -0.002466 0.002303 -0.001637 0.001806
# 3 -0.000713 -0.002466 0.007500 0.004141 0.003309 -0.001115
# 4 -0.000856 0.002303 0.004141 0.019537 -0.000544 0.000935
# 5 0.002207 -0.001637 0.003309 -0.000544 0.025382 -0.003813
# 6 -0.001322 0.001806 -0.001115 0.000935 -0.003813 0.020388
#
#
# Mechanical properties :
#
#
# Convention : Reuss Voigt Hill
#
# Bulk Modulus (GPa) = 57.93258 81.14428 69.53843
# Shear Modulus (GPa) = 44.95917 53.24236 49.10076
#
# Velocity S-wave (km/s) = 4.12158 4.48522 4.30724
# Velocity P-wave (km/s) = 6.67377 7.58173 7.14219
#
# Compressibility (1/GPa) = 0.01726144
#
# Stress axis : x y z
#
# Youngs Moduli (GPa) = 77.20048 121.16504 133.33671
#
# Poissons Ratio (x) = 0.30819 0.09507
# Poissons Ratio (y) = 0.19636 0.32879
# Poissons Ratio (z) = 0.05505 0.29877
#
# Static dielectric constant tensor:
#      x y z
#    x 2.244810 -0.020180 0.072840 
#    y -0.020180 2.041540 0.006060 
#    z 0.072840 0.006060 2.170370 
# 
# From -- ./inp_files/123760.got.cif
#   From: 2010.05.17/outbox.cif.g08.bks.cpg/sg2_62_cif.got.tgz:123760.got - 2010.06.03 11:33:40.
