data_PCOD9106557
_publ_section_title
;
Structure prediction by ZEFSAII (Michael W. Deem and Ramdas Pophale) SiO2 
 PCOD9106557
Probable space group: P -1
;
_chemical_formula_sum "Si O2"
_cell_formula_units_Z 14
_cell_length_a 11.236422
_cell_length_b 12.097747
_cell_length_c 5.606139
_cell_angle_alpha 105.094804
_cell_angle_beta 56.197260
_cell_angle_gamma 101.914261
_cell_volume 609.597790
_symmetry_space_group_name_H-M "P -1"
_symmetry_group_IT_number 2
_symmetry_cell_setting 'triclinic'
loop_
_space_group_symop_operation_xyz
x,y,z
-x,-y,-z
loop_
_atom_site_type_symbol
_atom_site_label
_atom_site_fract_x
_atom_site_fract_y
_atom_site_fract_z
Si Si1 0.078479 0.542500 0.184952
Si Si2 0.318573 0.188512 0.394213
Si Si3 0.226292 0.789575 0.197046
Si Si4 0.500012 0.721621 0.126178
Si Si5 0.622292 0.571924 0.256733
Si Si6 0.916979 0.003205 0.342025
Si Si7 0.569041 0.101335 0.315700
O O1 0.110515 0.682026 0.221075
O O2 0.000000 0.500000 0.500000
O O3 0.233288 0.490132 0.977222
O O4 0.000000 0.500000 0.000000
O O5 0.337192 0.310033 0.575693
O O6 0.448144 0.108812 0.255653
O O7 0.182859 0.114079 0.594339
O O8 0.349731 0.215266 0.098682
O O9 0.370616 0.729451 0.086693
O O10 0.167801 0.880367 0.497755
O O11 0.278497 0.876476 0.971295
O O12 0.549846 0.605454 0.109184
O O13 0.438755 0.786678 0.452431
O O14 0.500000 0.500000 0.500000
O O15 0.000000 0.000000 0.500000
O O16 0.000000 0.000000 0.000000
O O17 0.500000 0.000000 0.500000
#
# Coordination Sequence:
#
# PCOD9106557 Si02
#       7
#     2   2   2   2   2   2   2
#     4  12  32  51  79 115 164 214 262 326 401 479
#     4  10  24  43  70 111 143 194 254 317 385 454
#     4  11  27  48  75 114 152 202 269 322 396 470
#     4  10  22  42  80 107 148 190 258 333 389 447
#     4  11  26  48  81 114 153 203 272 329 392 463
#     4  12  31  47  75 107 158 213 257 312 391 479
#     4  10  20  39  75 107 145 185 247 328 387 447
#
# _framework density 22.965962000000001
#
# number of rings (size 3 to 8) (size 9 to 14) (size 15 to 20)
#    0.000    1.143    0.000    4.286   18.000    3.429 
#    0.000    0.000    0.000    0.000    0.000    0.000 
#    0.000    0.000    0.000    0.000    0.000    0.000 
#
# Total GULP energy -78086.937181 kJ/mol
# GULP energy per Si atom -5577.638370 kJ/mol
# Density = 2.291369 g / cm^3
# Si number density = 22.965962 Si / 1000 Ang^3
#
#
#
# Elastic Constant Matrix: (Units=GPa)
#
#
# Indices 1 2 3 4 5 6 
#
# 1 87.4168 61.0975 44.9079 -18.0169 0.2031 -8.2776
# 2 61.0975 173.6818 88.1816 -25.7048 -10.1381 16.8443
# 3 44.9079 88.1816 203.2038 -26.3515 -11.0868 8.5664
# 4 -18.0169 -25.7048 -26.3515 57.4939 -6.9049 -2.6778
# 5 0.2031 -10.1381 -11.0868 -6.9049 29.2985 -1.7426
# 6 -8.2776 16.8443 8.5664 -2.6778 -1.7426 44.0358
#
#
#
# Elastic Compliance Matrix: (Units=1/GPa)
#
#
# Indices 1 2 3 4 5 6 
#
# 1 0.017094 -0.005634 -0.001373 0.002269 -0.001713 0.005706
# 2 -0.005634 0.009787 -0.002478 0.001597 0.002619 -0.004120
# 3 -0.001373 -0.002478 0.006655 0.001740 0.002056 -0.000418
# 4 0.002269 0.001597 0.001740 0.020387 0.006057 0.000957
# 5 -0.001713 0.002619 0.002056 0.006057 0.037262 0.000119
# 6 0.005706 -0.004120 -0.000418 0.000957 0.000119 0.025501
#
#
# Mechanical properties :
#
#
# Convention : Reuss Voigt Hill
#
# Bulk Modulus (GPa) = 68.65182 94.74183 81.69683
# Shear Modulus (GPa) = 35.58420 44.17332 39.87876
#
# Velocity S-wave (km/s) = 3.94055 4.39045 4.17157
# Velocity P-wave (km/s) = 7.11770 8.18804 7.67156
#
# Compressibility (1/GPa) = 0.01456626
#
# Stress axis : x y z
#
# Youngs Moduli (GPa) = 58.49936 102.18113 150.25580
#
# Poissons Ratio (x) = 0.57569 0.20626
# Poissons Ratio (y) = 0.32959 0.37236
# Poissons Ratio (z) = 0.08030 0.25322
#
# Static dielectric constant tensor:
#      x y z
#    x 1.976190 0.004770 0.047800 
#    y 0.004770 1.938790 0.017880 
#    z 0.047800 0.017880 1.873150 
# 
# From -- ./inp_files/71586.got.cif
#   From: 2010.05.17/outbox.cif.g08.bks.cpg/sg2_36_cif.got.tgz:71586.got - 2010.06.03 11:33:40.
