data_PCOD9106494
_publ_section_title
;
Structure prediction by ZEFSAII (Michael W. Deem and Ramdas Pophale) SiO2 
 PCOD9106494
Probable space group: P -1
;
_chemical_formula_sum "Si O2"
_cell_formula_units_Z 14
_cell_length_a 23.157574
_cell_length_b 9.371763
_cell_length_c 9.909139
_cell_angle_alpha 45.194453
_cell_angle_beta 152.876068
_cell_angle_gamma 138.465249
_cell_volume 644.840133
_symmetry_space_group_name_H-M "P -1"
_symmetry_group_IT_number 2
_symmetry_cell_setting 'triclinic'
loop_
_space_group_symop_operation_xyz
x,y,z
-x,-y,-z
loop_
_atom_site_type_symbol
_atom_site_label
_atom_site_fract_x
_atom_site_fract_y
_atom_site_fract_z
Si Si1 0.629890 0.014754 0.848977
Si Si2 0.328363 0.523295 0.254591
Si Si3 0.157895 0.097869 0.805523
Si Si4 0.078596 0.114506 0.927895
Si Si5 0.154451 0.843786 0.467016
Si Si6 0.428193 0.236887 0.837330
Si Si7 0.694078 0.433465 0.122018
O O1 0.670927 0.241740 0.863679
O O2 0.500000 0.000000 0.500000
O O3 0.751709 0.013131 0.007527
O O4 0.589208 0.816109 0.004562
O O5 0.409315 0.445857 0.589797
O O6 0.179527 0.331496 0.066583
O O7 0.372133 0.535158 0.179601
O O8 0.148598 0.085474 0.955924
O O9 0.240263 0.356053 0.788573
O O10 0.000000 0.000000 0.500000
O O11 0.933373 0.141327 0.595472
O O12 0.069047 0.904929 0.132865
O O13 0.182110 0.632596 0.628129
O O14 0.303140 0.033586 0.652728
O O15 0.576144 0.255520 0.080868
#
# Coordination Sequence:
#
# PCOD9106494 Si02
#       7
#     2   2   2   2   2   2   2
#     4  12  27  43  67  99 139 181 220 268 339 396
#     4  10  23  42  70  95 128 177 221 276 333 385
#     4  11  26  44  64  96 138 177 221 273 328 403
#     4   9  22  42  67  96 133 164 230 277 321 395
#     4  10  20  39  71 101 122 171 224 281 329 382
#     4  11  23  43  67  99 138 166 224 279 322 402
#     4  11  23  40  72  98 127 174 226 271 336 388
#
# _framework density 21.710806000000002
#
# number of rings (size 3 to 8) (size 9 to 14) (size 15 to 20)
#    0.000    1.429    1.429    2.571    4.000    4.571 
#    0.000    0.714    0.000    0.000    0.000    0.000 
#    0.000    0.000    0.000    0.000    0.000    0.000 
#
# Total GULP energy -78062.067115 kJ/mol
# GULP energy per Si atom -5575.861937 kJ/mol
# Density = 2.166139 g / cm^3
# Si number density = 21.710806 Si / 1000 Ang^3
#
#
#
# Elastic Constant Matrix: (Units=GPa)
#
#
# Indices 1 2 3 4 5 6 
#
# 1 128.2757 39.5783 49.4802 5.9347 18.9688 9.8638
# 2 39.5783 73.2939 29.0306 6.1349 3.2312 -12.6383
# 3 49.4802 29.0306 107.5945 -3.5320 14.8546 -6.0782
# 4 5.9347 6.1349 -3.5320 34.9424 4.3625 -1.4285
# 5 18.9688 3.2312 14.8546 4.3625 30.4881 -1.6028
# 6 9.8638 -12.6383 -6.0782 -1.4285 -1.6028 32.9146
#
#
#
# Elastic Compliance Matrix: (Units=1/GPa)
#
#
# Indices 1 2 3 4 5 6 
#
# 1 0.012593 -0.006205 -0.003788 -0.001031 -0.005561 -0.007171
# 2 -0.006205 0.019619 -0.002561 -0.002769 0.003898 0.008989
# 3 -0.003788 -0.002561 0.012475 0.002919 -0.003741 0.002400
# 4 -0.001031 -0.002769 0.002919 0.030205 -0.004764 0.000864
# 5 -0.005561 0.003898 -0.003741 -0.004764 0.038569 0.004144
# 6 -0.007171 0.008989 0.002400 0.000864 0.004144 0.036665
#
#
# Mechanical properties :
#
#
# Convention : Reuss Voigt Hill
#
# Bulk Modulus (GPa) = 51.07661 60.59359 55.83510
# Shear Modulus (GPa) = 27.50881 32.40737 29.95809
#
# Velocity S-wave (km/s) = 3.56343 3.86772 3.71869
# Velocity P-wave (km/s) = 6.36457 6.92211 6.64919
#
# Compressibility (1/GPa) = 0.01957843
#
# Stress axis : x y z
#
# Youngs Moduli (GPa) = 79.41000 50.97203 80.15833
#
# Poissons Ratio (x) = 0.31627 0.30366
# Poissons Ratio (y) = 0.49272 0.20530
# Poissons Ratio (z) = 0.30083 0.13055
#
# Static dielectric constant tensor:
#      x y z
#    x 1.844680 0.030230 -0.012360 
#    y 0.030230 1.811380 -0.018710 
#    z -0.012360 -0.018710 1.874560 
# 
# From -- ./inp_files/343362.got.cif
#   From: 2010.05.17/outbox.cif.g08.bks.cpg/sg2_172_cif.got.tgz:343362.got - 2010.06.03 11:33:40.
