data_PCOD9106383
_publ_section_title
;
Structure prediction by ZEFSAII (Michael W. Deem and Ramdas Pophale) SiO2 
 PCOD9106383
Probable space group: P -1
;
_chemical_formula_sum "Si O2"
_cell_formula_units_Z 13
_cell_length_a 7.870693
_cell_length_b 6.940975
_cell_length_c 14.974202
_cell_angle_alpha 130.620066
_cell_angle_beta 125.976358
_cell_angle_gamma 77.238319
_cell_volume 484.803266
_symmetry_space_group_name_H-M "P -1"
_symmetry_group_IT_number 2
_symmetry_cell_setting 'triclinic'
loop_
_space_group_symop_operation_xyz
x,y,z
-x,-y,-z
loop_
_atom_site_type_symbol
_atom_site_label
_atom_site_fract_x
_atom_site_fract_y
_atom_site_fract_z
Si Si1 0.000000 0.000000 0.000000
Si Si2 0.447278 0.261638 0.104909
Si Si3 0.977780 0.157730 0.628745
Si Si4 0.536946 0.215195 0.495057
Si Si5 0.175753 0.454418 0.932254
Si Si6 0.218515 0.411519 0.551210
Si Si7 0.813404 0.074722 0.819721
O O1 0.754970 0.810739 0.910097
O O2 0.938634 0.880386 0.840113
O O3 0.651268 0.451053 0.279089
O O4 0.361495 0.409057 0.040581
O O5 0.500000 0.000000 0.000000
O O6 0.882910 0.902482 0.583341
O O7 0.793630 0.302403 0.594040
O O8 0.000000 0.000000 0.500000
O O9 0.173007 0.345740 0.799676
O O10 0.410278 0.433258 0.544426
O O11 0.500000 0.000000 0.500000
O O12 0.423394 0.042155 0.324162
O O13 0.951505 0.282002 0.855400
O O14 0.165796 0.757695 0.028480
O O15 0.000000 0.500000 0.500000
#
# Coordination Sequence:
#
# PCOD9106383 Si02
#       7
#     1   2   2   2   2   2   2
#     4  10  26  42  68 104 134 174 244 286 356 410
#     4  11  25  45  71  97 145 186 234 296 357 425
#     4  11  24  42  67 103 139 177 242 291 345 429
#     4  10  20  40  66  93 133 182 225 277 353 414
#     4  10  20  39  70  96 131 184 226 285 354 417
#     4  11  24  44  68  99 142 187 228 285 364 418
#     4  10  20  39  69  95 133 173 234 284 341 422
#
# _framework density 26.814999
#
# number of rings (size 3 to 8) (size 9 to 14) (size 15 to 20)
#    0.000    1.538    3.077    2.769    6.462    3.692 
#    0.000    3.846    0.000    0.000    0.000    0.000 
#    0.000    0.000    0.000    0.000    0.000    0.000 
#
# Total GULP energy -72437.127868 kJ/mol
# GULP energy per Si atom -5572.086759 kJ/mol
# Density = 2.675397 g / cm^3
# Si number density = 26.814999 Si / 1000 Ang^3
#
#
#
# Elastic Constant Matrix: (Units=GPa)
#
#
# Indices 1 2 3 4 5 6 
#
# 1 102.8247 49.1251 49.0765 -0.9771 3.0863 -23.8280
# 2 49.1251 113.2449 70.7926 -4.0780 16.6647 -29.2025
# 3 49.0765 70.7926 254.7927 -6.5502 7.2916 -20.0836
# 4 -0.9771 -4.0780 -6.5502 47.5169 -10.4952 -0.2504
# 5 3.0863 16.6647 7.2916 -10.4952 43.1616 -1.9232
# 6 -23.8280 -29.2025 -20.0836 -0.2504 -1.9232 53.2251
#
#
#
# Elastic Compliance Matrix: (Units=1/GPa)
#
#
# Indices 1 2 3 4 5 6 
#
# 1 0.012988 -0.004316 -0.001091 -0.000004 0.001058 0.003073
# 2 -0.004316 0.014226 -0.002624 -0.000217 -0.004583 0.004716
# 3 -0.001091 -0.002624 0.004860 0.000508 0.000390 -0.000078
# 4 -0.000004 -0.000217 0.000508 0.022299 0.005437 0.000372
# 5 0.001058 -0.004583 0.000390 0.005437 0.026078 -0.000926
# 6 0.003073 0.004716 -0.000078 0.000372 -0.000926 0.022691
#
#
# Mechanical properties :
#
#
# Convention : Reuss Voigt Hill
#
# Bulk Modulus (GPa) = 62.44975 89.87232 76.16103
# Shear Modulus (GPa) = 40.14803 48.90527 44.52665
#
# Velocity S-wave (km/s) = 3.87359 4.27523 4.07936
# Velocity P-wave (km/s) = 6.58377 7.61306 7.11704
#
# Compressibility (1/GPa) = 0.01601287
#
# Stress axis : x y z
#
# Youngs Moduli (GPa) = 76.99353 70.29564 205.77572
#
# Poissons Ratio (x) = 0.30337 0.22445
# Poissons Ratio (y) = 0.33227 0.53994
# Poissons Ratio (z) = 0.08398 0.18445
#
# Static dielectric constant tensor:
#      x y z
#    x 2.461560 -0.309790 0.165330 
#    y -0.309790 3.431900 -0.220340 
#    z 0.165330 -0.220340 2.146270 
# 
# From -- ./inp_files/149437.got.cif
#   From: 2010.05.17/outbox.cif.g08.bks.cpg/sg2_75_cif.got.tgz:149437.got - 2010.06.03 11:33:40.
