data_PCOD9106129
_publ_section_title
;
Structure prediction by ZEFSAII (Michael W. Deem and Ramdas Pophale) SiO2 
 PCOD9106129
Probable space group: P -1
;
_chemical_formula_sum "Si O2"
_cell_formula_units_Z 16
_cell_length_a 23.148069
_cell_length_b 9.171877
_cell_length_c 6.135844
_cell_angle_alpha 52.533523
_cell_angle_beta 75.325519
_cell_angle_gamma 50.947286
_cell_volume 784.907863
_symmetry_space_group_name_H-M "P -1"
_symmetry_group_IT_number 2
_symmetry_cell_setting 'triclinic'
loop_
_space_group_symop_operation_xyz
x,y,z
-x,-y,-z
loop_
_atom_site_type_symbol
_atom_site_label
_atom_site_fract_x
_atom_site_fract_y
_atom_site_fract_z
Si Si1 0.939829 0.970748 0.324506
Si Si2 0.584586 0.316870 0.685474
Si Si3 0.453597 0.989378 0.861083
Si Si4 0.890174 0.353401 0.680333
Si Si5 0.176307 0.829140 0.367010
Si Si6 0.706633 0.284103 0.302469
Si Si7 0.839878 0.868022 0.272598
Si Si8 0.408106 0.390301 0.231523
O O1 0.909002 0.862668 0.301323
O O2 0.030448 0.796828 0.392396
O O3 0.899299 0.022505 0.546742
O O4 0.910888 0.213884 0.015813
O O5 0.500000 0.500000 0.500000
O O6 0.644282 0.283854 0.488268
O O7 0.590535 0.423385 0.804305
O O8 0.596025 0.080918 0.934373
O O9 0.515375 0.781868 0.826550
O O10 0.407880 0.228663 0.554741
O O11 0.500000 0.000000 0.000000
O O12 0.831382 0.329740 0.639152
O O13 0.860875 0.615605 0.483573
O O14 0.247078 0.686324 0.592618
O O15 0.180526 0.005274 0.057458
O O16 0.769284 0.041998 0.341053
O O17 0.662141 0.482250 0.981560
#
# Coordination Sequence:
#
# PCOD9106129 Si02
#       8
#     2   2   2   2   2   2   2   2
#     4   9  20  38  65  97 128 163 212 268 311 364
#     4  12  23  43  70  91 122 160 211 269 320 383
#     4  11  23  41  67 100 120 152 206 268 321 384
#     4  10  20  39  67  95 126 168 214 261 313 368
#     4  10  22  41  60  89 133 167 213 257 313 382
#     4  11  24  43  61  87 131 174 204 261 327 373
#     4  10  22  40  61  91 132 168 212 258 317 383
#     4  11  23  42  67  91 127 158 206 264 325 380
#
# _framework density 20.384558999999999
#
# number of rings (size 3 to 8) (size 9 to 14) (size 15 to 20)
#    0.000    1.500    2.500    1.875    0.000    2.500 
#    0.000   23.750    0.000    0.000    0.000    0.000 
#    0.000    0.000    0.000    0.000    0.000    0.000 
#
# Total GULP energy -89472.220660 kJ/mol
# GULP energy per Si atom -5592.013791 kJ/mol
# Density = 2.033816 g / cm^3
# Si number density = 20.384559 Si / 1000 Ang^3
#
#
#
# Elastic Constant Matrix: (Units=GPa)
#
#
# Indices 1 2 3 4 5 6 
#
# 1 91.5850 48.9548 58.3627 -12.6682 5.5642 -5.6391
# 2 48.9548 58.0906 49.7753 -0.1355 -7.0336 1.3463
# 3 58.3627 49.7753 107.6949 -12.0489 -4.9373 15.7777
# 4 -12.6682 -0.1355 -12.0489 38.9885 -0.7346 -11.7515
# 5 5.5642 -7.0336 -4.9373 -0.7346 36.8224 3.1414
# 6 -5.6391 1.3463 15.7777 -11.7515 3.1414 32.7151
#
#
#
# Elastic Compliance Matrix: (Units=1/GPa)
#
#
# Indices 1 2 3 4 5 6 
#
# 1 0.030018 -0.019400 -0.008748 0.011394 -0.010492 0.015292
# 2 -0.019400 0.042724 -0.009143 -0.010419 0.010120 -0.005407
# 3 -0.008748 -0.009143 0.020027 0.000034 0.003207 -0.011086
# 4 0.011394 -0.010419 0.000034 0.033738 -0.004306 0.014909
# 5 -0.010492 0.010120 0.003207 -0.004306 0.031734 -0.008366
# 6 0.015292 -0.005407 -0.011086 0.014909 -0.008366 0.044930
#
#
# Mechanical properties :
#
#
# Convention : Reuss Voigt Hill
#
# Bulk Modulus (GPa) = 54.98148 63.50623 59.24386
# Shear Modulus (GPa) = 17.61723 28.39038 23.00380
#
# Velocity S-wave (km/s) = 2.94299 3.73599 3.36295
# Velocity P-wave (km/s) = 6.21119 7.05917 6.64872
#
# Compressibility (1/GPa) = 0.01818794
#
# Stress axis : x y z
#
# Youngs Moduli (GPa) = 33.31321 23.40625 49.93348
#
# Poissons Ratio (x) = 0.45408 0.43680
# Poissons Ratio (y) = 0.64627 0.45652
# Poissons Ratio (z) = 0.29141 0.21399
#
# Static dielectric constant tensor:
#      x y z
#    x 1.720960 -0.005830 0.012020 
#    y -0.005830 1.713230 0.022450 
#    z 0.012020 0.022450 1.730800 
# 
# From -- ./inp_files/122766.got.cif
#   From: 2010.05.17/outbox.cif.g08.bks.cpg/sg2_62_cif.got.tgz:122766.got - 2010.06.03 11:33:40.
