data_PCOD9106748
_publ_section_title
;
Structure prediction by ZEFSAII (Michael W. Deem and Ramdas Pophale) SiO2 
 PCOD9106748
Probable space group: P -1
;
_chemical_formula_sum "Si O2"
_cell_formula_units_Z 12
_cell_length_a 5.247369
_cell_length_b 19.805752
_cell_length_c 6.120197
_cell_angle_alpha 51.566547
_cell_angle_beta 91.858542
_cell_angle_gamma 111.979322
_cell_volume 444.135125
_symmetry_space_group_name_H-M "P -1"
_symmetry_group_IT_number 2
_symmetry_cell_setting 'triclinic'
loop_
_space_group_symop_operation_xyz
x,y,z
-x,-y,-z
loop_
_atom_site_type_symbol
_atom_site_label
_atom_site_fract_x
_atom_site_fract_y
_atom_site_fract_z
Si Si1 0.625446 0.258998 0.383661
Si Si2 0.773799 0.780946 0.913757
Si Si3 0.132206 0.391096 0.795429
Si Si4 0.743573 0.111254 0.969622
Si Si5 0.175138 0.054118 0.182257
Si Si6 0.209141 0.565055 0.685093
O O1 0.329537 0.203417 0.356152
O O2 0.722942 0.186746 0.649922
O O3 0.589234 0.335174 0.391229
O O4 0.877375 0.321793 0.092308
O O5 0.641836 0.832094 0.968215
O O6 0.696171 0.668711 0.142202
O O7 0.094653 0.834219 0.911293
O O8 0.977167 0.410989 0.545532
O O9 0.312701 0.492210 0.721974
O O10 0.426368 0.029536 0.175059
O O11 0.945720 0.063294 0.000797
O O12 0.000000 0.000000 0.500000
O O13 0.000000 0.500000 0.000000
#
# Coordination Sequence:
#
# PCOD9106748 Si02
#       6
#     2   2   2   2   2   2
#     4  11  22  40  65  95 132 179 224 272 332 394
#     4  10  23  36  69  93 135 171 227 271 336 391
#     4  10  20  40  60  94 134 175 226 279 323 389
#     4  10  23  41  69  98 132 176 219 270 335 395
#     4  10  22  45  71  97 136 174 214 279 338 394
#     4   9  19  37  63  91 135 176 227 271 332 386
#
# _framework density 27.018802999999998
#
# number of rings (size 3 to 8) (size 9 to 14) (size 15 to 20)
#    1.000    1.000    1.667    1.500    2.333    0.667 
#    0.000    9.167    0.000    0.000    0.000    0.000 
#    0.000    0.000    0.000    0.000    0.000    0.000 
#
# Total GULP energy -67076.916495 kJ/mol
# GULP energy per Si atom -5589.743041 kJ/mol
# Density = 2.695731 g / cm^3
# Si number density = 27.018803 Si / 1000 Ang^3
#
#
#
# Elastic Constant Matrix: (Units=GPa)
#
#
# Indices 1 2 3 4 5 6 
#
# 1 152.4969 44.0960 53.1671 5.6667 26.6698 13.1570
# 2 44.0960 126.1474 12.1550 15.9783 15.3536 4.0242
# 3 53.1671 12.1550 185.0780 -13.5292 14.1862 17.6299
# 4 5.6667 15.9783 -13.5292 31.9203 4.4100 16.3068
# 5 26.6698 15.3536 14.1862 4.4100 49.6187 4.8880
# 6 13.1570 4.0242 17.6299 16.3068 4.8880 54.6472
#
#
#
# Elastic Compliance Matrix: (Units=1/GPa)
#
#
# Indices 1 2 3 4 5 6 
#
# 1 0.008582 -0.002350 -0.002006 -0.000313 -0.003199 -0.000866
# 2 -0.002350 0.009548 -0.000391 -0.005196 -0.001280 0.001654
# 3 -0.002006 -0.000391 0.006743 0.005122 -0.000877 -0.003114
# 4 -0.000313 -0.005196 0.005122 0.043616 -0.002184 -0.014014
# 5 -0.003199 -0.001280 -0.000877 -0.002184 0.022737 -0.000235
# 6 -0.000866 0.001654 -0.003114 -0.014014 -0.000235 0.023593
#
#
# Mechanical properties :
#
#
# Convention : Reuss Voigt Hill
#
# Bulk Modulus (GPa) = 65.02614 75.83982 70.43298
# Shear Modulus (GPa) = 38.62742 50.85751 44.74247
#
# Velocity S-wave (km/s) = 3.78517 4.34326 4.07378
# Velocity P-wave (km/s) = 6.57439 7.29945 6.94639
#
# Compressibility (1/GPa) = 0.01537843
#
# Stress axis : x y z
#
# Youngs Moduli (GPa) = 116.51774 104.73799 148.29377
#
# Poissons Ratio (x) = 0.24615 0.29751
# Poissons Ratio (y) = 0.27383 0.05800
# Poissons Ratio (z) = 0.23376 0.04097
#
# Static dielectric constant tensor:
#      x y z
#    x 2.084090 -0.060260 -0.070770 
#    y -0.060260 2.179330 0.007200 
#    z -0.070770 0.007200 2.137890 
# 
# From -- ./inp_files/12185.got.cif
#   From: 2010.05.17/outbox.cif.g08.bks.cpg/sg2_7_cif.got.tgz:12185.got - 2010.06.03 11:33:40.
