data_PCOD9106334
_publ_section_title
;
Structure prediction by ZEFSAII (Michael W. Deem and Ramdas Pophale) SiO2 
 PCOD9106334
Probable space group: P -1
;
_chemical_formula_sum "Si O2"
_cell_formula_units_Z 16
_cell_length_a 7.906214
_cell_length_b 12.186349
_cell_length_c 13.826979
_cell_angle_alpha 49.773403
_cell_angle_beta 71.088317
_cell_angle_gamma 110.195799
_cell_volume 616.526402
_symmetry_space_group_name_H-M "P -1"
_symmetry_group_IT_number 2
_symmetry_cell_setting 'triclinic'
loop_
_space_group_symop_operation_xyz
x,y,z
-x,-y,-z
loop_
_atom_site_type_symbol
_atom_site_label
_atom_site_fract_x
_atom_site_fract_y
_atom_site_fract_z
Si Si1 0.422917 0.516907 0.823768
Si Si2 0.511812 0.625809 0.507520
Si Si3 0.901088 0.059948 0.063866
Si Si4 0.133970 0.751994 0.192110
Si Si5 0.847535 0.521158 0.729550
Si Si6 0.901484 0.000752 0.413691
Si Si7 0.913123 0.569061 0.901655
Si Si8 0.955938 0.163525 0.632940
O O1 0.576558 0.749317 0.612650
O O2 0.630024 0.511592 0.800170
O O3 0.158404 0.294518 0.938763
O O4 0.349126 0.526573 0.938736
O O5 0.500000 0.500000 0.500000
O O6 0.189007 0.472086 0.655425
O O7 0.706428 0.645791 0.529328
O O8 0.705180 0.870981 0.289358
O O9 0.747814 0.079265 0.012573
O O10 0.000000 0.000000 0.000000
O O11 0.140715 0.838277 0.244423
O O12 0.257318 0.668956 0.213291
O O13 0.899699 0.490316 0.843470
O O14 0.090787 0.753388 0.492440
O O15 0.912091 0.176325 0.294652
O O16 0.096990 0.030608 0.285050
O O17 0.000000 0.000000 0.500000
O O18 0.000000 0.500000 0.000000
#
# Coordination Sequence:
#
# PCOD9106334 Si02
#       8
#     2   2   2   2   2   2   2   2
#     4  11  26  47  78 102 152 199 247 313 377 450
#     4  10  21  40  71  97 138 193 243 298 370 432
#     4  12  23  43  72 108 143 192 253 303 373 446
#     4  11  23  42  69 107 151 188 247 311 366 449
#     4  11  24  44  70 108 147 194 249 302 375 448
#     4  11  23  45  77 108 146 198 252 298 381 452
#     4  12  26  48  77 111 149 191 256 317 375 445
#     4  10  20  39  69 100 140 195 236 294 367 443
#
# _framework density 25.951848999999999
#
# number of rings (size 3 to 8) (size 9 to 14) (size 15 to 20)
#    0.000    1.000    5.000    3.750    3.500    0.500 
#    0.000    6.875    0.000    0.000    0.000    0.000 
#    0.000    0.000    0.000    0.000    0.000    0.000 
#
# Total GULP energy -89222.150173 kJ/mol
# GULP energy per Si atom -5576.384386 kJ/mol
# Density = 2.589278 g / cm^3
# Si number density = 25.951849 Si / 1000 Ang^3
#
#
#
# Elastic Constant Matrix: (Units=GPa)
#
#
# Indices 1 2 3 4 5 6 
#
# 1 75.7695 29.7074 38.8338 -3.4849 10.4171 -13.9432
# 2 29.7074 134.3541 31.8806 8.5388 0.0527 -17.1072
# 3 38.8338 31.8806 129.0349 -1.9281 27.8357 -4.5331
# 4 -3.4849 8.5388 -1.9281 56.0824 6.0526 -0.9502
# 5 10.4171 0.0527 27.8357 6.0526 41.7741 -4.6030
# 6 -13.9432 -17.1072 -4.5331 -0.9502 -4.6030 44.5354
#
#
#
# Elastic Compliance Matrix: (Units=1/GPa)
#
#
# Indices 1 2 3 4 5 6 
#
# 1 0.017250 -0.002423 -0.004147 0.001507 -0.001319 0.003943
# 2 -0.002423 0.008888 -0.001923 -0.001787 0.002428 0.002673
# 3 -0.004147 -0.001923 0.010840 0.001084 -0.006518 -0.001584
# 4 0.001507 -0.001787 0.001084 0.018643 -0.003808 -0.000100
# 5 -0.001319 0.002428 -0.006518 -0.003808 0.029470 0.002821
# 6 0.003943 0.002673 -0.001584 -0.000100 0.002821 0.024843
#
#
# Mechanical properties :
#
#
# Convention : Reuss Voigt Hill
#
# Bulk Modulus (GPa) = 50.02400 60.00025 55.01213
# Shear Modulus (GPa) = 37.42931 44.39416 40.91174
#
# Velocity S-wave (km/s) = 3.80183 4.14047 3.97476
# Velocity P-wave (km/s) = 6.21204 6.78440 6.50452
#
# Compressibility (1/GPa) = 0.01999041
#
# Stress axis : x y z
#
# Youngs Moduli (GPa) = 57.97137 112.51010 92.25296
#
# Poissons Ratio (x) = 0.27264 0.38259
# Poissons Ratio (y) = 0.14048 0.17743
# Poissons Ratio (z) = 0.24042 0.21639
#
# Static dielectric constant tensor:
#      x y z
#    x 2.227210 0.226510 0.216180 
#    y 0.226510 2.409100 0.300690 
#    z 0.216180 0.300690 2.387500 
# 
# From -- ./inp_files/389374.got.cif
#   From: 2010.05.17/outbox.cif.g08.bks.cpg/sg2_195_cif.got.tgz:389374.got - 2010.06.03 11:33:40.
