data_PCOD9106624
_publ_section_title
;
Structure prediction by ZEFSAII (Michael W. Deem and Ramdas Pophale) SiO2 
 PCOD9106624
Probable space group: P -1
;
_chemical_formula_sum "Si O2"
_cell_formula_units_Z 14
_cell_length_a 15.586049
_cell_length_b 15.361347
_cell_length_c 12.277991
_cell_angle_alpha 140.635414
_cell_angle_beta 153.247196
_cell_angle_gamma 36.072602
_cell_volume 764.367239
_symmetry_space_group_name_H-M "P -1"
_symmetry_group_IT_number 2
_symmetry_cell_setting 'triclinic'
loop_
_space_group_symop_operation_xyz
x,y,z
-x,-y,-z
loop_
_atom_site_type_symbol
_atom_site_label
_atom_site_fract_x
_atom_site_fract_y
_atom_site_fract_z
Si Si1 0.306609 0.634020 0.059589
Si Si2 0.893407 0.638833 0.933450
Si Si3 0.384169 0.994623 0.184585
Si Si4 0.515891 0.676970 0.135665
Si Si5 0.143277 0.320807 0.321835
Si Si6 0.018297 0.910299 0.324402
Si Si7 0.421824 0.829301 0.557229
O O1 0.448524 0.454956 0.037972
O O2 0.075069 0.656717 0.851235
O O3 0.330085 0.695517 0.026626
O O4 0.382231 0.723247 0.319345
O O5 0.894379 0.608815 0.774776
O O6 0.647751 0.731664 0.772345
O O7 0.009265 0.750336 0.182611
O O8 0.000000 0.500000 0.000000
O O9 0.282324 0.141529 0.288733
O O10 0.546375 0.033627 0.333319
O O11 0.482387 0.834884 0.198605
O O12 0.187696 0.003070 0.898196
O O13 0.722738 0.621487 0.392777
O O14 0.228110 0.884320 0.472128
O O15 0.000000 0.000000 0.500000
#
# Coordination Sequence:
#
# PCOD9106624 Si02
#       7
#     2   2   2   2   2   2   2
#     4  11  21  38  62  82 125 156 192 239 301 343
#     4  10  22  39  62  88 114 153 201 243 295 353
#     4  10  22  38  62  89 118 153 204 238 293 354
#     4  11  23  37  58  93 119 155 196 245 284 354
#     4  10  20  40  59  83 124 155 194 242 295 349
#     4  10  22  43  60  87 119 152 201 247 290 353
#     4  10  20  42  63  82 122 159 187 250 301 343
#
# _framework density 18.315804
#
# number of rings (size 3 to 8) (size 9 to 14) (size 15 to 20)
#    0.000    2.000    5.714    0.857    0.000    5.714 
#    5.143    0.000    0.000    0.000    0.000    0.000 
#    0.000    0.000    0.000    0.000    0.000    0.000 
#
# Total GULP energy -78094.622192 kJ/mol
# GULP energy per Si atom -5578.187299 kJ/mol
# Density = 1.827412 g / cm^3
# Si number density = 18.315804 Si / 1000 Ang^3
#
#
#
# Elastic Constant Matrix: (Units=GPa)
#
#
# Indices 1 2 3 4 5 6 
#
# 1 150.9233 76.9353 73.6621 -1.7618 28.7340 -10.1260
# 2 76.9353 97.2300 33.9952 4.2004 1.7699 28.6444
# 3 73.6621 33.9952 77.5502 -6.0648 21.4050 0.0008
# 4 -1.7618 4.2004 -6.0648 9.9755 -8.8853 -2.0912
# 5 28.7340 1.7699 21.4050 -8.8853 30.3017 -2.5719
# 6 -10.1260 28.6444 0.0008 -2.0912 -2.5719 34.5723
#
#
#
# Elastic Compliance Matrix: (Units=1/GPa)
#
#
# Indices 1 2 3 4 5 6 
#
# 1 0.043205 -0.041999 -0.016270 0.006148 -0.021297 0.046240
# 2 -0.041999 0.060576 0.006035 -0.025146 0.019341 -0.062573
# 3 -0.016270 0.006035 0.027018 0.006364 -0.002959 -0.009601
# 4 0.006148 -0.025146 0.006364 0.159690 0.040969 0.035342
# 5 -0.021297 0.019341 -0.002959 0.040969 0.064901 -0.014956
# 6 0.046240 -0.062573 -0.009601 0.035342 -0.014956 0.095338
#
#
# Mechanical properties :
#
#
# Convention : Reuss Voigt Hill
#
# Bulk Modulus (GPa) = 37.97772 77.20988 57.59380
# Shear Modulus (GPa) = 8.86570 24.37727 16.62149
#
# Velocity S-wave (km/s) = 2.20249 3.65217 3.01573
# Velocity P-wave (km/s) = 5.21995 7.74795 6.60601
#
# Compressibility (1/GPa) = 0.02633123
#
# Stress axis : x y z
#
# Youngs Moduli (GPa) = 23.14548 16.50822 37.01263
#
# Poissons Ratio (x) = 0.69333 0.60218
# Poissons Ratio (y) = 0.97208 -0.22336
# Poissons Ratio (z) = 0.37657 -0.09962
#
# Static dielectric constant tensor:
#      x y z
#    x 1.633450 -0.002530 -0.005860 
#    y -0.002530 1.617550 0.006870 
#    z -0.005860 0.006870 1.655750 
# 
# From -- ./inp_files/178604.got.cif
#   From: 2010.05.17/outbox.cif.g08.bks.cpg/sg2_90_cif.got.tgz:178604.got - 2010.06.03 11:33:40.
