data_PCOD9106680
_publ_section_title
;
Structure prediction by ZEFSAII (Michael W. Deem and Ramdas Pophale) SiO2 
 PCOD9106680
Probable space group: P -1
;
_chemical_formula_sum "Si O2"
_cell_formula_units_Z 16
_cell_length_a 12.410880
_cell_length_b 27.587356
_cell_length_c 5.723798
_cell_angle_alpha 128.521636
_cell_angle_beta 46.905209
_cell_angle_gamma 151.305054
_cell_volume 685.564480
_symmetry_space_group_name_H-M "P -1"
_symmetry_group_IT_number 2
_symmetry_cell_setting 'triclinic'
loop_
_space_group_symop_operation_xyz
x,y,z
-x,-y,-z
loop_
_atom_site_type_symbol
_atom_site_label
_atom_site_fract_x
_atom_site_fract_y
_atom_site_fract_z
Si Si1 0.291272 0.487179 0.642703
Si Si2 0.105025 0.631953 0.780073
Si Si3 0.470671 0.821013 0.475674
Si Si4 0.390434 0.019861 0.945723
Si Si5 0.030137 0.046347 0.845365
Si Si6 0.758475 0.160123 0.436487
Si Si7 0.704422 0.422611 0.460037
Si Si8 0.305551 0.365984 0.133083
O O1 0.249038 0.541193 0.764240
O O2 0.296043 0.435551 0.283405
O O3 0.532998 0.574549 0.694503
O O4 0.073636 0.394910 0.855098
O O5 0.258837 0.726115 0.668175
O O6 0.278649 0.643289 0.699899
O O7 0.918622 0.528372 0.597929
O O8 0.685866 0.842234 0.219432
O O9 0.357065 0.812337 0.385471
O O10 0.594204 0.922997 0.709313
O O11 0.646958 0.108956 0.701174
O O12 0.331647 0.930905 0.841809
O O13 0.176287 0.970206 0.932842
O O14 0.000000 0.000000 0.500000
O O15 0.000000 0.000000 0.000000
O O16 0.041114 0.255933 0.258190
O O17 0.452609 0.369996 0.755913
#
# Coordination Sequence:
#
# PCOD9106680 Si02
#       8
#     2   2   2   2   2   2   2   2
#     4  10  20  40  60  84 124 160 202 257 319 377
#     4  10  22  37  62  89 121 159 212 250 314 389
#     4  11  22  39  64  88 121 167 209 261 320 392
#     4  10  23  40  60  90 122 162 212 262 320 381
#     4  10  21  42  66  91 130 170 217 273 330 392
#     4  11  22  39  62  88 124 158 210 261 319 384
#     4  10  21  39  58  89 123 159 198 266 313 374
#     4  10  22  35  60  90 118 157 205 254 312 390
#
# _framework density 23.338431
#
# number of rings (size 3 to 8) (size 9 to 14) (size 15 to 20)
#    0.000    1.750    1.250    2.625    1.750    3.000 
#    0.000    2.500    0.000    0.000    0.000    0.000 
#    0.000    0.000    0.000    0.000    0.000    0.000 
#
# Total GULP energy -89262.286402 kJ/mol
# GULP energy per Si atom -5578.892900 kJ/mol
# Density = 2.328531 g / cm^3
# Si number density = 23.338431 Si / 1000 Ang^3
#
#
#
# Elastic Constant Matrix: (Units=GPa)
#
#
# Indices 1 2 3 4 5 6 
#
# 1 94.3153 24.5827 3.7636 -16.1469 -10.3721 -8.9122
# 2 24.5827 98.2269 26.8655 -33.9368 -0.8254 -1.8298
# 3 3.7636 26.8655 63.0166 -25.7531 -7.4183 1.2769
# 4 -16.1469 -33.9368 -25.7531 43.6979 3.7657 -6.6230
# 5 -10.3721 -0.8254 -7.4183 3.7657 30.0990 -3.6057
# 6 -8.9122 -1.8298 1.2769 -6.6230 -3.6057 33.7055
#
#
#
# Elastic Compliance Matrix: (Units=1/GPa)
#
#
# Indices 1 2 3 4 5 6 
#
# 1 0.012889 -0.002102 0.002651 0.004976 0.004978 0.004704
# 2 -0.002102 0.014755 -0.002464 0.009703 -0.001896 0.002042
# 3 0.002651 -0.002464 0.022280 0.012157 0.005135 0.002661
# 4 0.004976 0.009703 0.012157 0.040776 0.001014 0.009503
# 5 0.004978 -0.001896 0.005135 0.001014 0.036641 0.005138
# 6 0.004704 0.002042 0.002661 0.009503 0.005138 0.033340
#
#
# Mechanical properties :
#
#
# Convention : Reuss Voigt Hill
#
# Bulk Modulus (GPa) = 21.69532 40.66473 31.18003
# Shear Modulus (GPa) = 27.79703 34.85695 31.32699
#
# Velocity S-wave (km/s) = 3.45489 3.86883 3.66771
# Velocity P-wave (km/s) = 5.02306 6.11710 5.59688
#
# Compressibility (1/GPa) = 0.04609289
#
# Stress axis : x y z
#
# Youngs Moduli (GPa) = 77.58771 67.77392 44.88367
#
# Poissons Ratio (x) = 0.14245 -0.11897
# Poissons Ratio (y) = 0.16307 0.11060
# Poissons Ratio (z) = -0.20566 0.16700
#
# Static dielectric constant tensor:
#      x y z
#    x 1.988160 0.026790 -0.037190 
#    y 0.026790 1.850990 0.038080 
#    z -0.037190 0.038080 1.965050 
# 
# From -- ./inp_files/81549.got.cif
#   From: 2010.05.17/outbox.cif.g08.bks.cpg/sg2_41_cif.got.tgz:81549.got - 2010.06.03 11:33:40.
