data_PCOD9106504
_publ_section_title
;
Structure prediction by ZEFSAII (Michael W. Deem and Ramdas Pophale) SiO2 
 PCOD9106504
Probable space group: P -1
;
_chemical_formula_sum "Si O2"
_cell_formula_units_Z 16
_cell_length_a 9.021405
_cell_length_b 9.777409
_cell_length_c 11.425361
_cell_angle_alpha 84.561965
_cell_angle_beta 87.541821
_cell_angle_gamma 134.544628
_cell_volume 706.473971
_symmetry_space_group_name_H-M "P -1"
_symmetry_group_IT_number 2
_symmetry_cell_setting 'triclinic'
loop_
_space_group_symop_operation_xyz
x,y,z
-x,-y,-z
loop_
_atom_site_type_symbol
_atom_site_label
_atom_site_fract_x
_atom_site_fract_y
_atom_site_fract_z
Si Si1 0.961167 0.115462 0.785035
Si Si2 0.952255 0.139508 0.208530
Si Si3 0.006108 0.393341 0.346573
Si Si4 0.647866 0.474301 0.951918
Si Si5 0.351821 0.030175 0.972478
Si Si6 0.352883 0.744969 0.448273
Si Si7 0.803691 0.468155 0.187322
Si Si8 0.402324 0.086229 0.357460
O O1 0.129567 0.347656 0.765502
O O2 0.823041 0.030740 0.679320
O O3 0.060754 0.031120 0.793663
O O4 0.804906 0.038029 0.907958
O O5 0.933565 0.193480 0.331959
O O6 0.185909 0.343225 0.151208
O O7 0.786853 0.092599 0.126440
O O8 0.238134 0.567418 0.377213
O O9 0.834539 0.337116 0.448404
O O10 0.972815 0.467231 0.226420
O O11 0.498279 0.257923 0.925014
O O12 0.500000 0.500000 0.000000
O O13 0.780416 0.490766 0.051101
O O14 0.500000 0.000000 0.000000
O O15 0.538120 0.820773 0.522707
O O16 0.419340 0.931457 0.371052
O O17 0.577208 0.265131 0.251990
#
# Coordination Sequence:
#
# PCOD9106504 Si02
#       8
#     2   2   2   2   2   2   2   2
#     4  12  23  42  65  95 134 176 208 264 329 384
#     4  12  26  43  64  95 144 173 212 268 323 385
#     4  10  22  41  66  96 121 172 218 270 326 381
#     4  12  23  41  63  94 137 181 212 256 321 391
#     4  12  26  40  65  96 132 178 222 257 313 387
#     4   9  20  41  69  92 125 160 220 283 325 373
#     4  11  21  37  68  91 126 169 223 253 319 386
#     4  10  20  39  71  91 121 170 213 270 326 384
#
# _framework density 22.647683000000001
#
# number of rings (size 3 to 8) (size 9 to 14) (size 15 to 20)
#    0.000    1.000    5.000    1.875    3.500    1.000 
#    2.250    1.250    0.000    0.000    0.000    0.000 
#    0.000    0.000    0.000    0.000    0.000    0.000 
#
# Total GULP energy -89496.109704 kJ/mol
# GULP energy per Si atom -5593.506856 kJ/mol
# Density = 2.259614 g / cm^3
# Si number density = 22.647683 Si / 1000 Ang^3
#
#
#
# Elastic Constant Matrix: (Units=GPa)
#
#
# Indices 1 2 3 4 5 6 
#
# 1 41.0581 12.6723 21.9219 20.9918 0.6419 -3.5155
# 2 12.6723 140.5495 19.8459 26.2612 4.8371 5.1312
# 3 21.9219 19.8459 51.0723 18.3839 13.6383 9.5778
# 4 20.9918 26.2612 18.3839 42.4970 0.8929 6.7663
# 5 0.6419 4.8371 13.6383 0.8929 17.2917 9.6144
# 6 -3.5155 5.1312 9.5778 6.7663 9.6144 36.9897
#
#
#
# Elastic Compliance Matrix: (Units=1/GPa)
#
#
# Indices 1 2 3 4 5 6 
#
# 1 0.041203 0.000888 -0.015834 -0.015632 0.006475 0.009069
# 2 0.000888 0.008190 -0.001623 -0.004861 -0.001094 0.000542
# 3 -0.015834 -0.001623 0.036644 -0.006016 -0.025920 -0.002930
# 4 -0.015632 -0.004861 -0.006016 0.038043 0.009556 -0.008696
# 5 0.006475 -0.001094 -0.025920 0.009556 0.087273 -0.016954
# 6 0.009069 0.000542 -0.002930 -0.008696 -0.016954 0.034577
#
#
# Mechanical properties :
#
#
# Convention : Reuss Voigt Hill
#
# Bulk Modulus (GPa) = 18.90430 37.95113 28.42772
# Shear Modulus (GPa) = 16.85188 31.23832 24.04510
#
# Velocity S-wave (km/s) = 2.73076 3.71794 3.26191
# Velocity P-wave (km/s) = 4.27878 5.93501 5.17360
#
# Compressibility (1/GPa) = 0.05289801
#
# Stress axis : x y z
#
# Youngs Moduli (GPa) = 24.27002 122.09730 27.28945
#
# Poissons Ratio (x) = -0.10837 0.43210
# Poissons Ratio (y) = -0.02154 0.04430
# Poissons Ratio (z) = 0.38429 0.19822
#
# Static dielectric constant tensor:
#      x y z
#    x 1.859550 0.002240 -0.032210 
#    y 0.002240 1.821830 0.017540 
#    z -0.032210 0.017540 1.935560 
# 
# From -- ./inp_files/206542.got.cif
#   From: 2010.05.17/outbox.cif.g08.bks.cpg/sg2_104_cif.got.tgz:206542.got - 2010.06.03 11:33:40.
