data_PCOD9106520
_publ_section_title
;
Structure prediction by ZEFSAII (Michael W. Deem and Ramdas Pophale) SiO2 
 PCOD9106520
Probable space group: P -1
;
_chemical_formula_sum "Si O2"
_cell_formula_units_Z 14
_cell_length_a 12.700774
_cell_length_b 9.666085
_cell_length_c 9.469355
_cell_angle_alpha 135.006725
_cell_angle_beta 78.252241
_cell_angle_gamma 130.343756
_cell_volume 552.366935
_symmetry_space_group_name_H-M "P -1"
_symmetry_group_IT_number 2
_symmetry_cell_setting 'triclinic'
loop_
_space_group_symop_operation_xyz
x,y,z
-x,-y,-z
loop_
_atom_site_type_symbol
_atom_site_label
_atom_site_fract_x
_atom_site_fract_y
_atom_site_fract_z
Si Si1 0.050247 0.888500 0.304892
Si Si2 0.043022 0.483190 0.687998
Si Si3 0.377908 0.979054 0.093519
Si Si4 0.084154 0.297773 0.267284
Si Si5 0.719102 0.475912 0.016297
Si Si6 0.425378 0.696787 0.353861
Si Si7 0.389806 0.391937 0.598192
O O1 0.043312 0.303642 0.445210
O O2 0.224967 0.132604 0.375920
O O3 0.000000 0.000000 0.500000
O O4 0.042113 0.695945 0.275339
O O5 0.219934 0.769166 0.893217
O O6 0.965236 0.569044 0.703283
O O7 0.340869 0.818961 0.134117
O O8 0.500000 0.000000 0.000000
O O9 0.475373 0.307971 0.302785
O O10 0.271826 0.525560 0.368435
O O11 0.095593 0.307626 0.901976
O O12 0.000000 0.000000 0.000000
O O13 0.675689 0.550389 0.216800
O O14 0.642776 0.471246 0.897686
O O15 0.537499 0.690865 0.393568
O O16 0.500000 0.000000 0.500000
#
# Coordination Sequence:
#
# PCOD9106520 Si02
#       7
#     2   2   2   2   2   2   2
#     4   9  19  39  71  97 125 179 224 269 333 402
#     4  10  22  45  69  92 133 179 221 271 334 397
#     4   9  19  39  71  95 123 173 223 269 332 395
#     4  11  26  43  67  98 135 177 222 273 332 404
#     4   9  21  41  68  92 135 176 215 271 337 401
#     4  12  26  42  61 102 139 168 220 281 334 394
#     4  10  20  39  71  99 125 171 224 272 334 389
#
# _framework density 25.345472999999998
#
# number of rings (size 3 to 8) (size 9 to 14) (size 15 to 20)
#    0.000    2.000    0.000    3.000    8.000    0.000 
#    0.000    7.143    3.143    0.000    0.000    0.000 
#    0.000    0.000    0.000    0.000    0.000    0.000 
#
# Total GULP energy -78378.712307 kJ/mol
# GULP energy per Si atom -5598.479451 kJ/mol
# Density = 2.528779 g / cm^3
# Si number density = 25.345473 Si / 1000 Ang^3
#
#
#
# Elastic Constant Matrix: (Units=GPa)
#
#
# Indices 1 2 3 4 5 6 
#
# 1 172.9829 49.6771 65.9810 36.5598 14.2951 -3.3827
# 2 49.6771 97.6852 43.7732 20.7954 14.2611 -2.3092
# 3 65.9810 43.7732 144.0283 21.7412 -12.0671 4.3881
# 4 36.5598 20.7954 21.7412 46.7467 3.1646 6.1648
# 5 14.2951 14.2611 -12.0671 3.1646 42.3116 3.9226
# 6 -3.3827 -2.3092 4.3881 6.1648 3.9226 53.4649
#
#
#
# Elastic Compliance Matrix: (Units=1/GPa)
#
#
# Indices 1 2 3 4 5 6 
#
# 1 0.008676 -0.001544 -0.003109 -0.004641 -0.003089 0.001499
# 2 -0.001544 0.014103 -0.003565 -0.003265 -0.005149 0.001558
# 3 -0.003109 -0.003565 0.010067 -0.000831 0.005321 -0.001472
# 4 -0.004641 -0.003265 -0.000831 0.027282 0.000721 -0.003565
# 5 -0.003089 -0.005149 0.005321 0.000721 0.028155 -0.003003
# 6 0.001499 0.001558 -0.001472 -0.003565 -0.003003 0.019618
#
#
# Mechanical properties :
#
#
# Convention : Reuss Voigt Hill
#
# Bulk Modulus (GPa) = 60.94051 81.50655 71.22353
# Shear Modulus (GPa) = 38.51866 45.52232 42.02049
#
# Velocity S-wave (km/s) = 3.90262 4.24261 4.07616
# Velocity P-wave (km/s) = 6.66359 7.49851 7.09334
#
# Compressibility (1/GPa) = 0.01640945
#
# Stress axis : x y z
#
# Youngs Moduli (GPa) = 115.26392 70.90529 99.33600
#
# Poissons Ratio (x) = 0.10951 0.30884
# Poissons Ratio (y) = 0.17802 0.35411
# Poissons Ratio (z) = 0.35836 0.25276
#
# Static dielectric constant tensor:
#      x y z
#    x 1.983480 0.032740 -0.041610 
#    y 0.032740 2.040980 -0.060550 
#    z -0.041610 -0.060550 2.198300 
# 
# From -- ./inp_files/513703.got.cif
#   From: 2010.05.17/outbox.cif.g08.bks.cpg/sg2_257_cif.got.tgz:513703.got - 2010.06.03 11:33:40.
