data_PCOD9106307
_publ_section_title
;
Structure prediction by ZEFSAII (Michael W. Deem and Ramdas Pophale) SiO2 
 PCOD9106307
Probable space group: P -1
;
_chemical_formula_sum "Si O2"
_cell_formula_units_Z 12
_cell_length_a 8.156643
_cell_length_b 8.837488
_cell_length_c 12.381936
_cell_angle_alpha 108.241390
_cell_angle_beta 64.005270
_cell_angle_gamma 145.334941
_cell_volume 454.329836
_symmetry_space_group_name_H-M "P -1"
_symmetry_group_IT_number 2
_symmetry_cell_setting 'triclinic'
loop_
_space_group_symop_operation_xyz
x,y,z
-x,-y,-z
loop_
_atom_site_type_symbol
_atom_site_label
_atom_site_fract_x
_atom_site_fract_y
_atom_site_fract_z
Si Si1 0.323611 0.388876 0.157182
Si Si2 0.294092 0.590535 0.416013
Si Si3 0.887103 0.592972 0.101351
Si Si4 0.466844 0.966049 0.684862
Si Si5 0.128020 0.414663 0.641773
Si Si6 0.261230 0.041882 0.925107
O O1 0.260525 0.435111 0.298820
O O2 0.542308 0.393275 0.119881
O O3 0.016811 0.140750 0.123017
O O4 0.523197 0.656941 0.091496
O O5 0.357979 0.551729 0.503929
O O6 0.000000 0.500000 0.500000
O O7 0.534318 0.890659 0.369145
O O8 0.872002 0.623920 0.240309
O O9 0.000000 0.500000 0.000000
O O10 0.107348 0.871733 0.039634
O O11 0.190729 0.650539 0.686978
O O12 0.461493 0.037304 0.821150
O O13 0.805213 0.128761 0.622236
#
# Coordination Sequence:
#
# PCOD9106307 Si02
#       6
#     2   2   2   2   2   2
#     4  11  26  46  70 102 129 183 227 275 328 401
#     4   9  20  40  71  94 134 169 227 271 329 399
#     4  12  27  45  70  99 144 176 220 282 338 397
#     4  10  20  39  68  98 129 172 225 268 328 400
#     4  11  23  39  63 103 130 175 216 273 340 388
#     4  11  23  46  70  97 135 176 231 272 329 403
#
# _framework density 26.412528999999999
#
# number of rings (size 3 to 8) (size 9 to 14) (size 15 to 20)
#    0.000    1.333    1.667    4.500    0.000    8.000 
#    0.000    0.000    0.000   10.000    0.000    0.000 
#    0.000    0.000    0.000    0.000    0.000    0.000 
#
# Total GULP energy -66967.213095 kJ/mol
# GULP energy per Si atom -5580.601091 kJ/mol
# Density = 2.635241 g / cm^3
# Si number density = 26.412529 Si / 1000 Ang^3
#
#
#
# Elastic Constant Matrix: (Units=GPa)
#
#
# Indices 1 2 3 4 5 6 
#
# 1 82.9206 40.1671 37.3905 -1.7602 18.9667 3.6653
# 2 40.1671 146.6734 44.5318 5.5582 1.2384 5.3609
# 3 37.3905 44.5318 220.9466 -17.6423 46.6452 -11.5499
# 4 -1.7602 5.5582 -17.6423 46.2842 -0.8986 -2.3792
# 5 18.9667 1.2384 46.6452 -0.8986 48.3514 1.3607
# 6 3.6653 5.3609 -11.5499 -2.3792 1.3607 30.5477
#
#
#
# Elastic Compliance Matrix: (Units=1/GPa)
#
#
# Indices 1 2 3 4 5 6 
#
# 1 0.015588 -0.003982 -0.000736 0.000628 -0.005258 -0.001167
# 2 -0.003982 0.008656 -0.002047 -0.002015 0.003337 -0.002121
# 3 -0.000736 -0.002047 0.006798 0.002869 -0.006263 0.003520
# 4 0.000628 -0.002015 0.002869 0.023083 -0.002626 0.003278
# 5 -0.005258 0.003337 -0.006263 -0.002626 0.028760 -0.003808
# 6 -0.001167 -0.002121 0.003520 0.003278 -0.003808 0.035004
#
#
# Mechanical properties :
#
#
# Convention : Reuss Voigt Hill
#
# Bulk Modulus (GPa) = 57.10462 77.19104 67.14783
# Shear Modulus (GPa) = 36.42827 46.93340 41.68084
#
# Velocity S-wave (km/s) = 3.71779 4.21995 3.97680
# Velocity P-wave (km/s) = 6.33218 7.28234 6.82382
#
# Compressibility (1/GPa) = 0.01751172
#
# Stress axis : x y z
#
# Youngs Moduli (GPa) = 64.15085 115.53209 147.09247
#
# Poissons Ratio (x) = 0.46007 0.10828
# Poissons Ratio (y) = 0.25546 0.30110
# Poissons Ratio (z) = 0.04722 0.23649
#
# Static dielectric constant tensor:
#      x y z
#    x 2.241260 -0.015380 -0.030050 
#    y -0.015380 2.052370 0.096260 
#    z -0.030050 0.096260 2.292250 
# 
# From -- ./inp_files/379499.got.cif
#   From: 2010.05.17/outbox.cif.g08.bks.cpg/sg2_190_cif.got.tgz:379499.got - 2010.06.03 11:33:40.
