data_PCOD9106401
_publ_section_title
;
Structure prediction by ZEFSAII (Michael W. Deem and Ramdas Pophale) SiO2 
 PCOD9106401
Probable space group: P -1
;
_chemical_formula_sum "Si O2"
_cell_formula_units_Z 14
_cell_length_a 8.101856
_cell_length_b 9.537148
_cell_length_c 7.543194
_cell_angle_alpha 96.598903
_cell_angle_beta 93.099854
_cell_angle_gamma 104.732969
_cell_volume 557.845407
_symmetry_space_group_name_H-M "P -1"
_symmetry_group_IT_number 2
_symmetry_cell_setting 'triclinic'
loop_
_space_group_symop_operation_xyz
x,y,z
-x,-y,-z
loop_
_atom_site_type_symbol
_atom_site_label
_atom_site_fract_x
_atom_site_fract_y
_atom_site_fract_z
Si Si1 0.351847 0.137451 0.866251
Si Si2 0.240785 0.136370 0.486202
Si Si3 0.442915 0.649116 0.666245
Si Si4 0.257973 0.394375 0.082145
Si Si5 0.855872 0.048796 0.889696
Si Si6 0.724416 0.293714 0.005336
Si Si7 0.865108 0.591491 0.546901
O O1 0.278008 0.072210 0.665656
O O2 0.551587 0.217104 0.876001
O O3 0.258575 0.263124 0.931944
O O4 0.687117 0.970592 0.984744
O O5 0.420431 0.235057 0.427128
O O6 0.161412 0.017401 0.316149
O O7 0.129123 0.254212 0.522715
O O8 0.556030 0.585435 0.806442
O O9 0.326784 0.724970 0.793419
O O10 0.316874 0.521071 0.531083
O O11 0.133459 0.367353 0.239871
O O12 0.233183 0.535378 0.004780
O O13 0.865268 0.218068 0.931611
O O14 0.000000 0.000000 0.000000
O O15 0.000000 0.500000 0.500000
#
# Coordination Sequence:
#
# PCOD9106401 Si02
#       7
#     2   2   2   2   2   2   2
#     4  11  22  45  73  95 128 173 228 278 326 384
#     4  11  23  45  68  95 132 177 222 274 326 388
#     4  10  20  39  69  98 132 164 224 281 323 382
#     4  10  20  41  69  99 128 166 226 281 323 380
#     4  12  28  46  63  95 146 177 215 272 333 400
#     4  11  22  41  70 100 129 175 225 272 327 391
#     4  11  22  37  65 102 136 169 216 273 334 394
#
# _framework density 25.096558999999999
#
# number of rings (size 3 to 8) (size 9 to 14) (size 15 to 20)
#    0.000    1.143    4.286    6.429    2.000    2.286 
#    2.571    2.143    0.000    0.000    0.000    0.000 
#    0.000    0.000    0.000    0.000    0.000    0.000 
#
# Total GULP energy -78407.864049 kJ/mol
# GULP energy per Si atom -5600.561718 kJ/mol
# Density = 2.503944 g / cm^3
# Si number density = 25.096559 Si / 1000 Ang^3
#
#
#
# Elastic Constant Matrix: (Units=GPa)
#
#
# Indices 1 2 3 4 5 6 
#
# 1 84.2185 15.0241 19.6555 15.9438 -9.6257 -16.8713
# 2 15.0241 85.9580 17.2490 12.6061 -2.5696 -20.4749
# 3 19.6555 17.2490 163.2307 28.9344 14.9084 -11.2351
# 4 15.9438 12.6061 28.9344 39.0757 3.4384 -7.9461
# 5 -9.6257 -2.5696 14.9084 3.4384 19.7530 16.6722
# 6 -16.8713 -20.4749 -11.2351 -7.9461 16.6722 36.8441
#
#
#
# Elastic Compliance Matrix: (Units=1/GPa)
#
#
# Indices 1 2 3 4 5 6 
#
# 1 0.014448 -0.001064 -0.001424 -0.005056 0.008185 0.000797
# 2 -0.001064 0.014300 0.000330 -0.001579 -0.007647 0.010680
# 3 -0.001424 0.000330 0.008455 -0.003274 -0.012373 0.007003
# 4 -0.005056 -0.001579 -0.003274 0.033742 -0.014039 0.009439
# 5 0.008185 -0.007647 -0.012373 -0.014039 0.115788 -0.059697
# 6 0.000797 0.010680 0.007003 0.009439 -0.059697 0.064626
#
#
# Mechanical properties :
#
#
# Convention : Reuss Voigt Hill
#
# Bulk Modulus (GPa) = 30.40486 48.58492 39.49489
# Shear Modulus (GPa) = 18.75206 37.89980 28.32593
#
# Velocity S-wave (km/s) = 2.73646 3.89029 3.36322
# Velocity P-wave (km/s) = 4.70380 6.29130 5.55455
#
# Compressibility (1/GPa) = 0.03288948
#
# Stress axis : x y z
#
# Youngs Moduli (GPa) = 69.21300 69.92889 118.27025
#
# Poissons Ratio (x) = 0.07438 0.16840
# Poissons Ratio (y) = 0.07362 -0.03908
# Poissons Ratio (z) = 0.09855 -0.02311
#
# Static dielectric constant tensor:
#      x y z
#    x 2.107920 0.020720 -0.025920 
#    y 0.020720 2.003700 -0.008710 
#    z -0.025920 -0.008710 1.951020 
# 
# From -- ./inp_files/155476.got.cif
#   From: 2010.05.17/outbox.cif.g08.bks.cpg/sg2_78_cif.got.tgz:155476.got - 2010.06.03 11:33:40.
