data_PCOD9106196
_publ_section_title
;
Structure prediction by ZEFSAII (Michael W. Deem and Ramdas Pophale) SiO2 
 PCOD9106196
Probable space group: P -1
;
_chemical_formula_sum "Si O2"
_cell_formula_units_Z 16
_cell_length_a 17.380255
_cell_length_b 7.572203
_cell_length_c 11.258213
_cell_angle_alpha 67.987917
_cell_angle_beta 55.018736
_cell_angle_gamma 112.057359
_cell_volume 708.143605
_symmetry_space_group_name_H-M "P -1"
_symmetry_group_IT_number 2
_symmetry_cell_setting 'triclinic'
loop_
_space_group_symop_operation_xyz
x,y,z
-x,-y,-z
loop_
_atom_site_type_symbol
_atom_site_label
_atom_site_fract_x
_atom_site_fract_y
_atom_site_fract_z
Si Si1 0.412093 0.167229 0.314179
Si Si2 0.851406 0.210618 0.817456
Si Si3 0.892928 0.970471 0.671888
Si Si4 0.908568 0.487233 0.921266
Si Si5 0.350889 0.135763 0.122657
Si Si6 0.659341 0.356352 0.187924
Si Si7 0.847679 0.061056 0.249182
Si Si8 0.340693 0.351922 0.688240
O O1 0.386717 0.073146 0.223054
O O2 0.510051 0.166543 0.296344
O O3 0.262470 0.984388 0.561938
O O4 0.510154 0.518224 0.132231
O O5 0.953795 0.227306 0.645862
O O6 0.729572 0.091667 0.859851
O O7 0.930414 0.487535 0.762008
O O8 0.757332 0.932581 0.063213
O O9 0.771687 0.897866 0.720998
O O10 0.787221 0.670939 0.922401
O O11 0.000000 0.000000 0.500000
O O12 0.735663 0.271995 0.146540
O O13 0.928750 0.318714 0.012999
O O14 0.023614 0.806452 0.808049
O O15 0.643026 0.424535 0.313622
O O16 0.743266 0.763737 0.334628
O O17 0.500000 0.500000 0.500000
#
# Coordination Sequence:
#
# PCOD9106196 Si02
#       8
#     2   2   2   2   2   2   2   2
#     4  10  17  34  55  83 102 139 180 225 266 309
#     4   8  17  34  52  77 110 145 170 215 270 324
#     4   8  16  32  55  82 101 138 179 222 263 302
#     4  10  22  36  51  80 113 146 173 216 268 330
#     4   8  17  31  58  80 104 133 181 227 264 311
#     4  10  20  33  55  83 107 134 186 226 259 316
#     4  10  21  35  56  74 112 147 175 213 277 318
#     4  10  16  34  57  80 100 137 187 221 267 309
#
# _framework density 22.594287999999999
#
# number of rings (size 3 to 8) (size 9 to 14) (size 15 to 20)
#    0.750    2.000    2.500    0.000    1.750    1.000 
#    0.000    3.125    0.000    1.500    0.000    0.000 
#    0.000    0.000    0.000    0.000    0.000    0.000 
#
# Total GULP energy -89172.846885 kJ/mol
# GULP energy per Si atom -5573.302930 kJ/mol
# Density = 2.254286 g / cm^3
# Si number density = 22.594288 Si / 1000 Ang^3
#
#
#
# Elastic Constant Matrix: (Units=GPa)
#
#
# Indices 1 2 3 4 5 6 
#
# 1 70.9978 61.3480 18.2917 -2.4355 -12.4572 33.1314
# 2 61.3480 119.9106 32.7949 19.0504 -2.4638 45.6329
# 3 18.2917 32.7949 112.9981 13.4267 -10.1727 9.0545
# 4 -2.4355 19.0504 13.4267 33.3484 -3.5296 -3.0056
# 5 -12.4572 -2.4638 -10.1727 -3.5296 29.8923 -1.3573
# 6 33.1314 45.6329 9.0545 -3.0056 -1.3573 46.8442
#
#
#
# Elastic Compliance Matrix: (Units=1/GPa)
#
#
# Indices 1 2 3 4 5 6 
#
# 1 0.035136 -0.017073 -0.000487 0.013416 0.014343 -0.006848
# 2 -0.017073 0.025351 -0.002256 -0.016928 -0.008406 -0.013513
# 3 -0.000487 -0.002256 0.010085 -0.002467 0.002775 0.000515
# 4 0.013416 -0.016928 -0.002467 0.043529 0.008974 0.010531
# 5 0.014343 -0.008406 0.002775 0.008974 0.040708 -0.000737
# 6 -0.006848 -0.013513 0.000515 0.010531 -0.000737 0.039909
#
#
# Mechanical properties :
#
#
# Convention : Reuss Voigt Hill
#
# Bulk Modulus (GPa) = 32.32184 58.75283 45.53734
# Shear Modulus (GPa) = 20.43623 34.78177 27.60900
#
# Velocity S-wave (km/s) = 3.01073 3.92778 3.49943
# Velocity P-wave (km/s) = 5.14027 6.82860 6.04368
#
# Compressibility (1/GPa) = 0.03093883
#
# Stress axis : x y z
#
# Youngs Moduli (GPa) = 28.46120 39.44628 99.15699
#
# Poissons Ratio (x) = 0.67349 0.04826
# Poissons Ratio (y) = 0.48593 0.22372
# Poissons Ratio (z) = 0.01385 0.08900
#
# Static dielectric constant tensor:
#      x y z
#    x 1.881610 -0.003790 0.035340 
#    y -0.003790 1.909610 -0.046940 
#    z 0.035340 -0.046940 1.862430 
# 
# From -- ./inp_files/462123.got.cif
#   From: 2010.05.17/outbox.cif.g08.bks.cpg/sg2_232_cif.got.tgz:462123.got - 2010.06.03 11:33:40.
