data_PCOD9106097
_publ_section_title
;
Structure prediction by ZEFSAII (Michael W. Deem and Ramdas Pophale) SiO2 
 PCOD9106097
Probable space group: P -1
;
_chemical_formula_sum "Si O2"
_cell_formula_units_Z 15
_cell_length_a 14.649602
_cell_length_b 21.842050
_cell_length_c 16.067226
_cell_angle_alpha 21.495512
_cell_angle_beta 148.009077
_cell_angle_gamma 158.111712
_cell_volume 697.915729
_symmetry_space_group_name_H-M "P -1"
_symmetry_group_IT_number 2
_symmetry_cell_setting 'triclinic'
loop_
_space_group_symop_operation_xyz
x,y,z
-x,-y,-z
loop_
_atom_site_type_symbol
_atom_site_label
_atom_site_fract_x
_atom_site_fract_y
_atom_site_fract_z
Si Si1 0.495655 0.958899 0.664776
Si Si2 0.267641 0.077438 0.226072
Si Si3 0.091648 0.512225 0.647257
Si Si4 0.275317 0.352915 0.629680
Si Si5 0.251934 0.849902 0.792282
Si Si6 0.600719 0.202916 0.754787
Si Si7 0.500000 0.500000 0.000000
Si Si8 0.232504 0.456538 0.282734
O O1 0.312761 0.937604 0.491228
O O2 0.763327 0.230037 0.528978
O O3 0.552282 0.819835 0.843786
O O4 0.396655 0.913104 0.738746
O O5 0.367385 0.290131 0.093106
O O6 0.977844 0.892277 0.218127
O O7 0.000000 0.500000 0.500000
O O8 0.854525 0.311864 0.773696
O O9 0.290313 0.502711 0.815838
O O10 0.352290 0.582228 0.441247
O O11 0.220845 0.344516 0.499939
O O12 0.511908 0.397752 0.751059
O O13 0.992164 0.744703 0.696729
O O14 0.405340 0.067527 0.699019
O O15 0.205668 0.631600 0.067349
O O16 0.500000 0.000000 0.000000
#
# Coordination Sequence:
#
# PCOD9106097 Si02
#       8
#     2   2   2   2   2   2   1   2
#     4  10  20  39  67  93 129 176 216 276 342 403
#     4  10  21  40  66  96 131 170 220 276 339 405
#     4  11  23  44  68  97 136 177 226 283 343 404
#     4  11  22  42  66  94 127 176 216 268 340 403
#     4  11  22  43  65  95 131 173 226 277 336 401
#     4  12  25  42  69  99 135 181 227 282 343 405
#     4  10  26  42  68 106 132 176 228 286 338 414
#     4  10  24  40  64  92 131 174 217 275 331 404
#
# _framework density 21.492566
#
# number of rings (size 3 to 8) (size 9 to 14) (size 15 to 20)
#    0.000    1.333    5.333    0.000    1.867    0.533 
#    2.400    1.333    0.000    0.000    0.000    0.000 
#    0.000    0.000    0.000    0.000    0.000    0.000 
#
# Total GULP energy -83538.948046 kJ/mol
# GULP energy per Si atom -5569.263203 kJ/mol
# Density = 2.144365 g / cm^3
# Si number density = 21.492566 Si / 1000 Ang^3
#
#
#
# Elastic Constant Matrix: (Units=GPa)
#
#
# Indices 1 2 3 4 5 6 
#
# 1 89.8512 52.2721 29.6852 1.9522 9.7567 -3.2904
# 2 52.2721 161.8333 24.5710 3.8666 12.9656 -8.7528
# 3 29.6852 24.5710 29.8871 5.2960 6.5373 -4.4645
# 4 1.9522 3.8666 5.2960 24.6106 -1.9889 2.8170
# 5 9.7567 12.9656 6.5373 -1.9889 46.1490 -10.8682
# 6 -3.2904 -8.7528 -4.4645 2.8170 -10.8682 31.9788
#
#
#
# Elastic Compliance Matrix: (Units=1/GPa)
#
#
# Indices 1 2 3 4 5 6 
#
# 1 0.018481 -0.003643 -0.015904 0.002666 -0.000958 -0.001876
# 2 -0.003643 0.007864 -0.002366 -0.000645 -0.000845 0.001217
# 3 -0.015904 -0.002366 0.054575 -0.010954 -0.002926 0.005305
# 4 0.002666 -0.000645 -0.010954 0.043565 0.001963 -0.004602
# 5 -0.000958 -0.000845 -0.002926 0.001963 0.024342 0.007361
# 6 -0.001876 0.001217 0.005305 -0.004602 0.007361 0.035059
#
#
# Mechanical properties :
#
#
# Convention : Reuss Voigt Hill
#
# Bulk Modulus (GPa) = 26.95897 54.95871 40.95884
# Shear Modulus (GPa) = 20.82682 32.21723 26.52202
#
# Velocity S-wave (km/s) = 3.11629 3.87588 3.51666
# Velocity P-wave (km/s) = 5.05163 6.75696 5.96555
#
# Compressibility (1/GPa) = 0.03709341
#
# Stress axis : x y z
#
# Youngs Moduli (GPa) = 54.11069 127.16106 18.32357
#
# Poissons Ratio (x) = 0.46325 0.29142
# Poissons Ratio (y) = 0.19713 0.04335
# Poissons Ratio (z) = 0.86058 0.30085
#
# Static dielectric constant tensor:
#      x y z
#    x 1.820910 0.008810 -0.052790 
#    y 0.008810 1.787110 0.002550 
#    z -0.052790 0.002550 1.806000 
# 
# From -- ./inp_files/572385.got.cif
#   From: 2010.05.17/outbox.cif.g08.bks.cpg/sg2_287_cif.got.tgz:572385.got - 2010.06.03 11:33:40.
