data_PCOD9106832
_publ_section_title
;
Structure prediction by ZEFSAII (Michael W. Deem and Ramdas Pophale) SiO2 
 PCOD9106832
Probable space group: P -1
;
_chemical_formula_sum "Si O2"
_cell_formula_units_Z 16
_cell_length_a 9.119829
_cell_length_b 22.787806
_cell_length_c 15.163557
_cell_angle_alpha 21.586612
_cell_angle_beta 66.343687
_cell_angle_gamma 53.260679
_cell_volume 790.390432
_symmetry_space_group_name_H-M "P -1"
_symmetry_group_IT_number 2
_symmetry_cell_setting 'triclinic'
loop_
_space_group_symop_operation_xyz
x,y,z
-x,-y,-z
loop_
_atom_site_type_symbol
_atom_site_label
_atom_site_fract_x
_atom_site_fract_y
_atom_site_fract_z
Si Si1 0.749922 0.708087 0.763142
Si Si2 0.374712 0.562200 0.569358
Si Si3 0.751328 0.517720 0.459850
Si Si4 0.872559 0.795980 0.051886
Si Si5 0.601819 0.155591 0.199366
Si Si6 0.813966 0.297390 0.042509
Si Si7 0.270229 0.581636 0.919038
Si Si8 0.674310 0.264935 0.478566
O O1 0.608191 0.746703 0.827456
O O2 0.703962 0.924664 0.463405
O O3 0.686671 0.634366 0.801728
O O4 0.000000 0.500000 0.000000
O O5 0.531875 0.591995 0.449589
O O6 0.231211 0.578519 0.505221
O O7 0.260503 0.711867 0.473691
O O8 0.527608 0.320188 0.908886
O O9 0.750868 0.709862 0.188372
O O10 0.950542 0.340937 0.721972
O O11 0.004986 0.749826 0.996507
O O12 0.729098 0.044534 0.761081
O O13 0.759783 0.153415 0.226540
O O14 0.583252 0.536471 0.745371
O O15 0.870491 0.283469 0.150682
O O16 0.215301 0.702263 0.670955
O O17 0.500000 0.500000 0.000000
#
# Coordination Sequence:
#
# PCOD9106832 Si02
#       8
#     2   2   2   2   2   2   2   2
#     4  11  23  37  60  92 122 159 203 244 292 369
#     4  10  20  43  66  86 126 164 198 254 313 356
#     4  10  23  41  64  93 119 158 212 257 305 358
#     4  11  23  41  65  93 120 157 210 258 301 357
#     4  10  21  40  62  84 126 164 193 249 308 351
#     4  10  21  42  62  89 128 164 196 251 303 365
#     4  10  20  40  61  90 125 160 200 240 299 374
#     4  10  21  39  66  87 123 161 200 247 308 364
#
# _framework density 20.243158000000001
#
# number of rings (size 3 to 8) (size 9 to 14) (size 15 to 20)
#    0.000    1.750    6.250    0.000    1.750    4.500 
#    0.000    0.000    0.000    0.000    0.000    0.000 
#    0.000    0.000    0.000    0.000    0.000    0.000 
#
# Total GULP energy -89312.071820 kJ/mol
# GULP energy per Si atom -5582.004489 kJ/mol
# Density = 2.019708 g / cm^3
# Si number density = 20.243158 Si / 1000 Ang^3
#
#
#
# Elastic Constant Matrix: (Units=GPa)
#
#
# Indices 1 2 3 4 5 6 
#
# 1 91.4517 62.1342 60.7999 -10.7628 -33.6325 15.2737
# 2 62.1342 127.9386 52.5893 5.1506 -18.3147 26.0956
# 3 60.7999 52.5893 118.9949 -17.8076 -43.3408 -3.4755
# 4 -10.7628 5.1506 -17.8076 25.2881 1.5144 -3.5898
# 5 -33.6325 -18.3147 -43.3408 1.5144 35.9783 -4.7898
# 6 15.2737 26.0956 -3.4755 -3.5898 -4.7898 29.2440
#
#
#
# Elastic Compliance Matrix: (Units=1/GPa)
#
#
# Indices 1 2 3 4 5 6 
#
# 1 0.026645 -0.010684 -0.000261 0.012236 0.018659 0.000145
# 2 -0.010684 0.021380 -0.014406 -0.020898 -0.018344 -0.020780
# 3 -0.000261 -0.014406 0.031532 0.026672 0.032661 0.025362
# 4 0.012236 -0.020898 0.026672 0.069956 0.033922 0.029570
# 5 0.018659 -0.018344 0.032661 0.033922 0.077457 0.027356
# 6 0.000145 -0.020780 0.025362 0.029570 0.027356 0.063787
#
#
# Mechanical properties :
#
#
# Convention : Reuss Voigt Hill
#
# Bulk Modulus (GPa) = 34.65556 76.60356 55.62956
# Shear Modulus (GPa) = 14.24183 28.95953 21.60068
#
# Velocity S-wave (km/s) = 2.65531 3.78641 3.27013
# Velocity P-wave (km/s) = 5.15341 7.55246 6.46519
#
# Compressibility (1/GPa) = 0.02885540
#
# Stress axis : x y z
#
# Youngs Moduli (GPa) = 37.53003 46.77188 31.71415
#
# Poissons Ratio (x) = 0.49972 0.00828
# Poissons Ratio (y) = 0.40098 0.45686
# Poissons Ratio (z) = 0.00980 0.67378
#
# Static dielectric constant tensor:
#      x y z
#    x 1.703390 0.020100 0.000100 
#    y 0.020100 1.753670 0.012780 
#    z 0.000100 0.012780 1.715790 
# 
# From -- ./inp_files/508060.got.cif
#   From: 2010.05.17/outbox.cif.g08.bks.cpg/sg2_255_cif.got.tgz:508060.got - 2010.06.03 11:33:40.
