data_PCOD9106782
_publ_section_title
;
Structure prediction by ZEFSAII (Michael W. Deem and Ramdas Pophale) SiO2 
 PCOD9106782
Probable space group: P -1
;
_chemical_formula_sum "Si O2"
_cell_formula_units_Z 16
_cell_length_a 8.973186
_cell_length_b 6.209507
_cell_length_c 14.956494
_cell_angle_alpha 83.133182
_cell_angle_beta 110.991107
_cell_angle_gamma 97.560354
_cell_volume 768.927316
_symmetry_space_group_name_H-M "P -1"
_symmetry_group_IT_number 2
_symmetry_cell_setting 'triclinic'
loop_
_space_group_symop_operation_xyz
x,y,z
-x,-y,-z
loop_
_atom_site_type_symbol
_atom_site_label
_atom_site_fract_x
_atom_site_fract_y
_atom_site_fract_z
Si Si1 0.007820 0.894334 0.365389
Si Si2 0.670970 0.286558 0.552904
Si Si3 0.580428 0.984853 0.387876
Si Si4 0.510651 0.010251 0.830063
Si Si5 0.752142 0.753991 0.166840
Si Si6 0.824671 0.054454 0.994114
Si Si7 0.346599 0.635455 0.936493
Si Si8 0.868561 0.726653 0.513397
O O1 0.187279 0.855455 0.378553
O O2 0.882089 0.847625 0.262023
O O3 0.970561 0.712527 0.445289
O O4 0.022493 0.139453 0.395930
O O5 0.538362 0.229300 0.602294
O O6 0.755537 0.525557 0.538795
O O7 0.583796 0.180536 0.450451
O O8 0.752921 0.900971 0.441634
O O9 0.540117 0.055314 0.277095
O O10 0.430482 0.842681 0.893369
O O11 0.421772 0.222606 0.827212
O O12 0.698985 0.024506 0.887093
O O13 0.759798 0.507156 0.151153
O O14 0.779798 0.884926 0.073447
O O15 0.771194 0.280776 0.016473
O O16 0.000000 0.000000 0.000000
O O17 0.500000 0.500000 0.000000
#
# Coordination Sequence:
#
# PCOD9106782 Si02
#       8
#     2   2   2   2   2   2   2   2
#     4  10  22  36  61  94 123 161 217 267 317 384
#     4  10  22  38  59  88 131 166 210 269 324 382
#     4  10  22  38  60  92 124 170 216 262 324 390
#     4  11  22  40  66  92 129 170 216 270 319 393
#     4  11  22  42  66  93 127 169 219 266 323 399
#     4  11  25  42  67  95 135 165 210 278 331 380
#     4  11  21  43  69  95 125 174 221 262 324 397
#     4  10  20  40  61  86 128 167 210 266 324 380
#
# _framework density 20.808211
#
# number of rings (size 3 to 8) (size 9 to 14) (size 15 to 20)
#    0.000    1.500    3.750    1.500    3.500    2.500 
#    0.000    0.000    5.500    0.000    0.000    0.000 
#    0.000    0.000    0.000    0.000    0.000    0.000 
#
# Total GULP energy -89103.363778 kJ/mol
# GULP energy per Si atom -5568.960236 kJ/mol
# Density = 2.076085 g / cm^3
# Si number density = 20.808211 Si / 1000 Ang^3
#
#
#
# Elastic Constant Matrix: (Units=GPa)
#
#
# Indices 1 2 3 4 5 6 
#
# 1 119.1011 13.9603 28.6035 6.2518 11.5881 -4.2884
# 2 13.9603 70.4434 16.5691 13.2136 0.7797 14.6287
# 3 28.6035 16.5691 103.2857 19.8283 19.4244 -3.6947
# 4 6.2518 13.2136 19.8283 22.9989 7.0887 3.9129
# 5 11.5881 0.7797 19.4244 7.0887 25.6576 -0.8075
# 6 -4.2884 14.6287 -3.6947 3.9129 -0.8075 31.2311
#
#
#
# Elastic Compliance Matrix: (Units=1/GPa)
#
#
# Indices 1 2 3 4 5 6 
#
# 1 0.009368 -0.001905 -0.001806 0.000707 -0.002944 0.001800
# 2 -0.001905 0.018108 -0.001783 -0.008144 0.003663 -0.007839
# 3 -0.001806 -0.001783 0.013515 -0.008531 -0.006908 0.003076
# 4 0.000707 -0.008144 -0.008531 0.059260 -0.010136 -0.004784
# 5 -0.002944 0.003663 -0.006908 -0.010136 0.048210 -0.000421
# 6 0.001800 -0.007839 0.003076 -0.004784 -0.000421 0.036891
#
#
# Mechanical properties :
#
#
# Convention : Reuss Voigt Hill
#
# Bulk Modulus (GPa) = 33.33238 45.67733 39.50485
# Shear Modulus (GPa) = 24.23169 31.55733 27.89451
#
# Velocity S-wave (km/s) = 3.41622 3.89855 3.66533
# Velocity P-wave (km/s) = 5.62266 6.50109 6.07777
#
# Compressibility (1/GPa) = 0.03000086
#
# Stress axis : x y z
#
# Youngs Moduli (GPa) = 106.75190 55.22474 73.99183
#
# Poissons Ratio (x) = 0.10523 0.13364
# Poissons Ratio (y) = 0.20341 0.13194
# Poissons Ratio (z) = 0.19280 0.09848
#
# Static dielectric constant tensor:
#      x y z
#    x 1.801290 -0.060770 -0.011870 
#    y -0.060770 1.808960 0.024550 
#    z -0.011870 0.024550 1.743060 
# 
# From -- ./inp_files/297318.got.cif
#   From: 2010.05.17/outbox.cif.g08.bks.cpg/sg2_149_cif.got.tgz:297318.got - 2010.06.03 11:33:40.
