data_PCOD9106425
_publ_section_title
;
Structure prediction by ZEFSAII (Michael W. Deem and Ramdas Pophale) SiO2 
 PCOD9106425
Probable space group: P -1
;
_chemical_formula_sum "Si O2"
_cell_formula_units_Z 14
_cell_length_a 7.625112
_cell_length_b 10.720221
_cell_length_c 9.477680
_cell_angle_alpha 122.541141
_cell_angle_beta 70.959770
_cell_angle_gamma 125.712120
_cell_volume 530.209480
_symmetry_space_group_name_H-M "P -1"
_symmetry_group_IT_number 2
_symmetry_cell_setting 'triclinic'
loop_
_space_group_symop_operation_xyz
x,y,z
-x,-y,-z
loop_
_atom_site_type_symbol
_atom_site_label
_atom_site_fract_x
_atom_site_fract_y
_atom_site_fract_z
Si Si1 0.770502 0.086158 0.349297
Si Si2 0.214085 0.991568 0.399647
Si Si3 0.536149 0.608895 0.412642
Si Si4 0.926731 0.602575 0.739680
Si Si5 0.832132 0.483712 0.153823
Si Si6 0.549084 0.894322 0.034487
Si Si7 0.969244 0.098283 0.895546
O O1 0.743840 0.093642 0.526852
O O2 0.925725 0.269005 0.346020
O O3 0.874896 0.966286 0.233790
O O4 0.568482 0.978268 0.232782
O O5 0.731427 0.605828 0.276215
O O6 0.391463 0.193974 0.455487
O O7 0.000000 0.000000 0.500000
O O8 0.500000 0.500000 0.500000
O O9 0.313655 0.522443 0.329840
O O10 0.057267 0.523358 0.732674
O O11 0.925466 0.726523 0.938537
O O12 0.616340 0.303460 0.063924
O O13 0.149209 0.890825 0.207532
O O14 0.000000 0.500000 0.000000
O O15 0.788742 0.948247 0.951256
O O16 0.500000 0.000000 0.000000
#
# Coordination Sequence:
#
# PCOD9106425 Si02
#       7
#     2   2   2   2   2   2   2
#     4  10  20  39  70 102 133 185 244 299 357 434
#     4  10  23  41  73 102 140 187 245 296 364 434
#     4  12  27  50  76 107 156 198 236 307 384 438
#     4  11  24  47  77 106 143 197 245 306 373 437
#     4  12  28  44  72 114 152 189 251 309 364 443
#     4  11  20  40  67  95 143 184 236 291 360 427
#     4  10  20  42  73 102 132 187 249 296 354 442
#
# _framework density 26.404657
#
# number of rings (size 3 to 8) (size 9 to 14) (size 15 to 20)
#    0.000    1.143    2.857    6.000    6.000    1.143 
#    0.000    0.714    0.000    0.000    0.000    0.000 
#    0.000    0.000    0.000    0.000    0.000    0.000 
#
# Total GULP energy -78489.391195 kJ/mol
# GULP energy per Si atom -5606.385085 kJ/mol
# Density = 2.634456 g / cm^3
# Si number density = 26.404657 Si / 1000 Ang^3
#
#
#
# Elastic Constant Matrix: (Units=GPa)
#
#
# Indices 1 2 3 4 5 6 
#
# 1 122.8619 23.9841 47.7541 10.8834 10.1930 -1.1038
# 2 23.9841 113.2671 74.2186 13.6012 9.3877 0.0856
# 3 47.7541 74.2186 208.2846 -9.2226 22.2445 3.8020
# 4 10.8834 13.6012 -9.2226 64.3687 2.1950 5.4999
# 5 10.1930 9.3877 22.2445 2.1950 64.3572 -1.0858
# 6 -1.1038 0.0856 3.8020 5.4999 -1.0858 40.3890
#
#
#
# Elastic Compliance Matrix: (Units=1/GPa)
#
#
# Indices 1 2 3 4 5 6 
#
# 1 0.009209 -0.000368 -0.002004 -0.001802 -0.000639 0.000669
# 2 -0.000368 0.012185 -0.004407 -0.003211 -0.000073 0.000814
# 3 -0.002004 -0.004407 0.007130 0.002440 -0.001606 -0.001092
# 4 -0.001802 -0.003211 0.002440 0.017117 -0.000718 -0.002622
# 5 -0.000639 -0.000073 -0.001606 -0.000718 0.016241 0.000668
# 6 0.000669 0.000814 -0.001092 -0.002622 0.000668 0.025254
#
#
# Mechanical properties :
#
#
# Convention : Reuss Voigt Hill
#
# Bulk Modulus (GPa) = 66.81536 81.81415 74.31476
# Shear Modulus (GPa) = 47.31178 53.72009 50.51593
#
# Velocity S-wave (km/s) = 4.23755 4.51543 4.37870
# Velocity P-wave (km/s) = 7.02152 7.63135 7.33278
#
# Compressibility (1/GPa) = 0.01496662
#
# Stress axis : x y z
#
# Youngs Moduli (GPa) = 108.59436 82.06644 140.24562
#
# Poissons Ratio (x) = 0.03020 0.28103
# Poissons Ratio (y) = 0.03997 0.61805
# Poissons Ratio (z) = 0.21761 0.36166
#
# Static dielectric constant tensor:
#      x y z
#    x 2.050650 0.022480 -0.025600 
#    y 0.022480 2.046710 -0.041870 
#    z -0.025600 -0.041870 2.059230 
# 
# From -- ./inp_files/496629.got.cif
#   From: 2010.05.17/outbox.cif.g08.bks.cpg/sg2_249_cif.got.tgz:496629.got - 2010.06.03 11:33:40.
