data_PCOD9106205
_publ_section_title
;
Structure prediction by ZEFSAII (Michael W. Deem and Ramdas Pophale) SiO2 
 PCOD9106205
Probable space group: P -1
;
_chemical_formula_sum "Si O2"
_cell_formula_units_Z 16
_cell_length_a 7.033753
_cell_length_b 15.762697
_cell_length_c 7.909397
_cell_angle_alpha 132.148936
_cell_angle_beta 89.868882
_cell_angle_gamma 76.060901
_cell_volume 614.412118
_symmetry_space_group_name_H-M "P -1"
_symmetry_group_IT_number 2
_symmetry_cell_setting 'triclinic'
loop_
_space_group_symop_operation_xyz
x,y,z
-x,-y,-z
loop_
_atom_site_type_symbol
_atom_site_label
_atom_site_fract_x
_atom_site_fract_y
_atom_site_fract_z
Si Si1 0.231027 0.551874 0.722195
Si Si2 0.890174 0.959890 0.601438
Si Si3 0.257388 0.380801 0.190843
Si Si4 0.722086 0.853267 0.939546
Si Si5 0.266750 0.752120 0.464248
Si Si6 0.441691 0.116175 0.397652
Si Si7 0.200710 0.792740 0.901157
Si Si8 0.228847 0.498773 0.011290
O O1 0.297429 0.472734 0.449111
O O2 0.268311 0.680022 0.878194
O O3 0.987200 0.585327 0.771780
O O4 0.314555 0.478140 0.793811
O O5 0.718929 0.898949 0.486893
O O6 0.063455 0.862436 0.573660
O O7 0.000000 0.000000 0.500000
O O8 0.780928 0.081034 0.869587
O O9 0.321111 0.409792 0.045465
O O10 0.671984 0.846367 0.732195
O O11 0.663073 0.752940 0.912326
O O12 0.960328 0.823194 0.918929
O O13 0.609184 0.987172 0.186692
O O14 0.443558 0.791388 0.433694
O O15 0.296663 0.751435 0.664346
O O16 0.234266 0.630697 0.238582
O O17 0.000000 0.500000 0.000000
#
# Coordination Sequence:
#
# PCOD9106205 Si02
#       8
#     2   2   2   2   2   2   2   2
#     4   9  18  33  63 100 136 180 240 291 345 418
#     4  12  26  43  70 103 142 187 231 295 365 426
#     4   9  18  35  63 100 136 185 237 285 353 419
#     4  10  20  39  68 101 141 183 238 292 347 426
#     4  12  23  43  71 103 137 186 244 292 352 429
#     4  11  24  42  69 104 139 183 236 293 356 424
#     4  11  19  39  68 103 137 185 241 284 355 427
#     4  10  21  38  66 103 142 188 239 295 353 415
#
# _framework density 26.041152
#
# number of rings (size 3 to 8) (size 9 to 14) (size 15 to 20)
#    0.000    1.500    3.750    2.625    1.750    0.500 
#    0.000    0.625    0.000    3.000    0.000    0.000 
#    0.000    0.125    0.000    0.000    0.000    0.000 
#
# Total GULP energy -89801.316078 kJ/mol
# GULP energy per Si atom -5612.582255 kJ/mol
# Density = 2.598188 g / cm^3
# Si number density = 26.041152 Si / 1000 Ang^3
#
#
#
# Elastic Constant Matrix: (Units=GPa)
#
#
# Indices 1 2 3 4 5 6 
#
# 1 140.7225 53.2588 36.4176 12.6141 11.3574 28.1705
# 2 53.2588 183.7713 63.1743 1.1725 0.8843 5.5253
# 3 36.4176 63.1743 122.8577 6.6682 2.6339 8.9078
# 4 12.6141 1.1725 6.6682 45.9932 12.9954 7.7815
# 5 11.3574 0.8843 2.6339 12.9954 30.2136 10.2877
# 6 28.1705 5.5253 8.9078 7.7815 10.2877 51.6875
#
#
#
# Elastic Compliance Matrix: (Units=1/GPa)
#
#
# Indices 1 2 3 4 5 6 
#
# 1 0.009288 -0.002117 -0.001268 -0.001216 -0.001380 -0.004160
# 2 -0.002117 0.007099 -0.003120 0.000629 0.000326 0.000773
# 3 -0.001268 -0.003120 0.010216 -0.001042 0.000346 -0.000648
# 4 -0.001216 0.000629 -0.001042 0.025199 -0.009956 -0.001037
# 5 -0.001380 0.000326 0.000346 -0.009956 0.039824 -0.005770
# 6 -0.004160 0.000773 -0.000648 -0.001037 -0.005770 0.022948
#
#
# Mechanical properties :
#
#
# Convention : Reuss Voigt Hill
#
# Bulk Modulus (GPa) = 73.56041 83.67253 78.61647
# Shear Modulus (GPa) = 37.84621 45.21225 41.52923
#
# Velocity S-wave (km/s) = 3.81638 4.17128 3.99777
# Velocity P-wave (km/s) = 6.90860 7.44312 7.18084
#
# Compressibility (1/GPa) = 0.01359427
#
# Stress axis : x y z
#
# Youngs Moduli (GPa) = 107.66081 140.87133 97.88853
#
# Poissons Ratio (x) = 0.29817 0.12409
# Poissons Ratio (y) = 0.22788 0.30541
# Poissons Ratio (z) = 0.13648 0.43951
#
# Static dielectric constant tensor:
#      x y z
#    x 2.060330 0.017560 0.010330 
#    y 0.017560 2.007460 -0.012740 
#    z 0.010330 -0.012740 1.968800 
# 
# From -- ./inp_files/139570.got.cif
#   From: 2010.05.17/outbox.cif.g08.bks.cpg/sg2_70_cif.got.tgz:139570.got - 2010.06.03 11:33:40.
