data_PCOD9106290
_publ_section_title
;
Structure prediction by ZEFSAII (Michael W. Deem and Ramdas Pophale) SiO2 
 PCOD9106290
Probable space group: P -1
;
_chemical_formula_sum "Si O2"
_cell_formula_units_Z 16
_cell_length_a 14.149454
_cell_length_b 11.009226
_cell_length_c 9.831869
_cell_angle_alpha 75.416866
_cell_angle_beta 116.368605
_cell_angle_gamma 148.983507
_cell_volume 678.977103
_symmetry_space_group_name_H-M "P -1"
_symmetry_group_IT_number 2
_symmetry_cell_setting 'triclinic'
loop_
_space_group_symop_operation_xyz
x,y,z
-x,-y,-z
loop_
_atom_site_type_symbol
_atom_site_label
_atom_site_fract_x
_atom_site_fract_y
_atom_site_fract_z
Si Si1 0.830789 0.625331 0.337418
Si Si2 0.355879 0.477443 0.293495
Si Si3 0.182906 0.426263 0.946541
Si Si4 0.240783 0.964391 0.656553
Si Si5 0.489902 0.343170 0.373239
Si Si6 0.781092 0.164980 0.767809
Si Si7 0.237896 0.726055 0.547535
Si Si8 0.390655 0.008592 0.993034
O O1 0.889590 0.718496 0.195033
O O2 0.656919 0.538852 0.307294
O O3 0.723339 0.375925 0.352737
O O4 0.037116 0.815405 0.503202
O O5 0.357618 0.329368 0.331198
O O6 0.363459 0.534131 0.437018
O O7 0.581608 0.751346 0.309743
O O8 0.193813 0.368921 0.114265
O O9 0.417146 0.699202 0.977279
O O10 0.024200 0.380241 0.867175
O O11 0.328088 0.936324 0.628916
O O12 0.217058 0.883105 0.814441
O O13 0.337188 0.077080 0.302844
O O14 0.738525 0.228809 0.610882
O O15 0.699414 0.106081 0.883177
O O16 0.000000 0.500000 0.500000
O O17 0.500000 0.000000 0.000000
#
# Coordination Sequence:
#
# PCOD9106290 Si02
#       8
#     2   2   2   2   2   2   2   2
#     4  11  22  40  67  99 134 175 228 271 332 413
#     4  10  24  44  67  96 135 172 228 289 329 397
#     4  11  23  44  67  99 135 175 225 279 334 400
#     4  10  21  42  64  94 139 174 214 282 336 393
#     4  11  24  44  67  99 130 179 231 272 343 404
#     4  12  24  44  70  96 139 184 220 275 344 397
#     4  10  20  39  68  96 131 174 220 264 334 413
#     4  11  26  42  63 102 143 174 227 274 330 406
#
# _framework density 23.564858000000001
#
# number of rings (size 3 to 8) (size 9 to 14) (size 15 to 20)
#    0.000    1.250    5.000    0.750    3.500    4.500 
#    0.000    0.000    0.000    0.000    0.000    0.000 
#    0.000    0.000    0.000    0.000    0.000    0.000 
#
# Total GULP energy -89344.205519 kJ/mol
# GULP energy per Si atom -5584.012845 kJ/mol
# Density = 2.351122 g / cm^3
# Si number density = 23.564858 Si / 1000 Ang^3
#
#
#
# Elastic Constant Matrix: (Units=GPa)
#
#
# Indices 1 2 3 4 5 6 
#
# 1 41.2236 9.0935 14.3724 2.1522 -14.9945 4.3616
# 2 9.0935 47.2502 19.1016 1.3299 -9.2186 2.1097
# 3 14.3724 19.1016 166.8045 -12.9713 -8.1988 7.8979
# 4 2.1522 1.3299 -12.9713 34.2985 17.3475 -4.1836
# 5 -14.9945 -9.2186 -8.1988 17.3475 37.4299 -2.2799
# 6 4.3616 2.1097 7.8979 -4.1836 -2.2799 35.3976
#
#
#
# Elastic Compliance Matrix: (Units=1/GPa)
#
#
# Indices 1 2 3 4 5 6 
#
# 1 0.033020 -0.001282 -0.002615 -0.012530 0.017919 -0.003735
# 2 -0.001282 0.024157 -0.002695 -0.005756 0.007460 -0.000880
# 3 -0.002615 -0.002695 0.006756 0.003756 -0.002016 -0.000710
# 4 -0.012530 -0.005756 0.003756 0.045529 -0.026427 0.004728
# 5 0.017919 0.007460 -0.002016 -0.026427 0.047400 -0.002273
# 6 -0.003735 -0.000880 -0.000710 0.004728 -0.002273 0.029334
#
#
# Mechanical properties :
#
#
# Convention : Reuss Voigt Hill
#
# Bulk Modulus (GPa) = 19.70539 37.82370 28.76455
# Shear Modulus (GPa) = 23.11649 35.60590 29.36120
#
# Velocity S-wave (km/s) = 3.13545 3.89134 3.53366
# Velocity P-wave (km/s) = 4.63556 6.02294 5.37421
#
# Compressibility (1/GPa) = 0.05074754
#
# Stress axis : x y z
#
# Youngs Moduli (GPa) = 30.28511 41.39595 148.02427
#
# Poissons Ratio (x) = 0.05308 0.38708
# Poissons Ratio (y) = 0.03883 0.39894
# Poissons Ratio (z) = 0.07919 0.11157
#
# Static dielectric constant tensor:
#      x y z
#    x 1.964020 -0.009120 -0.024200 
#    y -0.009120 1.971510 0.055970 
#    z -0.024200 0.055970 1.983030 
# 
# From -- ./inp_files/307383.got.cif
#   From: 2010.05.17/outbox.cif.g08.bks.cpg/sg2_154_cif.got.tgz:307383.got - 2010.06.03 11:33:40.
