data_PCOD9106429
_publ_section_title
;
Structure prediction by ZEFSAII (Michael W. Deem and Ramdas Pophale) SiO2 
 PCOD9106429
Probable space group: P -1
;
_chemical_formula_sum "Si O2"
_cell_formula_units_Z 14
_cell_length_a 9.930694
_cell_length_b 11.754139
_cell_length_c 8.670454
_cell_angle_alpha 112.517659
_cell_angle_beta 108.173699
_cell_angle_gamma 37.997443
_cell_volume 575.467411
_symmetry_space_group_name_H-M "P -1"
_symmetry_group_IT_number 2
_symmetry_cell_setting 'triclinic'
loop_
_space_group_symop_operation_xyz
x,y,z
-x,-y,-z
loop_
_atom_site_type_symbol
_atom_site_label
_atom_site_fract_x
_atom_site_fract_y
_atom_site_fract_z
Si Si1 0.067011 0.638357 0.986023
Si Si2 0.353663 0.958008 0.283261
Si Si3 0.207377 0.522316 0.301556
Si Si4 0.185911 0.941516 0.938203
Si Si5 0.926277 0.146128 0.417065
Si Si6 0.647757 0.826541 0.844318
Si Si7 0.837725 0.609126 0.352805
O O1 0.163340 0.524972 0.800649
O O2 0.868198 0.673488 0.944385
O O3 0.222790 0.538254 0.134126
O O4 0.934311 0.853508 0.049562
O O5 0.146444 0.053590 0.361826
O O6 0.321460 0.109495 0.262273
O O7 0.417668 0.191839 0.623980
O O8 0.366665 0.858458 0.085943
O O9 0.377050 0.298538 0.280727
O O10 0.209234 0.648932 0.458799
O O11 0.961559 0.632164 0.308622
O O12 0.217889 0.832288 0.748438
O O13 0.000000 0.000000 0.000000
O O14 0.000000 0.000000 0.500000
O O15 0.500000 0.000000 0.000000
O O16 0.000000 0.500000 0.500000
#
# Coordination Sequence:
#
# PCOD9106429 Si02
#       7
#     2   2   2   2   2   2   2
#     4  10  20  41  64  95 137 187 226 289 363 417
#     4  10  23  44  72 105 139 194 242 292 371 428
#     4  11  23  39  70 104 144 187 228 295 373 424
#     4   9  20  40  69  95 133 195 238 275 348 418
#     4  11  23  44  70 104 151 197 238 295 344 429
#     4  10  20  39  70 103 137 182 234 298 361 434
#     4  11  25  43  69 106 140 174 239 317 365 423
#
# _framework density 24.328050000000001
#
# number of rings (size 3 to 8) (size 9 to 14) (size 15 to 20)
#    0.000    1.714    1.429    3.429    8.000    0.571 
#    5.143    5.714    3.143    8.571    0.000    0.000 
#    0.000    0.000    0.000    0.000    0.000    0.000 
#
# Total GULP energy -78067.637307 kJ/mol
# GULP energy per Si atom -5576.259808 kJ/mol
# Density = 2.427268 g / cm^3
# Si number density = 24.328050 Si / 1000 Ang^3
#
#
#
# Elastic Constant Matrix: (Units=GPa)
#
#
# Indices 1 2 3 4 5 6 
#
# 1 91.6576 47.1354 46.0180 1.8593 -0.0653 6.7113
# 2 47.1354 127.9229 91.1525 7.6975 6.7177 3.0862
# 3 46.0180 91.1525 218.2016 13.2221 33.5744 13.0766
# 4 1.8593 7.6975 13.2221 59.5963 6.0881 7.1955
# 5 -0.0653 6.7177 33.5744 6.0881 38.4312 2.1727
# 6 6.7113 3.0862 13.0766 7.1955 2.1727 36.0163
#
#
#
# Elastic Compliance Matrix: (Units=1/GPa)
#
#
# Indices 1 2 3 4 5 6 
#
# 1 0.013914 -0.004221 -0.001393 0.000448 0.002017 -0.001937
# 2 -0.004221 0.012661 -0.004739 -0.000831 0.001969 0.001470
# 3 -0.001393 -0.004739 0.007892 -0.000274 -0.005924 -0.001787
# 4 0.000448 -0.000831 -0.000274 0.017556 -0.002210 -0.003287
# 5 0.002017 0.001969 -0.005924 -0.002210 0.031196 0.000166
# 6 -0.001937 0.001470 -0.001787 -0.003287 0.000166 0.029296
#
#
# Mechanical properties :
#
#
# Convention : Reuss Voigt Hill
#
# Bulk Modulus (GPa) = 72.66961 89.59932 81.13447
# Shear Modulus (GPa) = 36.28270 43.70717 39.99494
#
# Velocity S-wave (km/s) = 3.86605 4.24320 4.05901
# Velocity P-wave (km/s) = 7.06144 7.80487 7.44244
#
# Compressibility (1/GPa) = 0.01376091
#
# Stress axis : x y z
#
# Youngs Moduli (GPa) = 71.87002 78.98481 126.71478
#
# Poissons Ratio (x) = 0.33337 0.17647
# Poissons Ratio (y) = 0.30334 0.60056
# Poissons Ratio (z) = 0.10009 0.37435
#
# Static dielectric constant tensor:
#      x y z
#    x 1.948980 0.025880 -0.043080 
#    y 0.025880 1.950590 0.024190 
#    z -0.043080 0.024190 2.137970 
# 
# From -- ./inp_files/260107.got.cif
#   From: 2010.05.17/outbox.cif.g08.bks.cpg/sg2_131_cif.got.tgz:260107.got - 2010.06.03 11:33:40.
