data_PCOD9106421
_publ_section_title
;
Structure prediction by ZEFSAII (Michael W. Deem and Ramdas Pophale) SiO2 
 PCOD9106421
Probable space group: P -1
;
_chemical_formula_sum "Si O2"
_cell_formula_units_Z 16
_cell_length_a 19.448355
_cell_length_b 14.118762
_cell_length_c 8.778914
_cell_angle_alpha 112.348271
_cell_angle_beta 113.993421
_cell_angle_gamma 17.601497
_cell_volume 665.721882
_symmetry_space_group_name_H-M "P -1"
_symmetry_group_IT_number 2
_symmetry_cell_setting 'triclinic'
loop_
_space_group_symop_operation_xyz
x,y,z
-x,-y,-z
loop_
_atom_site_type_symbol
_atom_site_label
_atom_site_fract_x
_atom_site_fract_y
_atom_site_fract_z
Si Si1 0.716519 0.164491 0.916289
Si Si2 0.549293 0.749965 0.563218
Si Si3 0.600420 0.735230 0.260680
Si Si4 0.048695 0.145616 0.769930
Si Si5 0.812429 0.845192 0.946280
Si Si6 0.971695 0.963020 0.806895
Si Si7 0.300143 0.213084 0.839041
Si Si8 0.669790 0.365731 0.499960
O O1 0.689515 0.078931 0.855492
O O2 0.936912 0.897666 0.063800
O O3 0.500000 0.500000 0.000000
O O4 0.785319 0.119053 0.790430
O O5 0.517714 0.844870 0.428763
O O6 0.375618 0.014342 0.696159
O O7 0.562383 0.609585 0.492325
O O8 0.799636 0.466556 0.671709
O O9 0.721900 0.674307 0.248519
O O10 0.372448 0.005624 0.120228
O O11 0.788994 0.401841 0.227609
O O12 0.159886 0.116934 0.858255
O O13 0.200241 0.866386 0.653106
O O14 0.936496 0.499595 0.105650
O O15 0.859057 0.152598 0.669189
O O16 0.000000 0.000000 0.000000
O O17 0.500000 0.000000 0.000000
O O18 0.500000 0.500000 0.500000
#
# Coordination Sequence:
#
# PCOD9106421 Si02
#       8
#     2   2   2   2   2   2   2   2
#     4  10  20  39  70 101 145 178 239 293 348 426
#     4  12  27  49  72 104 152 194 240 302 370 436
#     4  12  27  47  78 107 146 197 242 303 373 429
#     4  10  22  46  68 104 145 189 235 297 369 428
#     4  10  25  44  78 108 140 188 249 293 363 435
#     4  12  25  40  70 108 148 188 241 295 371 433
#     4  12  26  53  78 103 148 193 252 303 362 436
#     4  12  28  43  72 112 149 191 238 304 369 434
#
# _framework density 24.034063
#
# number of rings (size 3 to 8) (size 9 to 14) (size 15 to 20)
#    0.750    0.000    3.750    3.000    8.750    1.000 
#    2.250    0.000    0.000    0.000    0.000    0.000 
#    0.000    0.000    0.000    0.000    0.000    0.000 
#
# Total GULP energy -89428.101452 kJ/mol
# GULP energy per Si atom -5589.256341 kJ/mol
# Density = 2.397936 g / cm^3
# Si number density = 24.034063 Si / 1000 Ang^3
#
#
#
# Elastic Constant Matrix: (Units=GPa)
#
#
# Indices 1 2 3 4 5 6 
#
# 1 87.8253 19.3310 17.1026 -9.1459 -2.4134 -3.5994
# 2 19.3310 98.2120 24.2158 10.7299 12.7439 3.3895
# 3 17.1026 24.2158 109.9297 -0.5021 6.4238 12.9808
# 4 -9.1459 10.7299 -0.5021 52.9610 -0.1023 0.8066
# 5 -2.4134 12.7439 6.4238 -0.1023 26.1065 -6.6663
# 6 -3.5994 3.3895 12.9808 0.8066 -6.6663 36.0734
#
#
#
# Elastic Compliance Matrix: (Units=1/GPa)
#
#
# Indices 1 2 3 4 5 6 
#
# 1 0.012930 -0.002981 -0.001913 0.002782 0.003876 0.002913
# 2 -0.002981 0.012417 -0.001675 -0.003029 -0.006444 -0.001985
# 3 -0.001913 -0.001675 0.010457 0.000169 -0.003046 -0.004363
# 4 0.002782 -0.003029 0.000169 0.019975 0.001875 0.000401
# 5 0.003876 -0.006444 -0.003046 0.001875 0.045222 0.010403
# 6 0.002913 -0.001985 -0.004363 0.000401 0.010403 0.031682
#
#
# Mechanical properties :
#
#
# Convention : Reuss Voigt Hill
#
# Bulk Modulus (GPa) = 44.11400 46.36286 45.23843
# Shear Modulus (GPa) = 32.59975 38.71602 35.65788
#
# Velocity S-wave (km/s) = 3.68693 4.01793 3.85598
# Velocity P-wave (km/s) = 6.04311 6.39198 6.21999
#
# Compressibility (1/GPa) = 0.02266854
#
# Stress axis : x y z
#
# Youngs Moduli (GPa) = 77.33725 80.53388 95.62838
#
# Poissons Ratio (x) = 0.24006 0.18291
# Poissons Ratio (y) = 0.23053 0.16013
# Poissons Ratio (z) = 0.14793 0.13485
#
# Static dielectric constant tensor:
#      x y z
#    x 2.186720 -0.040730 0.062360 
#    y -0.040730 1.932400 -0.049700 
#    z 0.062360 -0.049700 2.019120 
# 
# From -- ./inp_files/347343.got.cif
#   From: 2010.05.17/outbox.cif.g08.bks.cpg/sg2_174_cif.got.tgz:347343.got - 2010.06.03 11:33:40.
