data_PCOD9106499
_publ_section_title
;
Structure prediction by ZEFSAII (Michael W. Deem and Ramdas Pophale) SiO2 
 PCOD9106499
Probable space group: P -1
;
_chemical_formula_sum "Si O2"
_cell_formula_units_Z 16
_cell_length_a 14.236598
_cell_length_b 9.034781
_cell_length_c 17.874045
_cell_angle_alpha 139.546888
_cell_angle_beta 154.991740
_cell_angle_gamma 33.288248
_cell_volume 533.381157
_symmetry_space_group_name_H-M "P -1"
_symmetry_group_IT_number 2
_symmetry_cell_setting 'triclinic'
loop_
_space_group_symop_operation_xyz
x,y,z
-x,-y,-z
loop_
_atom_site_type_symbol
_atom_site_label
_atom_site_fract_x
_atom_site_fract_y
_atom_site_fract_z
Si Si1 0.127878 0.128958 0.065403
Si Si2 0.103801 0.326985 0.810909
Si Si3 0.760181 0.065877 0.432433
Si Si4 0.682704 0.097934 0.562825
Si Si5 0.482702 0.516165 0.287435
Si Si6 0.533075 0.482052 0.890757
Si Si7 0.850340 0.797319 0.043394
Si Si8 0.061569 0.519284 0.637892
O O1 0.289508 0.042240 0.070365
O O2 0.106713 0.366798 0.192572
O O3 0.261607 0.839891 0.088445
O O4 0.824196 0.270236 0.873907
O O5 0.258060 0.191121 0.948287
O O6 0.967087 0.166456 0.625349
O O7 0.298867 0.379847 0.923621
O O8 0.892106 0.746990 0.391289
O O9 0.634865 0.103886 0.440746
O O10 0.809034 0.811022 0.585208
O O11 0.918711 0.151924 0.750496
O O12 0.472057 0.316246 0.551982
O O13 0.594845 0.437878 0.254291
O O14 0.565839 0.253026 0.297336
O O15 0.315016 0.543646 0.818816
O O16 0.000000 0.500000 0.000000
O O17 0.000000 0.500000 0.500000
#
# Coordination Sequence:
#
# PCOD9106499 Si02
#       8
#     2   2   2   2   2   2   2   2
#     4   9  19  37  62  99 137 171 215 279 337 393
#     4   9  18  35  61  98 130 163 220 281 327 379
#     4  10  21  40  68 100 134 177 221 273 331 401
#     4   9  19  39  65  96 131 173 221 270 327 399
#     4  10  20  39  71 105 129 169 232 284 324 385
#     4  11  23  41  67 100 136 175 219 281 339 390
#     4   8  15  31  61  93 125 163 214 267 317 382
#     4  10  24  46  65  91 139 185 216 263 341 413
#
# _framework density 29.997308
#
# number of rings (size 3 to 8) (size 9 to 14) (size 15 to 20)
#    0.000    2.500    0.000    2.625    0.000    9.000 
#    0.000   24.375    0.000   13.500    0.000   14.875 
#    0.000    0.000    0.000    0.000    0.000    0.000 
#
# Total GULP energy -89425.484323 kJ/mol
# GULP energy per Si atom -5589.092770 kJ/mol
# Density = 2.992903 g / cm^3
# Si number density = 29.997308 Si / 1000 Ang^3
#
#
#
# Elastic Constant Matrix: (Units=GPa)
#
#
# Indices 1 2 3 4 5 6 
#
# 1 170.3276 69.8180 67.6381 8.8790 11.1900 50.2447
# 2 69.8180 223.6392 44.9796 12.1777 -7.9730 32.0241
# 3 67.6381 44.9796 165.3833 10.3356 -18.9220 20.8107
# 4 8.8790 12.1777 10.3356 45.5583 4.3441 -3.0745
# 5 11.1900 -7.9730 -18.9220 4.3441 60.9162 0.0253
# 6 50.2447 32.0241 20.8107 -3.0745 0.0253 52.2492
#
#
#
# Elastic Compliance Matrix: (Units=1/GPa)
#
#
# Indices 1 2 3 4 5 6 
#
# 1 0.010260 -0.001514 -0.003072 -0.001142 -0.002952 -0.007781
# 2 -0.001514 0.005384 -0.000440 -0.001251 0.000936 -0.001742
# 3 -0.003072 -0.000440 0.007854 -0.001354 0.003043 0.000015
# 4 -0.001142 -0.001251 -0.001354 0.023263 -0.002035 0.003774
# 5 -0.002952 0.000936 0.003043 -0.002035 0.018171 0.000925
# 6 -0.007781 -0.001742 0.000015 0.003774 0.000925 0.027905
#
#
# Mechanical properties :
#
#
# Convention : Reuss Voigt Hill
#
# Bulk Modulus (GPa) = 74.37901 102.69126 88.53513
# Shear Modulus (GPa) = 46.56768 56.87237 51.72003
#
# Velocity S-wave (km/s) = 3.94432 4.35894 4.15680
# Velocity P-wave (km/s) = 6.75223 7.72280 7.25376
#
# Compressibility (1/GPa) = 0.01344465
#
# Stress axis : x y z
#
# Youngs Moduli (GPa) = 97.46306 185.74337 127.33079
#
# Poissons Ratio (x) = 0.28127 0.39113
# Poissons Ratio (y) = 0.14759 0.05608
# Poissons Ratio (z) = 0.29938 0.08181
#
# Static dielectric constant tensor:
#      x y z
#    x 2.468120 0.006770 0.169010 
#    y 0.006770 2.440180 -0.017280 
#    z 0.169010 -0.017280 2.517980 
# 
# From -- ./inp_files/620721.got.cif
#   From: 2010.05.17/outbox.cif.g08.bks.cpg/sg2_311_cif.got.tgz:620721.got - 2010.06.03 11:33:40.
