data_PCOD9106654
_publ_section_title
;
Structure prediction by ZEFSAII (Michael W. Deem and Ramdas Pophale) SiO2 
 PCOD9106654
Probable space group: P -1
;
_chemical_formula_sum "Si O2"
_cell_formula_units_Z 16
_cell_length_a 9.918740
_cell_length_b 11.513437
_cell_length_c 11.582612
_cell_angle_alpha 73.498118
_cell_angle_beta 54.423753
_cell_angle_gamma 107.977523
_cell_volume 819.202912
_symmetry_space_group_name_H-M "P -1"
_symmetry_group_IT_number 2
_symmetry_cell_setting 'triclinic'
loop_
_space_group_symop_operation_xyz
x,y,z
-x,-y,-z
loop_
_atom_site_type_symbol
_atom_site_label
_atom_site_fract_x
_atom_site_fract_y
_atom_site_fract_z
Si Si1 0.451356 0.715388 0.967681
Si Si2 0.517448 0.313395 0.496702
Si Si3 0.760423 0.929399 0.122083
Si Si4 0.223538 0.538351 0.897978
Si Si5 0.379325 0.348595 0.898537
Si Si6 0.738274 0.574203 0.487268
Si Si7 0.853360 0.326779 0.667090
Si Si8 0.522235 0.010808 0.847903
O O1 0.594368 0.681222 0.973552
O O2 0.287208 0.682267 0.157993
O O3 0.328202 0.613103 0.947713
O O4 0.564729 0.891471 0.826135
O O5 0.378313 0.149881 0.671321
O O6 0.627851 0.345169 0.310817
O O7 0.690543 0.440102 0.464468
O O8 0.354370 0.350928 0.550880
O O9 0.680021 0.796353 0.104674
O O10 0.693237 0.031981 0.082976
O O11 0.000000 0.000000 0.000000
O O12 0.225208 0.391766 0.935175
O O13 0.000000 0.500000 0.000000
O O14 0.599952 0.491661 0.694353
O O15 0.979232 0.693445 0.361191
O O16 0.705848 0.191335 0.687867
O O17 0.000000 0.500000 0.500000
O O18 0.500000 0.000000 0.000000
#
# Coordination Sequence:
#
# PCOD9106654 Si02
#       8
#     2   2   2   2   2   2   2   2
#     4  11  22  38  60  87 129 161 193 254 307 365
#     4   9  20  36  54  88 123 148 205 249 299 358
#     4  11  22  37  66  89 120 159 201 258 317 356
#     4  11  24  39  62  86 123 170 207 244 302 376
#     4  10  20  40  59  93 118 155 211 255 303 359
#     4   9  17  32  59  88 116 146 194 269 299 343
#     4  11  18  33  63  91 119 150 204 256 310 349
#     4  10  22  37  57  95 124 151 197 255 309 366
#
# _framework density 19.531182000000001
#
# number of rings (size 3 to 8) (size 9 to 14) (size 15 to 20)
#    0.000    1.750    3.750    2.625    5.250    0.000 
#    0.000    0.625    2.750    3.750    0.000    0.000 
#    0.000    0.000    0.000    0.000    0.000    0.000 
#
# Total GULP energy -89190.495184 kJ/mol
# GULP energy per Si atom -5574.405949 kJ/mol
# Density = 1.948673 g / cm^3
# Si number density = 19.531182 Si / 1000 Ang^3
#
#
#
# Elastic Constant Matrix: (Units=GPa)
#
#
# Indices 1 2 3 4 5 6 
#
# 1 133.7100 7.2789 29.6277 0.2254 -0.4363 -5.1008
# 2 7.2789 35.7735 7.4858 -0.5218 9.6955 -1.2340
# 3 29.6277 7.4858 64.7971 -2.1823 6.4327 -0.3981
# 4 0.2254 -0.5218 -2.1823 21.4773 -0.6290 1.8956
# 5 -0.4363 9.6955 6.4327 -0.6290 35.3525 -2.4662
# 6 -5.1008 -1.2340 -0.3981 1.8956 -2.4662 28.1323
#
#
#
# Elastic Compliance Matrix: (Units=1/GPa)
#
#
# Indices 1 2 3 4 5 6 
#
# 1 0.008466 -0.001204 -0.003866 -0.000614 0.001237 0.001577
# 2 -0.001204 0.030857 -0.002204 0.000269 -0.008045 0.000381
# 3 -0.003866 -0.002204 0.017779 0.001794 -0.002709 -0.000904
# 4 -0.000614 0.000269 0.001794 0.047047 0.000204 -0.003226
# 5 0.001237 -0.008045 -0.002709 0.000204 0.031183 0.002553
# 6 0.001577 0.000381 -0.000904 -0.003226 0.002553 0.036277
#
#
# Mechanical properties :
#
#
# Convention : Reuss Voigt Hill
#
# Bulk Modulus (GPa) = 23.49916 35.89615 29.69765
# Shear Modulus (GPa) = 24.95733 29.65165 27.30449
#
# Velocity S-wave (km/s) = 3.57854 3.90060 3.74303
# Velocity P-wave (km/s) = 5.39744 6.22133 5.82397
#
# Compressibility (1/GPa) = 0.04255472
#
# Stress axis : x y z
#
# Youngs Moduli (GPa) = 118.11636 32.40731 56.24647
#
# Poissons Ratio (x) = 0.03900 0.21744
# Poissons Ratio (y) = 0.14215 0.12399
# Poissons Ratio (z) = 0.45662 0.07144
#
# Static dielectric constant tensor:
#      x y z
#    x 1.781020 -0.022970 0.023390 
#    y -0.022970 1.711350 -0.040650 
#    z 0.023390 -0.040650 1.702600 
# 
# From -- ./inp_files/389729.got.cif
#   From: 2010.05.17/outbox.cif.g08.bks.cpg/sg2_195_cif.got.tgz:389729.got - 2010.06.03 11:33:40.
