data_PCOD9106078
_publ_section_title
;
Structure prediction by ZEFSAII (Michael W. Deem and Ramdas Pophale) SiO2 
 PCOD9106078
Probable space group: P -1
;
_chemical_formula_sum "Si O2"
_cell_formula_units_Z 16
_cell_length_a 15.995664
_cell_length_b 19.377092
_cell_length_c 11.810412
_cell_angle_alpha 31.321596
_cell_angle_beta 154.003537
_cell_angle_gamma 159.232210
_cell_volume 566.668880
_symmetry_space_group_name_H-M "P -1"
_symmetry_group_IT_number 2
_symmetry_cell_setting 'triclinic'
loop_
_space_group_symop_operation_xyz
x,y,z
-x,-y,-z
loop_
_atom_site_type_symbol
_atom_site_label
_atom_site_fract_x
_atom_site_fract_y
_atom_site_fract_z
Si Si1 0.306572 0.265938 0.819909
Si Si2 0.412201 0.360508 0.485060
Si Si3 0.730111 0.254848 0.089727
Si Si4 0.846372 0.430137 0.528720
Si Si5 0.763527 0.306226 0.826466
Si Si6 0.716283 0.730092 0.960370
Si Si7 0.862880 0.898191 0.670158
Si Si8 0.647646 0.167241 0.352729
O O1 0.454599 0.481272 0.676170
O O2 0.169783 0.200504 0.870447
O O3 0.521714 0.252196 0.093435
O O4 0.086064 0.125709 0.648172
O O5 0.500000 0.500000 0.500000
O O6 0.536966 0.284006 0.787363
O O7 0.122387 0.172524 0.331446
O O8 0.764288 0.208631 0.071500
O O9 0.614095 0.116412 0.249893
O O10 0.024191 0.469827 0.185341
O O11 0.879983 0.338863 0.797246
O O12 0.517904 0.272026 0.325854
O O13 0.000000 0.500000 0.500000
O O14 0.017655 0.647223 0.479088
O O15 0.451911 0.203434 0.573383
O O16 0.894774 0.831274 0.920429
O O17 0.500000 0.500000 0.000000
O O18 0.500000 0.000000 0.500000
#
# Coordination Sequence:
#
# PCOD9106078 Si02
#       8
#     2   2   2   2   2   2   2   2
#     4  12  24  42  67 103 138 178 232 285 349 414
#     4  11  22  41  69  96 135 182 222 281 346 405
#     4   9  18  41  67  92 128 180 229 273 341 411
#     4  10  20  39  67  92 129 178 232 277 338 411
#     4   8  18  38  66  89 125 176 225 276 332 404
#     4  11  22  41  68  96 134 188 227 282 350 410
#     4  10  23  41  64  99 139 175 227 286 341 413
#     4  11  24  40  65  99 136 179 228 291 342 407
#
# _framework density 28.235185000000001
#
# number of rings (size 3 to 8) (size 9 to 14) (size 15 to 20)
#    0.000    1.750    3.750    0.375    1.750    0.500 
#    0.000    0.625    0.000    0.000    0.000    0.000 
#    0.000    0.000    0.000    0.000    0.000    0.000 
#
# Total GULP energy -89334.303532 kJ/mol
# GULP energy per Si atom -5583.393971 kJ/mol
# Density = 2.817092 g / cm^3
# Si number density = 28.235185 Si / 1000 Ang^3
#
#
#
# Elastic Constant Matrix: (Units=GPa)
#
#
# Indices 1 2 3 4 5 6 
#
# 1 153.9648 18.1917 62.3951 1.3954 -67.2710 -15.2745
# 2 18.1917 145.6895 44.9199 9.2491 -14.4794 -19.5946
# 3 62.3951 44.9199 138.9561 -5.5348 -25.4489 1.9423
# 4 1.3954 9.2491 -5.5348 51.2061 6.0481 -17.1100
# 5 -67.2710 -14.4794 -25.4489 6.0481 72.6332 4.0713
# 6 -15.2745 -19.5946 1.9423 -17.1100 4.0713 45.1121
#
#
#
# Elastic Compliance Matrix: (Units=1/GPa)
#
#
# Indices 1 2 3 4 5 6 
#
# 1 0.013338 0.001419 -0.004548 -0.001087 0.010913 0.003931
# 2 0.001419 0.008382 -0.003112 -0.000832 0.001752 0.003781
# 3 -0.004548 -0.003112 0.010100 0.000969 -0.001214 -0.002849
# 4 -0.001087 -0.000832 0.000969 0.022938 -0.003204 0.008218
# 5 0.010913 0.001752 -0.001214 -0.003204 0.024003 0.001127
# 6 0.003931 0.003781 -0.002849 0.008218 0.001127 0.028278
#
#
# Mechanical properties :
#
#
# Convention : Reuss Voigt Hill
#
# Bulk Modulus (GPa) = 51.70657 76.62486 64.16571
# Shear Modulus (GPa) = 39.69290 54.66385 47.17838
#
# Velocity S-wave (km/s) = 3.75346 4.40480 4.09211
# Velocity P-wave (km/s) = 6.09403 7.28468 6.71580
#
# Compressibility (1/GPa) = 0.01933990
#
# Stress axis : x y z
#
# Youngs Moduli (GPa) = 74.97123 119.30714 99.00508
#
# Poissons Ratio (x) = -0.16929 0.45023
# Poissons Ratio (y) = -0.10638 0.30808
# Poissons Ratio (z) = 0.34094 0.37126
#
# Static dielectric constant tensor:
#      x y z
#    x 2.510560 -0.013180 0.025940 
#    y -0.013180 2.189750 0.028970 
#    z 0.025940 0.028970 2.281480 
# 
# From -- ./inp_files/467068.got.cif
#   From: 2010.05.17/outbox.cif.g08.bks.cpg/sg2_234_cif.got.tgz:467068.got - 2010.06.03 11:33:40.
