data_PCOD9106908
_publ_section_title
;
Structure prediction by ZEFSAII (Michael W. Deem and Ramdas Pophale) SiO2 
 PCOD9106908
Probable space group: P -1
;
_chemical_formula_sum "Si O2"
_cell_formula_units_Z 16
_cell_length_a 9.191266
_cell_length_b 17.648269
_cell_length_c 8.301166
_cell_angle_alpha 135.588130
_cell_angle_beta 47.152521
_cell_angle_gamma 116.935037
_cell_volume 689.463136
_symmetry_space_group_name_H-M "P -1"
_symmetry_group_IT_number 2
_symmetry_cell_setting 'triclinic'
loop_
_space_group_symop_operation_xyz
x,y,z
-x,-y,-z
loop_
_atom_site_type_symbol
_atom_site_label
_atom_site_fract_x
_atom_site_fract_y
_atom_site_fract_z
Si Si1 0.132908 0.130938 0.585789
Si Si2 0.155402 0.364862 0.774169
Si Si3 0.183455 0.766865 0.782991
Si Si4 0.850454 0.459517 0.414326
Si Si5 0.533988 0.044534 0.221125
Si Si6 0.546502 0.464518 0.096449
Si Si7 0.913622 0.294676 0.567261
Si Si8 0.083278 0.068550 0.186216
O O1 0.207438 0.241901 0.613326
O O2 0.308468 0.080801 0.493025
O O3 0.082230 0.051949 0.356042
O O4 0.942133 0.173252 0.892363
O O5 0.334106 0.441822 0.769235
O O6 0.064258 0.360257 0.657907
O O7 0.985090 0.418842 0.102189
O O8 0.254881 0.649409 0.616904
O O9 0.340605 0.847733 0.719456
O O10 0.039516 0.734048 0.696297
O O11 0.664012 0.546147 0.674813
O O12 0.000000 0.500000 0.500000
O O13 0.500000 0.000000 0.000000
O O14 0.676898 0.950940 0.055257
O O15 0.500000 0.500000 0.000000
O O16 0.698056 0.357997 0.825811
O O17 0.944028 0.178433 0.449902
O O18 0.000000 0.000000 0.000000
#
# Coordination Sequence:
#
# PCOD9106908 Si02
#       8
#     2   2   2   2   2   2   2   2
#     4   9  22  38  67  93 117 166 210 249 308 380
#     4  10  22  41  61  95 134 157 205 261 315 371
#     4  11  21  39  66  91 126 162 211 254 310 370
#     4  11  22  39  64  98 125 163 212 256 305 384
#     4  10  21  39  65  89 120 164 216 255 307 368
#     4  12  22  38  68  92 124 169 209 254 313 379
#     4  11  23  39  62  91 129 167 201 263 321 365
#     4  10  20  40  62  86 127 160 197 266 316 355
#
# _framework density 23.206461999999998
#
# number of rings (size 3 to 8) (size 9 to 14) (size 15 to 20)
#    0.000    1.500    3.750    1.125    0.000    2.500 
#    0.000    1.875    5.500    0.000    0.000    0.000 
#    0.000    0.000    0.000    0.000    0.000    0.000 
#
# Total GULP energy -89200.854665 kJ/mol
# GULP energy per Si atom -5575.053417 kJ/mol
# Density = 2.315364 g / cm^3
# Si number density = 23.206462 Si / 1000 Ang^3
#
#
#
# Elastic Constant Matrix: (Units=GPa)
#
#
# Indices 1 2 3 4 5 6 
#
# 1 158.5600 16.9980 64.2310 10.4501 -5.4231 11.8869
# 2 16.9980 63.4381 24.5279 19.9311 -7.8416 12.3226
# 3 64.2310 24.5279 114.3455 14.3418 -0.3657 12.4173
# 4 10.4501 19.9311 14.3418 36.2678 -4.2560 -2.4154
# 5 -5.4231 -7.8416 -0.3657 -4.2560 64.3496 12.6042
# 6 11.8869 12.3226 12.4173 -2.4154 12.6042 30.1421
#
#
#
# Elastic Compliance Matrix: (Units=1/GPa)
#
#
# Indices 1 2 3 4 5 6 
#
# 1 0.008302 0.000265 -0.004388 -0.000817 0.001061 -0.002084
# 2 0.000265 0.023136 -0.002346 -0.012120 0.004249 -0.011344
# 3 -0.004388 -0.002346 0.012294 -0.002504 -0.000269 -0.002463
# 4 -0.000817 -0.012120 -0.002504 0.035975 -0.001068 0.009638
# 5 0.001061 0.004249 -0.000269 -0.001068 0.017964 -0.009642
# 6 -0.002084 -0.011344 -0.002463 0.009638 -0.009642 0.044455
#
#
# Mechanical properties :
#
#
# Convention : Reuss Voigt Hill
#
# Bulk Modulus (GPa) = 32.47414 60.87304 46.67359
# Shear Modulus (GPa) = 30.24254 41.52435 35.88345
#
# Velocity S-wave (km/s) = 3.61390 4.23465 3.93653
# Velocity P-wave (km/s) = 5.60692 7.08504 6.38887
#
# Compressibility (1/GPa) = 0.03079373
#
# Stress axis : x y z
#
# Youngs Moduli (GPa) = 120.44724 43.22238 81.33813
#
# Poissons Ratio (x) = -0.01144 0.35694
# Poissons Ratio (y) = -0.03187 0.19080
# Poissons Ratio (z) = 0.52857 0.10139
#
# Static dielectric constant tensor:
#      x y z
#    x 1.913570 -0.063790 -0.028070 
#    y -0.063790 1.999560 0.032520 
#    z -0.028070 0.032520 1.891350 
# 
# From -- ./inp_files/224191.got.cif
#   From: 2010.05.17/outbox.cif.g08.bks.cpg/sg2_113_cif.got.tgz:224191.got - 2010.06.03 11:33:40.
