data_PCOD9106574
_publ_section_title
;
Structure prediction by ZEFSAII (Michael W. Deem and Ramdas Pophale) SiO2 
 PCOD9106574
Probable space group: P -1
;
_chemical_formula_sum "Si O2"
_cell_formula_units_Z 15
_cell_length_a 21.918348
_cell_length_b 16.342586
_cell_length_c 5.614632
_cell_angle_alpha 46.347099
_cell_angle_beta 133.161563
_cell_angle_gamma 154.037833
_cell_volume 624.129879
_symmetry_space_group_name_H-M "P -1"
_symmetry_group_IT_number 2
_symmetry_cell_setting 'triclinic'
loop_
_space_group_symop_operation_xyz
x,y,z
-x,-y,-z
loop_
_atom_site_type_symbol
_atom_site_label
_atom_site_fract_x
_atom_site_fract_y
_atom_site_fract_z
Si Si1 0.831533 0.395280 0.718689
Si Si2 0.196856 0.915323 0.192311
Si Si3 0.798874 0.770943 0.673623
Si Si4 0.868827 0.875558 0.140533
Si Si5 0.319878 0.011686 0.824054
Si Si6 0.895463 0.642302 0.765396
Si Si7 0.000000 0.500000 0.500000
Si Si8 0.651799 0.379272 0.020875
O O1 0.911689 0.542158 0.862737
O O2 0.711027 0.356870 0.418221
O O3 0.943539 0.509164 0.574433
O O4 0.756721 0.194608 0.965062
O O5 0.268234 0.015728 0.435191
O O6 0.151672 0.734107 0.437255
O O7 0.283602 0.026646 0.955083
O O8 0.045554 0.811051 0.960976
O O9 0.784161 0.805306 0.299866
O O10 0.800227 0.841842 0.779221
O O11 0.688194 0.547883 0.849210
O O12 0.964710 0.909803 0.827777
O O13 0.875229 0.744015 0.394497
O O14 0.489084 0.183597 0.921402
O O15 0.755968 0.472642 0.889135
#
# Coordination Sequence:
#
# PCOD9106574 Si02
#       8
#     2   2   2   2   2   2   1   2
#     4  11  22  39  60  88 118 161 201 252 286 354
#     4  11  23  41  56  84 114 167 194 249 286 356
#     4   9  18  34  57  85 124 142 189 239 318 333
#     4   9  18  33  57  92 113 147 183 260 290 351
#     4  11  27  38  58  81 131 159 198 234 307 343
#     4  11  22  37  67  86 119 147 218 240 298 342
#     4  10  20  40  56  82 114 154 204 242 292 326
#     4  11  23  40  59  91 117 160 198 249 289 366
#
# _framework density 24.033462
#
# number of rings (size 3 to 8) (size 9 to 14) (size 15 to 20)
#    0.000    1.600    2.667    2.000    3.733    2.667 
#    0.000    0.000    0.000    1.600    0.000    0.000 
#    0.000    3.200    0.000    0.000    0.000    0.000 
#
# Total GULP energy -83607.292949 kJ/mol
# GULP energy per Si atom -5573.819530 kJ/mol
# Density = 2.397876 g / cm^3
# Si number density = 24.033462 Si / 1000 Ang^3
#
#
#
# Elastic Constant Matrix: (Units=GPa)
#
#
# Indices 1 2 3 4 5 6 
#
# 1 89.0560 33.5685 29.6563 11.2479 -13.9393 7.4339
# 2 33.5685 110.3144 44.4773 17.0158 1.8400 20.2488
# 3 29.6563 44.4773 122.1669 7.5633 -18.8915 16.3027
# 4 11.2479 17.0158 7.5633 29.5350 -14.1718 1.4716
# 5 -13.9393 1.8400 -18.8915 -14.1718 36.9523 -9.2908
# 6 7.4339 20.2488 16.3027 1.4716 -9.2908 36.4636
#
#
#
# Elastic Compliance Matrix: (Units=1/GPa)
#
#
# Indices 1 2 3 4 5 6 
#
# 1 0.013865 -0.003937 -0.001311 -0.000378 0.004917 0.001214
# 2 -0.003937 0.015488 -0.004604 -0.011064 -0.010881 -0.008066
# 3 -0.001311 -0.004604 0.011059 0.003510 0.006588 -0.000583
# 4 -0.000378 -0.011064 0.003510 0.050427 0.023720 0.008660
# 5 0.004917 -0.010881 0.006588 0.023720 0.045099 0.012628
# 6 0.001214 -0.008066 -0.000583 0.008660 0.012628 0.034785
#
#
# Mechanical properties :
#
#
# Convention : Reuss Voigt Hill
#
# Bulk Modulus (GPa) = 48.29010 59.66015 53.97513
# Shear Modulus (GPa) = 25.33806 34.84584 30.09195
#
# Velocity S-wave (km/s) = 3.25049 3.81187 3.54232
# Velocity P-wave (km/s) = 5.85014 6.65218 6.26401
#
# Compressibility (1/GPa) = 0.02070818
#
# Stress axis : x y z
#
# Youngs Moduli (GPa) = 72.12180 64.56581 90.42109
#
# Poissons Ratio (x) = 0.25421 0.11852
# Poissons Ratio (y) = 0.28396 0.41633
# Poissons Ratio (z) = 0.09453 0.29728
#
# Static dielectric constant tensor:
#      x y z
#    x 1.948090 -0.074540 -0.100850 
#    y -0.074540 1.799210 0.071670 
#    z -0.100850 0.071670 0.790920 
# 
# From -- ./inp_files/105064.got.cif
#   From: 2010.05.17/outbox.cif.g08.bks.cpg/sg2_53_cif.got.tgz:105064.got - 2010.06.03 11:33:40.
