data_PCOD9106844
_publ_section_title
;
Structure prediction by ZEFSAII (Michael W. Deem and Ramdas Pophale) SiO2 
 PCOD9106844
Probable space group: P -1
;
_chemical_formula_sum "Si O2"
_cell_formula_units_Z 14
_cell_length_a 8.546557
_cell_length_b 8.009213
_cell_length_c 12.659985
_cell_angle_alpha 59.156288
_cell_angle_beta 66.036691
_cell_angle_gamma 52.872977
_cell_volume 587.265120
_symmetry_space_group_name_H-M "P -1"
_symmetry_group_IT_number 2
_symmetry_cell_setting 'triclinic'
loop_
_space_group_symop_operation_xyz
x,y,z
-x,-y,-z
loop_
_atom_site_type_symbol
_atom_site_label
_atom_site_fract_x
_atom_site_fract_y
_atom_site_fract_z
Si Si1 0.658190 0.788342 0.592786
Si Si2 0.188883 0.783788 0.967166
Si Si3 0.612676 0.742587 0.858118
Si Si4 0.079296 0.035261 0.577834
Si Si5 0.974732 0.698492 0.867779
Si Si6 0.308163 0.643137 0.367552
Si Si7 0.274796 0.560926 0.650277
O O1 0.621482 0.835042 0.710820
O O2 0.860575 0.778156 0.506623
O O3 0.677980 0.549339 0.647525
O O4 0.500000 0.000000 0.500000
O O5 0.265660 0.534045 0.077504
O O6 0.382581 0.812809 0.913937
O O7 0.108174 0.776396 0.873668
O O8 0.000000 0.000000 0.000000
O O9 0.737311 0.820356 0.872409
O O10 0.889583 0.122141 0.675679
O O11 0.268184 0.790138 0.617312
O O12 0.000000 0.000000 0.500000
O O13 0.086470 0.595276 0.757141
O O14 0.000000 0.500000 0.000000
O O15 0.283109 0.567131 0.518662
O O16 0.513085 0.642149 0.308329
#
# Coordination Sequence:
#
# PCOD9106844 Si02
#       7
#     2   2   2   2   2   2   2
#     4  12  23  41  63  98 139 176 217 270 336 398
#     4  10  23  45  73 100 125 174 232 275 339 395
#     4  10  23  45  67  95 141 173 215 286 332 391
#     4  10  21  37  57  86 124 165 212 256 320 389
#     4  10  22  44  69  94 131 174 219 282 336 386
#     4  10  21  37  62  91 126 172 211 262 326 391
#     4  10  20  40  61  91 130 165 212 266 328 396
#
# _framework density 23.839317000000001
#
# number of rings (size 3 to 8) (size 9 to 14) (size 15 to 20)
#    0.000    1.714    1.429    3.000    0.000    1.714 
#    7.714    0.000    0.000    0.000    0.000    0.000 
#    0.000    0.000    0.000    0.000    0.000    0.000 
#
# Total GULP energy -77939.018063 kJ/mol
# GULP energy per Si atom -5567.072719 kJ/mol
# Density = 2.378506 g / cm^3
# Si number density = 23.839317 Si / 1000 Ang^3
#
#
#
# Elastic Constant Matrix: (Units=GPa)
#
#
# Indices 1 2 3 4 5 6 
#
# 1 160.9064 28.0091 28.2546 6.8619 -6.4379 -32.4982
# 2 28.0091 74.9025 -4.0280 4.6958 13.8388 -36.0419
# 3 28.2546 -4.0280 76.7671 -5.6927 14.2779 -13.1586
# 4 6.8619 4.6958 -5.6927 26.4501 -5.5183 -0.2906
# 5 -6.4379 13.8388 14.2779 -5.5183 40.0234 2.6118
# 6 -32.4982 -36.0419 -13.1586 -0.2906 2.6118 41.6777
#
#
#
# Elastic Compliance Matrix: (Units=1/GPa)
#
#
# Indices 1 2 3 4 5 6 
#
# 1 0.007944 -0.001765 -0.003005 -0.001839 0.002475 0.003552
# 2 -0.001765 0.034707 0.011293 -0.006965 -0.019451 0.033373
# 3 -0.003005 0.011293 0.019496 0.000583 -0.012199 0.014347
# 4 -0.001839 -0.006965 0.000583 0.041250 0.008080 -0.007491
# 5 0.002475 -0.019451 -0.012199 0.008080 0.038954 -0.021127
# 6 0.003552 0.033373 0.014347 -0.007491 -0.021127 0.061425
#
#
# Mechanical properties :
#
#
# Convention : Reuss Voigt Hill
#
# Bulk Modulus (GPa) = 13.29910 46.33860 29.81885
# Shear Modulus (GPa) = 23.17022 38.98626 31.07824
#
# Velocity S-wave (km/s) = 3.12097 4.04837 3.61453
# Velocity P-wave (km/s) = 4.31022 6.42903 5.47314
#
# Compressibility (1/GPa) = 0.07519306
#
# Stress axis : x y z
#
# Youngs Moduli (GPa) = 125.87474 28.81252 51.29252
#
# Poissons Ratio (x) = 0.05086 0.15411
# Poissons Ratio (y) = 0.22221 -0.57922
# Poissons Ratio (z) = 0.37819 -0.32537
#
# Static dielectric constant tensor:
#      x y z
#    x 2.013550 -0.048330 -0.009240 
#    y -0.048330 1.928400 -0.024790 
#    z -0.009240 -0.024790 1.924450 
# 
# From -- ./inp_files/186220.got.cif
#   From: 2010.05.17/outbox.cif.g08.bks.cpg/sg2_94_cif.got.tgz:186220.got - 2010.06.03 11:33:40.
