data_PCOD9106850
_publ_section_title
;
Structure prediction by ZEFSAII (Michael W. Deem and Ramdas Pophale) SiO2 
 PCOD9106850
Probable space group: P -1
;
_chemical_formula_sum "Si O2"
_cell_formula_units_Z 16
_cell_length_a 19.642596
_cell_length_b 8.004612
_cell_length_c 13.630132
_cell_angle_alpha 139.342640
_cell_angle_beta 33.793097
_cell_angle_gamma 137.007698
_cell_volume 745.841875
_symmetry_space_group_name_H-M "P -1"
_symmetry_group_IT_number 2
_symmetry_cell_setting 'triclinic'
loop_
_space_group_symop_operation_xyz
x,y,z
-x,-y,-z
loop_
_atom_site_type_symbol
_atom_site_label
_atom_site_fract_x
_atom_site_fract_y
_atom_site_fract_z
Si Si1 0.163210 0.053636 0.631914
Si Si2 0.281702 0.923092 0.244338
Si Si3 0.374931 0.598847 0.673392
Si Si4 0.786294 0.531569 0.018772
Si Si5 0.984951 0.330600 0.041304
Si Si6 0.516640 0.824311 0.248368
Si Si7 0.506768 0.753047 0.993228
Si Si8 0.250179 0.888440 0.651389
O O1 0.264462 0.348283 0.654312
O O2 0.024447 0.069753 0.839577
O O3 0.182872 0.985460 0.466754
O O4 0.204171 0.874008 0.586091
O O5 0.350358 0.135724 0.173210
O O6 0.214528 0.635293 0.151012
O O7 0.406811 0.908441 0.147859
O O8 0.500000 0.500000 0.500000
O O9 0.327082 0.651672 0.861364
O O10 0.395951 0.871880 0.709718
O O11 0.913124 0.567449 0.947895
O O12 0.753283 0.813600 0.179048
O O13 0.000000 0.500000 0.000000
O O14 0.849997 0.294427 0.236820
O O15 0.546628 0.550667 0.120108
O O16 0.386087 0.835972 0.460934
O O17 0.503825 0.777760 0.125230
#
# Coordination Sequence:
#
# PCOD9106850 Si02
#       8
#     2   2   2   2   2   2   2   2
#     4  10  21  37  66  86 121 169 197 247 301 370
#     4  11  21  40  57  94 125 169 202 230 317 370
#     4  10  16  34  60  88 119 162 202 239 298 360
#     4  10  21  38  65  86 122 164 199 253 294 370
#     4  10  23  44  64  87 115 150 216 268 306 343
#     4  11  19  37  59  94 126 167 199 248 301 358
#     4  10  23  33  58  90 140 162 193 247 298 373
#     4  10  20  40  65  87 116 161 208 249 302 355
#
# _framework density 21.452268
#
# number of rings (size 3 to 8) (size 9 to 14) (size 15 to 20)
#    0.000    2.000    5.000    1.500    3.500    0.000 
#    4.500    4.375    0.000    0.000    0.000    0.000 
#    0.000    0.000    0.000    0.000    0.000    0.000 
#
# Total GULP energy -89179.052319 kJ/mol
# GULP energy per Si atom -5573.690770 kJ/mol
# Density = 2.140344 g / cm^3
# Si number density = 21.452268 Si / 1000 Ang^3
#
#
#
# Elastic Constant Matrix: (Units=GPa)
#
#
# Indices 1 2 3 4 5 6 
#
# 1 36.3674 5.1347 24.6710 1.4926 20.5956 8.1402
# 2 5.1347 62.3477 23.4572 -6.7915 11.5399 -10.7174
# 3 24.6710 23.4572 92.1445 -19.6385 28.6320 2.4473
# 4 1.4926 -6.7915 -19.6385 35.6109 -1.5056 8.5934
# 5 20.5956 11.5399 28.6320 -1.5056 34.1951 5.6396
# 6 8.1402 -10.7174 2.4473 8.5934 5.6396 17.2387
#
#
#
# Elastic Compliance Matrix: (Units=1/GPa)
#
#
# Indices 1 2 3 4 5 6 
#
# 1 0.046542 -0.000167 -0.006345 -0.003274 -0.020700 -0.012777
# 2 -0.000167 0.021710 -0.004575 -0.002946 -0.006462 0.017809
# 3 -0.006345 -0.004575 0.018993 0.010637 -0.009276 -0.004812
# 4 -0.003274 -0.002946 0.010637 0.038485 -0.000830 -0.020709
# 5 -0.020700 -0.006462 -0.009276 -0.000830 0.053261 -0.009936
# 6 -0.012777 0.017809 -0.004812 -0.020709 -0.009936 0.089371
#
#
# Mechanical properties :
#
#
# Convention : Reuss Voigt Hill
#
# Bulk Modulus (GPa) = 15.36790 33.04285 24.20537
# Shear Modulus (GPa) = 16.01395 26.58204 21.29800
#
# Velocity S-wave (km/s) = 2.73517 3.52394 3.15430
# Velocity P-wave (km/s) = 4.14176 5.65632 4.95722
#
# Compressibility (1/GPa) = 0.06507071
#
# Stress axis : x y z
#
# Youngs Moduli (GPa) = 21.48587 46.06067 52.65106
#
# Poissons Ratio (x) = 0.00771 0.33407
# Poissons Ratio (y) = 0.00360 0.24088
# Poissons Ratio (z) = 0.13633 0.21073
#
# Static dielectric constant tensor:
#      x y z
#    x 1.820170 -0.020130 0.000270 
#    y -0.020130 1.870070 0.004690 
#    z 0.000270 0.004690 1.779850 
# 
# From -- ./inp_files/519817.got.cif
#   From: 2010.05.17/outbox.cif.g08.bks.cpg/sg2_260_cif.got.tgz:519817.got - 2010.06.03 11:33:40.
