data_PCOD9106248
_publ_section_title
;
Structure prediction by ZEFSAII (Michael W. Deem and Ramdas Pophale) SiO2 
 PCOD9106248
Probable space group: P -1
;
_chemical_formula_sum "Si O2"
_cell_formula_units_Z 14
_cell_length_a 8.254852
_cell_length_b 11.088116
_cell_length_c 9.688798
_cell_angle_alpha 66.928806
_cell_angle_beta 107.243892
_cell_angle_gamma 133.301487
_cell_volume 593.263146
_symmetry_space_group_name_H-M "P -1"
_symmetry_group_IT_number 2
_symmetry_cell_setting 'triclinic'
loop_
_space_group_symop_operation_xyz
x,y,z
-x,-y,-z
loop_
_atom_site_type_symbol
_atom_site_label
_atom_site_fract_x
_atom_site_fract_y
_atom_site_fract_z
Si Si1 0.473488 0.522644 0.145848
Si Si2 0.885382 0.358204 0.691531
Si Si3 0.969360 0.846859 0.481984
Si Si4 0.017889 0.651418 0.787547
Si Si5 0.301337 0.504337 0.549006
Si Si6 0.757942 0.138937 0.009716
Si Si7 0.118612 0.083820 0.848912
O O1 0.224255 0.436391 0.167255
O O2 0.547601 0.441562 0.303417
O O3 0.652556 0.724532 0.143757
O O4 0.500000 0.500000 0.000000
O O5 0.012118 0.519855 0.753787
O O6 0.679027 0.347437 0.593622
O O7 0.835418 0.211666 0.843156
O O8 0.049396 0.396749 0.594948
O O9 0.088614 0.800838 0.630477
O O10 0.732844 0.645324 0.485984
O O11 0.018176 0.911592 0.307202
O O12 0.000000 0.000000 0.500000
O O13 0.176745 0.719053 0.927434
O O14 0.500000 0.000000 0.000000
O O15 0.844041 0.045601 0.133325
O O16 0.000000 0.000000 0.000000
#
# Coordination Sequence:
#
# PCOD9106248 Si02
#       7
#     2   2   2   2   2   2   2
#     4  11  23  40  66  97 127 169 223 268 318 377
#     4  10  21  41  63  88 132 167 212 255 321 391
#     4  10  20  39  68  93 126 165 214 270 319 370
#     4  11  23  41  65  91 124 174 219 265 316 386
#     4   9  21  39  66  93 121 170 211 265 318 376
#     4  12  24  38  59  92 126 168 206 263 322 381
#     4  11  23  41  65  96 132 165 207 267 325 373
#
# _framework density 23.598296000000001
#
# number of rings (size 3 to 8) (size 9 to 14) (size 15 to 20)
#    0.000    1.429    1.429    4.714    0.000    7.429 
#    0.000    0.000    0.000    4.286    0.000    0.000 
#    0.000    0.000    0.000    0.000    0.000    0.000 
#
# Total GULP energy -78091.544032 kJ/mol
# GULP energy per Si atom -5577.967431 kJ/mol
# Density = 2.354459 g / cm^3
# Si number density = 23.598296 Si / 1000 Ang^3
#
#
#
# Elastic Constant Matrix: (Units=GPa)
#
#
# Indices 1 2 3 4 5 6 
#
# 1 41.0555 24.8311 24.7861 2.0393 -4.4782 -13.2873
# 2 24.8311 76.5103 33.9252 7.1649 -2.3528 -13.2421
# 3 24.7861 33.9252 179.0932 2.3112 -7.9285 -4.9876
# 4 2.0393 7.1649 2.3112 46.7584 -9.5476 2.4086
# 5 -4.4782 -2.3528 -7.9285 -9.5476 39.4670 0.9667
# 6 -13.2873 -13.2421 -4.9876 2.4086 0.9667 36.4035
#
#
#
# Elastic Compliance Matrix: (Units=1/GPa)
#
#
# Indices 1 2 3 4 5 6 
#
# 1 0.034242 -0.008214 -0.002815 -0.000031 0.002601 0.009058
# 2 -0.008214 0.017436 -0.002087 -0.002586 -0.001017 0.003256
# 3 -0.002815 -0.002087 0.006379 0.000371 0.000951 -0.000963
# 4 -0.000031 -0.002586 0.000371 0.023032 0.005552 -0.002572
# 5 0.002601 -0.001017 0.000951 0.005552 0.027115 -0.000378
# 6 0.009058 0.003256 -0.000963 -0.002572 -0.000378 0.032009
#
#
# Mechanical properties :
#
#
# Convention : Reuss Voigt Hill
#
# Bulk Modulus (GPa) = 31.42290 51.52709 41.47499
# Shear Modulus (GPa) = 28.24008 38.73354 33.48681
#
# Velocity S-wave (km/s) = 3.46309 4.05578 3.77109
# Velocity P-wave (km/s) = 5.41621 6.61929 6.04774
#
# Compressibility (1/GPa) = 0.03182392
#
# Stress axis : x y z
#
# Youngs Moduli (GPa) = 29.20425 57.35303 156.76096
#
# Poissons Ratio (x) = 0.47111 0.44131
# Poissons Ratio (y) = 0.23989 0.32716
# Poissons Ratio (z) = 0.08222 0.11969
#
# Static dielectric constant tensor:
#      x y z
#    x 1.961780 -0.024500 -0.031210 
#    y -0.024500 1.935050 -0.026580 
#    z -0.031210 -0.026580 1.873970 
# 
# From -- ./inp_files/176250.got.cif
#   From: 2010.05.17/outbox.cif.g08.bks.cpg/sg2_89_cif.got.tgz:176250.got - 2010.06.03 11:33:40.
