data_PCOD9106201
_publ_section_title
;
Structure prediction by ZEFSAII (Michael W. Deem and Ramdas Pophale) SiO2 
 PCOD9106201
Probable space group: P -1
;
_chemical_formula_sum "Si O2"
_cell_formula_units_Z 10
_cell_length_a 9.541926
_cell_length_b 9.450084
_cell_length_c 7.316361
_cell_angle_alpha 47.794774
_cell_angle_beta 124.336495
_cell_angle_gamma 100.381611
_cell_volume 381.641224
_symmetry_space_group_name_H-M "P -1"
_symmetry_group_IT_number 2
_symmetry_cell_setting 'triclinic'
loop_
_space_group_symop_operation_xyz
x,y,z
-x,-y,-z
loop_
_atom_site_type_symbol
_atom_site_label
_atom_site_fract_x
_atom_site_fract_y
_atom_site_fract_z
Si Si1 0.805093 0.386781 0.378300
Si Si2 0.602603 0.286066 0.850947
Si Si3 0.084163 0.863609 0.009581
Si Si4 0.485417 0.205542 0.209373
Si Si5 0.969863 0.303323 0.224937
O O1 0.863978 0.355055 0.661264
O O2 0.646406 0.283797 0.335443
O O3 0.979822 0.284012 0.466932
O O4 0.704821 0.619541 0.052358
O O5 0.500000 0.500000 0.500000
O O6 0.725427 0.128349 0.932763
O O7 0.507016 0.196586 0.011871
O O8 0.758766 0.340218 0.025199
O O9 0.961781 0.867195 0.736030
O O10 0.000000 0.000000 0.000000
O O11 0.500000 0.000000 0.500000
O O12 0.000000 0.500000 0.000000
#
# Coordination Sequence:
#
# PCOD9106201 Si02
#       5
#     2   2   2   2   2
#     4  10  21  40  67  92 140 174 227 281 340 397
#     4   9  18  41  70  93 132 180 225 276 336 404
#     4  10  22  40  66  94 136 180 217 277 343 398
#     4  10  20  39  68 100 130 178 227 285 335 399
#     4   9  21  39  64  95 129 176 224 272 339 402
#
# _framework density 26.20262
#
# number of rings (size 3 to 8) (size 9 to 14) (size 15 to 20)
#    1.200    1.200    2.000    0.000    0.000    3.200 
#    3.600    3.000    0.000    0.000    0.000    0.000 
#    0.000    0.000    0.000    0.000    0.000    0.000 
#
# Total GULP energy -55731.122389 kJ/mol
# GULP energy per Si atom -5573.112239 kJ/mol
# Density = 2.614298 g / cm^3
# Si number density = 26.202620 Si / 1000 Ang^3
#
#
#
# Elastic Constant Matrix: (Units=GPa)
#
#
# Indices 1 2 3 4 5 6 
#
# 1 136.0249 59.4841 58.0908 -11.7542 -24.1753 -55.1563
# 2 59.4841 76.3821 32.3601 -7.7933 -16.4417 -28.6688
# 3 58.0908 32.3601 170.1294 -12.8800 -27.7751 -18.8485
# 4 -11.7542 -7.7933 -12.8800 39.3800 -9.3807 -6.6023
# 5 -24.1753 -16.4417 -27.7751 -9.3807 53.5461 2.3046
# 6 -55.1563 -28.6688 -18.8485 -6.6023 2.3046 61.5364
#
#
#
# Elastic Compliance Matrix: (Units=1/GPa)
#
#
# Indices 1 2 3 4 5 6 
#
# 1 0.017815 -0.006190 -0.001992 0.006998 0.005775 0.013009
# 2 -0.006190 0.020961 -0.000473 0.003795 0.003874 0.004334
# 3 -0.001992 -0.000473 0.007419 0.002580 0.003237 0.000422
# 4 0.006998 0.003795 0.002580 0.033728 0.011054 0.012035
# 5 0.005775 0.003874 0.003237 0.011054 0.025736 0.008195
# 6 0.013009 0.004334 0.000422 0.012035 0.008195 0.031043
#
#
# Mechanical properties :
#
#
# Convention : Reuss Voigt Hill
#
# Bulk Modulus (GPa) = 34.62069 75.82293 55.22181
# Shear Modulus (GPa) = 30.55461 46.39927 38.47694
#
# Velocity S-wave (km/s) = 3.41851 4.21264 3.83618
# Velocity P-wave (km/s) = 5.36870 7.25684 6.38297
#
# Compressibility (1/GPa) = 0.02888446
#
# Stress axis : x y z
#
# Youngs Moduli (GPa) = 56.13196 47.70662 134.79583
#
# Poissons Ratio (x) = 0.29532 0.26847
# Poissons Ratio (y) = 0.34748 0.06380
# Poissons Ratio (z) = 0.11180 0.02258
#
# Static dielectric constant tensor:
#      x y z
#    x 2.177740 -0.228360 -0.039330 
#    y -0.228360 2.369870 0.060370 
#    z -0.039330 0.060370 2.220690 
# 
# From -- ./inp_files/63543.got.cif
#   From: 2010.05.17/outbox.cif.g08.bks.cpg/sg2_32_cif.got.tgz:63543.got - 2010.06.03 11:33:40.
