data_PCOD9106302
_publ_section_title
;
Structure prediction by ZEFSAII (Michael W. Deem and Ramdas Pophale) SiO2 
 PCOD9106302
Probable space group: P -1
;
_chemical_formula_sum "Si O2"
_cell_formula_units_Z 14
_cell_length_a 15.608404
_cell_length_b 7.547099
_cell_length_c 18.349654
_cell_angle_alpha 132.646398
_cell_angle_beta 157.515912
_cell_angle_gamma 44.212302
_cell_volume 575.493130
_symmetry_space_group_name_H-M "P -1"
_symmetry_group_IT_number 2
_symmetry_cell_setting 'triclinic'
loop_
_space_group_symop_operation_xyz
x,y,z
-x,-y,-z
loop_
_atom_site_type_symbol
_atom_site_label
_atom_site_fract_x
_atom_site_fract_y
_atom_site_fract_z
Si Si1 0.732303 0.178806 0.346036
Si Si2 0.263893 0.071591 0.937441
Si Si3 0.238168 0.568417 0.705686
Si Si4 0.653926 0.098020 0.893746
Si Si5 0.525169 0.906639 0.597304
Si Si6 0.922618 0.362915 0.071838
Si Si7 0.539666 0.381412 0.656326
O O1 0.695049 0.390440 0.313199
O O2 0.645605 0.340121 0.396402
O O3 0.543345 0.036168 0.140373
O O4 0.000000 0.000000 0.500000
O O5 0.214416 0.082194 0.988064
O O6 0.204760 0.834292 0.792531
O O7 0.131943 0.340104 0.870685
O O8 0.454967 0.336240 0.840655
O O9 0.000000 0.500000 0.500000
O O10 0.517786 0.970787 0.694542
O O11 0.822864 0.214327 0.012399
O O12 0.412588 0.714286 0.415676
O O13 0.804226 0.776473 0.765093
O O14 0.442621 0.173344 0.562692
O O15 0.773246 0.365336 0.881325
#
# Coordination Sequence:
#
# PCOD9106302 Si02
#       7
#     2   2   2   2   2   2   2
#     4  11  23  42  69 100 137 178 227 282 345 404
#     4  11  25  44  68  98 138 174 227 286 338 407
#     4  12  25  44  65 100 134 178 229 280 342 408
#     4  11  22  44  65  96 134 176 224 279 337 410
#     4  10  20  39  68  97 135 179 222 277 342 404
#     4  10  22  43  69  98 135 176 226 276 347 402
#     4   9  19  38  63  98 130 174 223 269 332 407
#
# _framework density 24.326964
#
# number of rings (size 3 to 8) (size 9 to 14) (size 15 to 20)
#    0.000    1.429    4.286    3.429    2.000    1.714 
#    2.571    2.857    0.000    0.000    0.000    0.000 
#    0.000    0.000    0.000    0.000    0.000    0.000 
#
# Total GULP energy -78353.839279 kJ/mol
# GULP energy per Si atom -5596.702806 kJ/mol
# Density = 2.427159 g / cm^3
# Si number density = 24.326964 Si / 1000 Ang^3
#
#
#
# Elastic Constant Matrix: (Units=GPa)
#
#
# Indices 1 2 3 4 5 6 
#
# 1 86.2699 25.8174 23.5799 18.8736 -7.1152 14.9097
# 2 25.8174 111.8409 42.7839 11.8227 9.1170 -12.4225
# 3 23.5799 42.7839 105.8153 25.1605 9.5490 -9.8488
# 4 18.8736 11.8227 25.1605 49.1706 -11.5603 -6.9787
# 5 -7.1152 9.1170 9.5490 -11.5603 31.6652 12.6526
# 6 14.9097 -12.4225 -9.8488 -6.9787 12.6526 33.4630
#
#
#
# Elastic Compliance Matrix: (Units=1/GPa)
#
#
# Indices 1 2 3 4 5 6 
#
# 1 0.019089 -0.005470 -0.003971 -0.003441 0.012686 -0.017219
# 2 -0.005470 0.012838 -0.002240 -0.000417 -0.008225 0.009567
# 3 -0.003971 -0.002240 0.014425 -0.006601 -0.010046 0.007605
# 4 -0.003441 -0.000417 -0.006601 0.027895 0.011099 0.001057
# 5 0.012686 -0.008225 -0.010046 0.011099 0.056090 -0.030556
# 6 -0.017219 0.009567 0.007605 0.001057 -0.030556 0.055119
#
#
# Mechanical properties :
#
#
# Convention : Reuss Voigt Hill
#
# Bulk Modulus (GPa) = 43.49895 54.25428 48.87662
# Shear Modulus (GPa) = 23.09646 36.97610 30.03628
#
# Velocity S-wave (km/s) = 3.08461 3.90290 3.51763
# Velocity P-wave (km/s) = 5.53228 6.53152 6.05256
#
# Compressibility (1/GPa) = 0.02298906
#
# Stress axis : x y z
#
# Youngs Moduli (GPa) = 52.38595 77.89321 69.32366
#
# Poissons Ratio (x) = 0.42610 0.27531
# Poissons Ratio (y) = 0.28657 0.15528
# Poissons Ratio (z) = 0.20804 0.17448
#
# Static dielectric constant tensor:
#      x y z
#    x 1.973170 -0.025800 -0.036110 
#    y -0.025800 1.993890 0.014730 
#    z -0.036110 0.014730 1.953040 
# 
# From -- ./inp_files/338172.got.cif
#   From: 2010.05.17/outbox.cif.g08.bks.cpg/sg2_170_cif.got.tgz:338172.got - 2010.06.03 11:33:40.
