data_PCOD9106604
_publ_section_title
;
Structure prediction by ZEFSAII (Michael W. Deem and Ramdas Pophale) SiO2 
 PCOD9106604
Probable space group: P -1
;
_chemical_formula_sum "Si O2"
_cell_formula_units_Z 16
_cell_length_a 7.969237
_cell_length_b 10.649397
_cell_length_c 16.111412
_cell_angle_alpha 121.886974
_cell_angle_beta 82.933291
_cell_angle_gamma 136.224663
_cell_volume 721.330663
_symmetry_space_group_name_H-M "P -1"
_symmetry_group_IT_number 2
_symmetry_cell_setting 'triclinic'
loop_
_space_group_symop_operation_xyz
x,y,z
-x,-y,-z
loop_
_atom_site_type_symbol
_atom_site_label
_atom_site_fract_x
_atom_site_fract_y
_atom_site_fract_z
Si Si1 0.123944 0.759195 0.012176
Si Si2 0.369489 0.208669 0.577053
Si Si3 0.511252 0.344180 0.904195
Si Si4 0.109221 0.191305 0.429541
Si Si5 0.298097 0.642094 0.530157
Si Si6 0.803316 0.030069 0.743646
Si Si7 0.612231 0.559218 0.207302
Si Si8 0.363911 0.106542 0.984428
O O1 0.189679 0.901364 0.139849
O O2 0.137835 0.867544 0.965870
O O3 0.360317 0.801617 0.000349
O O4 0.817426 0.493810 0.945368
O O5 0.219829 0.159090 0.484506
O O6 0.612811 0.290091 0.547975
O O7 0.436315 0.407854 0.688280
O O8 0.189370 0.991736 0.576611
O O9 0.438071 0.334058 0.812323
O O10 0.500000 0.500000 0.000000
O O11 0.318957 0.115203 0.893883
O O12 0.261099 0.446984 0.495166
O O13 0.144611 0.111160 0.318734
O O14 0.522612 0.869686 0.656493
O O15 0.000000 0.500000 0.500000
O O16 0.074879 0.275706 0.767279
O O17 0.428739 0.300218 0.098333
#
# Coordination Sequence:
#
# PCOD9106604 Si02
#       8
#     2   2   2   2   2   2   2   2
#     4  11  22  40  59  93 120 165 199 243 299 357
#     4   9  19  40  63  90 117 153 206 237 295 363
#     4  10  20  40  58  87 124 154 202 249 290 342
#     4   9  20  39  66  88 114 156 199 251 292 356
#     4  11  24  42  60  93 124 153 191 255 307 352
#     4  10  20  40  63  85 118 160 208 231 300 363
#     4  10  21  39  65  92 113 167 200 245 297 350
#     4  10  23  38  61  86 130 160 197 248 298 344
#
# _framework density 22.181228000000001
#
# number of rings (size 3 to 8) (size 9 to 14) (size 15 to 20)
#    0.000    2.000    2.500    2.625    3.500    2.500 
#    9.000    0.000    0.000    0.000    0.000    0.000 
#    0.000    0.000    0.000    0.000    0.000    0.000 
#
# Total GULP energy -89175.502479 kJ/mol
# GULP energy per Si atom -5573.468905 kJ/mol
# Density = 2.213074 g / cm^3
# Si number density = 22.181228 Si / 1000 Ang^3
#
#
#
# Elastic Constant Matrix: (Units=GPa)
#
#
# Indices 1 2 3 4 5 6 
#
# 1 40.5779 -1.9971 7.3276 -7.6146 6.7283 20.4539
# 2 -1.9971 102.1213 16.2747 -15.3237 -0.3728 7.8335
# 3 7.3276 16.2747 69.3426 -16.4209 -4.3626 9.2979
# 4 -7.6146 -15.3237 -16.4209 27.4923 8.6546 -4.3273
# 5 6.7283 -0.3728 -4.3626 8.6546 18.3952 -1.0270
# 6 20.4539 7.8335 9.2979 -4.3273 -1.0270 43.0130
#
#
#
# Elastic Compliance Matrix: (Units=1/GPa)
#
#
# Indices 1 2 3 4 5 6 
#
# 1 0.043113 0.005286 -0.000027 0.019952 -0.026176 -0.020076
# 2 0.005286 0.011635 -0.001141 0.008657 -0.006246 -0.003664
# 3 -0.000027 -0.001141 0.017231 0.009399 -0.000493 -0.002571
# 4 0.019952 0.008657 0.009399 0.061986 -0.034485 -0.007683
# 5 -0.026176 -0.006246 -0.000493 -0.034485 0.080596 0.012147
# 6 -0.020076 -0.003664 -0.002571 -0.007683 0.012147 0.033536
#
#
# Mechanical properties :
#
#
# Convention : Reuss Voigt Hill
#
# Bulk Modulus (GPa) = 12.46645 28.36135 20.41390
# Shear Modulus (GPa) = 18.75481 30.47587 24.61534
#
# Velocity S-wave (km/s) = 2.91095 3.71070 3.33489
# Velocity P-wave (km/s) = 4.11468 5.58328 4.90427
#
# Compressibility (1/GPa) = 0.08021527
#
# Stress axis : x y z
#
# Youngs Moduli (GPa) = 23.19492 85.94963 58.03425
#
# Poissons Ratio (x) = -0.45430 0.00154
# Poissons Ratio (y) = -0.12260 0.06621
# Poissons Ratio (z) = 0.00062 0.09805
#
# Static dielectric constant tensor:
#      x y z
#    x 1.930120 0.061330 0.034450 
#    y 0.061330 1.890950 -0.001530 
#    z 0.034450 -0.001530 1.846350 
# 
# From -- ./inp_files/500704.got.cif
#   From: 2010.05.17/outbox.cif.g08.bks.cpg/sg2_251_cif.got.tgz:500704.got - 2010.06.03 11:33:40.
