data_PCOD9106640
_publ_section_title
;
Structure prediction by ZEFSAII (Michael W. Deem and Ramdas Pophale) SiO2 
 PCOD9106640
Probable space group: P -1
;
_chemical_formula_sum "Si O2"
_cell_formula_units_Z 12
_cell_length_a 5.130737
_cell_length_b 7.577933
_cell_length_c 19.360582
_cell_angle_alpha 128.565585
_cell_angle_beta 78.007448
_cell_angle_gamma 117.237680
_cell_volume 520.040640
_symmetry_space_group_name_H-M "P -1"
_symmetry_group_IT_number 2
_symmetry_cell_setting 'triclinic'
loop_
_space_group_symop_operation_xyz
x,y,z
-x,-y,-z
loop_
_atom_site_type_symbol
_atom_site_label
_atom_site_fract_x
_atom_site_fract_y
_atom_site_fract_z
Si Si1 0.038743 0.628986 0.682628
Si Si2 0.974131 0.894023 0.254198
Si Si3 0.802030 0.739623 0.984676
Si Si4 0.589319 0.578441 0.811141
Si Si5 0.290851 0.857523 0.093009
Si Si6 0.599741 0.609408 0.596326
O O1 0.312286 0.563205 0.646232
O O2 0.807709 0.512107 0.603246
O O3 0.850035 0.571015 0.748337
O O4 0.150318 0.926020 0.733989
O O5 0.719696 0.653640 0.242056
O O6 0.148596 0.827649 0.168530
O O7 0.203805 0.090600 0.342629
O O8 0.550341 0.772667 0.050457
O O9 0.038694 0.714104 0.015426
O O10 0.656020 0.565807 0.885155
O O11 0.000000 0.000000 0.000000
O O12 0.584220 0.845282 0.860057
O O13 0.500000 0.500000 0.500000
#
# Coordination Sequence:
#
# PCOD9106640 Si02
#       6
#     2   2   2   2   2   2
#     4   9  22  40  61  85 118 150 188 237 294 343
#     4   9  23  37  62  88 117 151 197 239 286 341
#     4  10  21  36  58  81 118 161 196 231 282 336
#     4  10  20  40  59  89 116 158 193 240 283 336
#     4  10  22  39  55  82 121 158 194 236 283 330
#     4  10  21  43  65  83 117 153 184 238 300 351
#
# _framework density 23.075118
#
# number of rings (size 3 to 8) (size 9 to 14) (size 15 to 20)
#    1.000    1.333    0.000    2.500    7.000    2.667 
#   12.000    1.667    0.000    0.000    0.000    0.000 
#    0.000    0.000    0.000    0.000    0.000    0.000 
#
# Total GULP energy -67123.409537 kJ/mol
# GULP energy per Si atom -5593.617461 kJ/mol
# Density = 2.302260 g / cm^3
# Si number density = 23.075118 Si / 1000 Ang^3
#
#
#
# Elastic Constant Matrix: (Units=GPa)
#
#
# Indices 1 2 3 4 5 6 
#
# 1 83.3239 50.0460 12.3797 10.9624 7.0347 17.0525
# 2 50.0460 119.9124 47.2734 -2.4685 -6.6696 15.6159
# 3 12.3797 47.2734 107.2370 4.6419 26.5093 14.5319
# 4 10.9624 -2.4685 4.6419 17.5089 14.0200 1.0494
# 5 7.0347 -6.6696 26.5093 14.0200 28.8479 2.9001
# 6 17.0525 15.6159 14.5319 1.0494 2.9001 31.7061
#
#
#
# Elastic Compliance Matrix: (Units=1/GPa)
#
#
# Indices 1 2 3 4 5 6 
#
# 1 0.020925 -0.010407 0.005289 -0.010188 -0.006653 -0.007607
# 2 -0.010407 0.018000 -0.011146 -0.002540 0.018150 0.000265
# 3 0.005289 -0.011146 0.020833 0.012971 -0.028842 -0.004694
# 4 -0.010188 -0.002540 0.012971 0.110966 -0.064252 0.002990
# 5 -0.006653 0.018150 -0.028842 -0.064252 0.098112 0.001011
# 6 -0.007607 0.000265 -0.004694 0.002990 0.001011 0.037461
#
#
# Mechanical properties :
#
#
# Convention : Reuss Voigt Hill
#
# Bulk Modulus (GPa) = 36.72657 58.87459 47.80058
# Shear Modulus (GPa) = 14.37186 28.99751 21.68469
#
# Velocity S-wave (km/s) = 2.49836 3.54878 3.06885
# Velocity P-wave (km/s) = 4.92677 6.50857 5.77211
#
# Compressibility (1/GPa) = 0.02722824
#
# Stress axis : x y z
#
# Youngs Moduli (GPa) = 47.78922 55.55587 48.00128
#
# Poissons Ratio (x) = 0.57819 -0.25386
# Poissons Ratio (y) = 0.49736 0.53503
# Poissons Ratio (z) = -0.25274 0.61923
#
# Static dielectric constant tensor:
#      x y z
#    x 1.909900 -0.056710 0.026810 
#    y -0.056710 1.918190 0.028850 
#    z 0.026810 0.028850 1.842880 
# 
# From -- ./inp_files/581692.got.cif
#   From: 2010.05.17/outbox.cif.g08.bks.cpg/sg2_291_cif.got.tgz:581692.got - 2010.06.03 11:33:40.
