data_PCOD9106916
_publ_section_title
;
Structure prediction by ZEFSAII (Michael W. Deem and Ramdas Pophale) SiO2 
 PCOD9106916
Probable space group: P -1
;
_chemical_formula_sum "Si O2"
_cell_formula_units_Z 14
_cell_length_a 9.117604
_cell_length_b 22.008503
_cell_length_c 8.768223
_cell_angle_alpha 44.972127
_cell_angle_beta 148.083489
_cell_angle_gamma 134.558798
_cell_volume 632.889758
_symmetry_space_group_name_H-M "P -1"
_symmetry_group_IT_number 2
_symmetry_cell_setting 'triclinic'
loop_
_space_group_symop_operation_xyz
x,y,z
-x,-y,-z
loop_
_atom_site_type_symbol
_atom_site_label
_atom_site_fract_x
_atom_site_fract_y
_atom_site_fract_z
Si Si1 0.683467 0.812973 0.536969
Si Si2 0.274018 0.015897 0.895371
Si Si3 0.302129 0.289927 0.789856
Si Si4 0.860425 0.271995 0.996756
Si Si5 0.573138 0.138248 0.212563
Si Si6 0.792555 0.157419 0.708570
Si Si7 0.068735 0.604895 0.896255
O O1 0.840974 0.908977 0.426069
O O2 0.442326 0.760188 0.297919
O O3 0.485066 0.827659 0.475492
O O4 0.898885 0.751485 0.853753
O O5 0.433922 0.059402 0.114012
O O6 0.500000 0.000000 0.000000
O O7 0.098378 0.917843 0.969402
O O8 0.045992 0.248373 0.755383
O O9 0.180841 0.355159 0.460951
O O10 0.350434 0.198315 0.928429
O O11 0.631653 0.345595 0.013753
O O12 0.836074 0.204507 0.237917
O O13 0.901725 0.365759 0.951245
O O14 0.681915 0.122201 0.504073
O O15 0.000000 0.500000 0.000000
#
# Coordination Sequence:
#
# PCOD9106916 Si02
#       7
#     2   2   2   2   2   2   2
#     4  10  23  39  60  86 129 168 210 245 303 360
#     4   9  20  39  56  92 125 173 213 257 293 350
#     4  11  22  39  62  96 122 158 202 257 311 359
#     4  10  20  40  62  87 119 160 204 254 307 368
#     4  10  21  38  64  86 129 162 217 253 303 356
#     4  11  22  39  61  91 125 172 207 260 299 359
#     4  11  22  40  69  97 120 152 204 257 311 381
#
# _framework density 22.120754999999999
#
# number of rings (size 3 to 8) (size 9 to 14) (size 15 to 20)
#    0.000    1.714    2.857    3.429    2.000    0.571 
#    5.143    6.429    0.000    5.143    0.000    0.000 
#    0.000    0.000    0.000    0.000    0.000    0.000 
#
# Total GULP energy -78134.181003 kJ/mol
# GULP energy per Si atom -5581.012929 kJ/mol
# Density = 2.207041 g / cm^3
# Si number density = 22.120755 Si / 1000 Ang^3
#
#
#
# Elastic Constant Matrix: (Units=GPa)
#
#
# Indices 1 2 3 4 5 6 
#
# 1 106.6973 36.0034 24.4976 0.4966 -5.6317 -5.9958
# 2 36.0034 118.8497 23.2922 -10.8724 7.0053 -7.9471
# 3 24.4976 23.2922 97.2720 -1.9349 10.9864 0.8317
# 4 0.4966 -10.8724 -1.9349 21.1962 -2.0476 6.1567
# 5 -5.6317 7.0053 10.9864 -2.0476 38.0462 6.4880
# 6 -5.9958 -7.9471 0.8317 6.1567 6.4880 23.8503
#
#
#
# Elastic Compliance Matrix: (Units=1/GPa)
#
#
# Indices 1 2 3 4 5 6 
#
# 1 0.011245 -0.003180 -0.002417 -0.002391 0.002515 0.001784
# 2 -0.003180 0.010314 -0.001362 0.004424 -0.002099 0.002114
# 3 -0.002417 -0.001362 0.011603 0.000278 -0.003335 -0.000631
# 4 -0.002391 0.004424 0.000278 0.054047 0.004081 -0.014198
# 5 0.002515 -0.002099 -0.003335 0.004081 0.029778 -0.009105
# 6 0.001784 0.002114 -0.000631 -0.014198 -0.009105 0.049245
#
#
# Mechanical properties :
#
#
# Convention : Reuss Voigt Hill
#
# Bulk Modulus (GPa) = 51.96719 54.48949 53.22834
# Shear Modulus (GPa) = 26.80036 32.55361 29.67698
#
# Velocity S-wave (km/s) = 3.48451 3.84035 3.66675
# Velocity P-wave (km/s) = 6.30338 6.65962 6.48395
#
# Compressibility (1/GPa) = 0.01924291
#
# Stress axis : x y z
#
# Youngs Moduli (GPa) = 88.93172 96.95530 86.18519
#
# Poissons Ratio (x) = 0.30834 0.20833
# Poissons Ratio (y) = 0.28282 0.11737
# Poissons Ratio (z) = 0.21497 0.13204
#
# Static dielectric constant tensor:
#      x y z
#    x 1.898140 -0.031940 -0.009460 
#    y -0.031940 1.842070 0.021720 
#    z -0.009460 0.021720 1.848800 
# 
# From -- ./inp_files/223315.got.cif
#   From: 2010.05.17/outbox.cif.g08.bks.cpg/sg2_112_cif.got.tgz:223315.got - 2010.06.03 11:33:40.
