data_PCOD9106642
_publ_section_title
;
Structure prediction by ZEFSAII (Michael W. Deem and Ramdas Pophale) SiO2 
 PCOD9106642
Probable space group: P -1
;
_chemical_formula_sum "Si O2"
_cell_formula_units_Z 14
_cell_length_a 27.595911
_cell_length_b 5.446497
_cell_length_c 4.999477
_cell_angle_alpha 92.303894
_cell_angle_beta 48.689144
_cell_angle_gamma 93.521566
_cell_volume 563.360056
_symmetry_space_group_name_H-M "P -1"
_symmetry_group_IT_number 2
_symmetry_cell_setting 'triclinic'
loop_
_space_group_symop_operation_xyz
x,y,z
-x,-y,-z
loop_
_atom_site_type_symbol
_atom_site_label
_atom_site_fract_x
_atom_site_fract_y
_atom_site_fract_z
Si Si1 0.512153 0.775223 0.745482
Si Si2 0.069369 0.529936 0.117369
Si Si3 0.605223 0.108706 0.101161
Si Si4 0.299776 0.253056 0.334788
Si Si5 0.829991 0.775432 0.465524
Si Si6 0.635088 0.503833 0.409640
Si Si7 0.861669 0.291970 0.607293
O O1 0.441929 0.711121 0.871780
O O2 0.561234 0.591527 0.690139
O O3 0.555974 0.882653 0.346026
O O4 0.500000 0.000000 0.000000
O O5 0.116801 0.667034 0.165959
O O6 0.000000 0.500000 0.500000
O O7 0.101038 0.270181 0.925872
O O8 0.075931 0.671864 0.817430
O O9 0.630072 0.234991 0.287499
O O10 0.664555 0.994464 0.730731
O O11 0.224357 0.218430 0.561973
O O12 0.324517 0.451772 0.468509
O O13 0.327279 0.334352 0.947955
O O14 0.821103 0.523313 0.662732
O O15 0.830395 0.024902 0.644062
#
# Coordination Sequence:
#
# PCOD9106642 Si02
#       7
#     2   2   2   2   2   2   2
#     4  10  20  40  59  89 121 155 209 262 325 395
#     4  10  24  44  71 106 139 181 227 278 334 396
#     4  10  23  39  61  87 123 161 205 268 325 395
#     4  11  26  41  62  92 125 161 223 260 323 392
#     4  10  27  44  70  99 140 182 228 278 334 398
#     4  11  25  41  63  91 119 168 207 268 328 387
#     4  10  25  43  70 100 139 182 223 279 334 394
#
# _framework density 24.850894
#
# number of rings (size 3 to 8) (size 9 to 14) (size 15 to 20)
#    0.857    0.857    1.429    0.857    8.000    1.714 
#    0.000    0.000    0.000    0.000    0.000    0.000 
#    0.000    0.000    0.000    0.000    0.000    0.000 
#
# Total GULP energy -78260.566844 kJ/mol
# GULP energy per Si atom -5590.040489 kJ/mol
# Density = 2.479433 g / cm^3
# Si number density = 24.850894 Si / 1000 Ang^3
#
#
#
# Elastic Constant Matrix: (Units=GPa)
#
#
# Indices 1 2 3 4 5 6 
#
# 1 87.7883 31.8484 8.9501 14.5100 3.6696 7.2737
# 2 31.8484 112.6088 9.3955 28.4500 3.1569 4.6034
# 3 8.9501 9.3955 54.6256 6.6638 -1.2103 -10.2813
# 4 14.5100 28.4500 6.6638 31.6218 3.9772 16.7649
# 5 3.6696 3.1569 -1.2103 3.9772 44.0818 6.6038
# 6 7.2737 4.6034 -10.2813 16.7649 6.6038 37.4200
#
#
#
# Elastic Compliance Matrix: (Units=1/GPa)
#
#
# Indices 1 2 3 4 5 6 
#
# 1 0.013142 -0.002973 -0.001712 -0.002058 -0.000495 -0.001650
# 2 -0.002973 0.012711 0.000821 -0.012898 -0.000235 0.005060
# 3 -0.001712 0.000821 0.021729 -0.010256 -0.000012 0.010799
# 4 -0.002058 -0.012898 -0.010256 0.061366 -0.000493 -0.028237
# 5 -0.000495 -0.000235 -0.000012 -0.000493 0.023353 -0.003779
# 6 -0.001650 0.005060 0.010799 -0.028237 -0.003779 0.042707
#
#
# Mechanical properties :
#
#
# Convention : Reuss Voigt Hill
#
# Bulk Modulus (GPa) = 25.09147 39.49008 32.29078
# Shear Modulus (GPa) = 25.50763 36.27997 30.89380
#
# Velocity S-wave (km/s) = 3.20727 3.82502 3.52968
# Velocity P-wave (km/s) = 4.88202 5.95256 5.44367
#
# Compressibility (1/GPa) = 0.03985418
#
# Stress axis : x y z
#
# Youngs Moduli (GPa) = 76.09432 78.67315 46.02122
#
# Poissons Ratio (x) = 0.23387 0.07880
# Poissons Ratio (y) = 0.22620 -0.03780
# Poissons Ratio (z) = 0.13030 -0.06462
#
# Static dielectric constant tensor:
#      x y z
#    x 1.960970 -0.076700 0.010980 
#    y -0.076700 2.057130 -0.043210 
#    z 0.010980 -0.043210 2.026720 
# 
# From -- ./inp_files/12887.got.cif
#   From: 2010.05.17/outbox.cif.g08.bks.cpg/sg2_7_cif.got.tgz:12887.got - 2010.06.03 11:33:40.
