data_PCOD9106337
_publ_section_title
;
Structure prediction by ZEFSAII (Michael W. Deem and Ramdas Pophale) SiO2 
 PCOD9106337
Probable space group: P -1
;
_chemical_formula_sum "Si O2"
_cell_formula_units_Z 16
_cell_length_a 23.655286
_cell_length_b 9.908609
_cell_length_c 19.772999
_cell_angle_alpha 149.719193
_cell_angle_beta 161.941774
_cell_angle_gamma 32.104039
_cell_volume 714.278124
_symmetry_space_group_name_H-M "P -1"
_symmetry_group_IT_number 2
_symmetry_cell_setting 'triclinic'
loop_
_space_group_symop_operation_xyz
x,y,z
-x,-y,-z
loop_
_atom_site_type_symbol
_atom_site_label
_atom_site_fract_x
_atom_site_fract_y
_atom_site_fract_z
Si Si1 0.478083 0.162329 0.973618
Si Si2 0.153404 0.688043 0.253722
Si Si3 0.982760 0.367340 0.205723
Si Si4 0.610398 0.303063 0.825646
Si Si5 0.821574 0.249652 0.843239
Si Si6 0.069439 0.186552 0.463107
Si Si7 0.133985 0.845316 0.642973
Si Si8 0.577073 0.714599 0.530402
O O1 0.461478 0.485338 0.107105
O O2 0.662981 0.080043 0.104118
O O3 0.283148 0.135838 0.707736
O O4 0.500000 0.000000 0.000000
O O5 0.223536 0.662279 0.245897
O O6 0.311568 0.552167 0.425719
O O7 0.067734 0.987536 0.311346
O O8 0.000000 0.500000 0.000000
O O9 0.120107 0.536413 0.471580
O O10 0.788037 0.409712 0.042311
O O11 0.934456 0.425859 0.096529
O O12 0.061325 0.049788 0.159144
O O13 0.446193 0.317021 0.589781
O O14 0.661291 0.983811 0.760448
O O15 0.631664 0.233974 0.658100
O O16 0.000000 0.500000 0.500000
O O17 0.947932 0.113724 0.357118
O O18 0.000000 0.000000 0.500000
#
# Coordination Sequence:
#
# PCOD9106337 Si02
#       8
#     2   2   2   2   2   2   2   2
#     4  12  24  45  75 106 142 189 245 301 361 430
#     4  12  27  44  67  95 145 185 231 287 361 417
#     4  10  20  40  68 102 136 172 235 289 351 413
#     4  10  20  39  69 101 140 175 230 297 353 411
#     4  10  22  40  66  98 135 184 225 288 346 426
#     4  12  29  51  73 107 152 194 240 301 367 437
#     4  12  25  44  75 107 139 188 242 304 357 430
#     4  10  22  39  65 101 134 182 233 286 348 424
#
# _framework density 22.400237000000001
#
# number of rings (size 3 to 8) (size 9 to 14) (size 15 to 20)
#    0.000    1.000    2.500    3.375    3.500    3.500 
#    2.250    0.000    0.000    0.000    0.000    0.000 
#    0.000    0.000    0.000    0.000    0.000    0.000 
#
# Total GULP energy -89478.812450 kJ/mol
# GULP energy per Si atom -5592.425778 kJ/mol
# Density = 2.234925 g / cm^3
# Si number density = 22.400237 Si / 1000 Ang^3
#
#
#
# Elastic Constant Matrix: (Units=GPa)
#
#
# Indices 1 2 3 4 5 6 
#
# 1 88.7977 0.5048 27.5710 -2.9926 11.5907 0.9964
# 2 0.5048 51.8783 -0.4276 -12.9950 -2.4485 5.3105
# 3 27.5710 -0.4276 95.5413 -10.5314 13.9652 -3.3965
# 4 -2.9926 -12.9950 -10.5314 36.0111 -6.0442 -3.8153
# 5 11.5907 -2.4485 13.9652 -6.0442 32.8391 0.1795
# 6 0.9964 5.3105 -3.3965 -3.8153 0.1795 33.0061
#
#
#
# Elastic Compliance Matrix: (Units=1/GPa)
#
#
# Indices 1 2 3 4 5 6 
#
# 1 0.012693 -0.000397 -0.003292 -0.000669 -0.003229 -0.000718
# 2 -0.000397 0.021745 0.000586 0.008232 0.003041 -0.002491
# 3 -0.003292 0.000586 0.012331 0.003137 -0.003470 0.001655
# 4 -0.000669 0.008232 0.003137 0.032827 0.005543 0.002783
# 5 -0.003229 0.003041 -0.003470 0.005543 0.034315 -0.000295
# 6 -0.000718 -0.002491 0.001655 0.002783 -0.000295 0.031214
#
#
# Mechanical properties :
#
#
# Convention : Reuss Voigt Hill
#
# Bulk Modulus (GPa) = 24.65275 32.39041 28.52158
# Shear Modulus (GPa) = 30.33025 34.27585 32.30305
#
# Velocity S-wave (km/s) = 3.68369 3.91596 3.80160
# Velocity P-wave (km/s) = 5.39650 5.91080 5.65950
#
# Compressibility (1/GPa) = 0.04056343
#
# Stress axis : x y z
#
# Youngs Moduli (GPa) = 78.78410 45.98724 81.09546
#
# Poissons Ratio (x) = 0.01827 0.26696
# Poissons Ratio (y) = 0.03129 -0.04755
# Poissons Ratio (z) = 0.25936 -0.02696
#
# Static dielectric constant tensor:
#      x y z
#    x 1.844400 0.002470 0.003870 
#    y 0.002470 1.840620 0.027770 
#    z 0.003870 0.027770 1.839680 
# 
# From -- ./inp_files/577650.got.cif
#   From: 2010.05.17/outbox.cif.g08.bks.cpg/sg2_289_cif.got.tgz:577650.got - 2010.06.03 11:33:40.
