data_PCOD9106976
_publ_section_title
;
Structure prediction by ZEFSAII (Michael W. Deem and Ramdas Pophale) SiO2 
 PCOD9106976
Probable space group: P -1
;
_chemical_formula_sum "Si O2"
_cell_formula_units_Z 16
_cell_length_a 22.125893
_cell_length_b 6.556037
_cell_length_c 15.408745
_cell_angle_alpha 110.543443
_cell_angle_beta 152.555486
_cell_angle_gamma 58.902165
_cell_volume 848.787897
_symmetry_space_group_name_H-M "P -1"
_symmetry_group_IT_number 2
_symmetry_cell_setting 'triclinic'
loop_
_space_group_symop_operation_xyz
x,y,z
-x,-y,-z
loop_
_atom_site_type_symbol
_atom_site_label
_atom_site_fract_x
_atom_site_fract_y
_atom_site_fract_z
Si Si1 0.644505 0.416513 0.895478
Si Si2 0.565353 0.017489 0.312912
Si Si3 0.186664 0.963794 0.805459
Si Si4 0.136243 0.941739 0.537817
Si Si5 0.176479 0.400602 0.956310
Si Si6 0.849621 0.708884 0.531005
Si Si7 0.615138 0.551103 0.210110
Si Si8 0.430928 0.009230 0.320402
O O1 0.585298 0.236291 0.754118
O O2 0.525122 0.703729 0.795634
O O3 0.716729 0.294644 0.061181
O O4 0.765838 0.419451 0.983613
O O5 0.736001 0.907114 0.483966
O O6 0.531215 0.804948 0.195415
O O7 0.532655 0.024217 0.374213
O O8 0.190218 0.954142 0.705503
O O9 0.227987 0.171009 0.921008
O O10 0.018998 0.056646 0.641821
O O11 0.274331 0.699565 0.635482
O O12 0.106896 0.170376 0.474345
O O13 0.998619 0.532872 0.746955
O O14 0.269937 0.255319 0.138228
O O15 0.748221 0.593844 0.343040
O O16 0.500000 0.500000 0.000000
O O17 0.500000 0.000000 0.500000
#
# Coordination Sequence:
#
# PCOD9106976 Si02
#       8
#     2   2   2   2   2   2   2   2
#     4  10  21  39  66  85 122 158 199 254 312 361
#     4   9  23  40  62  89 125 162 205 249 307 366
#     4  10  21  35  55  88 119 163 210 259 288 339
#     4  11  22  35  56  82 124 166 217 250 286 344
#     4  10  20  40  62  90 122 157 207 251 310 364
#     4  10  22  40  58  88 122 172 205 250 303 355
#     4  10  24  39  54  84 129 171 214 243 291 357
#     4  10  23  43  70  95 117 151 197 258 320 378
#
# _framework density 18.85041
#
# number of rings (size 3 to 8) (size 9 to 14) (size 15 to 20)
#    0.750    1.250    2.500    0.000    7.000    4.000 
#    0.000    0.625    0.000    1.500    0.000    0.000 
#    0.000    0.000    0.000    0.000    0.000    0.000 
#
# Total GULP energy -89071.882359 kJ/mol
# GULP energy per Si atom -5566.992647 kJ/mol
# Density = 1.880751 g / cm^3
# Si number density = 18.850410 Si / 1000 Ang^3
#
#
#
# Elastic Constant Matrix: (Units=GPa)
#
#
# Indices 1 2 3 4 5 6 
#
# 1 72.1264 28.9776 57.0934 -8.8212 -4.1846 2.4617
# 2 28.9776 70.0454 53.9339 -21.4706 -10.1939 2.1290
# 3 57.0934 53.9339 129.2711 -23.7822 -7.6824 -4.4406
# 4 -8.8212 -21.4706 -23.7822 31.0582 -1.2385 8.9503
# 5 -4.1846 -10.1939 -7.6824 -1.2385 35.9651 -4.4852
# 6 2.4617 2.1290 -4.4406 8.9503 -4.4852 23.3945
#
#
#
# Elastic Compliance Matrix: (Units=1/GPa)
#
#
# Indices 1 2 3 4 5 6 
#
# 1 0.021957 -0.002562 -0.009060 -0.001539 -0.000573 -0.003318
# 2 -0.002562 0.026254 -0.007130 0.014481 0.005117 -0.008032
# 3 -0.009060 -0.007130 0.015504 0.003426 0.000777 0.003383
# 4 -0.001539 0.014481 0.003426 0.049990 0.004027 -0.018859
# 5 -0.000573 0.005117 0.000777 0.004027 0.029986 0.003950
# 6 -0.003318 -0.008032 0.003383 -0.018859 0.003950 0.052440
#
#
# Mechanical properties :
#
#
# Convention : Reuss Voigt Hill
#
# Bulk Modulus (GPa) = 38.15005 61.27253 49.71129
# Shear Modulus (GPa) = 20.62956 26.84609 23.73783
#
# Velocity S-wave (km/s) = 3.31173 3.77791 3.55247
# Velocity P-wave (km/s) = 5.90810 7.18368 6.57689
#
# Compressibility (1/GPa) = 0.02621229
#
# Stress axis : x y z
#
# Youngs Moduli (GPa) = 45.54333 38.08994 64.49835
#
# Poissons Ratio (x) = 0.09759 0.58434
# Poissons Ratio (y) = 0.11668 0.45985
# Poissons Ratio (z) = 0.41261 0.27157
#
# Static dielectric constant tensor:
#      x y z
#    x 1.653300 -0.008650 0.050650 
#    y -0.008650 1.707250 -0.011440 
#    z 0.050650 -0.011440 1.686340 
# 
# From -- ./inp_files/539736.got.cif
#   From: 2010.05.17/outbox.cif.g08.bks.cpg/sg2_270_cif.got.tgz:539736.got - 2010.06.03 11:33:40.
