data_PCOD9106698
_publ_section_title
;
Structure prediction by ZEFSAII (Michael W. Deem and Ramdas Pophale) SiO2 
 PCOD9106698
Probable space group: P -1
;
_chemical_formula_sum "Si O2"
_cell_formula_units_Z 16
_cell_length_a 5.151958
_cell_length_b 15.860040
_cell_length_c 9.385410
_cell_angle_alpha 103.998741
_cell_angle_beta 75.436155
_cell_angle_gamma 125.350863
_cell_volume 600.859391
_symmetry_space_group_name_H-M "P -1"
_symmetry_group_IT_number 2
_symmetry_cell_setting 'triclinic'
loop_
_space_group_symop_operation_xyz
x,y,z
-x,-y,-z
loop_
_atom_site_type_symbol
_atom_site_label
_atom_site_fract_x
_atom_site_fract_y
_atom_site_fract_z
Si Si1 0.316622 0.326776 0.485527
Si Si2 0.751157 0.245852 0.735558
Si Si3 0.180521 0.834349 0.010686
Si Si4 0.261447 0.470278 0.342580
Si Si5 0.156545 0.019440 0.194690
Si Si6 0.569260 0.916304 0.517636
Si Si7 0.968842 0.818033 0.754390
Si Si8 0.954097 0.520991 0.175368
O O1 0.175581 0.380965 0.431160
O O2 0.641798 0.425019 0.541725
O O3 0.326927 0.249869 0.340546
O O4 0.076421 0.266558 0.624367
O O5 0.750896 0.214484 0.885736
O O6 0.468415 0.156327 0.639342
O O7 0.792839 0.356607 0.775118
O O8 0.071188 0.907055 0.118838
O O9 0.504465 0.904374 0.902066
O O10 0.931710 0.766253 0.890872
O O11 0.026423 0.454189 0.242777
O O12 0.601285 0.497246 0.241331
O O13 0.169230 0.031941 0.369781
O O14 0.957192 0.066334 0.186485
O O15 0.260894 0.837618 0.626411
O O16 0.500000 0.000000 0.500000
O O17 0.000000 0.500000 0.000000
#
# Coordination Sequence:
#
# PCOD9106698 Si02
#       8
#     2   2   2   2   2   2   2   2
#     4   9  22  42  65  94 125 170 216 270 329 393
#     4  10  22  41  62  94 126 165 215 274 321 391
#     4  10  21  40  58  87 129 162 213 266 319 384
#     4  10  23  46  70  96 135 176 216 273 334 400
#     4  10  21  38  61  85 122 173 210 256 328 378
#     4  10  20  40  60  87 126 164 211 267 315 382
#     4  10  22  38  62  89 122 166 219 257 321 390
#     4  11  25  44  71 101 138 172 220 273 339 394
#
# _framework density 26.628523999999999
#
# number of rings (size 3 to 8) (size 9 to 14) (size 15 to 20)
#    0.000    2.000    1.250    0.750    3.500    6.000 
#    6.750    0.000    0.000    0.000    0.000    0.000 
#    0.000    0.000    0.000    0.000    0.000    0.000 
#
# Total GULP energy -89585.052049 kJ/mol
# GULP energy per Si atom -5599.065753 kJ/mol
# Density = 2.656792 g / cm^3
# Si number density = 26.628524 Si / 1000 Ang^3
#
#
#
# Elastic Constant Matrix: (Units=GPa)
#
#
# Indices 1 2 3 4 5 6 
#
# 1 66.3287 6.4697 42.9993 -10.5309 7.5937 -12.9084
# 2 6.4697 89.1819 41.9610 -4.0821 6.8303 -4.6942
# 3 42.9993 41.9610 202.4838 -31.9280 6.5678 -8.0693
# 4 -10.5309 -4.0821 -31.9280 46.9176 -6.5795 7.0689
# 5 7.5937 6.8303 6.5678 -6.5795 36.9181 -5.7159
# 6 -12.9084 -4.6942 -8.0693 7.0689 -5.7159 38.5904
#
#
#
# Elastic Compliance Matrix: (Units=1/GPa)
#
#
# Indices 1 2 3 4 5 6 
#
# 1 0.018834 0.000913 -0.003810 0.000594 -0.002463 0.005141
# 2 0.000913 0.012669 -0.002883 -0.001113 -0.002040 0.001145
# 3 -0.003810 -0.002883 0.006891 0.003792 0.000646 -0.000783
# 4 0.000594 -0.001113 0.003792 0.024883 0.003348 -0.003206
# 5 -0.002463 -0.002040 0.000646 0.003348 0.028875 0.002727
# 6 0.005141 0.001145 -0.000783 -0.003206 0.002727 0.028599
#
#
# Mechanical properties :
#
#
# Convention : Reuss Voigt Hill
#
# Bulk Modulus (GPa) = 37.26717 60.09491 48.68104
# Shear Modulus (GPa) = 35.39640 42.25619 38.82629
#
# Velocity S-wave (km/s) = 3.64987 3.98788 3.82261
# Velocity P-wave (km/s) = 5.63805 6.61975 6.14853
#
# Compressibility (1/GPa) = 0.02683327
#
# Stress axis : x y z
#
# Youngs Moduli (GPa) = 53.09449 78.93380 145.11584
#
# Poissons Ratio (x) = -0.07206 0.55295
# Poissons Ratio (y) = -0.04847 0.41837
# Poissons Ratio (z) = 0.20231 0.22757
#
# Static dielectric constant tensor:
#      x y z
#    x 2.172650 0.097550 0.022390 
#    y 0.097550 2.108120 0.053540 
#    z 0.022390 0.053540 2.075380 
# 
# From -- ./inp_files/48734.got.cif
#   From: 2010.05.17/outbox.cif.g08.bks.cpg/sg2_25_cif.got.tgz:48734.got - 2010.06.03 11:33:40.
