data_PCOD9106937
_publ_section_title
;
Structure prediction by ZEFSAII (Michael W. Deem and Ramdas Pophale) SiO2 
 PCOD9106937
Probable space group: P -1
;
_chemical_formula_sum "Si O2"
_cell_formula_units_Z 16
_cell_length_a 17.221757
_cell_length_b 6.981664
_cell_length_c 8.281046
_cell_angle_alpha 56.360542
_cell_angle_beta 63.110594
_cell_angle_gamma 51.401974
_cell_volume 639.090237
_symmetry_space_group_name_H-M "P -1"
_symmetry_group_IT_number 2
_symmetry_cell_setting 'triclinic'
loop_
_space_group_symop_operation_xyz
x,y,z
-x,-y,-z
loop_
_atom_site_type_symbol
_atom_site_label
_atom_site_fract_x
_atom_site_fract_y
_atom_site_fract_z
Si Si1 0.441088 0.908753 0.421062
Si Si2 0.750013 0.143548 0.927127
Si Si3 0.239761 0.383810 0.319048
Si Si4 0.451627 0.789595 0.826263
Si Si5 0.712818 0.162925 0.582205
Si Si6 0.048493 0.255657 0.931360
Si Si7 0.973376 0.338106 0.468382
Si Si8 0.117193 0.859895 0.750649
O O1 0.479430 0.766772 0.621739
O O2 0.396547 0.768524 0.413750
O O3 0.337770 0.190794 0.420412
O O4 0.512889 0.009597 0.231926
O O5 0.740948 0.408298 0.894261
O O6 0.718092 0.222410 0.734668
O O7 0.667918 0.083934 0.106659
O O8 0.862177 0.900361 0.953302
O O9 0.140723 0.572894 0.423440
O O10 0.226731 0.163776 0.335713
O O11 0.500000 0.500000 0.000000
O O12 0.769785 0.267199 0.362992
O O13 0.027501 0.540121 0.759815
O O14 0.100053 0.064834 0.815538
O O15 0.941676 0.278582 0.056293
O O16 0.000000 0.500000 0.500000
O O17 0.049819 0.034804 0.580369
#
# Coordination Sequence:
#
# PCOD9106937 Si02
#       8
#     2   2   2   2   2   2   2   2
#     4   9  21  41  65  86 122 157 191 248 307 351
#     4  12  23  37  65  91 120 158 204 244 308 359
#     4  10  19  39  61  82 123 164 191 240 303 350
#     4  11  20  39  71  91 112 159 202 245 301 367
#     4  10  22  40  60  89 127 159 193 255 298 356
#     4  10  20  33  62  89 114 167 206 244 295 357
#     4  10  16  34  61  81 117 163 202 245 293 346
#     4  10  19  35  62  83 120 167 204 243 302 348
#
# _framework density 25.035589999999999
#
# number of rings (size 3 to 8) (size 9 to 14) (size 15 to 20)
#    0.750    1.000    5.000    1.500    0.000    1.000 
#    0.000    1.250   19.250    0.000    0.000    0.000 
#    0.000    0.000    0.000    0.000    0.000    0.000 
#
# Total GULP energy -89382.137655 kJ/mol
# GULP energy per Si atom -5586.383603 kJ/mol
# Density = 2.497861 g / cm^3
# Si number density = 25.035590 Si / 1000 Ang^3
#
#
#
# Elastic Constant Matrix: (Units=GPa)
#
#
# Indices 1 2 3 4 5 6 
#
# 1 103.2451 10.8257 30.3177 3.8157 -17.1052 -15.7015
# 2 10.8257 55.8934 7.1088 -1.4249 1.5235 -2.5797
# 3 30.3177 7.1088 95.3333 -16.1315 -18.4465 -4.1807
# 4 3.8157 -1.4249 -16.1315 28.6831 -12.9476 10.6941
# 5 -17.1052 1.5235 -18.4465 -12.9476 50.4414 11.7736
# 6 -15.7015 -2.5797 -4.1807 10.6941 11.7736 21.4590
#
#
#
# Elastic Compliance Matrix: (Units=1/GPa)
#
#
# Indices 1 2 3 4 5 6 
#
# 1 0.015357 -0.001003 -0.008848 -0.020079 -0.008808 0.024231
# 2 -0.001003 0.018623 -0.002278 -0.003956 -0.003967 0.005209
# 3 -0.008848 -0.002278 0.022236 0.035246 0.021688 -0.031880
# 4 -0.020079 -0.003956 0.035246 0.124400 0.062549 -0.104614
# 5 -0.008808 -0.003967 0.021688 0.062549 0.056025 -0.064606
# 6 0.024231 0.005209 -0.031880 -0.104614 -0.064606 0.146326
#
#
# Mechanical properties :
#
#
# Convention : Reuss Voigt Hill
#
# Bulk Modulus (GPa) = 31.29163 38.99736 35.14450
# Shear Modulus (GPa) = 11.96524 33.86466 22.91495
#
# Velocity S-wave (km/s) = 2.18853 3.68184 3.02867
# Velocity P-wave (km/s) = 4.34882 5.80390 5.12823
#
# Compressibility (1/GPa) = 0.03195743
#
# Stress axis : x y z
#
# Youngs Moduli (GPa) = 65.11676 53.69754 44.97242
#
# Poissons Ratio (x) = 0.05383 0.39793
# Poissons Ratio (y) = 0.06528 0.10246
# Poissons Ratio (z) = 0.57618 0.12234
#
# Static dielectric constant tensor:
#      x y z
#    x 2.018270 0.029210 -0.007470 
#    y 0.029210 1.995840 0.003360 
#    z -0.007470 0.003360 1.999230 
# 
# From -- ./inp_files/327070.got.cif
#   From: 2010.05.17/outbox.cif.g08.bks.cpg/sg2_164_cif.got.tgz:327070.got - 2010.06.03 11:33:40.
