data_PCOD9106678
_publ_section_title
;
Structure prediction by ZEFSAII (Michael W. Deem and Ramdas Pophale) SiO2 
 PCOD9106678
Probable space group: P -1
;
_chemical_formula_sum "Si O2"
_cell_formula_units_Z 14
_cell_length_a 13.248043
_cell_length_b 8.189574
_cell_length_c 12.753464
_cell_angle_alpha 41.492881
_cell_angle_beta 45.175581
_cell_angle_gamma 72.717276
_cell_volume 566.275737
_symmetry_space_group_name_H-M "P -1"
_symmetry_group_IT_number 2
_symmetry_cell_setting 'triclinic'
loop_
_space_group_symop_operation_xyz
x,y,z
-x,-y,-z
loop_
_atom_site_type_symbol
_atom_site_label
_atom_site_fract_x
_atom_site_fract_y
_atom_site_fract_z
Si Si1 0.763097 0.719158 0.107081
Si Si2 0.365142 0.898863 0.943635
Si Si3 0.191773 0.329226 0.236081
Si Si4 0.984136 0.218257 0.260222
Si Si5 0.829218 0.725831 0.290060
Si Si6 0.719396 0.130226 0.637186
Si Si7 0.450367 0.188190 0.514857
O O1 0.739702 0.633727 0.286797
O O2 0.606186 0.496712 0.265080
O O3 0.765688 0.018948 0.954875
O O4 0.925820 0.725595 0.941742
O O5 0.530428 0.035674 0.822586
O O6 0.413019 0.048917 0.723507
O O7 0.302581 0.576724 0.114034
O O8 0.112032 0.423068 0.156490
O O9 0.271286 0.154351 0.208429
O O10 0.050256 0.089826 0.526524
O O11 0.810450 0.193463 0.424418
O O12 0.819982 0.434123 0.475398
O O13 0.711914 0.802201 0.406952
O O14 0.000000 0.000000 0.000000
O O15 0.500000 0.000000 0.500000
#
# Coordination Sequence:
#
# PCOD9106678 Si02
#       7
#     2   2   2   2   2   2   2
#     4  11  22  40  60  90 122 156 199 249 302 356
#     4  11  20  39  63  84 122 156 201 246 295 355
#     4   9  21  39  64  84 118 167 201 235 302 347
#     4   9  22  38  62  85 120 160 202 245 287 356
#     4  11  24  39  62  92 122 157 195 258 303 346
#     4  10  20  40  60  84 124 152 202 244 293 352
#     4  11  23  39  62  88 121 160 198 242 308 361
#
# _framework density 24.722937999999999
#
# number of rings (size 3 to 8) (size 9 to 14) (size 15 to 20)
#    0.857    0.857    2.857    2.143    6.000    2.286 
#    0.000    0.714    0.000    0.000    0.000    0.000 
#    0.000    0.000    0.000    0.000    0.000    0.000 
#
# Total GULP energy -78056.177673 kJ/mol
# GULP energy per Si atom -5575.441262 kJ/mol
# Density = 2.466667 g / cm^3
# Si number density = 24.722938 Si / 1000 Ang^3
#
#
#
# Elastic Constant Matrix: (Units=GPa)
#
#
# Indices 1 2 3 4 5 6 
#
# 1 13.2727 9.2231 3.0367 -5.2170 -6.1512 -2.4284
# 2 9.2231 150.9129 29.5057 -6.6930 -17.6058 -17.3750
# 3 3.0367 29.5057 63.0334 -16.9356 -16.5182 8.6529
# 4 -5.2170 -6.6930 -16.9356 53.7037 6.6641 -1.4377
# 5 -6.1512 -17.6058 -16.5182 6.6641 31.1126 7.0440
# 6 -2.4284 -17.3750 8.6529 -1.4377 7.0440 25.8141
#
#
#
# Elastic Compliance Matrix: (Units=1/GPa)
#
#
# Indices 1 2 3 4 5 6 
#
# 1 0.087221 -0.003817 0.003391 0.007205 0.015169 0.000762
# 2 -0.003817 0.008625 -0.005008 -0.000687 0.000011 0.007084
# 3 0.003391 -0.005008 0.025048 0.005560 0.013286 -0.014763
# 4 0.007205 -0.000687 0.005560 0.021033 -0.000436 -0.000358
# 5 0.015169 0.000011 0.013286 -0.000436 0.045813 -0.015545
# 6 0.000762 0.007084 -0.014763 -0.000358 -0.015545 0.052749
#
#
# Mechanical properties :
#
#
# Convention : Reuss Voigt Hill
#
# Bulk Modulus (GPa) = 9.08868 34.52778 21.80823
# Shear Modulus (GPa) = 17.35929 34.48964 25.92446
#
# Velocity S-wave (km/s) = 2.65269 3.73908 3.24172
# Velocity P-wave (km/s) = 3.61477 5.71290 4.78036
#
# Compressibility (1/GPa) = 0.11002696
#
# Stress axis : x y z
#
# Youngs Moduli (GPa) = 11.46517 115.94193 39.92403
#
# Poissons Ratio (x) = 0.44251 -0.13538
# Poissons Ratio (y) = 0.04376 0.19992
# Poissons Ratio (z) = -0.03888 0.58058
#
# Static dielectric constant tensor:
#      x y z
#    x 2.041340 -0.045960 -0.001130 
#    y -0.045960 2.037600 -0.055840 
#    z -0.001130 -0.055840 2.005510 
# 
# From -- ./inp_files/168827.got.cif
#   From: 2010.05.17/outbox.cif.g08.bks.cpg/sg2_85_cif.got.tgz:168827.got - 2010.06.03 11:33:40.
