data_PCOD9106822
_publ_section_title
;
Structure prediction by ZEFSAII (Michael W. Deem and Ramdas Pophale) SiO2 
 PCOD9106822
Probable space group: P -1
;
_chemical_formula_sum "Si O2"
_cell_formula_units_Z 16
_cell_length_a 12.483572
_cell_length_b 11.125438
_cell_length_c 14.763298
_cell_angle_alpha 108.812555
_cell_angle_beta 104.549683
_cell_angle_gamma 23.431482
_cell_volume 766.338435
_symmetry_space_group_name_H-M "P -1"
_symmetry_group_IT_number 2
_symmetry_cell_setting 'triclinic'
loop_
_space_group_symop_operation_xyz
x,y,z
-x,-y,-z
loop_
_atom_site_type_symbol
_atom_site_label
_atom_site_fract_x
_atom_site_fract_y
_atom_site_fract_z
Si Si1 0.319940 0.832348 0.730041
Si Si2 0.769574 0.136033 0.478762
Si Si3 0.727687 0.359070 0.044460
Si Si4 0.982745 0.580987 0.837162
Si Si5 0.424954 0.217866 0.967176
Si Si6 0.204871 0.487798 0.179785
Si Si7 0.594497 0.265973 0.666066
Si Si8 0.113715 0.664505 0.748309
O O1 0.213310 0.956006 0.634131
O O2 0.570931 0.661700 0.760536
O O3 0.434646 0.569453 0.706001
O O4 0.059441 0.148598 0.810075
O O5 0.500000 0.500000 0.500000
O O6 0.736890 0.099555 0.558057
O O7 0.000000 0.000000 0.500000
O O8 0.691932 0.520711 0.016003
O O9 0.753013 0.385483 0.158104
O O10 0.500000 0.500000 0.000000
O O11 0.000000 0.000000 0.000000
O O12 0.900919 0.521902 0.788197
O O13 0.252736 0.304293 0.887943
O O14 0.034718 0.616721 0.770792
O O15 0.735365 0.895739 0.921836
O O16 0.347082 0.280516 0.069927
O O17 0.362321 0.403798 0.667107
O O18 0.839019 0.005607 0.727575
#
# Coordination Sequence:
#
# PCOD9106822 Si02
#       8
#     2   2   2   2   2   2   2   2
#     4  11  24  38  61  97 121 149 195 257 319 350
#     4  10  20  40  61  89 127 158 186 241 312 373
#     4  11  23  36  53  83 127 157 184 249 301 344
#     4  11  23  44  59  83 120 165 215 245 294 341
#     4  11  23  40  58  85 115 167 212 242 298 351
#     4  12  24  39  65  87 119 159 208 265 287 354
#     4  11  22  39  65  91 122 156 197 241 301 392
#     4  11  23  38  62  87 118 164 206 238 289 372
#
# _framework density 20.878504
#
# number of rings (size 3 to 8) (size 9 to 14) (size 15 to 20)
#    0.000    1.000    0.000    9.750    5.250    0.000 
#    0.000    0.000    0.000    4.500    0.000    0.000 
#    0.000    0.000    0.000    0.000    0.000    0.000 
#
# Total GULP energy -89389.764640 kJ/mol
# GULP energy per Si atom -5586.860290 kJ/mol
# Density = 2.083098 g / cm^3
# Si number density = 20.878504 Si / 1000 Ang^3
#
#
#
# Elastic Constant Matrix: (Units=GPa)
#
#
# Indices 1 2 3 4 5 6 
#
# 1 108.2785 39.5318 52.3900 -12.8949 -19.7858 -20.5847
# 2 39.5318 136.3010 22.3416 -12.6121 -12.3198 -23.3608
# 3 52.3900 22.3416 64.5212 -7.1591 -25.6412 -8.6813
# 4 -12.8949 -12.6121 -7.1591 35.2418 -5.4098 0.4517
# 5 -19.7858 -12.3198 -25.6412 -5.4098 32.8108 -0.6033
# 6 -20.5847 -23.3608 -8.6813 0.4517 -0.6033 40.5753
#
#
#
# Elastic Compliance Matrix: (Units=1/GPa)
#
#
# Indices 1 2 3 4 5 6 
#
# 1 0.017187 -0.001749 -0.011847 0.003358 0.001098 0.005156
# 2 -0.001749 0.009130 0.000595 0.003220 0.003452 0.004512
# 3 -0.011847 0.000595 0.034051 0.005950 0.020705 0.001859
# 4 0.003358 0.003220 0.005950 0.033989 0.013574 0.004654
# 5 0.001098 0.003452 0.020705 0.013574 0.050994 0.007581
# 6 0.005156 0.004512 0.001859 0.004654 0.007581 0.030318
#
#
# Mechanical properties :
#
#
# Convention : Reuss Voigt Hill
#
# Bulk Modulus (GPa) = 29.09882 59.73641 44.41762
# Shear Modulus (GPa) = 23.46026 34.71476 29.08751
#
# Velocity S-wave (km/s) = 3.35573 4.08205 3.73658
# Velocity P-wave (km/s) = 5.38350 7.13380 6.31954
#
# Compressibility (1/GPa) = 0.03436565
#
# Stress axis : x y z
#
# Youngs Moduli (GPa) = 58.18311 109.53188 29.36771
#
# Poissons Ratio (x) = 0.19159 0.34793
# Poissons Ratio (y) = 0.10177 -0.01748
# Poissons Ratio (z) = 0.68931 -0.06521
#
# Static dielectric constant tensor:
#      x y z
#    x 1.757120 0.007260 -0.060900 
#    y 0.007260 1.745350 0.039220 
#    z -0.060900 0.039220 1.831240 
# 
# From -- ./inp_files/437275.got.cif
#   From: 2010.05.17/outbox.cif.g08.bks.cpg/sg2_219_cif.got.tgz:437275.got - 2010.06.03 11:33:40.
