data_PCOD9106979
_publ_section_title
;
Structure prediction by ZEFSAII (Michael W. Deem and Ramdas Pophale) SiO2 
 PCOD9106979
Probable space group: P -1
;
_chemical_formula_sum "Si O2"
_cell_formula_units_Z 14
_cell_length_a 10.905323
_cell_length_b 16.687055
_cell_length_c 9.491472
_cell_angle_alpha 137.918536
_cell_angle_beta 54.584943
_cell_angle_gamma 150.850482
_cell_volume 551.213981
_symmetry_space_group_name_H-M "P -1"
_symmetry_group_IT_number 2
_symmetry_cell_setting 'triclinic'
loop_
_space_group_symop_operation_xyz
x,y,z
-x,-y,-z
loop_
_atom_site_type_symbol
_atom_site_label
_atom_site_fract_x
_atom_site_fract_y
_atom_site_fract_z
Si Si1 0.952250 0.171572 0.808651
Si Si2 0.498714 0.144435 0.499223
Si Si3 0.527634 0.599780 0.247233
Si Si4 0.756366 0.239624 0.191362
Si Si5 0.808380 0.039732 0.283468
Si Si6 0.257981 0.496762 0.555546
Si Si7 0.791568 0.905193 0.828643
O O1 0.200801 0.271857 0.707076
O O2 0.753841 0.075323 0.692659
O O3 0.838327 0.002943 0.777338
O O4 0.987376 0.311666 0.065778
O O5 0.469665 0.262892 0.626153
O O6 0.732807 0.241333 0.378210
O O7 0.454746 0.112143 0.652231
O O8 0.317560 0.459356 0.325209
O O9 0.500000 0.500000 0.000000
O O10 0.759574 0.373800 0.299767
O O11 0.500000 0.000000 0.000000
O O12 0.997800 0.272289 0.491190
O O13 0.966921 0.025583 0.214188
O O14 0.765583 0.983723 0.074880
O O15 0.521661 0.660286 0.682856
#
# Coordination Sequence:
#
# PCOD9106979 Si02
#       7
#     2   2   2   2   2   2   2
#     4  11  19  40  69  87 118 171 208 252 311 367
#     4  10  20  40  62  90 122 162 208 257 304 365
#     4  11  21  35  64  96 120 155 216 258 297 371
#     4   9  19  39  71  87 118 169 216 249 306 373
#     4  11  24  37  60  98 129 161 203 264 316 368
#     4  11  22  41  64  93 126 168 206 257 314 378
#     4  11  21  38  63  88 131 164 203 254 324 361
#
# _framework density 25.398485000000001
#
# number of rings (size 3 to 8) (size 9 to 14) (size 15 to 20)
#    0.000    1.429    5.714    2.571    2.000    0.000 
#    0.000   10.000    3.143    0.000    0.000    0.000 
#    0.000    0.000    0.000    0.000    0.000    0.000 
#
# Total GULP energy -78363.998939 kJ/mol
# GULP energy per Si atom -5597.428496 kJ/mol
# Density = 2.534068 g / cm^3
# Si number density = 25.398485 Si / 1000 Ang^3
#
#
#
# Elastic Constant Matrix: (Units=GPa)
#
#
# Indices 1 2 3 4 5 6 
#
# 1 56.3303 6.8064 23.4573 -8.9609 -17.4733 3.7220
# 2 6.8064 80.2101 27.0643 -25.8547 -5.1844 -7.5988
# 3 23.4573 27.0643 137.6199 -23.7631 -15.3685 -1.1128
# 4 -8.9609 -25.8547 -23.7631 29.9931 7.2198 4.8311
# 5 -17.4733 -5.1844 -15.3685 7.2198 50.7536 -2.0475
# 6 3.7220 -7.5988 -1.1128 4.8311 -2.0475 26.4608
#
#
#
# Elastic Compliance Matrix: (Units=1/GPa)
#
#
# Indices 1 2 3 4 5 6 
#
# 1 0.021401 0.000311 -0.002403 0.003841 0.005994 -0.003259
# 2 0.000311 0.017540 -0.001096 0.014046 -0.000336 0.002357
# 3 -0.002403 -0.001096 0.008901 0.005228 0.000993 -0.000480
# 4 0.003841 0.014046 0.005228 0.052542 -0.003382 -0.006141
# 5 0.005994 -0.000336 0.000993 -0.003382 0.022573 0.001466
# 6 -0.003259 0.002357 -0.000480 -0.006141 0.001466 0.040141
#
#
# Mechanical properties :
#
#
# Convention : Reuss Voigt Hill
#
# Bulk Modulus (GPa) = 24.11507 43.20181 33.65844
# Shear Modulus (GPa) = 27.27842 35.89699 31.58771
#
# Velocity S-wave (km/s) = 3.28078 3.76354 3.53042
# Velocity P-wave (km/s) = 4.88535 5.99434 5.46803
#
# Compressibility (1/GPa) = 0.04146785
#
# Stress axis : x y z
#
# Youngs Moduli (GPa) = 46.72653 57.01416 112.34438
#
# Poissons Ratio (x) = -0.01775 0.26994
# Poissons Ratio (y) = -0.01455 0.12307
# Poissons Ratio (z) = 0.11228 0.06246
#
# Static dielectric constant tensor:
#      x y z
#    x 2.071870 0.074230 0.054530 
#    y 0.074230 2.023200 0.046670 
#    z 0.054530 0.046670 2.053600 
# 
# From -- ./inp_files/186035.got.cif
#   From: 2010.05.17/outbox.cif.g08.bks.cpg/sg2_94_cif.got.tgz:186035.got - 2010.06.03 11:33:40.
