data_PCOD9106641
_publ_section_title
;
Structure prediction by ZEFSAII (Michael W. Deem and Ramdas Pophale) SiO2 
 PCOD9106641
Probable space group: P -1
;
_chemical_formula_sum "Si O2"
_cell_formula_units_Z 16
_cell_length_a 8.331140
_cell_length_b 12.690958
_cell_length_c 18.842703
_cell_angle_alpha 141.471407
_cell_angle_beta 127.985693
_cell_angle_gamma 80.987672
_cell_volume 733.403098
_symmetry_space_group_name_H-M "P -1"
_symmetry_group_IT_number 2
_symmetry_cell_setting 'triclinic'
loop_
_space_group_symop_operation_xyz
x,y,z
-x,-y,-z
loop_
_atom_site_type_symbol
_atom_site_label
_atom_site_fract_x
_atom_site_fract_y
_atom_site_fract_z
Si Si1 0.139529 0.262334 0.593615
Si Si2 0.902991 0.202574 0.893371
Si Si3 0.146155 0.634511 0.816197
Si Si4 0.140401 0.140607 0.377140
Si Si5 0.255995 0.037674 0.122547
Si Si6 0.355531 0.040342 0.591410
Si Si7 0.747085 0.361945 0.697101
Si Si8 0.158779 0.476793 0.472142
O O1 0.275250 0.520410 0.778001
O O2 0.046236 0.177945 0.443308
O O3 0.326171 0.209451 0.640618
O O4 0.870849 0.103413 0.484826
O O5 0.643356 0.152388 0.762318
O O6 0.997452 0.109142 0.815717
O O7 0.810300 0.056612 0.864369
O O8 0.124728 0.462278 0.111864
O O9 0.946560 0.502917 0.759389
O O10 0.974629 0.571852 0.665990
O O11 0.309392 0.893419 0.016489
O O12 0.454782 0.269125 0.545823
O O13 0.129131 0.267999 0.378309
O O14 0.526617 0.297417 0.327831
O O15 0.000000 0.000000 0.000000
O O16 0.275661 0.852170 0.413260
O O17 0.000000 0.500000 0.500000
#
# Coordination Sequence:
#
# PCOD9106641 Si02
#       8
#     2   2   2   2   2   2   2   2
#     4  10  20  40  59  89 117 158 185 252 306 342
#     4  10  21  39  62  88 114 156 206 236 286 358
#     4  10  21  41  60  85 124 159 202 241 294 362
#     4  11  22  37  58  87 123 148 193 252 297 345
#     4  11  23  40  64  88 120 167 207 240 294 362
#     4   9  20  40  66  79 118 155 202 236 296 360
#     4   9  20  39  61  87 115 156 198 243 285 353
#     4  12  23  37  59  91 123 158 199 247 305 352
#
# _framework density 21.816105
#
# number of rings (size 3 to 8) (size 9 to 14) (size 15 to 20)
#    0.000    1.750    1.250    4.500    0.000    4.000 
#    2.250   15.000    0.000    0.000    0.000    0.000 
#    0.000    0.000    0.000    0.000    0.000    0.000 
#
# Total GULP energy -89465.587784 kJ/mol
# GULP energy per Si atom -5591.599237 kJ/mol
# Density = 2.176645 g / cm^3
# Si number density = 21.816105 Si / 1000 Ang^3
#
#
#
# Elastic Constant Matrix: (Units=GPa)
#
#
# Indices 1 2 3 4 5 6 
#
# 1 55.7871 24.7779 31.4119 20.3783 -19.6964 -5.1168
# 2 24.7779 108.9045 32.3239 5.2922 -12.5503 -27.0937
# 3 31.4119 32.3239 91.0556 2.6694 -29.4502 -13.4147
# 4 20.3783 5.2922 2.6694 14.4906 -7.5999 -8.6761
# 5 -19.6964 -12.5503 -29.4502 -7.5999 41.2655 7.5241
# 6 -5.1168 -27.0937 -13.4147 -8.6761 7.5241 38.3152
#
#
#
# Elastic Compliance Matrix: (Units=1/GPa)
#
#
# Indices 1 2 3 4 5 6 
#
# 1 0.079649 -0.013782 -0.024095 -0.123687 0.000346 -0.035620
# 2 -0.013782 0.014339 0.001076 0.022213 0.000148 0.013676
# 3 -0.024095 0.001076 0.023089 0.042796 0.010779 0.013201
# 4 -0.123687 0.022213 0.042796 0.280031 0.016271 0.074388
# 5 0.000346 0.000148 0.010779 0.016271 0.034999 0.000736
# 6 -0.035620 0.013676 0.013201 0.074388 0.000736 0.052335
#
#
# Mechanical properties :
#
#
# Convention : Reuss Voigt Hill
#
# Bulk Modulus (GPa) = 23.00125 48.08607 35.54366
# Shear Modulus (GPa) = 8.73309 29.96315 19.34812
#
# Velocity S-wave (km/s) = 2.00293 3.71002 2.98127
# Velocity P-wave (km/s) = 3.98938 6.35938 5.30833
#
# Compressibility (1/GPa) = 0.04347590
#
# Stress axis : x y z
#
# Youngs Moduli (GPa) = 12.55501 69.74109 43.31049
#
# Poissons Ratio (x) = 0.96115 1.04355
# Poissons Ratio (y) = 0.17303 -0.04659
# Poissons Ratio (z) = 0.30251 -0.07502
#
# Static dielectric constant tensor:
#      x y z
#    x 1.823750 -0.005550 -0.040720 
#    y -0.005550 1.794470 0.030670 
#    z -0.040720 0.030670 1.765210 
# 
# From -- ./inp_files/270796.got.cif
#   From: 2010.05.17/outbox.cif.g08.bks.cpg/sg2_136_cif.got.tgz:270796.got - 2010.06.03 11:33:40.
