data_PCOD9106933
_publ_section_title
;
Structure prediction by ZEFSAII (Michael W. Deem and Ramdas Pophale) SiO2 
 PCOD9106933
Probable space group: P -1
;
_chemical_formula_sum "Si O2"
_cell_formula_units_Z 16
_cell_length_a 10.076519
_cell_length_b 13.769700
_cell_length_c 13.977065
_cell_angle_alpha 90.632266
_cell_angle_beta 113.138173
_cell_angle_gamma 144.890139
_cell_volume 797.643997
_symmetry_space_group_name_H-M "P -1"
_symmetry_group_IT_number 2
_symmetry_cell_setting 'triclinic'
loop_
_space_group_symop_operation_xyz
x,y,z
-x,-y,-z
loop_
_atom_site_type_symbol
_atom_site_label
_atom_site_fract_x
_atom_site_fract_y
_atom_site_fract_z
Si Si1 0.419407 0.179612 0.276102
Si Si2 0.744666 0.220112 0.879154
Si Si3 0.743234 0.760266 0.413454
Si Si4 0.102007 0.490340 0.177472
Si Si5 0.154325 0.726101 0.693142
Si Si6 0.822059 0.701898 0.031291
Si Si7 0.439788 0.340002 0.429264
Si Si8 0.492961 0.554791 0.741738
O O1 0.666401 0.241650 0.326330
O O2 0.361752 0.183577 0.368008
O O3 0.563579 0.363364 0.267164
O O4 0.074215 0.936978 0.136122
O O5 0.768268 0.326316 0.816803
O O6 0.396456 0.960770 0.781731
O O7 0.866334 0.319230 0.021630
O O8 0.987231 0.284052 0.909710
O O9 0.413989 0.608752 0.276805
O O10 0.696853 0.707347 0.511023
O O11 0.793777 0.694733 0.362118
O O12 0.000000 0.000000 0.500000
O O13 0.928195 0.376281 0.230088
O O14 0.824448 0.564682 0.551931
O O15 0.708255 0.652705 0.891025
O O16 0.500000 0.500000 0.000000
O O17 0.325064 0.336658 0.308237
#
# Coordination Sequence:
#
# PCOD9106933 Si02
#       8
#     2   2   2   2   2   2   2   2
#     4   9  22  38  62  87 120 157 200 245 306 362
#     4  10  22  40  59  87 120 161 204 250 301 358
#     4  11  23  40  61  92 124 156 203 255 299 363
#     4  10  22  40  59  87 120 161 204 250 301 358
#     4  10  20  40  62  88 118 159 201 254 298 372
#     4  11  23  40  61  92 124 156 203 255 299 363
#     4   9  22  38  62  87 120 157 200 245 306 362
#     4  10  22  39  61  86 123 159 206 242 306 362
#
# _framework density 20.059073999999999
#
# number of rings (size 3 to 8) (size 9 to 14) (size 15 to 20)
#    0.750    1.250    1.250    1.500    5.250    0.000 
#    0.000    0.000    0.000    6.750    0.000    0.000 
#    0.000    0.000    0.000    0.000    0.000    0.000 
#
# Total GULP energy -89108.058384 kJ/mol
# GULP energy per Si atom -5569.253649 kJ/mol
# Density = 2.001342 g / cm^3
# Si number density = 20.059074 Si / 1000 Ang^3
#
#
#
# Elastic Constant Matrix: (Units=GPa)
#
#
# Indices 1 2 3 4 5 6 
#
# 1 62.0023 30.4016 35.3054 5.0894 -17.9468 -16.6493
# 2 30.4016 91.4866 54.6905 -2.8743 -1.2095 -18.2888
# 3 35.3054 54.6905 120.9622 1.8806 -16.9812 -7.7892
# 4 5.0894 -2.8743 1.8806 35.8089 -10.7151 -1.7104
# 5 -17.9468 -1.2095 -16.9812 -10.7151 24.2130 5.8545
# 6 -16.6493 -18.2888 -7.7892 -1.7104 5.8545 29.8287
#
#
#
# Elastic Compliance Matrix: (Units=1/GPa)
#
#
# Indices 1 2 3 4 5 6 
#
# 1 0.027217 -0.005717 -0.002522 0.001193 0.016760 0.007807
# 2 -0.005717 0.019190 -0.007998 -0.000114 -0.011029 0.008645
# 3 -0.002522 -0.007998 0.013570 0.001478 0.008977 -0.004445
# 4 0.001193 -0.000114 0.001478 0.032564 0.016416 -0.000373
# 5 0.016760 -0.011029 0.008977 0.016416 0.068564 -0.007579
# 6 0.007807 0.008645 -0.004445 -0.000373 -0.007579 0.043488
#
#
# Mechanical properties :
#
#
# Convention : Reuss Voigt Hill
#
# Bulk Modulus (GPa) = 36.35838 57.24956 46.80397
# Shear Modulus (GPa) = 20.30576 28.24034 24.27305
#
# Velocity S-wave (km/s) = 3.18511 3.75621 3.48239
# Velocity P-wave (km/s) = 5.62953 6.88583 6.28913
#
# Compressibility (1/GPa) = 0.02750398
#
# Stress axis : x y z
#
# Youngs Moduli (GPa) = 36.74114 52.11044 73.69141
#
# Poissons Ratio (x) = 0.29792 0.18586
# Poissons Ratio (y) = 0.21005 0.58935
# Poissons Ratio (z) = 0.09267 0.41675
#
# Static dielectric constant tensor:
#      x y z
#    x 1.742230 -0.059970 -0.042900 
#    y -0.059970 1.783370 0.028290 
#    z -0.042900 0.028290 1.695670 
# 
# From -- ./inp_files/521608.got.cif
#   From: 2010.05.17/outbox.cif.g08.bks.cpg/sg2_261_cif.got.tgz:521608.got - 2010.06.03 11:33:40.
