data_PCOD9106179
_publ_section_title
;
Structure prediction by ZEFSAII (Michael W. Deem and Ramdas Pophale) SiO2 
 PCOD9106179
Probable space group: P -1
;
_chemical_formula_sum "Si O2"
_cell_formula_units_Z 14
_cell_length_a 11.405128
_cell_length_b 20.401273
_cell_length_c 8.108471
_cell_angle_alpha 136.643162
_cell_angle_beta 112.714269
_cell_angle_gamma 32.983333
_cell_volume 564.790401
_symmetry_space_group_name_H-M "P -1"
_symmetry_group_IT_number 2
_symmetry_cell_setting 'triclinic'
loop_
_space_group_symop_operation_xyz
x,y,z
-x,-y,-z
loop_
_atom_site_type_symbol
_atom_site_label
_atom_site_fract_x
_atom_site_fract_y
_atom_site_fract_z
Si Si1 0.737448 0.589722 0.659341
Si Si2 0.867609 0.484283 0.878218
Si Si3 0.412588 0.782366 0.391199
Si Si4 0.384133 0.181452 0.251325
Si Si5 0.718592 0.381610 0.181134
Si Si6 0.897628 0.259781 0.413201
Si Si7 0.959706 0.116827 0.510255
O O1 0.591280 0.770663 0.812903
O O2 0.707455 0.504032 0.411587
O O3 0.060664 0.395027 0.487439
O O4 0.661463 0.635869 0.893122
O O5 0.713940 0.555807 0.091126
O O6 0.015922 0.288865 0.548533
O O7 0.000000 0.500000 0.000000
O O8 0.454526 0.863780 0.610213
O O9 0.271194 0.810027 0.497874
O O10 0.215339 0.903819 0.351241
O O11 0.500000 0.000000 0.000000
O O12 0.892813 0.236753 0.174519
O O13 0.421369 0.534638 0.331773
O O14 0.837167 0.269482 0.864489
O O15 0.024824 0.113480 0.359768
#
# Coordination Sequence:
#
# PCOD9106179 Si02
#       7
#     2   2   2   2   2   2   2
#     4  10  23  40  66  94 129 173 217 273 326 388
#     4  11  22  42  63  91 131 166 219 266 319 399
#     4  11  24  42  62  96 130 167 217 270 330 387
#     4  11  23  42  64  94 130 175 220 265 329 392
#     4  10  20  39  67  98 126 165 224 267 322 396
#     4  10  22  38  68  96 124 173 219 263 327 394
#     4  11  23  42  66  96 133 169 214 276 330 382
#
# _framework density 24.787956999999999
#
# number of rings (size 3 to 8) (size 9 to 14) (size 15 to 20)
#    0.000    1.429    2.857    2.143    2.000    1.143 
#    7.714    2.857    0.000    0.000    0.000    0.000 
#    0.000    0.000    0.000    0.000    0.000    0.000 
#
# Total GULP energy -78183.680297 kJ/mol
# GULP energy per Si atom -5584.548593 kJ/mol
# Density = 2.473154 g / cm^3
# Si number density = 24.787957 Si / 1000 Ang^3
#
#
#
# Elastic Constant Matrix: (Units=GPa)
#
#
# Indices 1 2 3 4 5 6 
#
# 1 141.9422 37.2934 34.8708 -7.6176 22.3496 0.7637
# 2 37.2934 103.7256 13.9489 5.5279 15.8703 11.0960
# 3 34.8708 13.9489 68.2833 -10.6457 14.5426 -9.7591
# 4 -7.6176 5.5279 -10.6457 25.9152 -9.9443 13.3854
# 5 22.3496 15.8703 14.5426 -9.9443 47.9786 -3.8088
# 6 0.7637 11.0960 -9.7591 13.3854 -3.8088 60.2774
#
#
#
# Elastic Compliance Matrix: (Units=1/GPa)
#
#
# Indices 1 2 3 4 5 6 
#
# 1 0.008947 -0.002418 -0.003530 0.001224 -0.002095 -0.000644
# 2 -0.002418 0.011583 -0.001306 -0.004158 -0.003298 -0.001598
# 3 -0.003530 -0.001306 0.018242 0.004807 -0.002296 0.002026
# 4 0.001224 -0.004158 0.004807 0.049894 0.008976 -0.008984
# 5 -0.002095 -0.003298 -0.002296 0.008976 0.025456 -0.000123
# 6 -0.000644 -0.001598 0.002026 -0.008984 -0.000123 0.019208
#
#
# Mechanical properties :
#
#
# Convention : Reuss Voigt Hill
#
# Bulk Modulus (GPa) = 41.21162 54.01970 47.61566
# Shear Modulus (GPa) = 32.06695 42.02345 37.04520
#
# Velocity S-wave (km/s) = 3.60064 4.12189 3.87005
# Velocity P-wave (km/s) = 5.82648 6.67033 6.26264
#
# Compressibility (1/GPa) = 0.02426500
#
# Stress axis : x y z
#
# Youngs Moduli (GPa) = 111.77419 86.33489 54.81790
#
# Poissons Ratio (x) = 0.20873 0.19350
# Poissons Ratio (y) = 0.27024 0.07158
# Poissons Ratio (z) = 0.39455 0.11273
#
# Static dielectric constant tensor:
#      x y z
#    x 2.002060 0.034140 -0.054440 
#    y 0.034140 1.959180 0.000370 
#    z -0.054440 0.000370 2.028530 
# 
# From -- ./inp_files/283406.got.cif
#   From: 2010.05.17/outbox.cif.g08.bks.cpg/sg2_142_cif.got.tgz:283406.got - 2010.06.03 11:33:40.
