data_PCOD9106663
_publ_section_title
;
Structure prediction by ZEFSAII (Michael W. Deem and Ramdas Pophale) SiO2 
 PCOD9106663
Probable space group: P -1
;
_chemical_formula_sum "Si O2"
_cell_formula_units_Z 15
_cell_length_a 9.146376
_cell_length_b 19.423972
_cell_length_c 5.094027
_cell_angle_alpha 96.080792
_cell_angle_beta 104.712872
_cell_angle_gamma 51.615303
_cell_volume 684.530210
_symmetry_space_group_name_H-M "P -1"
_symmetry_group_IT_number 2
_symmetry_cell_setting 'triclinic'
loop_
_space_group_symop_operation_xyz
x,y,z
-x,-y,-z
loop_
_atom_site_type_symbol
_atom_site_label
_atom_site_fract_x
_atom_site_fract_y
_atom_site_fract_z
Si Si1 0.090339 0.749929 0.417056
Si Si2 0.950799 0.713727 0.818850
Si Si3 0.480915 0.715475 0.524081
Si Si4 0.094461 0.437872 0.267872
Si Si5 0.575995 0.175616 0.944695
Si Si6 0.410193 0.106328 0.178493
Si Si7 0.000000 0.000000 0.000000
Si Si8 0.199241 0.051890 0.734059
O O1 0.296786 0.718716 0.409758
O O2 0.092888 0.705066 0.664675
O O3 0.949680 0.856053 0.442338
O O4 0.002125 0.729143 0.134281
O O5 0.944102 0.633508 0.782272
O O6 0.739900 0.805062 0.695734
O O7 0.675384 0.620133 0.641492
O O8 0.430252 0.779682 0.769835
O O9 0.514207 0.751611 0.293417
O O10 0.000000 0.500000 0.500000
O O11 0.000000 0.500000 0.000000
O O12 0.467794 0.135515 0.959967
O O13 0.792597 0.098994 0.926667
O O14 0.614753 0.028980 0.370656
O O15 0.296909 0.070666 0.015136
O O16 0.086316 0.021481 0.801038
#
# Coordination Sequence:
#
# PCOD9106663 Si02
#       8
#     2   2   2   2   2   2   1   2
#     4  11  24  43  69 101 142 182 231 274 337 410
#     4  11  24  45  71 100 138 183 227 281 349 406
#     4  12  25  45  70 103 133 181 226 286 353 412
#     4  12  27  49  76 106 134 171 229 293 361 432
#     4  11  23  40  66  97 141 182 233 277 338 396
#     4   9  20  38  63  96 138 185 232 281 320 396
#     4  10  20  40  60 100 144 190 230 282 328 394
#     4   9  19  37  61  97 140 186 235 274 322 386
#
# _framework density 21.912839999999999
#
# number of rings (size 3 to 8) (size 9 to 14) (size 15 to 20)
#    0.000    1.333    2.667    2.400    5.600    1.067 
#    0.000    4.000    0.000    0.000    0.000    0.000 
#    0.000    0.000    0.000    0.000    0.000    0.000 
#
# Total GULP energy -83717.046458 kJ/mol
# GULP energy per Si atom -5581.136431 kJ/mol
# Density = 2.186296 g / cm^3
# Si number density = 21.912840 Si / 1000 Ang^3
#
#
#
# Elastic Constant Matrix: (Units=GPa)
#
#
# Indices 1 2 3 4 5 6 
#
# 1 84.4578 38.7489 12.6539 -4.6366 -3.3559 -8.0144
# 2 38.7489 119.4441 27.2785 -17.1170 13.3473 -1.2055
# 3 12.6539 27.2785 77.4312 0.9502 -5.8188 7.0303
# 4 -4.6366 -17.1170 0.9502 28.5077 3.3368 4.0132
# 5 -3.3559 13.3473 -5.8188 3.3368 24.5187 -6.6613
# 6 -8.0144 -1.2055 7.0303 4.0132 -6.6613 32.4028
#
#
#
# Elastic Compliance Matrix: (Units=1/GPa)
#
#
# Indices 1 2 3 4 5 6 
#
# 1 0.015302 -0.006031 -0.000298 -0.002725 0.007154 0.005433
# 2 -0.006031 0.014033 -0.004639 0.009486 -0.011827 -0.003569
# 3 -0.000298 -0.004639 0.015271 -0.003803 0.006130 -0.001829
# 4 -0.002725 0.009486 -0.003803 0.043251 -0.014451 -0.007823
# 5 0.007154 -0.011827 0.006130 -0.014451 0.055192 0.013136
# 6 0.005433 -0.003569 -0.001829 -0.007823 0.013136 0.036139
#
#
# Mechanical properties :
#
#
# Convention : Reuss Voigt Hill
#
# Bulk Modulus (GPa) = 44.11263 48.74395 46.42829
# Shear Modulus (GPa) = 23.95989 30.59596 27.27793
#
# Velocity S-wave (km/s) = 3.31027 3.74071 3.53205
# Velocity P-wave (km/s) = 5.89790 6.39921 6.15366
#
# Compressibility (1/GPa) = 0.02266925
#
# Stress axis : x y z
#
# Youngs Moduli (GPa) = 65.35004 71.25966 65.48303
#
# Poissons Ratio (x) = 0.42977 0.01953
# Poissons Ratio (y) = 0.39413 0.30379
# Poissons Ratio (z) = 0.01949 0.33059
#
# Static dielectric constant tensor:
#      x y z
#    x 1.812610 0.010230 0.039810 
#    y 0.010230 1.800500 -0.003700 
#    z 0.039810 -0.003700 1.800870 
# 
# From -- ./inp_files/44203.got.cif
#   From: 2010.05.17/outbox.cif.g08.bks.cpg/sg2_23_cif.got.tgz:44203.got - 2010.06.03 11:33:40.
