data_PCOD9106901
_publ_section_title
;
Structure prediction by ZEFSAII (Michael W. Deem and Ramdas Pophale) SiO2 
 PCOD9106901
Probable space group: P -1
;
_chemical_formula_sum "Si O2"
_cell_formula_units_Z 16
_cell_length_a 19.584131
_cell_length_b 11.083725
_cell_length_c 10.946326
_cell_angle_alpha 61.413017
_cell_angle_beta 154.031338
_cell_angle_gamma 130.419586
_cell_volume 752.233950
_symmetry_space_group_name_H-M "P -1"
_symmetry_group_IT_number 2
_symmetry_cell_setting 'triclinic'
loop_
_space_group_symop_operation_xyz
x,y,z
-x,-y,-z
loop_
_atom_site_type_symbol
_atom_site_label
_atom_site_fract_x
_atom_site_fract_y
_atom_site_fract_z
Si Si1 0.674669 0.695998 0.191662
Si Si2 0.656925 0.498432 0.830699
Si Si3 0.700061 0.778926 0.921939
Si Si4 0.339322 0.926440 0.675202
Si Si5 0.968239 0.433266 0.619532
Si Si6 0.135938 0.001375 0.492738
Si Si7 0.925287 0.231706 0.263754
Si Si8 0.454355 0.832014 0.316623
O O1 0.892458 0.747561 0.513116
O O2 0.700974 0.810943 0.292815
O O3 0.500000 0.500000 0.000000
O O4 0.661443 0.772486 0.006280
O O5 0.500000 0.500000 0.500000
O O6 0.676097 0.603521 0.931987
O O7 0.605864 0.310997 0.817822
O O8 0.871779 0.600341 0.077862
O O9 0.558438 0.796214 0.604077
O O10 0.915432 0.934659 0.166310
O O11 0.196278 0.969222 0.476784
O O12 0.233931 0.730316 0.605712
O O13 0.412178 0.999348 0.624268
O O14 0.500000 0.000000 0.000000
O O15 0.995828 0.579219 0.672846
O O16 0.000000 0.500000 0.500000
O O17 0.124967 0.877387 0.640318
O O18 0.720968 0.168578 0.910804
#
# Coordination Sequence:
#
# PCOD9106901 Si02
#       8
#     2   2   2   2   2   2   2   2
#     4  11  26  42  65  89 115 167 215 249 295 363
#     4   9  18  35  56  85 123 159 187 236 315 358
#     4  10  20  42  60  87 126 163 202 249 308 359
#     4  12  22  34  62  96 127 150 211 248 303 372
#     4  11  18  34  57  89 118 157 191 248 303 345
#     4  11  22  41  61  88 124 165 202 251 297 361
#     4  10  20  40  62  85 126 156 203 247 306 362
#     4  10  22  36  63  95 122 163 193 254 317 354
#
# _framework density 21.269978999999999
#
# number of rings (size 3 to 8) (size 9 to 14) (size 15 to 20)
#    0.000    1.500    3.750    3.000    3.500    0.500 
#    0.000    4.375    0.000    0.000    0.000    0.000 
#    0.000    0.000    0.000    0.000    0.000    0.000 
#
# Total GULP energy -89153.259792 kJ/mol
# GULP energy per Si atom -5572.078737 kJ/mol
# Density = 2.122157 g / cm^3
# Si number density = 21.269979 Si / 1000 Ang^3
#
#
#
# Elastic Constant Matrix: (Units=GPa)
#
#
# Indices 1 2 3 4 5 6 
#
# 1 36.8374 11.1609 12.5015 3.9363 1.5618 1.3522
# 2 11.1609 79.2768 35.7313 21.5696 6.2461 5.6684
# 3 12.5015 35.7313 127.4569 -2.6209 5.2431 9.1233
# 4 3.9363 21.5696 -2.6209 39.7462 -0.9254 1.6857
# 5 1.5618 6.2461 5.2431 -0.9254 22.1274 8.6685
# 6 1.3522 5.6684 9.1233 1.6857 8.6685 22.3029
#
#
#
# Elastic Compliance Matrix: (Units=1/GPa)
#
#
# Indices 1 2 3 4 5 6 
#
# 1 0.028858 -0.002616 -0.002110 -0.001612 -0.000975 0.000279
# 2 -0.002616 0.018264 -0.004891 -0.010069 -0.004198 -0.000090
# 3 -0.002110 -0.004891 0.009697 0.003648 0.000601 -0.003105
# 4 -0.001612 -0.010069 0.003648 0.031256 0.004563 -0.002972
# 5 -0.000975 -0.004198 0.000601 0.004563 0.054599 -0.020686
# 6 0.000279 -0.000090 -0.003105 -0.002972 -0.020686 0.054378
#
#
# Mechanical properties :
#
#
# Convention : Reuss Voigt Hill
#
# Bulk Modulus (GPa) = 26.60778 40.26207 33.43492
# Shear Modulus (GPa) = 21.85178 29.11380 25.48279
#
# Velocity S-wave (km/s) = 3.20871 3.70371 3.46506
# Velocity P-wave (km/s) = 5.12489 6.10410 5.63580
#
# Compressibility (1/GPa) = 0.03758300
#
# Stress axis : x y z
#
# Youngs Moduli (GPa) = 34.65189 54.75370 103.12970
#
# Poissons Ratio (x) = 0.14325 0.21762
# Poissons Ratio (y) = 0.09066 0.50444
# Poissons Ratio (z) = 0.07312 0.26782
#
# Static dielectric constant tensor:
#      x y z
#    x 1.621650 -0.089340 0.105880 
#    y -0.089340 1.823550 0.016300 
#    z 0.105880 0.016300 1.847900 
# 
# From -- ./inp_files/306893.got.cif
#   From: 2010.05.17/outbox.cif.g08.bks.cpg/sg2_154_cif.got.tgz:306893.got - 2010.06.03 11:33:40.
