data_PCOD9106955
_publ_section_title
;
Structure prediction by ZEFSAII (Michael W. Deem and Ramdas Pophale) SiO2 
 PCOD9106955
Probable space group: P -1
;
_chemical_formula_sum "Si O2"
_cell_formula_units_Z 14
_cell_length_a 7.880243
_cell_length_b 24.572887
_cell_length_c 15.969749
_cell_angle_alpha 158.306030
_cell_angle_beta 140.454385
_cell_angle_gamma 30.193297
_cell_volume 566.306600
_symmetry_space_group_name_H-M "P -1"
_symmetry_group_IT_number 2
_symmetry_cell_setting 'triclinic'
loop_
_space_group_symop_operation_xyz
x,y,z
-x,-y,-z
loop_
_atom_site_type_symbol
_atom_site_label
_atom_site_fract_x
_atom_site_fract_y
_atom_site_fract_z
Si Si1 0.545286 0.150737 0.200871
Si Si2 0.753212 0.176343 0.025454
Si Si3 0.816510 0.680419 0.870622
Si Si4 0.661304 0.194065 0.612582
Si Si5 0.579804 0.450326 0.664130
Si Si6 0.597867 0.505576 0.929636
Si Si7 0.976416 0.715597 0.571837
O O1 0.389059 0.208275 0.131146
O O2 0.409548 0.349542 0.474612
O O3 0.500000 0.000000 0.000000
O O4 0.955026 0.027968 0.190837
O O5 0.413194 0.215007 0.984266
O O6 0.675006 0.334452 0.157532
O O7 0.920848 0.190398 0.192611
O O8 0.185294 0.626745 0.937177
O O9 0.883444 0.482117 0.615358
O O10 0.736285 0.315082 0.759722
O O11 0.426531 0.166303 0.428521
O O12 0.397976 0.349960 0.805817
O O13 0.000000 0.000000 0.500000
O O14 0.739237 0.453541 0.815503
O O15 0.821527 0.344288 0.524091
#
# Coordination Sequence:
#
# PCOD9106955 Si02
#       7
#     2   2   2   2   2   2   2
#     4  12  25  33  58  97 131 168 200 253 314 374
#     4  11  22  40  64  96 129 170 205 248 325 384
#     4  10  20  40  62  88 131 164 206 249 310 386
#     4  10  24  44  66  89 118 170 222 258 309 368
#     4  11  23  43  61  98 133 160 209 262 321 379
#     4  10  24  41  65  94 125 165 210 265 314 367
#     4  10  21  42  69  87 128 176 205 259 311 377
#
# _framework density 24.721592999999999
#
# number of rings (size 3 to 8) (size 9 to 14) (size 15 to 20)
#    0.000    1.429    2.857    2.143    6.000    2.857 
#    0.000    0.714    0.000    0.000    0.000    0.000 
#    0.000    0.000    0.000    0.000    0.000    0.000 
#
# Total GULP energy -78338.974630 kJ/mol
# GULP energy per Si atom -5595.641045 kJ/mol
# Density = 2.466533 g / cm^3
# Si number density = 24.721593 Si / 1000 Ang^3
#
#
#
# Elastic Constant Matrix: (Units=GPa)
#
#
# Indices 1 2 3 4 5 6 
#
# 1 97.2132 29.6343 30.1546 15.1564 5.5194 27.6524
# 2 29.6343 119.5467 30.5090 31.1809 19.7460 20.3110
# 3 30.1546 30.5090 87.1504 17.3612 24.6620 29.5168
# 4 15.1564 31.1809 17.3612 55.9096 11.6827 3.3660
# 5 5.5194 19.7460 24.6620 11.6827 34.6807 0.4140
# 6 27.6524 20.3110 29.5168 3.3660 0.4140 48.5772
#
#
#
# Elastic Compliance Matrix: (Units=1/GPa)
#
#
# Indices 1 2 3 4 5 6 
#
# 1 0.013194 -0.001438 -0.002048 -0.001997 0.000914 -0.005534
# 2 -0.001438 0.011319 -0.000040 -0.004749 -0.004546 -0.003523
# 3 -0.002048 -0.000040 0.019911 -0.002264 -0.012921 -0.010649
# 4 -0.001997 -0.004749 -0.002264 0.022202 -0.002883 0.002984
# 5 0.000914 -0.004546 -0.012921 -0.002883 0.041328 0.009079
# 6 -0.005534 -0.003523 -0.010649 0.002984 0.009079 0.031395
#
#
# Mechanical properties :
#
#
# Convention : Reuss Voigt Hill
#
# Bulk Modulus (GPa) = 26.75750 53.83403 40.29576
# Shear Modulus (GPa) = 31.47449 42.07434 36.77442
#
# Velocity S-wave (km/s) = 3.57200 4.12992 3.86105
# Velocity P-wave (km/s) = 5.27819 6.67570 6.01765
#
# Compressibility (1/GPa) = 0.03737270
#
# Stress axis : x y z
#
# Youngs Moduli (GPa) = 75.79222 88.34348 50.22323
#
# Poissons Ratio (x) = 0.12702 0.10288
# Poissons Ratio (y) = 0.10898 0.00199
# Poissons Ratio (z) = 0.15526 0.00350
#
# Static dielectric constant tensor:
#      x y z
#    x 2.047560 -0.039600 -0.003850 
#    y -0.039600 1.947290 -0.023530 
#    z -0.003850 -0.023530 1.968840 
# 
# From -- ./inp_files/304313.got.cif
#   From: 2010.05.17/outbox.cif.g08.bks.cpg/sg2_153_cif.got.tgz:304313.got - 2010.06.03 11:33:40.
