data_PCOD9106588
_publ_section_title
;
Structure prediction by ZEFSAII (Michael W. Deem and Ramdas Pophale) SiO2 
 PCOD9106588
Probable space group: P -1
;
_chemical_formula_sum "Si O2"
_cell_formula_units_Z 16
_cell_length_a 21.353893
_cell_length_b 8.795538
_cell_length_c 8.564870
_cell_angle_alpha 71.154299
_cell_angle_beta 138.127111
_cell_angle_gamma 125.701220
_cell_volume 853.300624
_symmetry_space_group_name_H-M "P -1"
_symmetry_group_IT_number 2
_symmetry_cell_setting 'triclinic'
loop_
_space_group_symop_operation_xyz
x,y,z
-x,-y,-z
loop_
_atom_site_type_symbol
_atom_site_label
_atom_site_fract_x
_atom_site_fract_y
_atom_site_fract_z
Si Si1 0.192682 0.071029 0.973097
Si Si2 0.617179 0.532308 0.657576
Si Si3 0.036775 0.129909 0.872469
Si Si4 0.289746 0.852464 0.371963
Si Si5 0.364160 0.038471 0.770298
Si Si6 0.765907 0.565213 0.663965
Si Si7 0.193700 0.107135 0.594567
Si Si8 0.468275 0.841790 0.210986
O O1 0.293499 0.263186 0.174269
O O2 0.215748 0.907974 0.117063
O O3 0.084892 0.048852 0.862369
O O4 0.195000 0.106156 0.782884
O O5 0.500000 0.500000 0.500000
O O6 0.655330 0.538718 0.548581
O O7 0.613081 0.353012 0.787267
O O8 0.137197 0.334106 0.055700
O O9 0.920977 0.089077 0.604607
O O10 0.000000 0.000000 0.000000
O O11 0.257117 0.638641 0.357296
O O12 0.284680 0.895370 0.532102
O O13 0.422810 0.005530 0.536088
O O14 0.299227 0.111888 0.718814
O O15 0.473151 0.189846 0.820501
O O16 0.405768 0.937838 0.995691
O O17 0.801991 0.712814 0.537987
#
# Coordination Sequence:
#
# PCOD9106588 Si02
#       8
#     2   2   2   2   2   2   2   2
#     4  11  23  36  64  90 118 151 199 241 288 353
#     4  11  20  38  58  83 121 160 197 232 295 347
#     4   9  20  43  63  83 115 157 192 244 295 347
#     4  10  20  40  57  87 120 151 196 235 295 342
#     4   9  20  39  59  83 120 160 192 239 295 336
#     4  10  23  37  62  86 117 153 201 241 290 352
#     4  11  22  40  63  85 116 155 200 240 295 345
#     4   9  20  36  61  81 124 155 193 238 288 341
#
# _framework density 18.750717999999999
#
# number of rings (size 3 to 8) (size 9 to 14) (size 15 to 20)
#    0.750    1.250    1.250    3.375    3.500    1.500 
#    0.000    8.125    0.000    0.000    0.000    0.000 
#    0.000    0.000    0.000    0.000    0.000    0.000 
#
# Total GULP energy -89116.220466 kJ/mol
# GULP energy per Si atom -5569.763779 kJ/mol
# Density = 1.870804 g / cm^3
# Si number density = 18.750718 Si / 1000 Ang^3
#
#
#
# Elastic Constant Matrix: (Units=GPa)
#
#
# Indices 1 2 3 4 5 6 
#
# 1 92.2644 31.9527 19.9115 -8.1926 -10.1368 4.4559
# 2 31.9527 73.3386 7.9094 -12.3372 -3.8327 -3.0464
# 3 19.9115 7.9094 34.6486 -25.3553 -2.1414 2.2052
# 4 -8.1926 -12.3372 -25.3553 14.4430 5.5199 -2.1270
# 5 -10.1368 -3.8327 -2.1414 5.5199 27.4295 7.5843
# 6 4.4559 -3.0464 2.2052 -2.1270 7.5843 18.5962
#
#
#
# Elastic Compliance Matrix: (Units=1/GPa)
#
#
# Indices 1 2 3 4 5 6 
#
# 1 0.011563 -0.002413 0.010779 0.022804 0.000785 -0.002156
# 2 -0.002413 0.013168 -0.017021 -0.021286 0.003676 0.000820
# 3 0.010779 -0.017021 -0.048690 -0.106901 0.025457 -0.022207
# 4 0.022804 -0.021286 -0.106901 -0.139750 0.032258 -0.025414
# 5 0.000785 0.003676 0.025457 0.032258 0.036582 -0.013835
# 6 -0.002156 0.000820 -0.022207 -0.025414 -0.013835 0.059794
#
#
# Mechanical properties :
#
#
# Convention : Reuss Voigt Hill
#
# Bulk Modulus (GPa) = -24.23220 35.53321 5.65050
# Shear Modulus (GPa) = -78.39340 21.45897 -28.46722
#
# Velocity S-wave (km/s) = -6.47294 3.38662 -3.90063
# Velocity P-wave (km/s) = 8.29558 5.85523 4.15530
#
# Compressibility (1/GPa) = -0.04126740
#
# Stress axis : x y z
#
# Youngs Moduli (GPa) = 86.48371 75.94369 -20.53811
#
# Poissons Ratio (x) = 0.18323 0.22139
# Poissons Ratio (y) = 0.20866 -0.34957
# Poissons Ratio (z) = -0.93224 1.29262
#
# Static dielectric constant tensor:
#      x y z
#    x 1.137560 0.297430 0.494310 
#    y 0.297430 1.489220 -0.251380 
#    z 0.494310 -0.251380 1.251710 
# 
# From -- ./inp_files/341772.got.cif
#   From: 2010.05.17/outbox.cif.g08.bks.cpg/sg2_171_cif.got.tgz:341772.got - 2010.06.03 11:33:40.
