data_PCOD9106664
_publ_section_title
;
Structure prediction by ZEFSAII (Michael W. Deem and Ramdas Pophale) SiO2 
 PCOD9106664
Probable space group: P -1
;
_chemical_formula_sum "Si O2"
_cell_formula_units_Z 16
_cell_length_a 24.164031
_cell_length_b 9.761703
_cell_length_c 5.009460
_cell_angle_alpha 136.419201
_cell_angle_beta 57.246266
_cell_angle_gamma 128.076761
_cell_volume 631.487185
_symmetry_space_group_name_H-M "P -1"
_symmetry_group_IT_number 2
_symmetry_cell_setting 'triclinic'
loop_
_space_group_symop_operation_xyz
x,y,z
-x,-y,-z
loop_
_atom_site_type_symbol
_atom_site_label
_atom_site_fract_x
_atom_site_fract_y
_atom_site_fract_z
Si Si1 0.568894 0.554730 0.574470
Si Si2 0.627594 0.009363 0.338360
Si Si3 0.708535 0.341463 0.211139
Si Si4 0.553962 0.145866 0.293880
Si Si5 0.312624 0.278630 0.894981
Si Si6 0.141591 0.372953 0.823865
Si Si7 0.843986 0.884228 0.082493
Si Si8 0.008009 0.862540 0.035563
O O1 0.500000 0.500000 0.500000
O O2 0.547747 0.375872 0.608558
O O3 0.635642 0.562739 0.233106
O O4 0.594096 0.799026 0.938270
O O5 0.649893 0.875441 0.315417
O O6 0.698266 0.194210 0.293552
O O7 0.568398 0.103244 0.507111
O O8 0.635668 0.204830 0.045033
O O9 0.788339 0.414112 0.999146
O O10 0.700302 0.564301 0.629731
O O11 0.500000 0.000000 0.000000
O O12 0.235584 0.132666 0.775431
O O13 0.149375 0.192457 0.745217
O O14 0.061607 0.358290 0.070539
O O15 0.147291 0.294568 0.396398
O O16 0.909666 0.106886 0.155111
O O17 0.000000 0.000000 0.500000
O O18 0.000000 0.000000 0.000000
#
# Coordination Sequence:
#
# PCOD9106664 Si02
#       8
#     2   2   2   2   2   2   2   2
#     4  12  23  41  61  84 115 151 196 254 306 367
#     4  10  22  41  58  85 115 152 200 246 306 366
#     4   9  20  38  59  84 118 151 204 244 306 352
#     4  10  20  40  60  81 116 145 192 250 299 359
#     4  11  23  38  62  83 118 155 203 250 303 363
#     4   9  16  32  54  86 120 157 199 252 299 362
#     4   9  18  30  56  85 119 158 200 250 301 360
#     4   8  14  26  48  83 118 151 197 244 298 356
#
# _framework density 25.337015999999998
#
# number of rings (size 3 to 8) (size 9 to 14) (size 15 to 20)
#    0.750    1.500    2.500    0.750    1.750    1.500 
#    2.250    1.875    0.000    0.750    0.000    0.875 
#    0.000    0.000    0.000    0.000    0.000    0.000 
#
# Total GULP energy -89105.838259 kJ/mol
# GULP energy per Si atom -5569.114891 kJ/mol
# Density = 2.527935 g / cm^3
# Si number density = 25.337016 Si / 1000 Ang^3
#
#
#
# Elastic Constant Matrix: (Units=GPa)
#
#
# Indices 1 2 3 4 5 6 
#
# 1 128.1723 26.7087 40.3937 -10.6966 25.9919 21.1335
# 2 26.7087 41.7368 99.9923 -17.3450 40.5732 -16.4120
# 3 40.3937 99.9923 -13.4565 19.4718 -45.8906 3.6392
# 4 -10.6966 -17.3450 19.4718 41.1776 3.2858 -5.4607
# 5 25.9919 40.5732 -45.8906 3.2858 -14.9498 5.7479
# 6 21.1335 -16.4120 3.6392 -5.4607 5.7479 79.5738
#
#
#
# Elastic Compliance Matrix: (Units=1/GPa)
#
#
# Indices 1 2 3 4 5 6 
#
# 1 0.010433 -0.006485 0.001618 -0.000806 -0.006065 -0.003799
# 2 -0.006485 0.010887 0.000271 0.001629 0.018841 0.002706
# 3 0.001618 0.000271 0.008604 -0.001603 -0.022919 0.000778
# 4 -0.000806 0.001629 -0.001603 0.024588 0.013846 0.001311
# 5 -0.006065 0.018841 -0.022919 0.013846 0.048625 0.003983
# 6 -0.003799 0.002706 0.000778 0.001311 0.003983 0.013901
#
#
# Mechanical properties :
#
#
# Convention : Reuss Voigt Hill
#
# Bulk Modulus (GPa) = 48.23774 54.51578 51.37676
# Shear Modulus (GPa) = 37.55379 20.45086 29.00233
#
# Velocity S-wave (km/s) = 3.85407 2.84413 3.38696
# Velocity P-wave (km/s) = 6.23578 5.68756 5.96797
#
# Compressibility (1/GPa) = 0.02073066
#
# Stress axis : x y z
#
# Youngs Moduli (GPa) = 95.85344 91.85174 116.21949
#
# Poissons Ratio (x) = 0.59565 -0.18799
# Poissons Ratio (y) = 0.62160 -0.03145
# Poissons Ratio (z) = -0.15505 -0.02485
#
# Static dielectric constant tensor:
#      x y z
#    x -6.286690 11.726810 -3.049790 
#    y 11.726810 -13.998690 4.155750 
#    z -3.049790 4.155750 1.048720 
# 
# From -- ./inp_files/126338.got.cif
#   From: 2010.05.17/outbox.cif.g08.bks.cpg/sg2_64_cif.got.tgz:126338.got - 2010.06.03 11:33:40.
