data_PCOD9106254
_publ_section_title
;
Structure prediction by ZEFSAII (Michael W. Deem and Ramdas Pophale) SiO2 
 PCOD9106254
Probable space group: P -1
;
_chemical_formula_sum "Si O2"
_cell_formula_units_Z 14
_cell_length_a 29.771032
_cell_length_b 9.400068
_cell_length_c 26.991585
_cell_angle_alpha 149.703039
_cell_angle_beta 170.399746
_cell_angle_gamma 28.927304
_cell_volume 609.324102
_symmetry_space_group_name_H-M "P -1"
_symmetry_group_IT_number 2
_symmetry_cell_setting 'triclinic'
loop_
_space_group_symop_operation_xyz
x,y,z
-x,-y,-z
loop_
_atom_site_type_symbol
_atom_site_label
_atom_site_fract_x
_atom_site_fract_y
_atom_site_fract_z
Si Si1 0.404570 0.754245 0.852897
Si Si2 0.336567 0.166350 0.110981
Si Si3 0.861176 0.722321 0.589761
Si Si4 0.275351 0.799744 0.265548
Si Si5 0.527303 0.169151 0.945672
Si Si6 0.093602 0.179083 0.032207
Si Si7 0.965105 0.236851 0.318329
O O1 0.216486 0.571676 0.565856
O O2 0.300513 0.900220 0.837089
O O3 0.670828 0.482326 0.078123
O O4 0.500000 0.000000 0.000000
O O5 0.335205 0.495277 0.209970
O O6 0.581081 0.990595 0.360714
O O7 0.366376 0.036184 0.048365
O O8 0.073086 0.087392 0.825137
O O9 0.936555 0.662947 0.596190
O O10 0.073517 0.876843 0.892522
O O11 0.571656 0.878599 0.610230
O O12 0.144399 0.777346 0.170631
O O13 0.000000 0.000000 0.000000
O O14 0.199037 0.186563 0.599663
O O15 0.500000 0.500000 0.000000
O O16 0.000000 0.500000 0.000000
#
# Coordination Sequence:
#
# PCOD9106254 Si02
#       7
#     2   2   2   2   2   2   2
#     4  11  24  41  63 101 146 181 232 304 368 420
#     4  10  22  40  72 100 134 185 247 294 358 440
#     4  10  22  41  69 104 135 184 250 299 347 447
#     4  12  28  50  73 112 155 188 243 317 381 436
#     4  11  20  41  67  99 127 187 241 287 352 440
#     4  12  25  47  82 106 144 199 255 299 375 448
#     4  10  20  39  68  93 139 175 247 283 352 432
#
# _framework density 22.976279999999999
#
# number of rings (size 3 to 8) (size 9 to 14) (size 15 to 20)
#    0.000    1.143    5.714    2.143    6.000    0.571 
#    5.143    0.000    0.000    0.000    0.000    0.000 
#    0.000    0.000    0.000    0.000    0.000    0.000 
#
# Total GULP energy -77972.360183 kJ/mol
# GULP energy per Si atom -5569.454299 kJ/mol
# Density = 2.292399 g / cm^3
# Si number density = 22.976280 Si / 1000 Ang^3
#
#
#
# Elastic Constant Matrix: (Units=GPa)
#
#
# Indices 1 2 3 4 5 6 
#
# 1 78.3949 24.8822 8.9329 25.6972 -5.9995 -1.5283
# 2 24.8822 119.3955 74.1473 33.0717 -18.3623 -5.1364
# 3 8.9329 74.1473 155.4073 39.0279 -8.1558 -14.1285
# 4 25.6972 33.0717 39.0279 47.3291 -7.7655 3.3816
# 5 -5.9995 -18.3623 -8.1558 -7.7655 24.5062 4.8299
# 6 -1.5283 -5.1364 -14.1285 3.3816 4.8299 23.5126
#
#
#
# Elastic Compliance Matrix: (Units=1/GPa)
#
#
# Indices 1 2 3 4 5 6 
#
# 1 0.016579 -0.002525 0.003157 -0.010269 -0.000839 0.004072
# 2 -0.002525 0.014307 -0.005828 -0.002421 0.007746 -0.001784
# 3 0.003157 -0.005828 0.011687 -0.008502 -0.003974 0.007994
# 4 -0.010269 -0.002421 -0.008502 0.037557 0.007348 -0.013216
# 5 -0.000839 0.007746 -0.003974 0.007348 0.049782 -0.012033
# 6 0.004072 -0.001784 0.007994 -0.013216 -0.012033 0.051581
#
#
# Mechanical properties :
#
#
# Convention : Reuss Voigt Hill
#
# Bulk Modulus (GPa) = 31.07551 63.23582 47.15567
# Shear Modulus (GPa) = 24.67765 35.41860 30.04813
#
# Velocity S-wave (km/s) = 3.28082 3.93049 3.62026
# Velocity P-wave (km/s) = 5.28263 6.94120 6.16792
#
# Compressibility (1/GPa) = 0.03217968
#
# Stress axis : x y z
#
# Youngs Moduli (GPa) = 60.31800 69.89821 85.56268
#
# Poissons Ratio (x) = 0.17649 -0.27010
# Poissons Ratio (y) = 0.15230 0.49868
# Poissons Ratio (z) = -0.19041 0.40739
#
# Static dielectric constant tensor:
#      x y z
#    x 1.948310 -0.042720 0.017280 
#    y -0.042720 1.878630 0.031820 
#    z 0.017280 0.031820 2.100280 
# 
# From -- ./inp_files/621471.got.cif
#   From: 2010.05.17/outbox.cif.g08.bks.cpg/sg2_311_cif.got.tgz:621471.got - 2010.06.03 11:33:40.
