data_PCOD9106846
_publ_section_title
;
Structure prediction by ZEFSAII (Michael W. Deem and Ramdas Pophale) SiO2 
 PCOD9106846
Probable space group: P -1
;
_chemical_formula_sum "Si O2"
_cell_formula_units_Z 16
_cell_length_a 22.644709
_cell_length_b 21.816658
_cell_length_c 9.353312
_cell_angle_alpha 41.614886
_cell_angle_beta 33.778957
_cell_angle_gamma 18.263612
_cell_volume 781.753086
_symmetry_space_group_name_H-M "P -1"
_symmetry_group_IT_number 2
_symmetry_cell_setting 'triclinic'
loop_
_space_group_symop_operation_xyz
x,y,z
-x,-y,-z
loop_
_atom_site_type_symbol
_atom_site_label
_atom_site_fract_x
_atom_site_fract_y
_atom_site_fract_z
Si Si1 0.117989 0.018628 0.878343
Si Si2 0.819201 0.397364 0.689572
Si Si3 0.477014 0.374754 0.394354
Si Si4 0.110970 0.447118 0.638505
Si Si5 0.583518 0.046670 0.548448
Si Si6 0.589092 0.780915 0.104237
Si Si7 0.647500 0.832297 0.615753
Si Si8 0.614421 0.415449 0.264973
O O1 0.020845 0.165271 0.698868
O O2 0.269710 0.821921 0.847268
O O3 0.294639 0.948444 0.732581
O O4 0.881673 0.173121 0.161344
O O5 0.705844 0.482310 0.614765
O O6 0.896359 0.439406 0.505079
O O7 0.643640 0.493045 0.997018
O O8 0.473450 0.461117 0.359279
O O9 0.449487 0.298180 0.662130
O O10 0.323425 0.246473 0.659453
O O11 0.188837 0.359935 0.472482
O O12 0.862009 0.592355 0.907664
O O13 0.731538 0.853169 0.509444
O O14 0.548250 0.065373 0.756750
O O15 0.524384 0.866861 0.926672
O O16 0.500000 0.000000 0.500000
O O17 0.500000 0.500000 0.500000
#
# Coordination Sequence:
#
# PCOD9106846 Si02
#       8
#     2   2   2   2   2   2   2   2
#     4   9  21  39  70  87 124 169 206 262 317 365
#     4  10  22  39  70  87 129 167 212 254 325 365
#     4  11  22  44  65  96 125 165 217 257 314 381
#     4  11  21  39  62  93 130 168 203 260 321 368
#     4  10  20  40  61  92 127 164 211 259 305 378
#     4  11  22  36  66  90 129 166 211 260 305 378
#     4  10  23  37  56  88 129 172 206 253 313 379
#     4  10  24  42  69  93 126 162 212 270 315 375
#
# _framework density 20.466820999999999
#
# number of rings (size 3 to 8) (size 9 to 14) (size 15 to 20)
#    0.750    1.000    2.500    2.625    1.750    2.000 
#    4.500    0.625    0.000    0.000    0.000    0.000 
#    0.000    0.000    0.000    0.000    0.000    0.000 
#
# Total GULP energy -89151.346911 kJ/mol
# GULP energy per Si atom -5571.959182 kJ/mol
# Density = 2.042024 g / cm^3
# Si number density = 20.466821 Si / 1000 Ang^3
#
#
#
# Elastic Constant Matrix: (Units=GPa)
#
#
# Indices 1 2 3 4 5 6 
#
# 1 63.9839 22.4335 50.5345 39.6347 24.8055 8.3108
# 2 22.4335 56.5773 1.6644 7.0170 3.7539 -16.1937
# 3 50.5345 1.6644 85.1115 0.7216 3.3128 -16.6790
# 4 39.6347 7.0170 0.7216 15.0785 -1.7892 -0.8136
# 5 24.8055 3.7539 3.3128 -1.7892 34.0014 -2.9572
# 6 8.3108 -16.1937 -16.6790 -0.8136 -2.9572 32.1458
#
#
#
# Elastic Compliance Matrix: (Units=1/GPa)
#
#
# Indices 1 2 3 4 5 6 
#
# 1 -0.009080 0.002273 0.006441 0.023856 0.007710 0.008147
# 2 0.002273 0.021858 0.000455 -0.016122 -0.004105 0.009874
# 3 0.006441 0.000455 0.008718 -0.018207 -0.006379 0.002040
# 4 0.023856 -0.016122 -0.018207 0.008793 -0.015557 -0.024944
# 5 0.007710 -0.004105 -0.006379 -0.015557 0.023555 -0.005598
# 6 0.008147 0.009874 0.002040 -0.024944 -0.005598 0.033888
#
#
# Mechanical properties :
#
#
# Convention : Reuss Voigt Hill
#
# Bulk Modulus (GPa) = 25.10456 39.43752 32.27104
# Shear Modulus (GPa) = 60.47863 24.98117 42.72990
#
# Velocity S-wave (km/s) = 5.44185 3.49745 4.57416
# Velocity P-wave (km/s) = 7.19567 5.96828 6.61052
#
# Compressibility (1/GPa) = 0.03983340
#
# Stress axis : x y z
#
# Youngs Moduli (GPa) = -110.12994 45.74889 114.70020
#
# Poissons Ratio (x) = -0.10397 -0.73880
# Poissons Ratio (y) = 0.25028 -0.05215
# Poissons Ratio (z) = 0.70936 -0.02080
#
# Static dielectric constant tensor:
#      x y z
#    x 1.739490 -0.012730 -0.013950 
#    y -0.012730 1.816410 0.005730 
#    z -0.013950 0.005730 1.735520 
# 
# From -- ./inp_files/349481.got.cif
#   From: 2010.05.17/outbox.cif.g08.bks.cpg/sg2_175_cif.got.tgz:349481.got - 2010.06.03 11:33:40.
