data_PCOD9106489
_publ_section_title
;
Structure prediction by ZEFSAII (Michael W. Deem and Ramdas Pophale) SiO2 
 PCOD9106489
Probable space group: P -1
;
_chemical_formula_sum "Si O2"
_cell_formula_units_Z 14
_cell_length_a 8.129800
_cell_length_b 8.692840
_cell_length_c 14.437186
_cell_angle_alpha 38.717472
_cell_angle_beta 111.176922
_cell_angle_gamma 103.592268
_cell_volume 593.153201
_symmetry_space_group_name_H-M "P -1"
_symmetry_group_IT_number 2
_symmetry_cell_setting 'triclinic'
loop_
_space_group_symop_operation_xyz
x,y,z
-x,-y,-z
loop_
_atom_site_type_symbol
_atom_site_label
_atom_site_fract_x
_atom_site_fract_y
_atom_site_fract_z
Si Si1 0.935255 0.718052 0.956357
Si Si2 0.301573 0.049763 0.358677
Si Si3 0.879476 0.448327 0.413068
Si Si4 0.531005 0.787087 0.972926
Si Si5 0.756084 0.968335 0.072334
Si Si6 0.008160 0.310306 0.308826
Si Si7 0.627509 0.197928 0.262188
O O1 0.771367 0.843832 0.806697
O O2 0.937208 0.558666 0.124330
O O3 0.062074 0.928299 0.909196
O O4 0.000000 0.500000 0.000000
O O5 0.509446 0.082622 0.371364
O O6 0.183776 0.207196 0.338221
O O7 0.242391 0.774425 0.487133
O O8 0.760437 0.694437 0.244423
O O9 0.007023 0.376590 0.385197
O O10 0.000000 0.500000 0.500000
O O11 0.433018 0.875836 0.817484
O O12 0.388319 0.841718 0.998762
O O13 0.694832 0.938765 0.967679
O O14 0.580444 0.494407 0.117140
O O15 0.838969 0.145962 0.339986
#
# Coordination Sequence:
#
# PCOD9106489 Si02
#       7
#     2   2   2   2   2   2   2
#     4  10  20  39  70  99 124 178 235 278 339 402
#     4  11  24  43  71 101 136 188 229 278 349 418
#     4  12  26  45  65 102 147 187 228 279 351 420
#     4  10  21  40  69 104 140 173 228 307 341 392
#     4  11  22  41  68 101 145 180 229 291 351 405
#     4  11  24  45  72 101 137 184 236 287 339 406
#     4  11  22  43  72 103 135 174 240 287 343 412
#
# _framework density 23.602668999999999
#
# number of rings (size 3 to 8) (size 9 to 14) (size 15 to 20)
#    0.000    1.143    2.857    5.571    0.000    2.286 
#    0.000    0.714    0.000    0.000    0.000    0.000 
#    0.000    0.000    0.000    0.000    0.000    0.000 
#
# Total GULP energy -78236.132752 kJ/mol
# GULP energy per Si atom -5588.295197 kJ/mol
# Density = 2.354895 g / cm^3
# Si number density = 23.602669 Si / 1000 Ang^3
#
#
#
# Elastic Constant Matrix: (Units=GPa)
#
#
# Indices 1 2 3 4 5 6 
#
# 1 120.4623 34.5581 7.5955 4.7047 4.1394 0.7025
# 2 34.5581 139.9175 20.0450 32.9981 3.0884 -1.4761
# 3 7.5955 20.0450 85.7083 1.6475 -5.8014 -7.6726
# 4 4.7047 32.9981 1.6475 52.0614 -0.7137 -0.3231
# 5 4.1394 3.0884 -5.8014 -0.7137 33.9067 -4.0869
# 6 0.7025 -1.4761 -7.6726 -0.3231 -4.0869 28.6729
#
#
#
# Elastic Compliance Matrix: (Units=1/GPa)
#
#
# Indices 1 2 3 4 5 6 
#
# 1 0.008999 -0.002301 -0.000392 0.000640 -0.001013 -0.000581
# 2 -0.002301 0.009357 -0.001964 -0.005676 -0.001051 -0.000201
# 3 -0.000392 -0.001964 0.012670 0.000942 0.002863 0.003718
# 4 0.000640 -0.005676 0.000942 0.022736 0.001122 0.000360
# 5 -0.001013 -0.001051 0.002863 0.001122 0.030846 0.005146
# 6 -0.000581 -0.000201 0.003718 0.000360 0.005146 0.036612
#
#
# Mechanical properties :
#
#
# Convention : Reuss Voigt Hill
#
# Bulk Modulus (GPa) = 46.06108 52.27614 49.16861
# Shear Modulus (GPa) = 36.29169 41.85417 39.07293
#
# Velocity S-wave (km/s) = 3.92549 4.21560 4.07313
# Velocity P-wave (km/s) = 6.33273 6.77433 6.55725
#
# Compressibility (1/GPa) = 0.02171030
#
# Stress axis : x y z
#
# Youngs Moduli (GPa) = 111.11749 106.87609 78.92588
#
# Poissons Ratio (x) = 0.24596 0.03095
# Poissons Ratio (y) = 0.25572 0.15504
# Poissons Ratio (z) = 0.04358 0.20995
#
# Static dielectric constant tensor:
#      x y z
#    x 1.950930 0.020630 0.019550 
#    y 0.020630 1.896570 0.081180 
#    z 0.019550 0.081180 1.772320 
# 
# From -- ./inp_files/491867.got.cif
#   From: 2010.05.17/outbox.cif.g08.bks.cpg/sg2_246_cif.got.tgz:491867.got - 2010.06.03 11:33:40.
