data_PCOD9106761
_publ_section_title
;
Structure prediction by ZEFSAII (Michael W. Deem and Ramdas Pophale) SiO2 
 PCOD9106761
Probable space group: P -1
;
_chemical_formula_sum "Si O2"
_cell_formula_units_Z 16
_cell_length_a 8.170935
_cell_length_b 8.892993
_cell_length_c 11.285785
_cell_angle_alpha 51.277333
_cell_angle_beta 79.699879
_cell_angle_gamma 96.118112
_cell_volume 603.470728
_symmetry_space_group_name_H-M "P -1"
_symmetry_group_IT_number 2
_symmetry_cell_setting 'triclinic'
loop_
_space_group_symop_operation_xyz
x,y,z
-x,-y,-z
loop_
_atom_site_type_symbol
_atom_site_label
_atom_site_fract_x
_atom_site_fract_y
_atom_site_fract_z
Si Si1 0.085125 0.851724 0.987318
Si Si2 0.304892 0.742927 0.711344
Si Si3 0.542277 0.378559 0.668429
Si Si4 0.107748 0.352873 0.512401
Si Si5 0.788594 0.587230 0.272479
Si Si6 0.513504 0.060342 0.182591
Si Si7 0.994603 0.908517 0.701051
Si Si8 0.315376 0.364343 0.048749
O O1 0.978850 0.641307 0.163864
O O2 0.290509 0.879596 0.930855
O O3 0.008400 0.862957 0.861740
O O4 0.000000 0.000000 0.000000
O O5 0.306848 0.647009 0.628221
O O6 0.451696 0.883717 0.708737
O O7 0.165703 0.864473 0.654057
O O8 0.252470 0.531493 0.899114
O O9 0.500000 0.500000 0.500000
O O10 0.715936 0.517736 0.636236
O O11 0.368463 0.329199 0.793324
O O12 0.566196 0.172171 0.721682
O O13 0.175165 0.308482 0.655134
O O14 0.000000 0.500000 0.500000
O O15 0.008233 0.142703 0.570197
O O16 0.377734 0.170823 0.096279
O O17 0.820153 0.736278 0.780354
O O18 0.500000 0.500000 0.000000
#
# Coordination Sequence:
#
# PCOD9106761 Si02
#       8
#     2   2   2   2   2   2   2   2
#     4  11  18  35  61  93 120 152 200 236 300 361
#     4  10  21  37  60  91 118 160 194 231 307 367
#     4  10  20  40  61  81 114 162 210 242 282 346
#     4  11  24  43  62  85 117 159 203 251 297 333
#     4  11  21  37  62  90 117 153 202 248 284 367
#     4  10  21  36  58  90 128 157 187 251 302 348
#     4  11  21  39  64  86 122 163 193 238 297 368
#     4  10  21  34  54  91 128 152 182 237 308 359
#
# _framework density 26.513297999999999
#
# number of rings (size 3 to 8) (size 9 to 14) (size 15 to 20)
#    0.000    1.500    3.750    3.375    3.500    0.000 
#    2.250    7.500    0.000    0.000    0.000    0.000 
#    0.000    0.000    0.000    0.000    0.000    0.000 
#
# Total GULP energy -89086.036293 kJ/mol
# GULP energy per Si atom -5567.877268 kJ/mol
# Density = 2.645295 g / cm^3
# Si number density = 26.513298 Si / 1000 Ang^3
#
#
#
# Elastic Constant Matrix: (Units=GPa)
#
#
# Indices 1 2 3 4 5 6 
#
# 1 81.6659 -15.5799 27.6973 -8.6334 -7.3770 -12.3366
# 2 -15.5799 102.7947 9.6582 -24.4548 15.7321 -4.8039
# 3 27.6973 9.6582 74.0737 -23.5064 -7.3587 6.9839
# 4 -8.6334 -24.4548 -23.5064 55.2336 -3.2295 5.2316
# 5 -7.3770 15.7321 -7.3587 -3.2295 32.4317 -12.8556
# 6 -12.3366 -4.8039 6.9839 5.2316 -12.8556 44.5130
#
#
#
# Elastic Compliance Matrix: (Units=1/GPa)
#
#
# Indices 1 2 3 4 5 6 
#
# 1 0.016526 0.003065 -0.006668 0.000656 0.003563 0.006909
# 2 0.003065 0.012297 -0.001751 0.004844 -0.005010 0.000435
# 3 -0.006668 -0.001751 0.019149 0.006959 0.002313 -0.005191
# 4 0.000656 0.004844 0.006959 0.023630 0.000539 -0.003009
# 5 0.003563 -0.005010 0.002313 0.000539 0.039143 0.011325
# 6 0.006909 0.000435 -0.005191 -0.003009 0.011325 0.028866
#
#
# Mechanical properties :
#
#
# Convention : Reuss Voigt Hill
#
# Bulk Modulus (GPa) = 26.83557 33.56507 30.20032
# Shear Modulus (GPa) = 30.72366 42.21956 36.47161
#
# Velocity S-wave (km/s) = 3.40781 3.99481 3.71293
# Velocity P-wave (km/s) = 5.06239 5.82797 5.45861
#
# Compressibility (1/GPa) = 0.03726398
#
# Stress axis : x y z
#
# Youngs Moduli (GPa) = 60.50974 81.32250 52.22128
#
# Poissons Ratio (x) = -0.24925 0.34822
# Poissons Ratio (y) = -0.18546 0.09143
# Poissons Ratio (z) = 0.40349 0.14238
#
# Static dielectric constant tensor:
#      x y z
#    x 1.970540 -0.092750 -0.668560 
#    y -0.092750 2.278700 -0.046650 
#    z -0.668560 -0.046650 0.831220 
# 
# From -- ./inp_files/474748.got.cif
#   From: 2010.05.17/outbox.cif.g08.bks.cpg/sg2_238_cif.got.tgz:474748.got - 2010.06.03 11:33:40.
