data_PCOD9106884
_publ_section_title
;
Structure prediction by ZEFSAII (Michael W. Deem and Ramdas Pophale) SiO2 
 PCOD9106884
Probable space group: P -1
;
_chemical_formula_sum "Si O2"
_cell_formula_units_Z 16
_cell_length_a 8.247352
_cell_length_b 14.105354
_cell_length_c 11.096242
_cell_angle_alpha 75.160327
_cell_angle_beta 41.397120
_cell_angle_gamma 83.628910
_cell_volume 818.455061
_symmetry_space_group_name_H-M "P -1"
_symmetry_group_IT_number 2
_symmetry_cell_setting 'triclinic'
loop_
_space_group_symop_operation_xyz
x,y,z
-x,-y,-z
loop_
_atom_site_type_symbol
_atom_site_label
_atom_site_fract_x
_atom_site_fract_y
_atom_site_fract_z
Si Si1 0.746025 0.875213 0.217644
Si Si2 0.086519 0.657990 0.427709
Si Si3 0.490093 0.656614 0.412257
Si Si4 0.158345 0.506486 0.788283
Si Si5 0.729192 0.039133 0.998302
Si Si6 0.764435 0.489495 0.797392
Si Si7 0.070711 0.882600 0.368226
Si Si8 0.330808 0.989920 0.407422
O O1 0.650267 0.760808 0.311936
O O2 0.017300 0.901719 0.110759
O O3 0.535050 0.933692 0.377113
O O4 0.748290 0.925373 0.065543
O O5 0.288171 0.668660 0.418520
O O6 0.211175 0.609497 0.260525
O O7 0.013853 0.766872 0.413622
O O8 0.856355 0.580066 0.625872
O O9 0.340800 0.607504 0.627110
O O10 0.666846 0.579387 0.290751
O O11 0.965716 0.494487 0.789458
O O12 0.000000 0.500000 0.000000
O O13 0.720171 0.070815 0.855874
O O14 0.494599 0.061793 0.198703
O O15 0.500000 0.500000 0.000000
O O16 0.845878 0.945151 0.447886
O O17 0.163191 0.909449 0.443601
#
# Coordination Sequence:
#
# PCOD9106884 Si02
#       8
#     2   2   2   2   2   2   2   2
#     4   9  19  40  57  81 118 155 189 235 289 337
#     4  10  21  38  60  86 116 157 192 237 304 343
#     4  10  20  40  62  81 119 152 195 242 288 355
#     4  10  22  40  62  88 112 151 197 244 295 354
#     4   9  20  37  55  81 122 148 192 241 279 339
#     4  10  22  40  60  86 121 147 191 251 293 356
#     4  11  20  35  61  85 115 157 191 240 291 339
#     4   9  20  37  55  84 117 148 200 235 277 349
#
# _framework density 19.549026999999999
#
# number of rings (size 3 to 8) (size 9 to 14) (size 15 to 20)
#    0.750    1.500    1.250    1.125    1.750    2.500 
#    2.250    1.250    0.000    0.000    0.000    0.000 
#    0.000    0.000    0.000    0.000    0.000    0.000 
#
# Total GULP energy -89156.964621 kJ/mol
# GULP energy per Si atom -5572.310289 kJ/mol
# Density = 1.950453 g / cm^3
# Si number density = 19.549027 Si / 1000 Ang^3
#
#
#
# Elastic Constant Matrix: (Units=GPa)
#
#
# Indices 1 2 3 4 5 6 
#
# 1 27.1893 7.6827 -5.4135 -6.8134 -1.1753 5.5552
# 2 7.6827 123.2286 45.4398 -18.8426 -0.2850 15.6300
# 3 -5.4135 45.4398 93.9603 -5.9447 2.8966 20.0611
# 4 -6.8134 -18.8426 -5.9447 27.7697 0.3515 0.3601
# 5 -1.1753 -0.2850 2.8966 0.3515 32.9264 -1.9141
# 6 5.5552 15.6300 20.0611 0.3601 -1.9141 11.7213
#
#
#
# Elastic Compliance Matrix: (Units=1/GPa)
#
#
# Indices 1 2 3 4 5 6 
#
# 1 0.055606 0.000396 0.016078 0.018108 -0.002841 -0.055420
# 2 0.000396 0.011703 -0.002690 0.007616 -0.000397 -0.011488
# 3 0.016078 -0.002690 0.022905 0.007647 -0.004112 -0.044142
# 4 0.018108 0.007616 0.007647 0.047726 -0.002428 -0.033689
# 5 -0.002841 -0.000397 -0.004112 -0.002428 0.031475 0.014128
# 6 -0.055420 -0.011488 -0.044142 -0.033689 0.014128 0.205790
#
#
# Mechanical properties :
#
#
# Convention : Reuss Voigt Hill
#
# Bulk Modulus (GPa) = 8.49019 37.75514 23.12267
# Shear Modulus (GPa) = 12.92332 27.59477 20.25904
#
# Velocity S-wave (km/s) = 2.57392 3.76116 3.22268
# Velocity P-wave (km/s) = 3.63124 6.18197 5.06965
#
# Compressibility (1/GPa) = 0.11778295
#
# Stress axis : x y z
#
# Youngs Moduli (GPa) = 17.98353 85.44831 43.65843
#
# Poissons Ratio (x) = -0.03385 -0.70194
# Poissons Ratio (y) = -0.00712 0.11744
# Poissons Ratio (z) = -0.28914 0.22985
#
# Static dielectric constant tensor:
#      x y z
#    x 1.765460 0.004890 0.036490 
#    y 0.004890 1.660230 -0.005620 
#    z 0.036490 -0.005620 1.702930 
# 
# From -- ./inp_files/395707.got.cif
#   From: 2010.05.17/outbox.cif.g08.bks.cpg/sg2_198_cif.got.tgz:395707.got - 2010.06.03 11:33:40.
