data_PCOD9106363
_publ_section_title
;
Structure prediction by ZEFSAII (Michael W. Deem and Ramdas Pophale) SiO2 
 PCOD9106363
Probable space group: P -1
;
_chemical_formula_sum "Si O2"
_cell_formula_units_Z 16
_cell_length_a 15.203878
_cell_length_b 16.314881
_cell_length_c 5.440974
_cell_angle_alpha 85.219511
_cell_angle_beta 78.001677
_cell_angle_gamma 143.455959
_cell_volume 709.745954
_symmetry_space_group_name_H-M "P -1"
_symmetry_group_IT_number 2
_symmetry_cell_setting 'triclinic'
loop_
_space_group_symop_operation_xyz
x,y,z
-x,-y,-z
loop_
_atom_site_type_symbol
_atom_site_label
_atom_site_fract_x
_atom_site_fract_y
_atom_site_fract_z
Si Si1 0.361212 0.424273 0.290438
Si Si2 0.043402 0.714406 0.044963
Si Si3 0.322876 0.697141 0.211733
Si Si4 0.472246 0.052230 0.312785
Si Si5 0.269608 0.492076 0.016793
Si Si6 0.412643 0.303000 0.524311
Si Si7 0.836619 0.272566 0.547254
Si Si8 0.328816 0.063527 0.768495
O O1 0.234681 0.383104 0.222254
O O2 0.305882 0.298147 0.489167
O O3 0.461427 0.560012 0.385100
O O4 0.500000 0.500000 0.000000
O O5 0.104255 0.715884 0.755597
O O6 0.856433 0.596643 0.113639
O O7 0.163057 0.885730 0.978257
O O8 0.055508 0.669107 0.293520
O O9 0.257371 0.561646 0.180200
O O10 0.206522 0.664065 0.456287
O O11 0.505859 0.823766 0.190107
O O12 0.358733 0.784167 0.937800
O O13 0.384454 0.062787 0.483585
O O14 0.500000 0.000000 0.500000
O O15 0.338649 0.908738 0.246797
O O16 0.459155 0.632295 0.772887
O O17 0.312154 0.148299 0.724570
#
# Coordination Sequence:
#
# PCOD9106363 Si02
#       8
#     2   2   2   2   2   2   2   2
#     4   9  20  39  65  96 122 154 206 270 326 377
#     4  11  27  42  61  93 142 174 208 267 335 373
#     4  12  21  36  64  89 121 170 233 262 300 373
#     4  11  20  36  59  91 121 166 221 276 306 352
#     4  11  24  40  64  95 128 168 210 267 327 388
#     4  10  20  39  69  93 121 159 217 264 314 391
#     4  11  24  40  60  90 133 178 221 264 317 369
#     4  11  21  37  64  96 121 169 220 268 307 382
#
# _framework density 22.543275999999999
#
# number of rings (size 3 to 8) (size 9 to 14) (size 15 to 20)
#    0.000    1.250    5.000    1.875    1.750    1.000 
#    0.000    0.625    0.000    6.750    0.000    0.000 
#    0.000    0.000    0.000    0.000    0.000    0.000 
#
# Total GULP energy -89385.849587 kJ/mol
# GULP energy per Si atom -5586.615599 kJ/mol
# Density = 2.249197 g / cm^3
# Si number density = 22.543276 Si / 1000 Ang^3
#
#
#
# Elastic Constant Matrix: (Units=GPa)
#
#
# Indices 1 2 3 4 5 6 
#
# 1 115.2913 65.4904 23.5218 15.0304 30.4315 -15.0645
# 2 65.4904 114.3818 17.1167 5.6434 9.3707 -14.5545
# 3 23.5218 17.1167 60.1554 9.4524 2.9015 -10.7862
# 4 15.0304 5.6434 9.4524 27.5895 6.5036 1.8629
# 5 30.4315 9.3707 2.9015 6.5036 30.5124 8.8619
# 6 -15.0645 -14.5545 -10.7862 1.8629 8.8619 44.6799
#
#
#
# Elastic Compliance Matrix: (Units=1/GPa)
#
#
# Indices 1 2 3 4 5 6 
#
# 1 0.020782 -0.008770 -0.002646 -0.004656 -0.018957 0.007465
# 2 -0.008770 0.013509 -0.000752 0.001234 0.004303 0.000357
# 3 -0.002646 -0.000752 0.019317 -0.005541 0.001191 0.003521
# 4 -0.004656 0.001234 -0.005541 0.041374 -0.002969 -0.003642
# 5 -0.018957 0.004303 0.001191 -0.002969 0.055400 -0.015567
# 6 0.007465 0.000357 0.003521 -0.003642 -0.015567 0.029104
#
#
# Mechanical properties :
#
#
# Convention : Reuss Voigt Hill
#
# Bulk Modulus (GPa) = 34.16313 55.78737 44.97525
# Shear Modulus (GPa) = 23.41067 32.80300 28.10683
#
# Velocity S-wave (km/s) = 3.22604 3.81873 3.53483
# Velocity P-wave (km/s) = 5.39108 6.65163 6.05425
#
# Compressibility (1/GPa) = 0.02927132
#
# Stress axis : x y z
#
# Youngs Moduli (GPa) = 48.11957 74.02706 51.76852
#
# Poissons Ratio (x) = 0.64922 0.13697
# Poissons Ratio (y) = 0.42201 0.03893
# Poissons Ratio (z) = 0.12732 0.05566
#
# Static dielectric constant tensor:
#      x y z
#    x 1.888260 0.016460 0.025850 
#    y 0.016460 1.834810 0.000890 
#    z 0.025850 0.000890 1.915900 
# 
# From -- ./inp_files/97441.got.cif
#   From: 2010.05.17/outbox.cif.g08.bks.cpg/sg2_49_cif.got.tgz:97441.got - 2010.06.03 11:33:40.
