data_PCOD9106271
_publ_section_title
;
Structure prediction by ZEFSAII (Michael W. Deem and Ramdas Pophale) SiO2 
 PCOD9106271
Probable space group: P -1
;
_chemical_formula_sum "Si O2"
_cell_formula_units_Z 16
_cell_length_a 12.192390
_cell_length_b 20.086155
_cell_length_c 9.765959
_cell_angle_alpha 123.146922
_cell_angle_beta 79.241629
_cell_angle_gamma 150.852070
_cell_volume 683.599134
_symmetry_space_group_name_H-M "P -1"
_symmetry_group_IT_number 2
_symmetry_cell_setting 'triclinic'
loop_
_space_group_symop_operation_xyz
x,y,z
-x,-y,-z
loop_
_atom_site_type_symbol
_atom_site_label
_atom_site_fract_x
_atom_site_fract_y
_atom_site_fract_z
Si Si1 0.859424 0.490207 0.576735
Si Si2 0.296319 0.855191 0.128930
Si Si3 0.662192 0.949900 0.114531
Si Si4 0.201974 0.405824 0.850435
Si Si5 0.306275 0.296664 0.382880
Si Si6 0.254623 0.987706 0.156523
Si Si7 0.526960 0.459312 0.803425
Si Si8 0.667732 0.424847 0.275115
O O1 0.458137 0.374171 0.579050
O O2 0.000000 0.500000 0.500000
O O3 0.489921 0.218338 0.392299
O O4 0.872625 0.557159 0.516109
O O5 0.113150 0.764826 0.203704
O O6 0.555926 0.961060 0.218097
O O7 0.413918 0.014374 0.209617
O O8 0.055958 0.655457 0.845928
O O9 0.376208 0.695290 0.894364
O O10 0.751746 0.023689 0.018380
O O11 0.958589 0.099414 0.272837
O O12 0.261629 0.350867 0.761664
O O13 0.248179 0.471198 0.762993
O O14 0.500000 0.500000 0.500000
O O15 0.346783 0.252935 0.216024
O O16 0.546035 0.413939 0.878388
O O17 0.885345 0.738645 0.015483
#
# Coordination Sequence:
#
# PCOD9106271 Si02
#       8
#     2   2   2   2   2   2   2   2
#     4  11  23  40  68 102 123 167 221 266 320 380
#     4  11  23  43  66  94 134 178 204 267 326 385
#     4  11  23  38  61  99 131 159 221 268 324 373
#     4  10  22  41  66  88 134 179 201 256 340 383
#     4  12  22  38  70  95 119 165 222 272 319 368
#     4  10  20  39  68  95 128 164 219 275 314 372
#     4  10  21  42  66  96 126 168 219 267 316 386
#     4  11  22  40  64  95 130 164 213 274 317 383
#
# _framework density 23.405529000000001
#
# number of rings (size 3 to 8) (size 9 to 14) (size 15 to 20)
#    0.000    1.250    5.000    2.250    0.000    1.500 
#    0.000    5.625    0.000    0.000    0.000    0.000 
#    0.000    0.000    0.000    0.000    0.000    0.000 
#
# Total GULP energy -89295.203307 kJ/mol
# GULP energy per Si atom -5580.950207 kJ/mol
# Density = 2.335226 g / cm^3
# Si number density = 23.405529 Si / 1000 Ang^3
#
#
#
# Elastic Constant Matrix: (Units=GPa)
#
#
# Indices 1 2 3 4 5 6 
#
# 1 129.5274 57.5525 27.2926 -10.7293 -7.7035 -1.2952
# 2 57.5525 103.7880 44.1631 -23.0514 7.3532 3.9312
# 3 27.2926 44.1631 73.5867 -1.6549 -3.2564 -3.0357
# 4 -10.7293 -23.0514 -1.6549 27.1341 1.4686 3.5402
# 5 -7.7035 7.3532 -3.2564 1.4686 38.4788 -8.1737
# 6 -1.2952 3.9312 -3.0357 3.5402 -8.1737 37.6506
#
#
#
# Elastic Compliance Matrix: (Units=1/GPa)
#
#
# Indices 1 2 3 4 5 6 
#
# 1 0.010856 -0.007080 0.000448 -0.002212 0.004127 0.002253
# 2 -0.007080 0.023448 -0.011750 0.017850 -0.009124 -0.007298
# 3 0.000448 -0.011750 0.020712 -0.009492 0.005513 0.005002
# 4 -0.002212 0.017850 -0.009492 0.052274 -0.008671 -0.009503
# 5 0.004127 -0.009124 0.005513 -0.008671 0.031299 0.009149
# 6 0.002253 -0.007298 0.005002 -0.009503 0.009149 0.030683
#
#
# Mechanical properties :
#
#
# Convention : Reuss Voigt Hill
#
# Bulk Modulus (GPa) = 54.78500 62.76872 58.77686
# Shear Modulus (GPa) = 23.57164 32.51228 28.04196
#
# Velocity S-wave (km/s) = 3.17692 3.73109 3.46510
# Velocity P-wave (km/s) = 6.07575 6.74073 6.41686
#
# Compressibility (1/GPa) = 0.01825317
#
# Stress axis : x y z
#
# Youngs Moduli (GPa) = 92.11101 42.64752 48.28188
#
# Poissons Ratio (x) = 0.30194 -0.02164
# Poissons Ratio (y) = 0.65213 0.56731
# Poissons Ratio (z) = -0.04129 0.50111
#
# Static dielectric constant tensor:
#      x y z
#    x 1.952730 0.047680 0.044930 
#    y 0.047680 1.900250 0.035540 
#    z 0.044930 0.035540 1.951770 
# 
# From -- ./inp_files/438470.got.cif
#   From: 2010.05.17/outbox.cif.g08.bks.cpg/sg2_220_cif.got.tgz:438470.got - 2010.06.03 11:33:40.
