data_PCOD9106344
_publ_section_title
;
Structure prediction by ZEFSAII (Michael W. Deem and Ramdas Pophale) SiO2 
 PCOD9106344
Probable space group: P -1
;
_chemical_formula_sum "Si O2"
_cell_formula_units_Z 14
_cell_length_a 9.123186
_cell_length_b 21.524070
_cell_length_c 5.295362
_cell_angle_alpha 104.330554
_cell_angle_beta 54.210335
_cell_angle_gamma 135.532250
_cell_volume 563.860784
_symmetry_space_group_name_H-M "P -1"
_symmetry_group_IT_number 2
_symmetry_cell_setting 'triclinic'
loop_
_space_group_symop_operation_xyz
x,y,z
-x,-y,-z
loop_
_atom_site_type_symbol
_atom_site_label
_atom_site_fract_x
_atom_site_fract_y
_atom_site_fract_z
Si Si1 0.391503 0.214066 0.599885
Si Si2 0.481360 0.039070 0.307658
Si Si3 0.871734 0.298105 0.484277
Si Si4 0.081665 0.114279 0.309281
Si Si5 0.668306 0.646751 0.219861
Si Si6 0.894397 0.206238 0.743581
Si Si7 0.069652 0.477746 0.659034
O O1 0.262336 0.155223 0.414603
O O2 0.363548 0.284387 0.715042
O O3 0.690812 0.272874 0.408085
O O4 0.234989 0.146844 0.929548
O O5 0.500000 0.000000 0.500000
O O6 0.727746 0.147762 0.105850
O O7 0.191522 0.994450 0.538755
O O8 0.500000 0.000000 0.000000
O O9 0.910309 0.371234 0.687400
O O10 0.743287 0.209904 0.697260
O O11 0.148433 0.341766 0.153859
O O12 0.983208 0.162975 0.482237
O O13 0.379850 0.544544 0.419407
O O14 0.843536 0.688996 0.337392
O O15 0.000000 0.500000 0.500000
O O16 0.000000 0.500000 0.000000
#
# Coordination Sequence:
#
# PCOD9106344 Si02
#       7
#     2   2   2   2   2   2   2
#     4  11  24  42  72 100 149 188 244 293 363 424
#     4  10  20  39  69 106 145 192 243 294 358 429
#     4  12  27  46  75 108 146 192 247 308 361 440
#     4  10  21  43  66 103 144 194 235 298 356 426
#     4  11  25  48  73 105 146 193 243 299 372 438
#     4  10  24  39  74 106 142 187 253 293 359 434
#     4  12  30  50  77 106 147 192 241 303 374 442
#
# _framework density 24.828821999999999
#
# number of rings (size 3 to 8) (size 9 to 14) (size 15 to 20)
#    0.000    1.143    2.857    3.000   12.000    0.571 
#    0.000    1.429    0.000    0.000    0.000    0.000 
#    0.000    0.000    0.000    0.000    0.000    0.000 
#
# Total GULP energy -78384.952798 kJ/mol
# GULP energy per Si atom -5598.925200 kJ/mol
# Density = 2.477231 g / cm^3
# Si number density = 24.828822 Si / 1000 Ang^3
#
#
#
# Elastic Constant Matrix: (Units=GPa)
#
#
# Indices 1 2 3 4 5 6 
#
# 1 154.5515 49.0196 55.5318 3.8218 12.6960 14.8504
# 2 49.0196 78.4644 21.4228 13.0790 1.8599 9.9038
# 3 55.5318 21.4228 129.1958 10.7770 10.3170 10.9892
# 4 3.8218 13.0790 10.7770 41.4275 9.7042 -10.4828
# 5 12.6960 1.8599 10.3170 9.7042 42.7743 2.7569
# 6 14.8504 9.9038 10.9892 -10.4828 2.7569 48.8713
#
#
#
# Elastic Compliance Matrix: (Units=1/GPa)
#
#
# Indices 1 2 3 4 5 6 
#
# 1 0.009450 -0.005258 -0.003131 0.001987 -0.002237 -0.000550
# 2 -0.005258 0.017495 -0.000002 -0.006505 0.002501 -0.003484
# 3 -0.003131 -0.000002 0.009487 -0.002436 -0.000699 -0.001665
# 4 0.001987 -0.006505 -0.002436 0.030386 -0.007140 0.008183
# 5 -0.002237 0.002501 -0.000699 -0.007140 0.025894 -0.002662
# 6 -0.000550 -0.003484 -0.001665 0.008183 -0.002662 0.023615
#
#
# Mechanical properties :
#
#
# Convention : Reuss Voigt Hill
#
# Bulk Modulus (GPa) = 50.88750 68.24004 59.56377
# Shear Modulus (GPa) = 35.80207 42.36380 39.08294
#
# Velocity S-wave (km/s) = 3.80143 4.13514 3.97179
# Velocity P-wave (km/s) = 6.30933 7.09528 6.71382
#
# Compressibility (1/GPa) = 0.01965119
#
# Stress axis : x y z
#
# Youngs Moduli (GPa) = 105.81656 57.16004 105.41115
#
# Poissons Ratio (x) = 0.30056 0.32999
# Poissons Ratio (y) = 0.55640 0.00017
# Poissons Ratio (z) = 0.33126 0.00009
#
# Static dielectric constant tensor:
#      x y z
#    x 1.995370 0.065980 0.009540 
#    y 0.065980 2.411530 0.022310 
#    z 0.009540 0.022310 1.968640 
# 
# From -- ./inp_files/55487.got.cif
#   From: 2010.05.17/outbox.cif.g08.bks.cpg/sg2_28_cif.got.tgz:55487.got - 2010.06.03 11:33:40.
