data_PCOD9106872
_publ_section_title
;
Structure prediction by ZEFSAII (Michael W. Deem and Ramdas Pophale) SiO2 
 PCOD9106872
Probable space group: P -1
;
_chemical_formula_sum "Si O2"
_cell_formula_units_Z 13
_cell_length_a 14.767950
_cell_length_b 7.559136
_cell_length_c 10.617761
_cell_angle_alpha 57.514378
_cell_angle_beta 149.219836
_cell_angle_gamma 113.359868
_cell_volume 505.835139
_symmetry_space_group_name_H-M "P -1"
_symmetry_group_IT_number 2
_symmetry_cell_setting 'triclinic'
loop_
_space_group_symop_operation_xyz
x,y,z
-x,-y,-z
loop_
_atom_site_type_symbol
_atom_site_label
_atom_site_fract_x
_atom_site_fract_y
_atom_site_fract_z
Si Si1 0.982814 0.227887 0.634689
Si Si2 0.597045 0.426052 0.011313
Si Si3 0.861103 0.835162 0.393151
Si Si4 0.500000 0.000000 0.000000
Si Si5 0.360089 0.268146 0.291715
Si Si6 0.983712 0.432719 0.831609
Si Si7 0.750884 0.143713 0.809256
O O1 0.779912 0.270190 0.328180
O O2 0.983653 0.319387 0.739015
O O3 0.099470 0.307400 0.631197
O O4 0.095327 0.993683 0.873132
O O5 0.487808 0.261309 0.876840
O O6 0.500000 0.500000 0.000000
O O7 0.626854 0.606472 0.875384
O O8 0.665286 0.962073 0.112367
O O9 0.909220 0.676139 0.627009
O O10 0.000000 0.000000 0.500000
O O11 0.558035 0.239174 0.598188
O O12 0.307724 0.033139 0.291383
O O13 0.196001 0.389848 0.130399
O O14 0.851593 0.318332 0.799393
#
# Coordination Sequence:
#
# PCOD9106872 Si02
#       7
#     2   2   2   1   2   2   2
#     4  11  22  42  67 103 130 178 231 286 338 410
#     4  12  25  42  73 107 134 181 241 282 345 415
#     4  12  24  44  66  96 139 179 228 289 347 400
#     4  12  26  42  66 102 144 174 224 298 346 394
#     4  10  20  40  62 100 137 178 221 281 347 404
#     4  11  22  41  71  98 136 180 229 283 349 417
#     4  10  23  38  66 103 141 174 228 286 347 413
#
# _framework density 25.700071999999999
#
# number of rings (size 3 to 8) (size 9 to 14) (size 15 to 20)
#    0.000    0.923    3.077    5.077    6.462    1.231 
#    0.000    0.769    0.000    4.615    0.000    0.000 
#    0.000    0.000    0.000    0.000    0.000    0.000 
#
# Total GULP energy -72404.858838 kJ/mol
# GULP energy per Si atom -5569.604526 kJ/mol
# Density = 2.564158 g / cm^3
# Si number density = 25.700072 Si / 1000 Ang^3
#
#
#
# Elastic Constant Matrix: (Units=GPa)
#
#
# Indices 1 2 3 4 5 6 
#
# 1 109.7349 38.7081 42.9912 3.5807 30.4366 8.3419
# 2 38.7081 97.4985 31.1405 -12.5672 -9.7889 38.6240
# 3 42.9912 31.1405 169.4276 -12.9879 31.8446 15.1040
# 4 3.5807 -12.5672 -12.9879 24.4595 6.4899 -5.3995
# 5 30.4366 -9.7889 31.8446 6.4899 46.2967 -1.9572
# 6 8.3419 38.6240 15.1040 -5.3995 -1.9572 52.2309
#
#
#
# Elastic Compliance Matrix: (Units=1/GPa)
#
#
# Indices 1 2 3 4 5 6 
#
# 1 0.015352 -0.008736 -0.000866 -0.003588 -0.010694 0.003487
# 2 -0.008736 0.021161 -0.002058 0.005516 0.010323 -0.012701
# 3 -0.000866 -0.002058 0.008058 0.004882 -0.006109 -0.000394
# 4 -0.003588 0.005516 0.004882 0.048567 -0.006647 -0.000146
# 5 -0.010694 0.010323 -0.006109 -0.006647 0.035799 -0.003504
# 6 0.003487 -0.012701 -0.000394 -0.000146 -0.003504 0.027949
#
#
# Mechanical properties :
#
#
# Convention : Reuss Voigt Hill
#
# Bulk Modulus (GPa) = 47.05504 66.92673 56.99088
# Shear Modulus (GPa) = 26.69699 42.18549 34.44124
#
# Velocity S-wave (km/s) = 3.22652 4.05588 3.66474
# Velocity P-wave (km/s) = 5.67712 6.93048 6.33487
#
# Compressibility (1/GPa) = 0.02125171
#
# Stress axis : x y z
#
# Youngs Moduli (GPa) = 65.13988 47.25716 124.10294
#
# Poissons Ratio (x) = 0.41283 0.10744
# Poissons Ratio (y) = 0.56904 0.25538
# Poissons Ratio (z) = 0.05639 0.09724
#
# Static dielectric constant tensor:
#      x y z
#    x 2.028860 0.009590 -0.045550 
#    y 0.009590 2.074490 0.080300 
#    z -0.045550 0.080300 2.110680 
# 
# From -- ./inp_files/446862.got.cif
#   From: 2010.05.17/outbox.cif.g08.bks.cpg/sg2_224_cif.got.tgz:446862.got - 2010.06.03 11:33:40.
