data_PCOD9106354
_publ_section_title
;
Structure prediction by ZEFSAII (Michael W. Deem and Ramdas Pophale) SiO2 
 PCOD9106354
Probable space group: P -1
;
_chemical_formula_sum "Si O2"
_cell_formula_units_Z 12
_cell_length_a 15.237761
_cell_length_b 5.260429
_cell_length_c 13.811219
_cell_angle_alpha 111.346959
_cell_angle_beta 28.679366
_cell_angle_gamma 116.461246
_cell_volume 474.696196
_symmetry_space_group_name_H-M "P -1"
_symmetry_group_IT_number 2
_symmetry_cell_setting 'triclinic'
loop_
_space_group_symop_operation_xyz
x,y,z
-x,-y,-z
loop_
_atom_site_type_symbol
_atom_site_label
_atom_site_fract_x
_atom_site_fract_y
_atom_site_fract_z
Si Si1 0.430479 0.949062 0.790681
Si Si2 0.905706 0.585694 0.327811
Si Si3 0.798360 0.706189 0.057920
Si Si4 0.069578 0.135211 0.347448
Si Si5 0.689202 0.747379 0.380094
Si Si6 0.721396 0.386503 0.671909
O O1 0.285949 0.092269 0.898277
O O2 0.532802 0.129079 0.808415
O O3 0.342034 0.616496 0.851162
O O4 0.600259 0.972032 0.550194
O O5 0.812038 0.642122 0.326740
O O6 0.754991 0.540212 0.555658
O O7 0.068174 0.870336 0.244790
O O8 0.006616 0.338517 0.178030
O O9 0.801171 0.813508 0.180320
O O10 0.253164 0.394593 0.233131
O O11 0.905259 0.266346 0.485958
O O12 0.000000 0.000000 0.500000
O O13 0.500000 0.500000 0.500000
#
# Coordination Sequence:
#
# PCOD9106354 Si02
#       6
#     2   2   2   2   2   2
#     4  11  23  43  65  93 131 173 216 259 311 385
#     4  11  22  41  64  96 131 165 211 273 318 370
#     4  11  26  40  63  98 137 167 210 264 326 367
#     4   9  20  37  66  93 120 159 223 259 318 377
#     4  10  21  42  65  93 126 175 218 254 307 386
#     4  10  20  39  69  90 120 171 219 258 311 390
#
# _framework density 25.279326000000001
#
# number of rings (size 3 to 8) (size 9 to 14) (size 15 to 20)
#    0.000    1.667    1.667    3.000    4.667    1.333 
#    0.000    6.667    0.000    0.000    0.000    0.000 
#    0.000    0.000    0.000    0.000    0.000    0.000 
#
# Total GULP energy -67183.374638 kJ/mol
# GULP energy per Si atom -5598.614553 kJ/mol
# Density = 2.522179 g / cm^3
# Si number density = 25.279326 Si / 1000 Ang^3
#
#
#
# Elastic Constant Matrix: (Units=GPa)
#
#
# Indices 1 2 3 4 5 6 
#
# 1 126.3858 11.1987 17.9063 -4.8818 -12.8677 2.5917
# 2 11.1987 75.6337 6.3904 -5.1108 2.6658 15.9108
# 3 17.9063 6.3904 99.5324 17.8031 -1.1265 -2.8749
# 4 -4.8818 -5.1108 17.8031 46.6448 -5.4493 -1.6271
# 5 -12.8677 2.6658 -1.1265 -5.4493 26.4122 2.9536
# 6 2.5917 15.9108 -2.8749 -1.6271 2.9536 51.3620
#
#
#
# Elastic Compliance Matrix: (Units=1/GPa)
#
#
# Indices 1 2 3 4 5 6 
#
# 1 0.008850 -0.001096 -0.001848 0.002059 0.004815 -0.000422
# 2 -0.001096 0.014562 -0.001170 0.001631 -0.001225 -0.004399
# 3 -0.001848 -0.001170 0.011321 -0.004770 -0.001397 0.001019
# 4 0.002059 0.001631 -0.004770 0.024304 0.005698 -0.000434
# 5 0.004815 -0.001225 -0.001397 0.005698 0.041688 -0.002158
# 6 -0.000422 -0.004399 0.001019 -0.000434 -0.002158 0.021021
#
#
# Mechanical properties :
#
#
# Convention : Reuss Voigt Hill
#
# Bulk Modulus (GPa) = 37.72955 41.39364 39.56159
# Shear Modulus (GPa) = 36.02071 42.62090 39.32080
#
# Velocity S-wave (km/s) = 3.77889 4.11055 3.94820
# Velocity P-wave (km/s) = 5.83074 6.24010 6.03889
#
# Compressibility (1/GPa) = 0.02650443
#
# Stress axis : x y z
#
# Youngs Moduli (GPa) = 112.99911 68.67396 88.32815
#
# Poissons Ratio (x) = 0.07527 0.16321
# Poissons Ratio (y) = 0.12384 0.10338
# Poissons Ratio (z) = 0.20879 0.08037
#
# Static dielectric constant tensor:
#      x y z
#    x 2.093360 0.110160 0.058480 
#    y 0.110160 2.131420 -0.024550 
#    z 0.058480 -0.024550 2.029730 
# 
# From -- ./inp_files/27289.got.cif
#   From: 2010.05.17/outbox.cif.g08.bks.cpg/sg2_14_cif.got.tgz:27289.got - 2010.06.03 11:33:40.
