data_PCOD9106886
_publ_section_title
;
Structure prediction by ZEFSAII (Michael W. Deem and Ramdas Pophale) SiO2 
 PCOD9106886
Probable space group: P -1
;
_chemical_formula_sum "Si O2"
_cell_formula_units_Z 16
_cell_length_a 7.352659
_cell_length_b 19.034468
_cell_length_c 5.575758
_cell_angle_alpha 66.131699
_cell_angle_beta 90.747177
_cell_angle_gamma 108.739903
_cell_volume 669.589897
_symmetry_space_group_name_H-M "P -1"
_symmetry_group_IT_number 2
_symmetry_cell_setting 'triclinic'
loop_
_space_group_symop_operation_xyz
x,y,z
-x,-y,-z
loop_
_atom_site_type_symbol
_atom_site_label
_atom_site_fract_x
_atom_site_fract_y
_atom_site_fract_z
Si Si1 0.814055 0.370054 0.278442
Si Si2 0.850408 0.506742 0.690767
Si Si3 0.064186 0.176634 0.460420
Si Si4 0.674518 0.080904 0.330025
Si Si5 0.514708 0.378909 0.660552
Si Si6 0.313450 0.746969 0.951561
Si Si7 0.091874 0.274574 0.823375
Si Si8 0.886327 0.980131 0.271920
O O1 0.637042 0.376430 0.426156
O O2 0.035356 0.403289 0.332145
O O3 0.841320 0.437734 0.980268
O O4 0.753529 0.281548 0.280799
O O5 0.632193 0.467510 0.650597
O O6 0.000000 0.500000 0.500000
O O7 0.083076 0.224819 0.644636
O O8 0.195589 0.118769 0.574416
O O9 0.839950 0.118258 0.484716
O O10 0.111109 0.227820 0.139560
O O11 0.500000 0.000000 0.500000
O O12 0.773054 0.043976 0.178165
O O13 0.607842 0.156092 0.152547
O O14 0.550886 0.303584 0.906605
O O15 0.285289 0.353857 0.697740
O O16 0.115939 0.715188 0.149015
O O17 0.000000 0.000000 0.500000
O O18 0.000000 0.000000 0.000000
#
# Coordination Sequence:
#
# PCOD9106886 Si02
#       8
#     2   2   2   2   2   2   2   2
#     4   9  18  36  66  94 130 166 214 263 318 384
#     4   8  16  35  62  98 128 165 209 262 315 381
#     4  10  23  44  64  88 126 170 219 272 330 382
#     4  10  23  41  65  92 126 166 218 276 327 387
#     4  10  22  37  67  93 128 175 218 258 324 393
#     4  10  23  41  59  95 129 168 216 273 329 380
#     4  11  25  42  67  93 134 172 216 273 323 389
#     4  10  20  40  62  83 117 162 209 262 323 379
#
# _framework density 23.895223000000001
#
# number of rings (size 3 to 8) (size 9 to 14) (size 15 to 20)
#    0.000    2.250    0.000    2.250    8.750    0.000 
#    0.000    8.125    0.000   25.500    0.000    0.000 
#    0.000    0.000    0.000    0.000    0.000    0.000 
#
# Total GULP energy -89156.024531 kJ/mol
# GULP energy per Si atom -5572.251533 kJ/mol
# Density = 2.384084 g / cm^3
# Si number density = 23.895223 Si / 1000 Ang^3
#
#
#
# Elastic Constant Matrix: (Units=GPa)
#
#
# Indices 1 2 3 4 5 6 
#
# 1 63.0813 2.2814 28.1815 -10.4882 4.0823 23.2777
# 2 2.2814 73.7836 39.9703 -7.0060 -13.3798 17.5029
# 3 28.1815 39.9703 119.0276 -2.8744 -0.9771 20.1966
# 4 -10.4882 -7.0060 -2.8744 46.3313 -3.8319 -7.4246
# 5 4.0823 -13.3798 -0.9771 -3.8319 35.8209 -19.3937
# 6 23.2777 17.5029 20.1966 -7.4246 -19.3937 34.4185
#
#
#
# Elastic Compliance Matrix: (Units=1/GPa)
#
#
# Indices 1 2 3 4 5 6 
#
# 1 0.030027 0.005208 -0.003764 0.000920 -0.018141 -0.030771
# 2 0.005208 0.019378 -0.006374 0.002728 0.002682 -0.007537
# 3 -0.003764 -0.006374 0.012021 -0.002031 -0.003978 -0.003947
# 4 0.000920 0.002728 -0.002031 0.024239 0.008403 0.009146
# 5 -0.018141 0.002682 -0.003978 0.008403 0.057452 0.047424
# 6 -0.030771 -0.007537 -0.003947 0.009146 0.047424 0.084708
#
#
# Mechanical properties :
#
#
# Convention : Reuss Voigt Hill
#
# Bulk Modulus (GPa) = 19.39224 44.08430 31.73827
# Shear Modulus (GPa) = 19.61757 35.67811 27.64784
#
# Velocity S-wave (km/s) = 2.86839 3.86827 3.40523
# Velocity P-wave (km/s) = 4.37074 6.20003 5.36394
#
# Compressibility (1/GPa) = 0.05156703
#
# Stress axis : x y z
#
# Youngs Moduli (GPa) = 33.30299 51.60470 83.18922
#
# Poissons Ratio (x) = -0.26874 0.31310
# Poissons Ratio (y) = -0.17343 0.53021
# Poissons Ratio (z) = 0.12534 0.32891
#
# Static dielectric constant tensor:
#      x y z
#    x 1.969910 0.046210 0.202270 
#    y 0.046210 1.970720 0.030970 
#    z 0.202270 0.030970 1.726200 
# 
# From -- ./inp_files/52719.got.cif
#   From: 2010.05.17/outbox.cif.g08.bks.cpg/sg2_27_cif.got.tgz:52719.got - 2010.06.03 11:33:40.
