data_PCOD9106276
_publ_section_title
;
Structure prediction by ZEFSAII (Michael W. Deem and Ramdas Pophale) SiO2 
 PCOD9106276
Probable space group: P -1
;
_chemical_formula_sum "Si O2"
_cell_formula_units_Z 14
_cell_length_a 15.476094
_cell_length_b 6.565306
_cell_length_c 12.141234
_cell_angle_alpha 95.146362
_cell_angle_beta 28.522008
_cell_angle_gamma 104.172910
_cell_volume 549.755085
_symmetry_space_group_name_H-M "P -1"
_symmetry_group_IT_number 2
_symmetry_cell_setting 'triclinic'
loop_
_space_group_symop_operation_xyz
x,y,z
-x,-y,-z
loop_
_atom_site_type_symbol
_atom_site_label
_atom_site_fract_x
_atom_site_fract_y
_atom_site_fract_z
Si Si1 0.615332 0.095308 0.533869
Si Si2 0.681721 0.803073 0.785233
Si Si3 0.093635 0.045635 0.247258
Si Si4 0.650429 0.344805 0.711791
Si Si5 0.363759 0.641320 0.684235
Si Si6 0.039492 0.602774 0.201268
Si Si7 0.035032 0.043612 0.833506
O O1 0.530306 0.122465 0.366862
O O2 0.698698 0.280321 0.356992
O O3 0.773941 0.008051 0.401057
O O4 0.546802 0.209668 0.714902
O O5 0.780064 0.794568 0.794599
O O6 0.641204 0.585375 0.748593
O O7 0.466270 0.789163 0.060202
O O8 0.865382 0.984406 0.531373
O O9 0.122290 0.806904 0.203674
O O10 0.120112 0.095258 0.089657
O O11 0.878534 0.411375 0.435875
O O12 0.500000 0.500000 0.500000
O O13 0.192163 0.535627 0.956818
O O14 0.945014 0.715124 0.218440
O O15 0.000000 0.000000 0.000000
#
# Coordination Sequence:
#
# PCOD9106276 Si02
#       7
#     2   2   2   2   2   2   2
#     4  11  24  42  62  99 133 178 226 278 345 400
#     4   9  17  37  62 100 133 178 228 286 331 397
#     4   8  17  34  70  94 134 185 223 276 341 398
#     4  10  21  35  66  94 135 175 227 288 332 401
#     4  11  25  42  66  96 137 182 228 279 338 415
#     4   9  20  40  63  99 132 182 218 274 346 398
#     4  10  20  39  68  95 136 181 224 272 339 418
#
# _framework density 25.465883000000002
#
# number of rings (size 3 to 8) (size 9 to 14) (size 15 to 20)
#    0.857    1.429    1.429    0.857    2.000    1.714 
#    0.000    1.429    0.000    5.143    0.000    0.000 
#    0.000    0.000    0.000    0.000    0.000    0.000 
#
# Total GULP energy -78023.033008 kJ/mol
# GULP energy per Si atom -5573.073786 kJ/mol
# Density = 2.540792 g / cm^3
# Si number density = 25.465883 Si / 1000 Ang^3
#
#
#
# Elastic Constant Matrix: (Units=GPa)
#
#
# Indices 1 2 3 4 5 6 
#
# 1 96.9593 44.1206 14.7892 17.8144 21.3191 19.1987
# 2 44.1206 141.2674 55.7429 -4.4603 6.3516 14.6609
# 3 14.7892 55.7429 190.6041 15.9033 19.0796 4.6177
# 4 17.8144 -4.4603 15.9033 20.7139 8.9707 5.4339
# 5 21.3191 6.3516 19.0796 8.9707 34.5167 13.5702
# 6 19.1987 14.6609 4.6177 5.4339 13.5702 28.4235
#
#
#
# Elastic Compliance Matrix: (Units=1/GPa)
#
#
# Indices 1 2 3 4 5 6 
#
# 1 0.017441 -0.006237 0.002362 -0.014775 -0.005766 -0.003370
# 2 -0.006237 0.011209 -0.003864 0.010642 0.002868 -0.004345
# 3 0.002362 -0.003864 0.007121 -0.007353 -0.003727 0.002426
# 4 -0.014775 0.010642 -0.007353 0.072763 -0.005472 -0.005613
# 5 -0.005766 0.002868 -0.003727 -0.005472 0.041719 -0.015851
# 6 -0.003370 -0.004345 0.002426 -0.005613 -0.015851 0.047946
#
#
# Mechanical properties :
#
#
# Convention : Reuss Voigt Hill
#
# Bulk Modulus (GPa) = 49.27498 73.12624 61.20061
# Shear Modulus (GPa) = 22.68175 37.67602 30.17889
#
# Velocity S-wave (km/s) = 2.98765 3.85056 3.44622
# Velocity P-wave (km/s) = 5.59400 6.96755 6.31821
#
# Compressibility (1/GPa) = 0.02029427
#
# Stress axis : x y z
#
# Youngs Moduli (GPa) = 57.33617 89.21106 140.42855
#
# Poissons Ratio (x) = 0.55640 -0.33173
# Poissons Ratio (y) = 0.35760 0.54262
# Poissons Ratio (z) = -0.13545 0.34471
#
# Static dielectric constant tensor:
#      x y z
#    x 2.074550 0.023960 -0.024260 
#    y 0.023960 2.029090 -0.021420 
#    z -0.024260 -0.021420 2.118130 
# 
# From -- ./inp_files/539905.got.cif
#   From: 2010.05.17/outbox.cif.g08.bks.cpg/sg2_270_cif.got.tgz:539905.got - 2010.06.03 11:33:40.
