data_PCOD9106600
_publ_section_title
;
Structure prediction by ZEFSAII (Michael W. Deem and Ramdas Pophale) SiO2 
 PCOD9106600
Probable space group: P -1
;
_chemical_formula_sum "Si O2"
_cell_formula_units_Z 16
_cell_length_a 12.789211
_cell_length_b 13.038180
_cell_length_c 8.642914
_cell_angle_alpha 46.589752
_cell_angle_beta 133.739318
_cell_angle_gamma 128.145658
_cell_volume 727.989720
_symmetry_space_group_name_H-M "P -1"
_symmetry_group_IT_number 2
_symmetry_cell_setting 'triclinic'
loop_
_space_group_symop_operation_xyz
x,y,z
-x,-y,-z
loop_
_atom_site_type_symbol
_atom_site_label
_atom_site_fract_x
_atom_site_fract_y
_atom_site_fract_z
Si Si1 0.324318 0.090511 0.893348
Si Si2 0.989465 0.497434 0.307888
Si Si3 0.872565 0.218048 0.029245
Si Si4 0.871435 0.194558 0.399191
Si Si5 0.309782 0.417036 0.062639
Si Si6 0.428402 0.865636 0.677555
Si Si7 0.597701 0.640430 0.105792
Si Si8 0.829608 0.873556 0.612565
O O1 0.301883 0.231903 0.816676
O O2 0.282640 0.110587 0.654465
O O3 0.226261 0.927550 0.005520
O O4 0.492715 0.097715 0.110596
O O5 0.998686 0.341119 0.417483
O O6 0.000000 0.500000 0.500000
O O7 0.820956 0.513483 0.084492
O O8 0.102704 0.634866 0.196950
O O9 0.815367 0.225136 0.138115
O O10 0.035197 0.186513 0.250170
O O11 0.746516 0.174861 0.426181
O O12 0.901819 0.035822 0.584881
O O13 0.474654 0.506499 0.198816
O O14 0.260286 0.246946 0.235602
O O15 0.318523 0.417271 0.884883
O O16 0.500000 0.000000 0.500000
O O17 0.486322 0.728824 0.822580
#
# Coordination Sequence:
#
# PCOD9106600 Si02
#       8
#     2   2   2   2   2   2   2   2
#     4   9  20  37  58  89 112 150 203 235 291 350
#     4  11  24  38  60  91 118 157 199 243 291 358
#     4  10  23  40  62  85 123 156 197 245 293 352
#     4  11  21  41  60  86 121 158 192 248 302 338
#     4  10  20  40  58  85 118 156 191 241 305 336
#     4  10  21  36  62  86 120 153 190 250 292 346
#     4   9  20  37  60  83 117 155 194 245 286 357
#     4  10  22  38  62  85 118 157 196 244 289 357
#
# _framework density 21.978331000000001
#
# number of rings (size 3 to 8) (size 9 to 14) (size 15 to 20)
#    0.750    1.250    1.250    2.625    1.750    4.500 
#    0.000    5.000    0.000    0.000    0.000    0.000 
#    0.000    0.000    0.000    0.000    0.000    0.000 
#
# Total GULP energy -89180.868104 kJ/mol
# GULP energy per Si atom -5573.804257 kJ/mol
# Density = 2.192831 g / cm^3
# Si number density = 21.978331 Si / 1000 Ang^3
#
#
#
# Elastic Constant Matrix: (Units=GPa)
#
#
# Indices 1 2 3 4 5 6 
#
# 1 63.2374 16.5133 6.9020 -16.4302 -10.2031 4.6688
# 2 16.5133 167.0826 34.0006 -31.7362 -18.7692 -3.9754
# 3 6.9020 34.0006 62.8108 -26.3260 -9.9557 4.4414
# 4 -16.4302 -31.7362 -26.3260 37.3251 8.3807 -7.6588
# 5 -10.2031 -18.7692 -9.9557 8.3807 20.8656 -8.5677
# 6 4.6688 -3.9754 4.4414 -7.6588 -8.5677 32.2618
#
#
#
# Elastic Compliance Matrix: (Units=1/GPa)
#
#
# Indices 1 2 3 4 5 6 
#
# 1 0.018924 0.000134 0.002678 0.008853 0.007508 0.001005
# 2 0.000134 0.008074 -0.001454 0.005352 0.006160 0.004082
# 3 0.002678 -0.001454 0.023810 0.015763 0.005599 0.001385
# 4 0.008853 0.005352 0.015763 0.047941 0.001050 0.008868
# 5 0.007508 0.006160 0.005599 0.001050 0.066266 0.016749
# 6 0.001005 0.004082 0.001385 0.008868 0.016749 0.037717
#
#
# Mechanical properties :
#
#
# Convention : Reuss Voigt Hill
#
# Bulk Modulus (GPa) = 18.68395 45.32919 32.00657
# Shear Modulus (GPa) = 22.95088 33.80483 28.37786
#
# Velocity S-wave (km/s) = 3.23499 3.92611 3.59719
# Velocity P-wave (km/s) = 4.74058 6.42042 5.64335
#
# Compressibility (1/GPa) = 0.05352187
#
# Stress axis : x y z
#
# Youngs Moduli (GPa) = 52.84414 123.86139 41.99927
#
# Poissons Ratio (x) = -0.01655 -0.11246
# Poissons Ratio (y) = -0.00706 0.06106
# Poissons Ratio (z) = -0.14150 0.18008
#
# Static dielectric constant tensor:
#      x y z
#    x 1.817860 0.015620 0.018140 
#    y 0.015620 1.856000 -0.001450 
#    z 0.018140 -0.001450 1.799570 
# 
# From -- ./inp_files/312423.got.cif
#   From: 2010.05.17/outbox.cif.g08.bks.cpg/sg2_157_cif.got.tgz:312423.got - 2010.06.03 11:33:40.
