data_PCOD9106134
_publ_section_title
;
Structure prediction by ZEFSAII (Michael W. Deem and Ramdas Pophale) SiO2 
 PCOD9106134
Probable space group: P -1
;
_chemical_formula_sum "Si O2"
_cell_formula_units_Z 12
_cell_length_a 9.446702
_cell_length_b 9.905209
_cell_length_c 9.815293
_cell_angle_alpha 114.798806
_cell_angle_beta 134.224355
_cell_angle_gamma 64.783778
_cell_volume 584.755083
_symmetry_space_group_name_H-M "P -1"
_symmetry_group_IT_number 2
_symmetry_cell_setting 'triclinic'
loop_
_space_group_symop_operation_xyz
x,y,z
-x,-y,-z
loop_
_atom_site_type_symbol
_atom_site_label
_atom_site_fract_x
_atom_site_fract_y
_atom_site_fract_z
Si Si1 0.445099 0.619112 0.135592
Si Si2 0.617061 0.879416 0.231735
Si Si3 0.030175 0.886917 0.601498
Si Si4 0.005034 0.389066 0.082593
Si Si5 0.164062 0.532532 0.513574
Si Si6 0.263591 0.110990 0.985985
O O1 0.479388 0.775871 0.161982
O O2 0.613263 0.555462 0.334144
O O3 0.500000 0.500000 0.000000
O O4 0.219014 0.628572 0.036580
O O5 0.707461 0.820683 0.117468
O O6 0.796483 0.878063 0.459701
O O7 0.481522 0.041154 0.167133
O O8 0.146294 0.715077 0.577911
O O9 0.146933 0.972676 0.822532
O O10 0.000000 0.000000 0.500000
O O11 0.099394 0.465715 0.302560
O O12 0.138473 0.230830 0.054632
O O13 0.000000 0.500000 0.000000
O O14 0.000000 0.500000 0.500000
#
# Coordination Sequence:
#
# PCOD9106134 Si02
#       6
#     2   2   2   2   2   2
#     4  12  23  41  70  97 134 183 225 274 342 405
#     4  10  21  41  67  95 130 182 226 265 344 409
#     4  10  20  39  67  95 128 174 222 267 330 405
#     4  12  27  45  66 103 140 172 229 290 335 396
#     4  12  24  44  72 101 134 180 230 277 339 409
#     4  10  23  41  67  96 135 177 223 280 333 401
#
# _framework density 20.521412999999999
#
# number of rings (size 3 to 8) (size 9 to 14) (size 15 to 20)
#    0.000    1.000    3.333    4.000    0.000    5.333 
#    0.000    1.667    0.000    0.000    0.000    0.000 
#    0.000    0.000    0.000    0.000    0.000    0.000 
#
# Total GULP energy -67041.321992 kJ/mol
# GULP energy per Si atom -5586.776833 kJ/mol
# Density = 2.047471 g / cm^3
# Si number density = 20.521413 Si / 1000 Ang^3
#
#
#
# Elastic Constant Matrix: (Units=GPa)
#
#
# Indices 1 2 3 4 5 6 
#
# 1 105.2392 33.1717 33.0016 12.3661 -9.2544 -6.0736
# 2 33.1717 108.9420 41.1121 9.8575 -14.1732 -4.9593
# 3 33.0016 41.1121 132.6776 -1.2163 -12.9633 -11.2941
# 4 12.3661 9.8575 -1.2163 35.3397 -4.6510 2.5076
# 5 -9.2544 -14.1732 -12.9633 -4.6510 23.7355 4.3931
# 6 -6.0736 -4.9593 -11.2941 2.5076 4.3931 42.8167
#
#
#
# Elastic Compliance Matrix: (Units=1/GPa)
#
#
# Indices 1 2 3 4 5 6 
#
# 1 0.011371 -0.002216 -0.001977 -0.003334 0.001210 0.000906
# 2 -0.002216 0.011580 -0.002642 -0.001992 0.004215 0.000014
# 3 -0.001977 -0.002642 0.009267 0.002019 0.002840 0.001448
# 4 -0.003334 -0.001992 0.002019 0.030943 0.005141 -0.002511
# 5 0.001210 0.004215 0.002840 0.005141 0.048392 -0.003857
# 6 0.000906 0.000014 0.001448 -0.002511 -0.003857 0.024410
#
#
# Mechanical properties :
#
#
# Convention : Reuss Voigt Hill
#
# Bulk Modulus (GPa) = 53.91562 62.38107 58.14835
# Shear Modulus (GPa) = 32.08891 36.34995 34.21943
#
# Velocity S-wave (km/s) = 3.95863 4.21327 4.08793
# Velocity P-wave (km/s) = 6.87199 7.35750 7.11889
#
# Compressibility (1/GPa) = 0.01854750
#
# Stress axis : x y z
#
# Youngs Moduli (GPa) = 87.94282 86.35308 107.91136
#
# Poissons Ratio (x) = 0.19136 0.21334
# Poissons Ratio (y) = 0.19488 0.28514
# Poissons Ratio (z) = 0.17386 0.22818
#
# Static dielectric constant tensor:
#      x y z
#    x 1.739780 0.024560 0.050110 
#    y 0.024560 1.749690 0.014870 
#    z 0.050110 0.014870 1.756570 
# 
# From -- ./inp_files/149063.got.cif
#   From: 2010.05.17/outbox.cif.g08.bks.cpg/sg2_75_cif.got.tgz:149063.got - 2010.06.03 11:33:40.
