data_PCOD9106883
_publ_section_title
;
Structure prediction by ZEFSAII (Michael W. Deem and Ramdas Pophale) SiO2 
 PCOD9106883
Probable space group: P -1
;
_chemical_formula_sum "Si O2"
_cell_formula_units_Z 13
_cell_length_a 7.521722
_cell_length_b 14.244350
_cell_length_c 6.028860
_cell_angle_alpha 59.778568
_cell_angle_beta 60.786188
_cell_angle_gamma 80.352583
_cell_volume 484.539469
_symmetry_space_group_name_H-M "P -1"
_symmetry_group_IT_number 2
_symmetry_cell_setting 'triclinic'
loop_
_space_group_symop_operation_xyz
x,y,z
-x,-y,-z
loop_
_atom_site_type_symbol
_atom_site_label
_atom_site_fract_x
_atom_site_fract_y
_atom_site_fract_z
Si Si1 0.776142 0.376171 0.361580
Si Si2 0.132313 0.264975 0.519911
Si Si3 0.045574 0.416483 0.762679
Si Si4 0.000000 0.000000 0.000000
Si Si5 0.681624 0.902073 0.117689
Si Si6 0.335532 0.900776 0.648827
Si Si7 0.457701 0.249624 0.989131
O O1 0.819929 0.504250 0.246562
O O2 0.560810 0.332200 0.646902
O O3 0.936832 0.303582 0.471651
O O4 0.841125 0.371096 0.072210
O O5 0.145105 0.323048 0.682034
O O6 0.166124 0.139658 0.719863
O O7 0.314795 0.298779 0.199154
O O8 0.000000 0.500000 0.500000
O O9 0.796190 0.021202 0.934612
O O10 0.881881 0.057811 0.229337
O O11 0.449768 0.875668 0.377960
O O12 0.677292 0.846086 0.950159
O O13 0.500000 0.000000 0.500000
O O14 0.372049 0.801473 0.907409
#
# Coordination Sequence:
#
# PCOD9106883 Si02
#       7
#     2   2   2   1   2   2   2
#     4  10  21  39  62  91 125 165 209 254 305 361
#     4  10  21  40  61  89 125 162 206 252 305 365
#     4   9  20  39  62  89 126 165 205 254 307 363
#     4  10  20  40  62  80 118 162 192 242 310 362
#     4  10  22  38  59  89 121 156 203 254 305 364
#     4   9  21  40  59  88 122 155 200 250 305 366
#     4  11  23  38  63  94 122 160 210 254 302 366
#
# _framework density 26.829598000000001
#
# number of rings (size 3 to 8) (size 9 to 14) (size 15 to 20)
#    0.000    2.154    0.000    1.846    0.000   10.462 
#    0.000   18.462    0.000    0.000    0.000    0.000 
#    0.000    0.000    0.000    0.000    0.000    0.000 
#
# Total GULP energy -72450.542721 kJ/mol
# GULP energy per Si atom -5573.118671 kJ/mol
# Density = 2.676853 g / cm^3
# Si number density = 26.829598 Si / 1000 Ang^3
#
#
#
# Elastic Constant Matrix: (Units=GPa)
#
#
# Indices 1 2 3 4 5 6 
#
# 1 79.2110 28.0447 57.4852 -5.9389 6.4283 -16.3910
# 2 28.0447 110.5941 49.4326 26.6799 3.6027 5.8904
# 3 57.4852 49.4326 213.7848 32.6089 -30.8547 1.7690
# 4 -5.9389 26.6799 32.6089 51.7147 -7.4257 3.1640
# 5 6.4283 3.6027 -30.8547 -7.4257 47.8536 0.1033
# 6 -16.3910 5.8904 1.7690 3.1640 0.1033 50.5805
#
#
#
# Elastic Compliance Matrix: (Units=1/GPa)
#
#
# Indices 1 2 3 4 5 6 
#
# 1 0.021883 -0.004565 -0.006949 0.007957 -0.005857 0.007380
# 2 -0.004565 0.012350 -0.000897 -0.006450 -0.001890 -0.002479
# 3 -0.006949 -0.000897 0.008289 -0.004621 0.005633 -0.002160
# 4 0.007957 -0.006450 -0.004621 0.026457 0.000539 0.001835
# 5 -0.005857 -0.001890 0.005633 0.000539 0.025546 -0.001961
# 6 0.007380 -0.002479 -0.002160 0.001835 -0.001961 0.022415
#
#
# Mechanical properties :
#
#
# Convention : Reuss Voigt Hill
#
# Bulk Modulus (GPa) = 56.49316 74.83498 65.66407
# Shear Modulus (GPa) = 33.86119 47.93827 40.89973
#
# Velocity S-wave (km/s) = 3.55644 4.23160 3.90863
# Velocity P-wave (km/s) = 6.16168 7.19920 6.70055
#
# Compressibility (1/GPa) = 0.01770126
#
# Stress axis : x y z
#
# Youngs Moduli (GPa) = 45.69829 80.97113 120.64013
#
# Poissons Ratio (x) = 0.36963 0.83829
# Poissons Ratio (y) = 0.20861 0.10817
# Poissons Ratio (z) = 0.31754 0.07260
#
# Static dielectric constant tensor:
#      x y z
#    x 2.148820 0.035700 -0.028640 
#    y 0.035700 2.375690 0.021820 
#    z -0.028640 0.021820 2.261030 
# 
# From -- ./inp_files/7095.got.cif
#   From: 2010.05.17/outbox.cif.g08.bks.cpg/sg2_4_cif.got.tgz:7095.got - 2010.06.03 11:33:40.
