data_PCOD9106936
_publ_section_title
;
Structure prediction by ZEFSAII (Michael W. Deem and Ramdas Pophale) SiO2 
 PCOD9106936
Probable space group: P -1
;
_chemical_formula_sum "Si O2"
_cell_formula_units_Z 15
_cell_length_a 11.138532
_cell_length_b 22.750911
_cell_length_c 8.015124
_cell_angle_alpha 127.287471
_cell_angle_beta 40.790121
_cell_angle_gamma 146.248918
_cell_volume 735.643302
_symmetry_space_group_name_H-M "P -1"
_symmetry_group_IT_number 2
_symmetry_cell_setting 'triclinic'
loop_
_space_group_symop_operation_xyz
x,y,z
-x,-y,-z
loop_
_atom_site_type_symbol
_atom_site_label
_atom_site_fract_x
_atom_site_fract_y
_atom_site_fract_z
Si Si1 0.472685 0.561080 0.757945
Si Si2 0.410102 0.818835 0.590475
Si Si3 0.826253 0.879959 0.021881
Si Si4 0.500000 0.000000 0.000000
Si Si5 0.977884 0.346396 0.017584
Si Si6 0.900956 0.782235 0.264773
Si Si7 0.964369 0.764477 0.785285
Si Si8 0.453361 0.707821 0.842006
O O1 0.500000 0.500000 0.500000
O O2 0.744793 0.656597 0.730264
O O3 0.397439 0.613320 0.826167
O O4 0.237842 0.470642 0.974421
O O5 0.663374 0.850354 0.309707
O O6 0.211606 0.711055 0.720753
O O7 0.239241 0.801903 0.586346
O O8 0.480081 0.910082 0.785914
O O9 0.993873 0.853445 0.823535
O O10 0.614078 0.802367 0.968396
O O11 0.000000 0.000000 0.000000
O O12 0.174533 0.905304 0.202758
O O13 0.805755 0.327628 0.014419
O O14 0.061080 0.285262 0.796802
O O15 0.654950 0.751792 0.553061
O O16 0.863582 0.750290 0.055600
#
# Coordination Sequence:
#
# PCOD9106936 Si02
#       8
#     2   2   2   1   2   2   2   2
#     4  11  22  41  62  88 123 160 202 253 309 354
#     4  10  22  41  64  89 124 158 205 245 298 364
#     4  11  24  39  61  93 124 159 198 248 305 359
#     4   8  18  36  62  86 116 156 196 238 296 348
#     4  10  22  40  61  88 116 163 201 246 304 357
#     4  10  20  40  62  88 122 159 204 249 295 365
#     4   9  23  41  61  89 123 158 205 249 298 359
#     4  11  23  38  62  90 126 156 203 253 302 356
#
# _framework density 20.390318000000001
#
# number of rings (size 3 to 8) (size 9 to 14) (size 15 to 20)
#    0.000    2.133    1.333    2.000    1.867    6.933 
#    0.000   10.000    0.000    0.000    0.000    0.000 
#    0.000    0.000    0.000    0.000    0.000    0.000 
#
# Total GULP energy -83515.393621 kJ/mol
# GULP energy per Si atom -5567.692908 kJ/mol
# Density = 2.034391 g / cm^3
# Si number density = 20.390318 Si / 1000 Ang^3
#
#
#
# Elastic Constant Matrix: (Units=GPa)
#
#
# Indices 1 2 3 4 5 6 
#
# 1 74.2601 46.2893 -5.9714 13.4395 -16.7657 -4.5489
# 2 46.2893 150.6666 16.5608 5.0234 0.2679 -13.6875
# 3 -5.9714 16.5608 53.7591 0.6930 3.5011 -6.6568
# 4 13.4395 5.0234 0.6930 25.8667 -2.5609 4.9275
# 5 -16.7657 0.2679 3.5011 -2.5609 25.5247 -0.9737
# 6 -4.5489 -13.6875 -6.6568 4.9275 -0.9737 9.8467
#
#
#
# Elastic Compliance Matrix: (Units=1/GPa)
#
#
# Indices 1 2 3 4 5 6 
#
# 1 0.024399 -0.006447 0.005642 -0.012794 0.014569 0.013968
# 2 -0.006447 0.009701 -0.002366 -0.000516 -0.003728 0.008797
# 3 0.005642 -0.002366 0.022164 -0.006336 0.000724 0.017544
# 4 -0.012794 -0.000516 -0.006336 0.052349 -0.003707 -0.037474
# 5 0.014569 -0.003728 0.000724 -0.003707 0.048647 0.008703
# 6 0.013968 0.008797 0.017544 -0.037474 0.008703 0.151711
#
#
# Mechanical properties :
#
#
# Convention : Reuss Voigt Hill
#
# Bulk Modulus (GPa) = 20.03126 43.60480 31.81803
# Shear Modulus (GPa) = 15.06243 27.03477 21.04860
#
# Velocity S-wave (km/s) = 2.72086 3.64519 3.21640
# Velocity P-wave (km/s) = 4.44027 6.25684 5.42513
#
# Compressibility (1/GPa) = 0.04992198
#
# Stress axis : x y z
#
# Youngs Moduli (GPa) = 40.98605 103.08477 45.11858
#
# Poissons Ratio (x) = 0.66454 -0.25454
# Poissons Ratio (y) = 0.26422 0.10674
# Poissons Ratio (z) = -0.23123 0.24387
#
# Static dielectric constant tensor:
#      x y z
#    x 1.765220 -0.020910 0.007240 
#    y -0.020910 1.681480 -0.018960 
#    z 0.007240 -0.018960 1.740830 
# 
# From -- ./inp_files/284907.got.cif
#   From: 2010.05.17/outbox.cif.g08.bks.cpg/sg2_143_cif.got.tgz:284907.got - 2010.06.03 11:33:40.
