data_PCOD9106972
_publ_section_title
;
Structure prediction by ZEFSAII (Michael W. Deem and Ramdas Pophale) SiO2 
 PCOD9106972
Probable space group: P -1
;
_chemical_formula_sum "Si O2"
_cell_formula_units_Z 14
_cell_length_a 14.681122
_cell_length_b 14.160023
_cell_length_c 7.950709
_cell_angle_alpha 104.090554
_cell_angle_beta 51.905556
_cell_angle_gamma 146.210185
_cell_volume 570.291396
_symmetry_space_group_name_H-M "P -1"
_symmetry_group_IT_number 2
_symmetry_cell_setting 'triclinic'
loop_
_space_group_symop_operation_xyz
x,y,z
-x,-y,-z
loop_
_atom_site_type_symbol
_atom_site_label
_atom_site_fract_x
_atom_site_fract_y
_atom_site_fract_z
Si Si1 0.799673 0.933765 0.141354
Si Si2 0.132111 0.346140 0.119426
Si Si3 0.913852 0.038852 0.673696
Si Si4 0.712639 0.035482 0.696855
Si Si5 0.488281 0.028311 0.754024
Si Si6 0.935732 0.368557 0.154638
Si Si7 0.538579 0.491281 0.641800
O O1 0.540012 0.680727 0.356878
O O2 0.909932 0.109911 0.187359
O O3 0.000000 0.000000 0.000000
O O4 0.792774 0.946318 0.955306
O O5 0.000360 0.279880 0.415754
O O6 0.148924 0.457665 0.036367
O O7 0.364495 0.443050 0.916297
O O8 0.177803 0.293428 0.516535
O O9 0.740330 0.945081 0.677061
O O10 0.000000 0.000000 0.500000
O O11 0.542832 0.957054 0.714226
O O12 0.606216 0.995519 0.976941
O O13 0.254326 0.849016 0.816886
O O14 0.745435 0.263169 0.476318
O O15 0.000000 0.500000 0.000000
O O16 0.500000 0.500000 0.500000
#
# Coordination Sequence:
#
# PCOD9106972 Si02
#       7
#     2   2   2   2   2   2   2
#     4  10  20  40  62  89 127 172 219 267 312 390
#     4  10  21  41  67  95 132 174 221 272 328 392
#     4  12  24  39  63  98 136 171 216 273 331 390
#     4  10  22  41  64  88 133 170 213 269 330 387
#     4   9  21  44  65  89 124 172 216 270 333 381
#     4  10  21  42  69  97 124 163 225 275 323 396
#     4  11  23  41  64  94 131 177 221 260 324 395
#
# _framework density 24.548853000000001
#
# number of rings (size 3 to 8) (size 9 to 14) (size 15 to 20)
#    0.000    1.714    2.857    2.571    0.000    3.429 
#    7.714    9.286    0.000    0.000    0.000    0.000 
#    0.000    0.000    0.000    0.000    0.000    0.000 
#
# Total GULP energy -78001.356653 kJ/mol
# GULP energy per Si atom -5571.525475 kJ/mol
# Density = 2.449298 g / cm^3
# Si number density = 24.548853 Si / 1000 Ang^3
#
#
#
# Elastic Constant Matrix: (Units=GPa)
#
#
# Indices 1 2 3 4 5 6 
#
# 1 170.0937 8.8072 29.8480 -5.1892 14.4338 -16.4530
# 2 8.8072 57.1680 6.9696 -17.5748 9.4771 -11.1541
# 3 29.8480 6.9696 111.3601 6.5476 22.2159 -7.3352
# 4 -5.1892 -17.5748 6.5476 23.9010 -4.1468 -2.3608
# 5 14.4338 9.4771 22.2159 -4.1468 38.4810 2.4847
# 6 -16.4530 -11.1541 -7.3352 -2.3608 2.4847 37.1843
#
#
#
# Elastic Compliance Matrix: (Units=1/GPa)
#
#
# Indices 1 2 3 4 5 6 
#
# 1 0.006617 0.000814 -0.001394 0.002414 -0.001822 0.003172
# 2 0.000814 0.026327 -0.001559 0.020152 -0.004332 0.009519
# 3 -0.001394 -0.001559 0.011074 -0.005434 -0.006147 0.001166
# 4 0.002414 0.020152 -0.005434 0.060166 0.003129 0.009652
# 5 -0.001822 -0.004332 -0.006147 0.003129 0.031963 -0.005255
# 6 0.003172 0.009519 0.001166 0.009652 -0.005255 0.032346
#
#
# Mechanical properties :
#
#
# Convention : Reuss Voigt Hill
#
# Bulk Modulus (GPa) = 25.16471 47.76348 36.46409
# Shear Modulus (GPa) = 26.87916 39.44639 33.16278
#
# Velocity S-wave (km/s) = 3.31256 4.01291 3.67943
# Velocity P-wave (km/s) = 4.99037 6.40078 5.73907
#
# Compressibility (1/GPa) = 0.03973819
#
# Stress axis : x y z
#
# Youngs Moduli (GPa) = 151.13392 37.98320 90.30403
#
# Poissons Ratio (x) = -0.03090 0.12587
# Poissons Ratio (y) = -0.12296 0.14083
# Poissons Ratio (z) = 0.21066 0.05923
#
# Static dielectric constant tensor:
#      x y z
#    x 2.016820 0.011330 0.000910 
#    y 0.011330 2.050910 0.017520 
#    z 0.000910 0.017520 2.111550 
# 
# From -- ./inp_files/315376.got.cif
#   From: 2010.05.17/outbox.cif.g08.bks.cpg/sg2_158_cif.got.tgz:315376.got - 2010.06.03 11:33:40.
