data_PCOD9106459
_publ_section_title
;
Structure prediction by ZEFSAII (Michael W. Deem and Ramdas Pophale) SiO2 
 PCOD9106459
Probable space group: P -1
;
_chemical_formula_sum "Si O2"
_cell_formula_units_Z 12
_cell_length_a 9.746305
_cell_length_b 10.974692
_cell_length_c 8.843012
_cell_angle_alpha 118.766188
_cell_angle_beta 131.096874
_cell_angle_gamma 86.953697
_cell_volume 573.108845
_symmetry_space_group_name_H-M "P -1"
_symmetry_group_IT_number 2
_symmetry_cell_setting 'triclinic'
loop_
_space_group_symop_operation_xyz
x,y,z
-x,-y,-z
loop_
_atom_site_type_symbol
_atom_site_label
_atom_site_fract_x
_atom_site_fract_y
_atom_site_fract_z
Si Si1 0.931271 0.340721 0.259935
Si Si2 0.561481 0.430525 0.648535
Si Si3 0.617004 0.196106 0.359582
Si Si4 0.478435 0.155627 0.903033
Si Si5 0.731886 0.682839 0.357878
Si Si6 0.066811 0.439726 0.823589
O O1 0.957672 0.407134 0.151186
O O2 0.000000 0.500000 0.500000
O O3 0.066331 0.253972 0.359073
O O4 0.703884 0.238154 0.059959
O O5 0.500000 0.500000 0.500000
O O6 0.538054 0.263054 0.481187
O O7 0.428275 0.414869 0.691678
O O8 0.792832 0.525591 0.909387
O O9 0.851743 0.303324 0.580588
O O10 0.590585 0.024428 0.258143
O O11 0.499811 0.203358 0.124817
O O12 0.344885 0.209339 0.728440
O O13 0.791972 0.591453 0.217731
#
# Coordination Sequence:
#
# PCOD9106459 Si02
#       6
#     2   2   2   2   2   2
#     4  10  20  39  70  95 121 172 228 257 309 393
#     4  12  25  40  67 103 132 163 224 281 322 376
#     4  11  25  43  64 100 136 171 211 280 326 371
#     4  11  23  45  68  91 140 175 216 259 330 400
#     4  11  23  40  70  96 124 179 219 257 327 396
#     4  11  22  43  70  94 129 174 223 266 322 394
#
# _framework density 20.938431999999999
#
# number of rings (size 3 to 8) (size 9 to 14) (size 15 to 20)
#    0.000    1.000    5.000    3.000    4.667    1.333 
#    3.000    0.833    0.000    0.000    0.000    0.000 
#    0.000    0.000    0.000    0.000    0.000    0.000 
#
# Total GULP energy -66932.136539 kJ/mol
# GULP energy per Si atom -5577.678045 kJ/mol
# Density = 2.089078 g / cm^3
# Si number density = 20.938432 Si / 1000 Ang^3
#
#
#
# Elastic Constant Matrix: (Units=GPa)
#
#
# Indices 1 2 3 4 5 6 
#
# 1 81.0719 22.5503 19.4236 -0.0954 -1.6222 7.3580
# 2 22.5503 143.7435 71.0351 -40.0549 16.0927 3.9683
# 3 19.4236 71.0351 104.2713 -17.1861 12.3450 -7.6277
# 4 -0.0954 -40.0549 -17.1861 49.2260 -6.0482 8.5207
# 5 -1.6222 16.0927 12.3450 -6.0482 22.2856 -5.4499
# 6 7.3580 3.9683 -7.6277 8.5207 -5.4499 24.9753
#
#
#
# Elastic Compliance Matrix: (Units=1/GPa)
#
#
# Indices 1 2 3 4 5 6 
#
# 1 0.013650 -0.001467 -0.002234 -0.001056 0.002112 -0.003650
# 2 -0.001467 0.015032 -0.008264 0.010223 -0.005871 -0.009249
# 3 -0.002234 -0.008264 0.015967 -0.002665 -0.001971 0.007327
# 4 -0.001056 0.010223 -0.002665 0.029743 -0.000964 -0.012485
# 5 0.002112 -0.005871 -0.001971 -0.000964 0.052930 0.011588
# 6 -0.003650 -0.009249 0.007327 -0.012485 0.011588 0.051610
#
#
# Mechanical properties :
#
#
# Convention : Reuss Voigt Hill
#
# Bulk Modulus (GPa) = 48.26674 61.67830 54.97252
# Shear Modulus (GPa) = 23.83570 33.70254 28.76912
#
# Velocity S-wave (km/s) = 3.37764 4.01634 3.71075
# Velocity P-wave (km/s) = 6.18975 7.14345 6.68363
#
# Compressibility (1/GPa) = 0.02071820
#
# Stress axis : x y z
#
# Youngs Moduli (GPa) = 73.25780 66.52315 62.63107
#
# Poissons Ratio (x) = 0.09761 0.13993
# Poissons Ratio (y) = 0.10750 0.51758
# Poissons Ratio (z) = 0.16368 0.54974
#
# Static dielectric constant tensor:
#      x y z
#    x 1.855010 0.024800 0.046760 
#    y 0.024800 1.791330 -0.035230 
#    z 0.046760 -0.035230 1.999810 
# 
# From -- ./inp_files/182917.got.cif
#   From: 2010.05.17/outbox.cif.g08.bks.cpg/sg2_92_cif.got.tgz:182917.got - 2010.06.03 11:33:40.
