data_PCOD9106961
_publ_section_title
;
Structure prediction by ZEFSAII (Michael W. Deem and Ramdas Pophale) SiO2 
 PCOD9106961
Probable space group: P -1
;
_chemical_formula_sum "Si O2"
_cell_formula_units_Z 14
_cell_length_a 9.718601
_cell_length_b 6.627509
_cell_length_c 22.265069
_cell_angle_alpha 56.930144
_cell_angle_beta 140.426498
_cell_angle_gamma 95.023438
_cell_volume 598.380400
_symmetry_space_group_name_H-M "P -1"
_symmetry_group_IT_number 2
_symmetry_cell_setting 'triclinic'
loop_
_space_group_symop_operation_xyz
x,y,z
-x,-y,-z
loop_
_atom_site_type_symbol
_atom_site_label
_atom_site_fract_x
_atom_site_fract_y
_atom_site_fract_z
Si Si1 0.638212 0.661229 0.257401
Si Si2 0.243626 0.280663 0.181210
Si Si3 0.245123 0.319267 0.506235
Si Si4 0.654085 0.649382 0.928483
Si Si5 0.214079 0.342803 0.354234
Si Si6 0.396947 0.341862 0.895074
Si Si7 0.629115 0.315201 0.720630
O O1 0.590621 0.645680 0.174687
O O2 0.452106 0.640320 0.244482
O O3 0.962616 0.401556 0.421052
O O4 0.570601 0.989918 0.192041
O O5 0.320476 0.369247 0.132662
O O6 0.508515 0.049359 0.349232
O O7 0.191199 0.044878 0.175817
O O8 0.949814 0.546709 0.067052
O O9 0.203770 0.435423 0.405504
O O10 0.353362 0.450478 0.566223
O O11 0.573626 0.446143 0.960274
O O12 0.229014 0.552982 0.279725
O O13 0.925632 0.406492 0.236446
O O14 0.500000 0.000000 0.500000
O O15 0.500000 0.000000 0.000000
#
# Coordination Sequence:
#
# PCOD9106961 Si02
#       7
#     2   2   2   2   2   2   2
#     4  10  22  40  68  91 114 166 205 248 310 352
#     4   8  19  35  64  87 117 155 207 249 295 353
#     4   9  20  38  64  88 120 158 199 256 302 347
#     4  10  20  40  62  89 119 163 204 245 299 366
#     4  11  24  38  58  95 124 161 201 245 311 362
#     4  11  26  43  59  91 132 156 199 257 301 367
#     4   9  19  39  63  85 123 154 203 251 301 354
#
# _framework density 23.396488000000002
#
# number of rings (size 3 to 8) (size 9 to 14) (size 15 to 20)
#    0.857    1.429    0.000    1.714    2.000    2.857 
#    0.000   12.857    0.000    0.000    0.000    0.000 
#    0.000    0.000    0.000    0.000    0.000    0.000 
#
# Total GULP energy -78173.758116 kJ/mol
# GULP energy per Si atom -5583.839865 kJ/mol
# Density = 2.334324 g / cm^3
# Si number density = 23.396488 Si / 1000 Ang^3
#
#
#
# Elastic Constant Matrix: (Units=GPa)
#
#
# Indices 1 2 3 4 5 6 
#
# 1 116.2456 23.1726 18.8668 -1.6679 -3.9668 17.3573
# 2 23.1726 45.1001 7.0855 -9.2752 -2.9175 24.0739
# 3 18.8668 7.0855 104.4236 -7.4225 7.6673 10.1412
# 4 -1.6679 -9.2752 -7.4225 18.8574 -7.0028 -7.8581
# 5 -3.9668 -2.9175 7.6673 -7.0028 19.0126 1.1529
# 6 17.3573 24.0739 10.1412 -7.8581 1.1529 41.4412
#
#
#
# Elastic Compliance Matrix: (Units=1/GPa)
#
#
# Indices 1 2 3 4 5 6 
#
# 1 0.009994 -0.004289 -0.001596 -0.002048 0.001422 -0.001732
# 2 -0.004289 0.037539 0.000162 0.015095 0.011421 -0.017506
# 3 -0.001596 0.000162 0.010413 0.002062 -0.003658 -0.001481
# 4 -0.002048 0.015095 0.002062 0.073376 0.027797 0.004724
# 5 0.001422 0.011421 -0.003658 0.027797 0.066536 -0.002915
# 6 -0.001732 -0.017506 -0.001481 0.004724 -0.002915 0.036365
#
#
# Mechanical properties :
#
#
# Convention : Reuss Voigt Hill
#
# Bulk Modulus (GPa) = 21.50585 40.44657 30.97621
# Shear Modulus (GPa) = 19.14467 30.30520 24.72494
#
# Velocity S-wave (km/s) = 2.86365 3.60292 3.25434
# Velocity P-wave (km/s) = 4.48841 5.88498 5.23349
#
# Compressibility (1/GPa) = 0.04649898
#
# Stress axis : x y z
#
# Youngs Moduli (GPa) = 100.05734 26.63915 96.03572
#
# Poissons Ratio (x) = 0.11426 0.15332
# Poissons Ratio (y) = 0.42917 -0.01558
# Poissons Ratio (z) = 0.15974 -0.00432
#
# Static dielectric constant tensor:
#      x y z
#    x 1.843030 -0.024300 -0.005840 
#    y -0.024300 1.903820 0.019280 
#    z -0.005840 0.019280 1.903280 
# 
# From -- ./inp_files/616649.got.cif
#   From: 2010.05.17/outbox.cif.g08.bks.cpg/sg2_309_cif.got.tgz:616649.got - 2010.06.03 11:33:40.
