data_PCOD9106597
_publ_section_title
;
Structure prediction by ZEFSAII (Michael W. Deem and Ramdas Pophale) SiO2 
 PCOD9106597
Probable space group: P -1
;
_chemical_formula_sum "Si O2"
_cell_formula_units_Z 14
_cell_length_a 6.716561
_cell_length_b 24.343358
_cell_length_c 9.349600
_cell_angle_alpha 149.835721
_cell_angle_beta 53.221589
_cell_angle_gamma 132.915035
_cell_volume 562.349702
_symmetry_space_group_name_H-M "P -1"
_symmetry_group_IT_number 2
_symmetry_cell_setting 'triclinic'
loop_
_space_group_symop_operation_xyz
x,y,z
-x,-y,-z
loop_
_atom_site_type_symbol
_atom_site_label
_atom_site_fract_x
_atom_site_fract_y
_atom_site_fract_z
Si Si1 0.836292 0.361375 0.301600
Si Si2 0.883903 0.237377 0.454081
Si Si3 0.409382 0.452614 0.775587
Si Si4 0.401049 0.805912 0.228474
Si Si5 0.187321 0.064690 0.880255
Si Si6 0.396952 0.093430 0.175093
Si Si7 0.642115 0.620734 0.800018
O O1 0.556052 0.362690 0.475937
O O2 0.000000 0.500000 0.500000
O O3 0.037465 0.336005 0.263849
O O4 0.797839 0.274505 0.989622
O O5 0.754910 0.180239 0.534661
O O6 0.629700 0.215299 0.408653
O O7 0.092602 0.373601 0.702156
O O8 0.058514 0.164219 0.160820
O O9 0.539258 0.569791 0.885822
O O10 0.500000 0.500000 0.000000
O O11 0.625752 0.916196 0.296201
O O12 0.549823 0.723036 0.030353
O O13 0.359972 0.082491 0.993894
O O14 0.914369 0.942223 0.720923
O O15 0.500000 0.000000 0.000000
O O16 0.500000 0.500000 0.500000
#
# Coordination Sequence:
#
# PCOD9106597 Si02
#       7
#     2   2   2   2   2   2   2
#     4  10  20  40  58  82 131 169 214 268 318 366
#     4  11  23  42  66 101 131 173 228 259 329 394
#     4  11  23  41  61  93 137 179 220 272 321 376
#     4  12  24  41  65  98 130 176 219 269 327 388
#     4  10  22  47  68  96 137 166 210 277 341 383
#     4   9  22  45  73  97 128 169 214 272 333 404
#     4  11  22  40  62  89 127 178 227 263 318 385
#
# _framework density 24.89554
#
# number of rings (size 3 to 8) (size 9 to 14) (size 15 to 20)
#    0.000    1.429    4.286    1.714    0.000    6.857 
#    2.571    6.429    0.000    0.000    0.000    0.000 
#    0.000    0.000    0.000    0.000    0.000    0.000 
#
# Total GULP energy -78294.104701 kJ/mol
# GULP energy per Si atom -5592.436050 kJ/mol
# Density = 2.483888 g / cm^3
# Si number density = 24.895540 Si / 1000 Ang^3
#
#
#
# Elastic Constant Matrix: (Units=GPa)
#
#
# Indices 1 2 3 4 5 6 
#
# 1 151.1674 47.7443 26.9692 17.2973 22.6298 15.8790
# 2 47.7443 157.9086 25.6501 -13.3707 20.0342 15.4582
# 3 26.9692 25.6501 63.5357 -2.0814 6.0752 8.0362
# 4 17.2973 -13.3707 -2.0814 33.3090 -3.4423 10.6736
# 5 22.6298 20.0342 6.0752 -3.4423 51.6736 15.6381
# 6 15.8790 15.4582 8.0362 10.6736 15.6381 48.6588
#
#
#
# Elastic Compliance Matrix: (Units=1/GPa)
#
#
# Indices 1 2 3 4 5 6 
#
# 1 0.009064 -0.002482 -0.002839 -0.006482 -0.003347 0.000797
# 2 -0.002482 0.008123 -0.001683 0.005115 -0.000812 -0.002354
# 3 -0.002839 -0.001683 0.017942 0.002731 0.000669 -0.002316
# 4 -0.006482 0.005115 0.002731 0.039718 0.006431 -0.010740
# 5 -0.003347 -0.000812 0.000669 0.006431 0.023854 -0.007837
# 6 0.000797 -0.002354 -0.002316 -0.010740 -0.007837 0.026296
#
#
# Mechanical properties :
#
#
# Convention : Reuss Voigt Hill
#
# Bulk Modulus (GPa) = 47.34325 63.70432 55.52379
# Shear Modulus (GPa) = 34.23584 44.87815 39.55700
#
# Velocity S-wave (km/s) = 3.71236 4.25038 3.99045
# Velocity P-wave (km/s) = 6.11830 7.05208 6.60172
#
# Compressibility (1/GPa) = 0.02112233
#
# Stress axis : x y z
#
# Youngs Moduli (GPa) = 110.32058 123.10698 55.73489
#
# Poissons Ratio (x) = 0.30553 0.15822
# Poissons Ratio (y) = 0.27379 0.09380
# Poissons Ratio (z) = 0.31318 0.20719
#
# Static dielectric constant tensor:
#      x y z
#    x 2.363730 -0.464690 0.306760 
#    y -0.464690 2.622960 -0.338140 
#    z 0.306760 -0.338140 2.232020 
# 
# From -- ./inp_files/142725.got.cif
#   From: 2010.05.17/outbox.cif.g08.bks.cpg/sg2_72_cif.got.tgz:142725.got - 2010.06.03 11:33:40.
