data_PCOD9106923
_publ_section_title
;
Structure prediction by ZEFSAII (Michael W. Deem and Ramdas Pophale) SiO2 
 PCOD9106923
Probable space group: P -1
;
_chemical_formula_sum "Si O2"
_cell_formula_units_Z 16
_cell_length_a 7.675815
_cell_length_b 12.099731
_cell_length_c 8.261057
_cell_angle_alpha 82.058353
_cell_angle_beta 100.069372
_cell_angle_gamma 118.135717
_cell_volume 664.790172
_symmetry_space_group_name_H-M "P -1"
_symmetry_group_IT_number 2
_symmetry_cell_setting 'triclinic'
loop_
_space_group_symop_operation_xyz
x,y,z
-x,-y,-z
loop_
_atom_site_type_symbol
_atom_site_label
_atom_site_fract_x
_atom_site_fract_y
_atom_site_fract_z
Si Si1 0.906823 0.283908 0.768089
Si Si2 0.728571 0.086990 0.487280
Si Si3 0.511160 0.629821 0.033629
Si Si4 0.253892 0.159809 0.415069
Si Si5 0.690588 0.290064 0.281465
Si Si6 0.300865 0.367512 0.627551
Si Si7 0.862730 0.527445 0.685950
Si Si8 0.911140 0.745583 0.897089
O O1 0.805334 0.181255 0.633065
O O2 0.834075 0.389324 0.745241
O O3 0.134311 0.356753 0.730360
O O4 0.911455 0.225104 0.954823
O O5 0.735029 0.170366 0.316348
O O6 0.500000 0.000000 0.500000
O O7 0.800846 0.981581 0.520146
O O8 0.519722 0.617690 0.230153
O O9 0.500000 0.500000 0.000000
O O10 0.355084 0.661203 0.904977
O O11 0.724718 0.730854 0.980868
O O12 0.484007 0.241852 0.363696
O O13 0.240582 0.239767 0.546565
O O14 0.098784 0.162862 0.258758
O O15 0.904883 0.397296 0.356524
O O16 0.286563 0.461593 0.473179
O O17 0.868175 0.615427 0.822087
#
# Coordination Sequence:
#
# PCOD9106923 Si02
#       8
#     2   2   2   2   2   2   2   2
#     4  11  21  36  65  89 122 157 200 247 306 357
#     4  10  22  40  61  84 119 164 205 251 295 346
#     4  10  21  38  59  88 131 156 192 246 308 362
#     4   9  21  42  62  86 124 160 209 240 297 357
#     4  10  20  40  62  87 125 160 190 259 297 351
#     4  10  21  39  61  94 114 163 200 242 302 361
#     4  11  21  39  64  96 122 154 201 246 309 362
#     4   9  21  40  59  93 122 157 198 251 301 361
#
# _framework density 24.067744999999999
#
# number of rings (size 3 to 8) (size 9 to 14) (size 15 to 20)
#    0.000    2.000    1.250    2.250    1.750    1.000 
#    9.000    4.375    0.000    0.000    0.000    0.000 
#    0.000    0.000    0.000    0.000    0.000    0.000 
#
# Total GULP energy -89308.093161 kJ/mol
# GULP energy per Si atom -5581.755823 kJ/mol
# Density = 2.401297 g / cm^3
# Si number density = 24.067745 Si / 1000 Ang^3
#
#
#
# Elastic Constant Matrix: (Units=GPa)
#
#
# Indices 1 2 3 4 5 6 
#
# 1 137.7365 27.0527 37.7106 -14.6055 18.4726 -21.4717
# 2 27.0527 127.4008 71.2172 -40.5105 27.0332 -39.6064
# 3 37.7106 71.2172 212.4956 -34.6045 42.2399 -30.0034
# 4 -14.6055 -40.5105 -34.6045 27.7713 -11.8527 13.0530
# 5 18.4726 27.0332 42.2399 -11.8527 44.5968 -8.7318
# 6 -21.4717 -39.6064 -30.0034 13.0530 -8.7318 41.4470
#
#
#
# Elastic Compliance Matrix: (Units=1/GPa)
#
#
# Indices 1 2 3 4 5 6 
#
# 1 0.008322 0.000810 -0.000412 0.002433 -0.002205 0.003557
# 2 0.000810 0.018475 -0.000976 0.019856 -0.003292 0.010420
# 3 -0.000412 -0.000976 0.006894 0.004383 -0.004298 0.001559
# 4 0.002433 0.019856 0.004383 0.072105 0.002196 0.001162
# 5 -0.002205 -0.003292 -0.004298 0.002196 0.029624 -0.001850
# 6 0.003557 0.010420 0.001559 0.001162 -0.001850 0.036300
#
#
# Mechanical properties :
#
#
# Convention : Reuss Voigt Hill
#
# Bulk Modulus (GPa) = 30.73530 83.28821 57.01176
# Shear Modulus (GPa) = 27.21507 45.53984 36.37745
#
# Velocity S-wave (km/s) = 3.36634 4.35461 3.89197
# Velocity P-wave (km/s) = 5.28277 7.74366 6.62843
#
# Compressibility (1/GPa) = 0.03253588
#
# Stress axis : x y z
#
# Youngs Moduli (GPa) = 120.16331 54.12750 145.04490
#
# Poissons Ratio (x) = -0.04385 0.05971
# Poissons Ratio (y) = -0.09736 0.14160
# Poissons Ratio (z) = 0.04947 0.05284
#
# Static dielectric constant tensor:
#      x y z
#    x 2.268070 0.689650 1.002120 
#    y 0.689650 3.671610 2.772380 
#    z 1.002120 2.772380 6.397300 
# 
# From -- ./inp_files/186918.got.cif
#   From: 2010.05.17/outbox.cif.g08.bks.cpg/sg2_94_cif.got.tgz:186918.got - 2010.06.03 11:33:40.
