data_PCOD9106605
_publ_section_title
;
Structure prediction by ZEFSAII (Michael W. Deem and Ramdas Pophale) SiO2 
 PCOD9106605
Probable space group: P -1
;
_chemical_formula_sum "Si O2"
_cell_formula_units_Z 16
_cell_length_a 16.723780
_cell_length_b 15.695577
_cell_length_c 5.775794
_cell_angle_alpha 91.341565
_cell_angle_beta 106.853188
_cell_angle_gamma 147.405403
_cell_volume 668.022256
_symmetry_space_group_name_H-M "P -1"
_symmetry_group_IT_number 2
_symmetry_cell_setting 'triclinic'
loop_
_space_group_symop_operation_xyz
x,y,z
-x,-y,-z
loop_
_atom_site_type_symbol
_atom_site_label
_atom_site_fract_x
_atom_site_fract_y
_atom_site_fract_z
Si Si1 0.792284 0.340326 0.081762
Si Si2 0.440437 0.242527 0.324901
Si Si3 0.783618 0.763866 0.371761
Si Si4 0.590945 0.498058 0.827199
Si Si5 0.620850 0.341046 0.089637
Si Si6 0.260820 0.961511 0.539231
Si Si7 0.895274 0.038867 0.312344
Si Si8 0.210505 0.720580 0.421048
O O1 0.714900 0.233897 0.255004
O O2 0.001132 0.499320 0.247371
O O3 0.780949 0.431672 0.121325
O O4 0.709252 0.242281 0.752912
O O5 0.544923 0.415290 0.537857
O O6 0.327826 0.083262 0.398228
O O7 0.598774 0.330530 0.343664
O O8 0.281914 0.126077 0.007456
O O9 0.583712 0.600892 0.283783
O O10 0.910545 0.811959 0.616846
O O11 0.866484 0.933593 0.455991
O O12 0.755437 0.701629 0.082455
O O13 0.602602 0.420609 0.983602
O O14 0.441952 0.125178 0.857084
O O15 0.111472 0.877515 0.557541
O O16 0.211022 0.823089 0.409570
#
# Coordination Sequence:
#
# PCOD9106605 Si02
#       8
#     2   2   2   2   2   2   2   2
#     4  10  24  44  66  96 130 166 213 270 325 395
#     4  10  20  40  60  91 124 170 217 258 316 386
#     4  10  20  40  58  87 130 162 215 264 326 370
#     4  10  21  39  59  89 126 169 208 269 314 386
#     4  10  22  40  63  91 127 165 210 263 325 383
#     4  10  22  40  63  91 127 165 210 263 325 383
#     4  10  21  39  59  89 126 169 208 269 314 386
#     4  10  24  44  66  96 130 166 213 270 325 395
#
# _framework density 23.951294999999998
#
# number of rings (size 3 to 8) (size 9 to 14) (size 15 to 20)
#    0.000    2.000    3.750    0.000    8.750    2.000 
#    0.000    0.000    0.000    0.000    0.000    0.000 
#    0.000    0.000    0.000    0.000    0.000    0.000 
#
# Total GULP energy -89151.531441 kJ/mol
# GULP energy per Si atom -5571.970715 kJ/mol
# Density = 2.389678 g / cm^3
# Si number density = 23.951295 Si / 1000 Ang^3
#
#
#
# Elastic Constant Matrix: (Units=GPa)
#
#
# Indices 1 2 3 4 5 6 
#
# 1 127.8214 25.6922 61.9049 -11.0418 -20.3473 -2.8367
# 2 25.6922 49.5542 30.6653 -0.2768 -5.4885 -15.3689
# 3 61.9049 30.6653 95.7669 -5.2965 -28.5458 6.1607
# 4 -11.0418 -0.2768 -5.2965 34.5419 0.5146 -1.3736
# 5 -20.3473 -5.4885 -28.5458 0.5146 41.8592 2.6668
# 6 -2.8367 -15.3689 6.1607 -1.3736 2.6668 29.4765
#
#
#
# Elastic Compliance Matrix: (Units=1/GPa)
#
#
# Indices 1 2 3 4 5 6 
#
# 1 0.011877 -0.000925 -0.007205 0.002765 0.000561 0.002245
# 2 -0.000925 0.035614 -0.014371 -0.001233 -0.006970 0.022057
# 3 -0.007205 -0.014371 0.024245 0.000550 0.012053 -0.014318
# 4 0.002765 -0.001233 0.000550 0.029924 0.001139 0.000800
# 5 0.000561 -0.006970 0.012053 0.001139 0.032024 -0.008943
# 6 0.002245 0.022057 -0.014318 0.000800 -0.008943 0.049481
#
#
# Mechanical properties :
#
#
# Convention : Reuss Voigt Hill
#
# Bulk Modulus (GPa) = 37.40494 56.62968 47.01731
# Shear Modulus (GPa) = 21.09001 31.50086 26.29543
#
# Velocity S-wave (km/s) = 2.97060 3.63051 3.31701
# Velocity P-wave (km/s) = 5.23612 6.42411 5.86030
#
# Compressibility (1/GPa) = 0.02673444
#
# Stress axis : x y z
#
# Youngs Moduli (GPa) = 84.19607 28.07850 41.24483
#
# Poissons Ratio (x) = 0.02598 0.29718
# Poissons Ratio (y) = 0.07790 0.59272
# Poissons Ratio (z) = 0.60666 0.40351
#
# Static dielectric constant tensor:
#      x y z
#    x 1.973330 0.084540 0.017790 
#    y 0.084540 1.971180 -0.036870 
#    z 0.017790 -0.036870 2.011930 
# 
# From -- ./inp_files/98343.got.cif
#   From: 2010.05.17/outbox.cif.g08.bks.cpg/sg2_50_cif.got.tgz:98343.got - 2010.06.03 11:33:40.
