data_PCOD9106367
_publ_section_title
;
Structure prediction by ZEFSAII (Michael W. Deem and Ramdas Pophale) SiO2 
 PCOD9106367
Probable space group: P -1
;
_chemical_formula_sum "Si O2"
_cell_formula_units_Z 16
_cell_length_a 12.147790
_cell_length_b 18.833814
_cell_length_c 9.894925
_cell_angle_alpha 36.953555
_cell_angle_beta 37.108601
_cell_angle_gamma 36.811027
_cell_volume 733.146844
_symmetry_space_group_name_H-M "P -1"
_symmetry_group_IT_number 2
_symmetry_cell_setting 'triclinic'
loop_
_space_group_symop_operation_xyz
x,y,z
-x,-y,-z
loop_
_atom_site_type_symbol
_atom_site_label
_atom_site_fract_x
_atom_site_fract_y
_atom_site_fract_z
Si Si1 0.907306 0.117377 0.213459
Si Si2 0.260464 0.520750 0.569123
Si Si3 0.664389 0.279890 0.447376
Si Si4 0.532272 0.099119 0.223802
Si Si5 0.141730 0.812436 0.161751
Si Si6 0.932497 0.832981 0.597900
Si Si7 0.373843 0.975504 0.044624
Si Si8 0.801550 0.635858 0.907110
O O1 0.751986 0.236455 0.277202
O O2 0.136177 0.077578 0.104408
O O3 0.888822 0.161019 0.008190
O O4 0.873438 0.984547 0.472058
O O5 0.453878 0.412021 0.465657
O O6 0.262043 0.658204 0.320317
O O7 0.016291 0.557847 0.736350
O O8 0.280716 0.457732 0.796132
O O9 0.854273 0.255618 0.397458
O O10 0.613068 0.165469 0.724209
O O11 0.372957 0.250250 0.180704
O O12 0.500000 0.000000 0.500000
O O13 0.746171 0.104301 0.018209
O O14 0.519940 0.042200 0.176233
O O15 0.950757 0.851207 0.390284
O O16 0.837040 0.728209 0.847380
O O17 0.500000 0.000000 0.000000
#
# Coordination Sequence:
#
# PCOD9106367 Si02
#       8
#     2   2   2   2   2   2   2   2
#     4  11  24  40  67  99 133 174 214 274 339 390
#     4  10  23  41  64  92 136 179 228 258 319 400
#     4  11  23  41  64  96 128 187 224 256 326 399
#     4  12  25  40  69 106 131 165 218 284 342 377
#     4  11  23  42  67  95 139 172 217 270 328 392
#     4  10  20  39  69  93 126 170 222 278 329 387
#     4  11  25  43  66  98 136 168 216 274 338 397
#     4  10  22  39  65  98 131 170 222 281 323 378
#
# _framework density 21.823730999999999
#
# number of rings (size 3 to 8) (size 9 to 14) (size 15 to 20)
#    0.000    1.250    3.750    2.625    8.750    6.000 
#    0.000    0.000    0.000    2.250    0.000    0.000 
#    0.000    0.000    0.000    0.000    0.000    0.000 
#
# Total GULP energy -89152.287571 kJ/mol
# GULP energy per Si atom -5572.017973 kJ/mol
# Density = 2.177406 g / cm^3
# Si number density = 21.823731 Si / 1000 Ang^3
#
#
#
# Elastic Constant Matrix: (Units=GPa)
#
#
# Indices 1 2 3 4 5 6 
#
# 1 98.3861 18.7228 36.4681 0.8252 9.6618 13.3979
# 2 18.7228 154.6101 43.9432 8.7895 13.7521 -8.4898
# 3 36.4681 43.9432 105.6659 -21.3030 20.2575 4.1016
# 4 0.8252 8.7895 -21.3030 40.7795 5.6395 2.1445
# 5 9.6618 13.7521 20.2575 5.6395 37.8018 2.6248
# 6 13.3979 -8.4898 4.1016 2.1445 2.6248 25.8842
#
#
#
# Elastic Compliance Matrix: (Units=1/GPa)
#
#
# Indices 1 2 3 4 5 6 
#
# 1 0.012697 -0.000494 -0.004380 -0.002131 0.000007 -0.005864
# 2 -0.000494 0.008186 -0.004158 -0.004095 -0.000288 0.003968
# 3 -0.004380 -0.004158 0.016393 0.010698 -0.007623 -0.001808
# 4 -0.002131 -0.004095 0.010698 0.032378 -0.008266 -0.003780
# 5 0.000007 -0.000288 -0.007623 -0.008266 0.031976 -0.001448
# 6 -0.005864 0.003968 -0.001808 -0.003780 -0.001448 0.043717
#
#
# Mechanical properties :
#
#
# Convention : Reuss Voigt Hill
#
# Bulk Modulus (GPa) = 52.05189 61.88114 56.96652
# Shear Modulus (GPa) = 29.44365 38.19497 33.81931
#
# Velocity S-wave (km/s) = 3.67707 4.18803 3.94084
# Velocity P-wave (km/s) = 6.47539 7.19740 6.84592
#
# Compressibility (1/GPa) = 0.01921160
#
# Stress axis : x y z
#
# Youngs Moduli (GPa) = 78.75638 122.16129 61.00138
#
# Poissons Ratio (x) = 0.06037 0.26718
# Poissons Ratio (y) = 0.03892 0.25366
# Poissons Ratio (z) = 0.34495 0.50797
#
# Static dielectric constant tensor:
#      x y z
#    x 1.301040 -0.369330 -0.390290 
#    y -0.369330 1.761890 -0.141490 
#    z -0.390290 -0.141490 1.578070 
# 
# From -- ./inp_files/278746.got.cif
#   From: 2010.05.17/outbox.cif.g08.bks.cpg/sg2_140_cif.got.tgz:278746.got - 2010.06.03 11:33:40.
