data_PCOD9106098
_publ_section_title
;
Structure prediction by ZEFSAII (Michael W. Deem and Ramdas Pophale) SiO2 
 PCOD9106098
Probable space group: P -1
;
_chemical_formula_sum "Si O2"
_cell_formula_units_Z 15
_cell_length_a 7.636053
_cell_length_b 15.051116
_cell_length_c 15.843823
_cell_angle_alpha 146.508749
_cell_angle_beta 139.619894
_cell_angle_gamma 46.027230
_cell_volume 642.040615
_symmetry_space_group_name_H-M "P -1"
_symmetry_group_IT_number 2
_symmetry_cell_setting 'triclinic'
loop_
_space_group_symop_operation_xyz
x,y,z
-x,-y,-z
loop_
_atom_site_type_symbol
_atom_site_label
_atom_site_fract_x
_atom_site_fract_y
_atom_site_fract_z
Si Si1 0.914633 0.965706 0.130046
Si Si2 0.708319 0.171384 0.547434
Si Si3 0.166757 0.321359 0.906863
Si Si4 0.468709 0.769447 0.870230
Si Si5 0.470043 0.169522 0.743017
Si Si6 0.500000 0.500000 0.500000
Si Si7 0.296240 0.435476 0.521863
Si Si8 0.027356 0.785080 0.501921
O O1 0.205870 0.850597 0.147180
O O2 0.814633 0.102408 0.129583
O O3 0.916561 0.084728 0.305431
O O4 0.683095 0.854298 0.965102
O O5 0.467457 0.324497 0.566340
O O6 0.864937 0.164536 0.509655
O O7 0.931477 0.207679 0.725889
O O8 0.587615 0.009437 0.391928
O O9 0.324378 0.301146 0.860276
O O10 0.391777 0.273735 0.023364
O O11 0.000000 0.500000 0.000000
O O12 0.433799 0.597912 0.676974
O O13 0.300584 0.208119 0.624797
O O14 0.340647 0.362925 0.387954
O O15 0.195186 0.609808 0.447817
O O16 0.000000 0.500000 0.500000
#
# Coordination Sequence:
#
# PCOD9106098 Si02
#       8
#     2   2   2   2   2   1   2   2
#     4  11  23  40  65  92 130 172 209 278 334 383
#     4  10  21  39  68  94 124 171 223 266 324 396
#     4  11  22  42  64  91 132 173 208 271 338 391
#     4  11  23  42  62  88 134 173 211 264 342 392
#     4  11  23  40  66 102 123 166 234 266 322 407
#     4  10  22  40  66  96 132 168 222 270 336 386
#     4  11  22  42  66  96 129 174 222 275 326 399
#     4  10  20  39  67  93 130 169 215 276 327 388
#
# _framework density 23.363009000000002
#
# number of rings (size 3 to 8) (size 9 to 14) (size 15 to 20)
#    0.000    1.333    2.667    4.400    0.000    0.533 
#    2.400    0.667    0.000    0.000    0.000    0.000 
#    0.000    0.000    0.000    0.000    0.000    0.000 
#
# Total GULP energy -83646.381027 kJ/mol
# GULP energy per Si atom -5576.425402 kJ/mol
# Density = 2.330983 g / cm^3
# Si number density = 23.363009 Si / 1000 Ang^3
#
#
#
# Elastic Constant Matrix: (Units=GPa)
#
#
# Indices 1 2 3 4 5 6 
#
# 1 46.5772 30.4436 16.5996 -10.8914 0.8438 -20.8027
# 2 30.4436 176.6522 43.0136 -27.5863 5.6663 -19.5797
# 3 16.5996 43.0136 76.7252 -10.0949 -6.1457 -7.5132
# 4 -10.8914 -27.5863 -10.0949 43.7087 -1.8485 -1.5994
# 5 0.8438 5.6663 -6.1457 -1.8485 26.7339 -11.9917
# 6 -20.8027 -19.5797 -7.5132 -1.5994 -11.9917 48.8510
#
#
#
# Elastic Compliance Matrix: (Units=1/GPa)
#
#
# Indices 1 2 3 4 5 6 
#
# 1 0.031510 -0.002404 -0.002872 0.006394 0.005371 0.013541
# 2 -0.002404 0.007597 -0.003284 0.003420 -0.001486 0.001263
# 3 -0.002872 -0.003284 0.016192 0.001215 0.005157 0.001257
# 4 0.006394 0.003420 0.001215 0.027306 0.004003 0.006157
# 5 0.005371 -0.001486 0.005157 0.004003 0.045159 0.013701
# 6 0.013541 0.001263 0.001257 0.006157 0.013701 0.030501
#
#
# Mechanical properties :
#
#
# Convention : Reuss Voigt Hill
#
# Bulk Modulus (GPa) = 26.19283 53.34091 39.76687
# Shear Modulus (GPa) = 26.58005 37.85189 32.21597
#
# Velocity S-wave (km/s) = 3.37664 4.02949 3.71742
# Velocity P-wave (km/s) = 5.14177 6.67308 5.95684
#
# Compressibility (1/GPa) = 0.03817838
#
# Stress axis : x y z
#
# Youngs Moduli (GPa) = 31.73591 131.63844 61.75884
#
# Poissons Ratio (x) = 0.31646 0.17738
# Poissons Ratio (y) = 0.07629 0.20282
# Poissons Ratio (z) = 0.09115 0.43230
#
# Static dielectric constant tensor:
#      x y z
#    x 1.665730 0.001840 0.246800 
#    y 0.001840 1.924860 -0.037260 
#    z 0.246800 -0.037260 1.693660 
# 
# From -- ./inp_files/190026.got.cif
#   From: 2010.05.17/outbox.cif.g08.bks.cpg/sg2_96_cif.got.tgz:190026.got - 2010.06.03 11:33:40.
