data_PCOD9106423
_publ_section_title
;
Structure prediction by ZEFSAII (Michael W. Deem and Ramdas Pophale) SiO2 
 PCOD9106423
Probable space group: P -1
;
_chemical_formula_sum "Si O2"
_cell_formula_units_Z 14
_cell_length_a 18.283527
_cell_length_b 9.245392
_cell_length_c 15.657973
_cell_angle_alpha 144.448850
_cell_angle_beta 24.651117
_cell_angle_gamma 128.069843
_cell_volume 553.454654
_symmetry_space_group_name_H-M "P -1"
_symmetry_group_IT_number 2
_symmetry_cell_setting 'triclinic'
loop_
_space_group_symop_operation_xyz
x,y,z
-x,-y,-z
loop_
_atom_site_type_symbol
_atom_site_label
_atom_site_fract_x
_atom_site_fract_y
_atom_site_fract_z
Si Si1 0.267725 0.263373 0.374425
Si Si2 0.993950 0.175332 0.172873
Si Si3 0.682242 0.556578 0.413423
Si Si4 0.249037 0.029595 0.556773
Si Si5 0.749450 0.015896 0.978043
Si Si6 0.828899 0.127715 0.616764
Si Si7 0.341657 0.243735 0.907470
O O1 0.171279 0.485018 0.505301
O O2 0.239664 0.456775 0.581012
O O3 0.146667 0.101699 0.449456
O O4 0.500000 0.000000 0.000000
O O5 0.911898 0.051387 0.274467
O O6 0.215123 0.143727 0.935318
O O7 0.000000 0.000000 0.000000
O O8 0.693893 0.270006 0.228846
O O9 0.450240 0.821795 0.789464
O O10 0.792077 0.653706 0.273125
O O11 0.288314 0.892474 0.353438
O O12 0.424336 0.929489 0.394465
O O13 0.760997 0.747443 0.887016
O O14 0.952526 0.937632 0.677248
O O15 0.701825 0.454952 0.938500
#
# Coordination Sequence:
#
# PCOD9106423 Si02
#       7
#     2   2   2   2   2   2   2
#     4  11  26  44  63  96 141 179 217 275 338 400
#     4  12  27  44  68  99 138 181 223 273 336 406
#     4   9  22  42  68  95 132 171 226 276 328 392
#     4  10  23  43  70  95 131 172 226 279 333 388
#     4  10  20  39  70 102 122 171 229 281 324 388
#     4  11  23  41  72  96 131 175 228 274 329 401
#     4  11  23  42  67 101 133 170 224 280 333 394
#
# _framework density 25.295656999999999
#
# number of rings (size 3 to 8) (size 9 to 14) (size 15 to 20)
#    0.000    1.429    1.429    2.571    4.000    3.429 
#    2.571    0.000    0.000    0.000    0.000    0.000 
#    0.000    0.000    0.000    0.000    0.000    0.000 
#
# Total GULP energy -78246.187978 kJ/mol
# GULP energy per Si atom -5589.013427 kJ/mol
# Density = 2.523808 g / cm^3
# Si number density = 25.295657 Si / 1000 Ang^3
#
#
#
# Elastic Constant Matrix: (Units=GPa)
#
#
# Indices 1 2 3 4 5 6 
#
# 1 105.0442 27.5791 14.7709 1.8070 -22.7879 15.8312
# 2 27.5791 76.6238 -3.4226 0.7003 -9.5453 -2.5971
# 3 14.7709 -3.4226 84.6836 0.3887 -37.5198 -1.7949
# 4 1.8070 0.7003 0.3887 35.3453 1.6480 -7.2584
# 5 -22.7879 -9.5453 -37.5198 1.6480 42.3557 -8.3403
# 6 15.8312 -2.5971 -1.7949 -7.2584 -8.3403 40.5767
#
#
#
# Elastic Compliance Matrix: (Units=1/GPa)
#
#
# Indices 1 2 3 4 5 6 
#
# 1 0.012318 -0.004012 -0.000361 -0.001671 0.004595 -0.004433
# 2 -0.004012 0.015479 0.003838 0.000407 0.005487 0.003926
# 3 -0.000361 0.003838 0.021279 -0.000114 0.020617 0.005545
# 4 -0.001671 0.000407 -0.000114 0.029600 -0.000922 0.005778
# 5 0.004595 0.005487 0.020617 -0.000922 0.047399 0.009048
# 6 -0.004433 0.003926 0.005545 0.005778 0.009048 0.029764
#
#
# Mechanical properties :
#
#
# Convention : Reuss Voigt Hill
#
# Bulk Modulus (GPa) = 20.83111 38.24516 29.53813
# Shear Modulus (GPa) = 28.91646 38.81714 33.86680
#
# Velocity S-wave (km/s) = 3.38470 3.92157 3.66298
# Velocity P-wave (km/s) = 4.85055 5.97135 5.43989
#
# Compressibility (1/GPa) = 0.04800513
#
# Stress axis : x y z
#
# Youngs Moduli (GPa) = 81.18445 64.60303 46.99425
#
# Poissons Ratio (x) = 0.25920 0.01697
# Poissons Ratio (y) = 0.32572 -0.18035
# Poissons Ratio (z) = 0.02931 -0.24793
#
# Static dielectric constant tensor:
#      x y z
#    x 2.031690 0.019560 -0.027900 
#    y 0.019560 1.992950 0.001810 
#    z -0.027900 0.001810 2.018250 
# 
# From -- ./inp_files/577459.got.cif
#   From: 2010.05.17/outbox.cif.g08.bks.cpg/sg2_289_cif.got.tgz:577459.got - 2010.06.03 11:33:40.
