data_PCOD9106068
_publ_section_title
;
Structure prediction by ZEFSAII (Michael W. Deem and Ramdas Pophale) SiO2 
 PCOD9106068
Probable space group: P -1
;
_chemical_formula_sum "Si O2"
_cell_formula_units_Z 12
_cell_length_a 18.837686
_cell_length_b 7.912004
_cell_length_c 17.557198
_cell_angle_alpha 30.087592
_cell_angle_beta 21.014358
_cell_angle_gamma 39.667135
_cell_volume 459.836124
_symmetry_space_group_name_H-M "P -1"
_symmetry_group_IT_number 2
_symmetry_cell_setting 'triclinic'
loop_
_space_group_symop_operation_xyz
x,y,z
-x,-y,-z
loop_
_atom_site_type_symbol
_atom_site_label
_atom_site_fract_x
_atom_site_fract_y
_atom_site_fract_z
Si Si1 0.267594 0.103014 0.593059
Si Si2 0.574306 0.706569 0.420441
Si Si3 0.855797 0.239064 0.304378
Si Si4 0.576848 0.769615 0.077355
Si Si5 0.905985 0.175025 0.668578
Si Si6 0.893331 0.389054 0.843671
O O1 0.410580 0.421354 0.367373
O O2 0.047869 0.168012 0.808459
O O3 0.376024 0.786782 0.629332
O O4 0.255224 0.053598 0.531339
O O5 0.500000 0.500000 0.500000
O O6 0.715151 0.453625 0.406552
O O7 0.712882 0.079451 0.116073
O O8 0.986485 0.100730 0.290704
O O9 0.000000 0.500000 0.000000
O O10 0.782221 0.633357 0.907888
O O11 0.500000 0.000000 0.000000
O O12 0.663870 0.021141 0.963066
O O13 0.982395 0.346735 0.444305
O O14 0.000000 0.500000 0.500000
#
# Coordination Sequence:
#
# PCOD9106068 Si02
#       6
#     2   2   2   2   2   2
#     4  10  20  39  67  91 128 174 219 260 334 383
#     4   9  20  36  64  93 124 174 217 262 318 388
#     4  11  20  41  68  93 136 177 217 272 329 383
#     4  11  23  41  65  99 136 168 219 272 335 397
#     4  12  23  40  68 101 128 174 223 273 332 392
#     4  11  21  41  70  92 136 172 215 276 334 378
#
# _framework density 26.096253999999998
#
# number of rings (size 3 to 8) (size 9 to 14) (size 15 to 20)
#    0.000    1.333    5.000    0.500    0.000    0.000 
#    0.000   22.500    0.000    0.000    0.000    0.000 
#    0.000    0.000    0.000    0.000    0.000    0.000 
#
# Total GULP energy -66888.824157 kJ/mol
# GULP energy per Si atom -5574.068680 kJ/mol
# Density = 2.603686 g / cm^3
# Si number density = 26.096254 Si / 1000 Ang^3
#
#
#
# Elastic Constant Matrix: (Units=GPa)
#
#
# Indices 1 2 3 4 5 6 
#
# 1 143.5642 59.0034 61.1867 -8.7431 -29.1148 -21.9081
# 2 59.0034 178.8249 43.3338 8.6210 -9.7504 -29.0535
# 3 61.1867 43.3338 146.1769 -18.5832 -31.0935 -0.5789
# 4 -8.7431 8.6210 -18.5832 44.5833 5.4736 -15.3864
# 5 -29.1148 -9.7504 -31.0935 5.4736 58.0750 -3.0281
# 6 -21.9081 -29.0535 -0.5789 -15.3864 -3.0281 48.1239
#
#
#
# Elastic Compliance Matrix: (Units=1/GPa)
#
#
# Indices 1 2 3 4 5 6 
#
# 1 0.010496 -0.001990 -0.002737 0.002445 0.003469 0.004543
# 2 -0.001990 0.007139 -0.001513 -0.001349 -0.000329 0.002934
# 3 -0.002737 -0.001513 0.009479 0.003019 0.003118 -0.000884
# 4 0.002445 -0.001349 0.003019 0.027532 0.000499 0.009169
# 5 0.003469 -0.000329 0.003118 0.000499 0.020676 0.002878
# 6 0.004543 0.002934 -0.000884 0.009169 0.002878 0.027721
#
#
# Mechanical properties :
#
#
# Convention : Reuss Voigt Hill
#
# Bulk Modulus (GPa) = 68.33753 88.40153 78.36953
# Shear Modulus (GPa) = 41.52835 50.49259 46.01047
#
# Velocity S-wave (km/s) = 3.99350 4.40348 4.20349
# Velocity P-wave (km/s) = 6.89258 7.73323 7.32498
#
# Compressibility (1/GPa) = 0.01463325
#
# Stress axis : x y z
#
# Youngs Moduli (GPa) = 95.27833 140.07176 105.50044
#
# Poissons Ratio (x) = 0.27881 0.28870
# Poissons Ratio (y) = 0.18965 0.15963
# Poissons Ratio (z) = 0.26073 0.21194
#
# Static dielectric constant tensor:
#      x y z
#    x 2.261150 0.043150 0.070600 
#    y 0.043150 2.153190 0.047680 
#    z 0.070600 0.047680 2.186970 
# 
# From -- ./inp_files/600946.got.cif
#   From: 2010.05.17/outbox.cif.g08.bks.cpg/sg2_301_cif.got.tgz:600946.got - 2010.06.03 11:33:40.
