data_PCOD9106620
_publ_section_title
;
Structure prediction by ZEFSAII (Michael W. Deem and Ramdas Pophale) SiO2 
 PCOD9106620
Probable space group: P -1
;
_chemical_formula_sum "Si O2"
_cell_formula_units_Z 16
_cell_length_a 5.653418
_cell_length_b 8.892900
_cell_length_c 14.372039
_cell_angle_alpha 111.334855
_cell_angle_beta 95.957255
_cell_angle_gamma 91.548980
_cell_volume 667.767716
_symmetry_space_group_name_H-M "P -1"
_symmetry_group_IT_number 2
_symmetry_cell_setting 'triclinic'
loop_
_space_group_symop_operation_xyz
x,y,z
-x,-y,-z
loop_
_atom_site_type_symbol
_atom_site_label
_atom_site_fract_x
_atom_site_fract_y
_atom_site_fract_z
Si Si1 0.641548 0.886965 0.690132
Si Si2 0.941446 0.603430 0.314721
Si Si3 0.942991 0.959641 0.164704
Si Si4 0.683805 0.269162 0.200513
Si Si5 0.370617 0.170908 0.715297
Si Si6 0.222434 0.573497 0.144014
Si Si7 0.766353 0.544383 0.558990
Si Si8 0.912207 0.282648 0.024836
O O1 0.529698 0.808540 0.763383
O O2 0.760783 0.738223 0.613695
O O3 0.456193 0.992955 0.651553
O O4 0.827410 0.032970 0.759429
O O5 0.763961 0.443879 0.284261
O O6 0.807550 0.766401 0.356653
O O7 0.006701 0.615642 0.211536
O O8 0.177269 0.558242 0.369085
O O9 0.732910 0.869966 0.194467
O O10 0.887558 0.144883 0.195367
O O11 0.005211 0.881209 0.052812
O O12 0.702118 0.277681 0.091508
O O13 0.551683 0.328831 0.778857
O O14 0.154469 0.380231 0.094666
O O15 0.188415 0.629637 0.050084
O O16 0.500000 0.500000 0.500000
O O17 0.000000 0.500000 0.500000
#
# Coordination Sequence:
#
# PCOD9106620 Si02
#       8
#     2   2   2   2   2   2   2   2
#     4  11  24  47  72 103 149 194 239 303 390 432
#     4  11  23  46  73 108 141 194 247 293 386 440
#     4  11  21  42  62 101 149 201 247 306 350 429
#     4  10  23  38  68 101 148 202 247 303 348 436
#     4  11  23  41  74  99 144 207 241 291 371 440
#     4  10  22  40  63  99 153 199 243 310 344 428
#     4  12  29  52  84 116 143 181 245 320 386 474
#     4  10  20  40  59 107 148 196 268 293 338 411
#
# _framework density 23.960428
#
# number of rings (size 3 to 8) (size 9 to 14) (size 15 to 20)
#    0.000    1.250    3.750    1.125    5.250    1.000 
#    2.250    1.250    0.000    0.000    0.000    0.000 
#    0.000    0.000    0.000    0.000    0.000    0.000 
#
# Total GULP energy -89127.962519 kJ/mol
# GULP energy per Si atom -5570.497657 kJ/mol
# Density = 2.390589 g / cm^3
# Si number density = 23.960428 Si / 1000 Ang^3
#
#
#
# Elastic Constant Matrix: (Units=GPa)
#
#
# Indices 1 2 3 4 5 6 
#
# 1 88.5784 45.6909 30.3236 23.2707 -8.7736 -11.0863
# 2 45.6909 136.0591 41.1123 13.7983 4.1745 -37.4151
# 3 30.3236 41.1123 52.1207 17.5376 -11.2116 -15.5935
# 4 23.2707 13.7983 17.5376 24.5599 -3.1167 6.7582
# 5 -8.7736 4.1745 -11.2116 -3.1167 27.8671 4.3108
# 6 -11.0863 -37.4151 -15.5935 6.7582 4.3108 51.0027
#
#
#
# Elastic Compliance Matrix: (Units=1/GPa)
#
#
# Indices 1 2 3 4 5 6 
#
# 1 0.018059 -0.003682 -0.001239 -0.014349 0.003758 0.002429
# 2 -0.003682 0.013205 -0.006845 -0.002086 -0.007314 0.007688
# 3 -0.001239 -0.006845 0.038170 -0.023013 0.012118 0.008405
# 4 -0.014349 -0.002086 -0.023013 0.077760 -0.001384 -0.021872
# 5 0.003758 -0.007314 0.012118 -0.001384 0.043556 -0.004341
# 6 0.002429 0.007688 0.008405 -0.021872 -0.004341 0.031610
#
#
# Mechanical properties :
#
#
# Convention : Reuss Voigt Hill
#
# Bulk Modulus (GPa) = 21.78504 56.77909 39.28206
# Shear Modulus (GPa) = 19.14301 31.32802 25.23552
#
# Velocity S-wave (km/s) = 2.82962 3.61985 3.24885
# Velocity P-wave (km/s) = 4.44832 6.42024 5.52300
#
# Compressibility (1/GPa) = 0.04590306
#
# Stress axis : x y z
#
# Youngs Moduli (GPa) = 55.37435 75.73086 26.19828
#
# Poissons Ratio (x) = 0.27887 0.03245
# Poissons Ratio (y) = 0.20391 0.17932
# Poissons Ratio (z) = 0.06858 0.51835
#
# Static dielectric constant tensor:
#      x y z
#    x 2.021750 -0.077910 0.008690 
#    y -0.077910 2.029770 -0.059230 
#    z 0.008690 -0.059230 1.964970 
# 
# From -- ./inp_files/480773.got.cif
#   From: 2010.05.17/outbox.cif.g08.bks.cpg/sg2_241_cif.got.tgz:480773.got - 2010.06.03 11:33:40.
