data_PCOD9106594
_publ_section_title
;
Structure prediction by ZEFSAII (Michael W. Deem and Ramdas Pophale) SiO2 
 PCOD9106594
Probable space group: P -1
;
_chemical_formula_sum "Si O2"
_cell_formula_units_Z 12
_cell_length_a 8.452389
_cell_length_b 9.080585
_cell_length_c 16.428278
_cell_angle_alpha 38.427056
_cell_angle_beta 44.619348
_cell_angle_gamma 47.293130
_cell_volume 529.018672
_symmetry_space_group_name_H-M "P -1"
_symmetry_group_IT_number 2
_symmetry_cell_setting 'triclinic'
loop_
_space_group_symop_operation_xyz
x,y,z
-x,-y,-z
loop_
_atom_site_type_symbol
_atom_site_label
_atom_site_fract_x
_atom_site_fract_y
_atom_site_fract_z
Si Si1 0.962736 0.921009 0.806535
Si Si2 0.118181 0.548603 0.330512
Si Si3 0.782478 0.805934 0.083799
Si Si4 0.388441 0.649086 0.683193
Si Si5 0.971680 0.945724 0.440375
Si Si6 0.278477 0.688617 0.037038
O O1 0.002868 0.180307 0.708174
O O2 0.885611 0.954779 0.725248
O O3 0.211799 0.716628 0.796570
O O4 0.785490 0.862729 0.961403
O O5 0.346463 0.430395 0.352409
O O6 0.979400 0.344833 0.464652
O O7 0.202786 0.586852 0.192708
O O8 0.671657 0.583593 0.235883
O O9 0.055967 0.731997 0.040402
O O10 0.676777 0.051192 0.068046
O O11 0.293139 0.894817 0.557392
O O12 0.000000 0.000000 0.500000
O O13 0.500000 0.500000 0.000000
#
# Coordination Sequence:
#
# PCOD9106594 Si02
#       6
#     2   2   2   2   2   2
#     4   9  22  36  67  81 120 157 189 247 287 347
#     4  11  21  41  60  89 116 157 201 231 296 354
#     4  10  20  40  57  94 118 152 197 236 300 343
#     4  10  22  36  63  85 120 152 196 242 287 354
#     4  10  22  41  60  85 118 158 195 246 291 339
#     4  10  22  36  63  88 123 153 191 248 288 348
#
# _framework density 22.683508
#
# number of rings (size 3 to 8) (size 9 to 14) (size 15 to 20)
#    1.000    1.000    0.000    3.500    0.000    4.000 
#    0.000    0.833    0.000    0.000    0.000    0.000 
#    0.000    0.000    0.000    0.000    0.000    0.000 
#
# Total GULP energy -67008.056893 kJ/mol
# GULP energy per Si atom -5584.004741 kJ/mol
# Density = 2.263188 g / cm^3
# Si number density = 22.683508 Si / 1000 Ang^3
#
#
#
# Elastic Constant Matrix: (Units=GPa)
#
#
# Indices 1 2 3 4 5 6 
#
# 1 68.1013 28.7192 16.9096 6.6632 11.4712 9.7572
# 2 28.7192 123.4001 25.7787 -6.8197 0.0949 3.4259
# 3 16.9096 25.7787 49.4432 -16.8991 7.6727 16.5259
# 4 6.6632 -6.8197 -16.8991 37.2964 9.0284 6.6842
# 5 11.4712 0.0949 7.6727 9.0284 29.7034 5.4247
# 6 9.7572 3.4259 16.5259 6.6842 5.4247 26.6468
#
#
#
# Elastic Compliance Matrix: (Units=1/GPa)
#
#
# Indices 1 2 3 4 5 6 
#
# 1 0.018873 -0.003500 -0.005579 -0.005415 -0.004041 -0.000820
# 2 -0.003500 0.010039 -0.006353 -0.001779 0.002806 0.003806
# 3 -0.005579 -0.006353 0.049369 0.031509 -0.014169 -0.032777
# 4 -0.005415 -0.001779 0.031509 0.050506 -0.016529 -0.026634
# 5 -0.004041 0.002806 -0.014169 -0.016529 0.042932 0.005312
# 6 -0.000820 0.003806 -0.032777 -0.026634 0.005312 0.063266
#
#
# Mechanical properties :
#
#
# Convention : Reuss Voigt Hill
#
# Bulk Modulus (GPa) = 21.08950 42.63994 31.86472
# Shear Modulus (GPa) = 17.75220 30.03182 23.89201
#
# Velocity S-wave (km/s) = 2.80054 3.64256 3.24894
# Velocity P-wave (km/s) = 4.44689 6.04397 5.30586
#
# Compressibility (1/GPa) = 0.04741695
#
# Stress axis : x y z
#
# Youngs Moduli (GPa) = 52.98466 99.60845 20.25564
#
# Poissons Ratio (x) = 0.34866 0.11302
# Poissons Ratio (y) = 0.18546 0.12868
# Poissons Ratio (z) = 0.29563 0.63277
#
# Static dielectric constant tensor:
#      x y z
#    x 1.857520 -0.006980 0.017250 
#    y -0.006980 1.840080 0.013000 
#    z 0.017250 0.013000 1.880580 
# 
# From -- ./inp_files/157437.got.cif
#   From: 2010.05.17/outbox.cif.g08.bks.cpg/sg2_79_cif.got.tgz:157437.got - 2010.06.03 11:33:40.
