data_PCOD9106580
_publ_section_title
;
Structure prediction by ZEFSAII (Michael W. Deem and Ramdas Pophale) SiO2 
 PCOD9106580
Probable space group: P -1
;
_chemical_formula_sum "Si O2"
_cell_formula_units_Z 15
_cell_length_a 6.484093
_cell_length_b 14.311725
_cell_length_c 7.512450
_cell_angle_alpha 93.372597
_cell_angle_beta 114.216315
_cell_angle_gamma 64.845175
_cell_volume 569.837318
_symmetry_space_group_name_H-M "P -1"
_symmetry_group_IT_number 2
_symmetry_cell_setting 'triclinic'
loop_
_space_group_symop_operation_xyz
x,y,z
-x,-y,-z
loop_
_atom_site_type_symbol
_atom_site_label
_atom_site_fract_x
_atom_site_fract_y
_atom_site_fract_z
Si Si1 0.585326 0.533934 0.850739
Si Si2 0.091318 0.367767 0.865179
Si Si3 0.153462 0.842685 0.897713
Si Si4 0.000000 0.500000 0.500000
Si Si5 0.628537 0.050987 0.743652
Si Si6 0.050853 0.676377 0.666419
Si Si7 0.751577 0.107223 0.447464
Si Si8 0.131486 0.173175 0.703020
O O1 0.801057 0.434021 0.825042
O O2 0.319989 0.594848 0.662935
O O3 0.500000 0.500000 0.000000
O O4 0.717161 0.608176 0.946125
O O5 0.112125 0.411203 0.682750
O O6 0.155262 0.247441 0.866786
O O7 0.122414 0.735865 0.855812
O O8 0.291025 0.847761 0.760890
O O9 0.300794 0.867551 0.110522
O O10 0.872887 0.939808 0.821967
O O11 0.935469 0.595160 0.643233
O O12 0.576229 0.085632 0.521794
O O13 0.377022 0.063815 0.758784
O O14 0.892904 0.767813 0.486319
O O15 0.866462 0.170342 0.614137
O O16 0.000000 0.000000 0.500000
#
# Coordination Sequence:
#
# PCOD9106580 Si02
#       8
#     2   2   2   1   2   2   2   2
#     4  11  22  42  64  88 126 168 204 273 317 374
#     4  10  23  40  62  91 121 161 215 257 319 381
#     4   9  20  39  64  93 125 167 211 262 319 380
#     4  10  20  40  56  90 124 160 212 256 306 378
#     4  10  20  41  66  90 130 164 207 268 319 375
#     4  10  21  39  60  89 129 164 210 256 320 375
#     4   9  20  39  59  89 124 163 207 255 317 372
#     4  10  22  39  61  94 123 162 213 255 310 388
#
# _framework density 26.323302999999999
#
# number of rings (size 3 to 8) (size 9 to 14) (size 15 to 20)
#    0.000    2.133    1.333    0.800    0.000    9.067 
#    9.600   10.000    0.000    0.000    0.000    0.000 
#    0.000    0.000    0.000    0.000    0.000    0.000 
#
# Total GULP energy -83535.400490 kJ/mol
# GULP energy per Si atom -5569.026699 kJ/mol
# Density = 2.626339 g / cm^3
# Si number density = 26.323303 Si / 1000 Ang^3
#
#
#
# Elastic Constant Matrix: (Units=GPa)
#
#
# Indices 1 2 3 4 5 6 
#
# 1 78.3986 19.1918 24.7799 -4.1534 -17.1447 -26.1612
# 2 19.1918 95.6539 10.4307 22.5316 -4.9983 -2.7698
# 3 24.7799 10.4307 89.7464 13.6060 -10.1476 0.8707
# 4 -4.1534 22.5316 13.6060 42.6781 0.6118 13.4802
# 5 -17.1447 -4.9983 -10.1476 0.6118 22.9883 -5.4044
# 6 -26.1612 -2.7698 0.8707 13.4802 -5.4044 45.7639
#
#
#
# Elastic Compliance Matrix: (Units=1/GPa)
#
#
# Indices 1 2 3 4 5 6 
#
# 1 0.024572 -0.002936 -0.004373 -0.000091 0.019590 0.016293
# 2 -0.002936 0.012945 0.000649 -0.007847 0.001492 0.001580
# 3 -0.004373 0.000649 0.013299 -0.004727 0.002639 -0.001009
# 4 -0.000091 -0.007847 -0.004727 0.032622 -0.007294 -0.010908
# 5 0.019590 0.001492 0.002639 -0.007294 0.064739 0.021032
# 6 0.016293 0.001580 -0.001009 -0.010908 0.021032 0.036977
#
#
# Mechanical properties :
#
#
# Convention : Reuss Voigt Hill
#
# Bulk Modulus (GPa) = 26.66867 41.40043 34.03455
# Shear Modulus (GPa) = 23.69978 36.24584 29.97281
#
# Velocity S-wave (km/s) = 3.00381 3.71475 3.37804
# Velocity P-wave (km/s) = 4.70996 5.84474 5.30776
#
# Compressibility (1/GPa) = 0.03749718
#
# Stress axis : x y z
#
# Youngs Moduli (GPa) = 40.69628 77.25060 75.19223
#
# Poissons Ratio (x) = 0.22683 0.32878
# Poissons Ratio (y) = 0.11950 -0.04882
# Poissons Ratio (z) = 0.17795 -0.05016
#
# Static dielectric constant tensor:
#      x y z
#    x 2.381930 0.185660 -0.001250 
#    y 0.185660 2.153610 0.096460 
#    z -0.001250 0.096460 2.233400 
# 
# From -- ./inp_files/134377.got.cif
#   From: 2010.05.17/outbox.cif.g08.bks.cpg/sg2_68_cif.got.tgz:134377.got - 2010.06.03 11:33:40.
