data_PCOD9106943
_publ_section_title
;
Structure prediction by ZEFSAII (Michael W. Deem and Ramdas Pophale) SiO2 
 PCOD9106943
Probable space group: P -1
;
_chemical_formula_sum "Si O2"
_cell_formula_units_Z 15
_cell_length_a 14.744602
_cell_length_b 9.363721
_cell_length_c 8.264233
_cell_angle_alpha 61.633026
_cell_angle_beta 118.037295
_cell_angle_gamma 143.439661
_cell_volume 589.474020
_symmetry_space_group_name_H-M "P -1"
_symmetry_group_IT_number 2
_symmetry_cell_setting 'triclinic'
loop_
_space_group_symop_operation_xyz
x,y,z
-x,-y,-z
loop_
_atom_site_type_symbol
_atom_site_label
_atom_site_fract_x
_atom_site_fract_y
_atom_site_fract_z
Si Si1 0.000000 0.500000 0.000000
Si Si2 0.370495 0.409831 0.140553
Si Si3 0.031470 0.671388 0.567162
Si Si4 0.391311 0.892396 0.122367
Si Si5 0.296046 0.084579 0.766120
Si Si6 0.474648 0.719859 0.736501
Si Si7 0.832834 0.725542 0.417768
Si Si8 0.858498 0.665810 0.822249
O O1 0.970597 0.651888 0.971286
O O2 0.974669 0.547656 0.765694
O O3 0.524954 0.651427 0.239973
O O4 0.389584 0.239278 0.230748
O O5 0.207272 0.280836 0.135939
O O6 0.403983 0.539454 0.929490
O O7 0.000000 0.500000 0.500000
O O8 0.939823 0.726126 0.412452
O O9 0.210916 0.927661 0.616555
O O10 0.294234 0.618896 0.191927
O O11 0.473949 0.050205 0.267317
O O12 0.500000 0.000000 0.000000
O O13 0.278011 0.909227 0.967233
O O14 0.209498 0.139576 0.733547
O O15 0.336251 0.558468 0.582768
O O16 0.892787 0.796897 0.613798
#
# Coordination Sequence:
#
# PCOD9106943 Si02
#       8
#     1   2   2   2   2   2   2   2
#     4  10  24  42  58  94 130 156 214 256 310 380
#     4   9  19  36  64  87 119 168 196 250 316 367
#     4  11  24  40  69  91 124 171 211 263 313 374
#     4  11  20  36  65  90 118 171 200 250 321 366
#     4  10  20  40  62  88 124 163 206 250 315 381
#     4   9  19  35  57  96 116 149 219 238 302 389
#     4  10  24  38  60  93 123 162 204 259 317 365
#     4  11  21  39  61  88 124 165 195 262 320 352
#
# _framework density 25.446413
#
# number of rings (size 3 to 8) (size 9 to 14) (size 15 to 20)
#    0.000    1.867    4.000    1.200    3.733    2.667 
#    0.000    4.000    0.000    3.200    0.000    0.000 
#    0.000    0.000    0.000    0.000    0.000    0.000 
#
# Total GULP energy -83593.423680 kJ/mol
# GULP energy per Si atom -5572.894912 kJ/mol
# Density = 2.538850 g / cm^3
# Si number density = 25.446413 Si / 1000 Ang^3
#
#
#
# Elastic Constant Matrix: (Units=GPa)
#
#
# Indices 1 2 3 4 5 6 
#
# 1 166.1854 19.6826 35.5290 1.9251 13.9134 -24.9353
# 2 19.6826 76.0618 12.5286 -2.2385 -2.5094 -29.0414
# 3 35.5290 12.5286 61.8533 -1.4595 13.1399 1.1956
# 4 1.9251 -2.2385 -1.4595 39.2976 4.7091 -4.7697
# 5 13.9134 -2.5094 13.1399 4.7091 33.2369 1.1754
# 6 -24.9353 -29.0414 1.1956 -4.7697 1.1754 36.7912
#
#
#
# Elastic Compliance Matrix: (Units=1/GPa)
#
#
# Indices 1 2 3 4 5 6 
#
# 1 0.007988 0.001164 -0.004566 0.000518 -0.001758 0.006604
# 2 0.001164 0.020619 -0.005601 0.002765 0.002272 0.017533
# 3 -0.004566 -0.005601 0.021541 0.000561 -0.006827 -0.007925
# 4 0.000518 0.002765 0.000561 0.026854 -0.004251 0.006133
# 5 -0.001758 0.002272 -0.006827 -0.004251 0.034325 -0.000824
# 6 0.006604 0.017533 -0.007925 0.006133 -0.000824 0.046575
#
#
# Mechanical properties :
#
#
# Convention : Reuss Voigt Hill
#
# Bulk Modulus (GPa) = 31.11272 48.84232 39.97752
# Shear Modulus (GPa) = 26.79208 37.62248 32.20728
#
# Velocity S-wave (km/s) = 3.24834 3.84930 3.56151
# Velocity P-wave (km/s) = 5.13052 6.24435 5.71464
#
# Compressibility (1/GPa) = 0.03214120
#
# Stress axis : x y z
#
# Youngs Moduli (GPa) = 125.19120 48.49847 46.42236
#
# Poissons Ratio (x) = -0.05645 0.21197
# Poissons Ratio (y) = -0.14571 0.26003
# Poissons Ratio (z) = 0.57163 0.27166
#
# Static dielectric constant tensor:
#      x y z
#    x 1.966210 -0.017590 -0.032140 
#    y -0.017590 1.991780 -0.011850 
#    z -0.032140 -0.011850 2.015440 
# 
# From -- ./inp_files/292178.got.cif
#   From: 2010.05.17/outbox.cif.g08.bks.cpg/sg2_147_cif.got.tgz:292178.got - 2010.06.03 11:33:40.
