data_PCOD9106328
_publ_section_title
;
Structure prediction by ZEFSAII (Michael W. Deem and Ramdas Pophale) SiO2 
 PCOD9106328
Probable space group: P -1
;
_chemical_formula_sum "Si O2"
_cell_formula_units_Z 16
_cell_length_a 9.733431
_cell_length_b 8.370714
_cell_length_c 12.646946
_cell_angle_alpha 120.153303
_cell_angle_beta 116.721762
_cell_angle_gamma 56.362650
_cell_volume 720.467455
_symmetry_space_group_name_H-M "P -1"
_symmetry_group_IT_number 2
_symmetry_cell_setting 'triclinic'
loop_
_space_group_symop_operation_xyz
x,y,z
-x,-y,-z
loop_
_atom_site_type_symbol
_atom_site_label
_atom_site_fract_x
_atom_site_fract_y
_atom_site_fract_z
Si Si1 0.748802 0.583093 0.229216
Si Si2 0.582845 0.683737 0.435118
Si Si3 0.365241 0.739896 0.876918
Si Si4 0.080626 0.883053 0.647830
Si Si5 0.410838 0.411301 0.276381
Si Si6 0.062455 0.674175 0.358193
Si Si7 0.440519 0.963731 0.158524
Si Si8 0.732764 0.957229 0.663795
O O1 0.693042 0.622174 0.345931
O O2 0.706664 0.393380 0.123073
O O3 0.620925 0.781697 0.189057
O O4 0.938394 0.561005 0.278249
O O5 0.531724 0.508410 0.398186
O O6 0.683249 0.766990 0.574320
O O7 0.403116 0.870297 0.402237
O O8 0.235361 0.826993 0.763543
O O9 0.545027 0.593233 0.835500
O O10 0.382468 0.912645 0.009807
O O11 0.103493 0.722885 0.507748
O O12 0.918132 0.902940 0.667007
O O13 0.038288 0.100379 0.651642
O O14 0.224353 0.551569 0.300329
O O15 0.452668 0.177833 0.236281
O O16 0.310264 0.966792 0.206345
#
# Coordination Sequence:
#
# PCOD9106328 Si02
#       8
#     2   2   2   2   2   2   2   2
#     4  10  22  44  70  95 130 177 228 280 332 394
#     4   9  19  39  67  98 130 169 222 275 341 382
#     4  11  26  46  68  96 136 184 226 272 329 402
#     4  11  24  43  70 100 144 169 217 285 340 397
#     4  11  24  43  66 101 134 173 226 278 331 400
#     4  11  24  43  70 105 133 171 221 283 350 388
#     4  11  25  44  70  94 138 185 227 265 333 404
#     4  10  20  39  68  99 134 174 217 279 326 401
#
# _framework density 22.207806000000001
#
# number of rings (size 3 to 8) (size 9 to 14) (size 15 to 20)
#    0.000    1.500    2.500    1.500    1.750    5.000 
#    0.000    1.250    0.000    0.000    0.000    0.000 
#    0.000    0.000    0.000    0.000    0.000    0.000 
#
# Total GULP energy -89497.366436 kJ/mol
# GULP energy per Si atom -5593.585402 kJ/mol
# Density = 2.215726 g / cm^3
# Si number density = 22.207806 Si / 1000 Ang^3
#
#
#
# Elastic Constant Matrix: (Units=GPa)
#
#
# Indices 1 2 3 4 5 6 
#
# 1 167.6827 35.1362 50.7470 5.5192 5.7716 -9.3824
# 2 35.1362 80.8026 24.9342 0.7470 12.1899 9.2656
# 3 50.7470 24.9342 92.5965 -12.8836 -3.7722 -2.5637
# 4 5.5192 0.7470 -12.8836 14.4309 -0.6309 5.0309
# 5 5.7716 12.1899 -3.7722 -0.6309 17.0418 11.4952
# 6 -9.3824 9.2656 -2.5637 5.0309 11.4952 38.5529
#
#
#
# Elastic Compliance Matrix: (Units=1/GPa)
#
#
# Indices 1 2 3 4 5 6 
#
# 1 0.009215 -0.001377 -0.006470 -0.011707 -0.008108 0.006089
# 2 -0.001377 0.016433 -0.004899 -0.005156 -0.012401 -0.000240
# 3 -0.006470 -0.004899 0.019298 0.022955 0.015321 -0.006678
# 4 -0.011707 -0.005156 0.022955 0.104066 0.032299 -0.023294
# 5 -0.008108 -0.012401 0.015321 0.032299 0.095584 -0.030689
# 6 0.006089 -0.000240 -0.006678 -0.023294 -0.030689 0.039224
#
#
# Mechanical properties :
#
#
# Convention : Reuss Voigt Hill
#
# Bulk Modulus (GPa) = 51.40826 62.52409 56.96617
# Shear Modulus (GPa) = 15.83294 29.35609 22.59451
#
# Velocity S-wave (km/s) = 2.67300 3.63971 3.19315
# Velocity P-wave (km/s) = 5.72063 6.77337 6.26914
#
# Compressibility (1/GPa) = 0.01945213
#
# Stress axis : x y z
#
# Youngs Moduli (GPa) = 108.51310 60.85433 51.81919
#
# Poissons Ratio (x) = 0.08382 0.33528
# Poissons Ratio (y) = 0.14947 0.25388
# Poissons Ratio (z) = 0.70210 0.29815
#
# Static dielectric constant tensor:
#      x y z
#    x 1.807710 0.025080 -0.015600 
#    y 0.025080 1.885440 -0.003050 
#    z -0.015600 -0.003050 1.794870 
# 
# From -- ./inp_files/383315.got.cif
#   From: 2010.05.17/outbox.cif.g08.bks.cpg/sg2_192_cif.got.tgz:383315.got - 2010.06.03 11:33:40.
