data_PCOD9106327
_publ_section_title
;
Structure prediction by ZEFSAII (Michael W. Deem and Ramdas Pophale) SiO2 
 PCOD9106327
Probable space group: P -1
;
_chemical_formula_sum "Si O2"
_cell_formula_units_Z 12
_cell_length_a 12.684249
_cell_length_b 8.225962
_cell_length_c 10.195368
_cell_angle_alpha 123.963863
_cell_angle_beta 122.997704
_cell_angle_gamma 103.647577
_cell_volume 466.180727
_symmetry_space_group_name_H-M "P -1"
_symmetry_group_IT_number 2
_symmetry_cell_setting 'triclinic'
loop_
_space_group_symop_operation_xyz
x,y,z
-x,-y,-z
loop_
_atom_site_type_symbol
_atom_site_label
_atom_site_fract_x
_atom_site_fract_y
_atom_site_fract_z
Si Si1 0.874322 0.882742 0.688395
Si Si2 0.791229 0.850210 0.325009
Si Si3 0.554790 0.205206 0.777506
Si Si4 0.181549 0.779121 0.153282
Si Si5 0.542453 0.182986 0.239533
Si Si6 0.854575 0.134226 0.237304
O O1 0.801277 0.892673 0.506105
O O2 0.713729 0.542362 0.486440
O O3 0.049646 0.950074 0.791001
O O4 0.892005 0.095759 0.888102
O O5 0.783307 0.010471 0.283386
O O6 0.620207 0.484568 0.015534
O O7 0.000000 0.000000 0.500000
O O8 0.764000 0.343544 0.954193
O O9 0.409099 0.072930 0.497905
O O10 0.427874 0.917069 0.660120
O O11 0.000000 0.500000 0.000000
O O12 0.500000 0.000000 0.000000
O O13 0.337539 0.050622 0.061659
O O14 0.000000 0.500000 0.500000
#
# Coordination Sequence:
#
# PCOD9106327 Si02
#       6
#     2   2   2   2   2   2
#     4  11  24  41  68 100 130 180 225 276 341 396
#     4  10  20  39  68  99 132 173 225 279 332 397
#     4  11  25  46  69 100 138 180 227 282 334 413
#     4  11  26  47  70  95 135 185 235 275 337 402
#     4  12  23  41  67 101 139 171 220 281 346 398
#     4  11  22  37  61  98 139 166 217 276 332 400
#
# _framework density 25.74109
#
# number of rings (size 3 to 8) (size 9 to 14) (size 15 to 20)
#    0.000    1.000    3.333    4.000    2.333    4.667 
#    0.000    1.667    0.000    0.000    0.000    0.000 
#    0.000    0.000    0.000    0.000    0.000    0.000 
#
# Total GULP energy -67130.282940 kJ/mol
# GULP energy per Si atom -5594.190245 kJ/mol
# Density = 2.568250 g / cm^3
# Si number density = 25.741090 Si / 1000 Ang^3
#
#
#
# Elastic Constant Matrix: (Units=GPa)
#
#
# Indices 1 2 3 4 5 6 
#
# 1 186.9262 14.4009 5.1898 11.4262 13.3000 -35.0126
# 2 14.4009 130.0145 16.6861 25.4463 -7.2505 4.1428
# 3 5.1898 16.6861 61.3244 12.7530 5.2120 -8.6059
# 4 11.4262 25.4463 12.7530 51.6603 -3.4656 2.0167
# 5 13.3000 -7.2505 5.2120 -3.4656 35.6611 0.7597
# 6 -35.0126 4.1428 -8.6059 2.0167 0.7597 47.5323
#
#
#
# Elastic Compliance Matrix: (Units=1/GPa)
#
#
# Indices 1 2 3 4 5 6 
#
# 1 0.006716 -0.000884 0.001045 -0.001725 -0.003118 0.005336
# 2 -0.000884 0.008905 -0.002043 -0.003477 0.002137 -0.001684
# 3 0.001045 -0.002043 0.018649 -0.004278 -0.004044 0.004570
# 4 -0.001725 -0.003477 -0.004278 0.022806 0.002837 -0.002755
# 5 -0.003118 0.002137 -0.004044 0.002837 0.030587 -0.003825
# 6 0.005336 -0.001684 0.004570 -0.002755 -0.003825 0.026121
#
#
# Mechanical properties :
#
#
# Convention : Reuss Voigt Hill
#
# Bulk Modulus (GPa) = 32.78146 50.09095 41.43621
# Shear Modulus (GPa) = 39.14913 49.76995 44.45954
#
# Velocity S-wave (km/s) = 3.90408 4.40191 4.16045
# Velocity P-wave (km/s) = 5.75197 6.73331 6.26190
#
# Compressibility (1/GPa) = 0.03050505
#
# Stress axis : x y z
#
# Youngs Moduli (GPa) = 148.90605 112.29653 53.62235
#
# Poissons Ratio (x) = 0.09930 -0.05603
# Poissons Ratio (y) = 0.13167 0.10955
# Poissons Ratio (z) = -0.15560 0.22942
#
# Static dielectric constant tensor:
#      x y z
#    x 1.799850 0.047830 0.015670 
#    y 0.047830 2.028340 -0.051420 
#    z 0.015670 -0.051420 1.980860 
# 
# From -- ./inp_files/255620.got.cif
#   From: 2010.05.17/outbox.cif.g08.bks.cpg/sg2_128_cif.got.tgz:255620.got - 2010.06.03 11:33:40.
