data_PCOD9106088
_publ_section_title
;
Structure prediction by ZEFSAII (Michael W. Deem and Ramdas Pophale) SiO2 
 PCOD9106088
Probable space group: P -1
;
_chemical_formula_sum "Si O2"
_cell_formula_units_Z 16
_cell_length_a 8.863070
_cell_length_b 9.235365
_cell_length_c 15.841232
_cell_angle_alpha 114.047285
_cell_angle_beta 80.591373
_cell_angle_gamma 46.577402
_cell_volume 639.409746
_symmetry_space_group_name_H-M "P -1"
_symmetry_group_IT_number 2
_symmetry_cell_setting 'triclinic'
loop_
_space_group_symop_operation_xyz
x,y,z
-x,-y,-z
loop_
_atom_site_type_symbol
_atom_site_label
_atom_site_fract_x
_atom_site_fract_y
_atom_site_fract_z
Si Si1 0.321986 0.710235 0.344114
Si Si2 0.040053 0.565083 0.660382
Si Si3 0.867229 0.642743 0.864062
Si Si4 0.595851 0.729383 0.762186
Si Si5 0.956497 0.818774 0.183723
Si Si6 0.284354 0.839051 0.197052
Si Si7 0.410125 0.746619 0.526229
Si Si8 0.850594 0.294998 0.097786
O O1 0.191493 0.908571 0.321388
O O2 0.267511 0.829398 0.468832
O O3 0.655138 0.448036 0.234791
O O4 0.298292 0.541312 0.298567
O O5 0.101726 0.437721 0.717195
O O6 0.318706 0.379389 0.545373
O O7 0.822278 0.623966 0.657055
O O8 0.846579 0.890158 0.764702
O O9 0.895778 0.477053 0.887897
O O10 0.930038 0.757229 0.923731
O O11 0.611097 0.819200 0.868233
O O12 0.287192 0.983904 0.815141
O O13 0.162972 0.788909 0.151388
O O14 0.789249 0.997819 0.328253
O O15 0.619037 0.540876 0.106405
O O16 0.500000 0.500000 0.500000
O O17 0.000000 0.000000 0.000000
#
# Coordination Sequence:
#
# PCOD9106088 Si02
#       8
#     2   2   2   2   2   2   2   2
#     4  10  20  42  59  95 129 168 213 269 317 374
#     4  10  20  40  59  92 131 171 219 259 313 376
#     4  10  22  43  63  92 133 162 220 279 317 375
#     4  10  21  38  63  88 132 171 208 267 319 372
#     4  12  23  39  65  96 138 174 218 258 332 382
#     4  10  20  39  67  93 127 171 215 272 323 387
#     4  12  22  37  63  95 133 186 217 257 310 397
#     4  10  22  44  74  94 122 170 221 275 339 390
#
# _framework density 25.023078999999999
#
# number of rings (size 3 to 8) (size 9 to 14) (size 15 to 20)
#    1.500    0.000    5.000    0.750    0.000    1.500 
#    2.250    3.125    0.000    2.250    0.000    0.000 
#    0.000    0.000    0.000    0.000    0.000    0.000 
#
# Total GULP energy -89426.333297 kJ/mol
# GULP energy per Si atom -5589.145831 kJ/mol
# Density = 2.496612 g / cm^3
# Si number density = 25.023079 Si / 1000 Ang^3
#
#
#
# Elastic Constant Matrix: (Units=GPa)
#
#
# Indices 1 2 3 4 5 6 
#
# 1 205.4587 49.5161 30.8295 5.5472 16.9302 -10.3212
# 2 49.5161 118.0037 12.0330 4.9572 20.4004 -9.4746
# 3 30.8295 12.0330 69.9000 -7.9258 9.1811 -9.0538
# 4 5.5472 4.9572 -7.9258 37.7179 4.2103 6.2452
# 5 16.9302 20.4004 9.1811 4.2103 43.3731 -1.5881
# 6 -10.3212 -9.4746 -9.0538 6.2452 -1.5881 55.5512
#
#
#
# Elastic Compliance Matrix: (Units=1/GPa)
#
#
# Indices 1 2 3 4 5 6 
#
# 1 0.005787 -0.001997 -0.002167 -0.001040 -0.000742 0.000477
# 2 -0.001997 0.010140 -0.000300 -0.000894 -0.003792 0.001302
# 3 -0.002167 -0.000300 0.016332 0.003819 -0.002779 0.001699
# 4 -0.001040 -0.000894 0.003819 0.028400 -0.002848 -0.002998
# 5 -0.000742 -0.003792 -0.002779 -0.002848 0.025988 -0.000174
# 6 0.000477 0.001302 0.001699 -0.002998 -0.000174 0.018921
#
#
# Mechanical properties :
#
#
# Convention : Reuss Voigt Hill
#
# Bulk Modulus (GPa) = 42.86033 64.23550 53.54792
# Shear Modulus (GPa) = 40.89248 47.39401 44.14325
#
# Velocity S-wave (km/s) = 4.04690 4.35675 4.20468
# Velocity P-wave (km/s) = 6.24516 7.14385 6.70957
#
# Compressibility (1/GPa) = 0.02333160
#
# Stress axis : x y z
#
# Youngs Moduli (GPa) = 172.80628 98.61470 61.23093
#
# Poissons Ratio (x) = 0.19692 0.13270
# Poissons Ratio (y) = 0.34508 0.01834
# Poissons Ratio (z) = 0.37450 0.02955
#
# Static dielectric constant tensor:
#      x y z
#    x 1.992420 -0.035700 -0.091490 
#    y -0.035700 1.950950 -0.065740 
#    z -0.091490 -0.065740 2.087970 
# 
# From -- ./inp_files/587472.got.cif
#   From: 2010.05.17/outbox.cif.g08.bks.cpg/sg2_294_cif.got.tgz:587472.got - 2010.06.03 11:33:40.
