data_PCOD9106593
_publ_section_title
;
Structure prediction by ZEFSAII (Michael W. Deem and Ramdas Pophale) SiO2 
 PCOD9106593
Probable space group: P -1
;
_chemical_formula_sum "Si O2"
_cell_formula_units_Z 14
_cell_length_a 9.527629
_cell_length_b 15.101305
_cell_length_c 14.873185
_cell_angle_alpha 140.309958
_cell_angle_beta 36.563410
_cell_angle_gamma 151.832794
_cell_volume 587.226080
_symmetry_space_group_name_H-M "P -1"
_symmetry_group_IT_number 2
_symmetry_cell_setting 'triclinic'
loop_
_space_group_symop_operation_xyz
x,y,z
-x,-y,-z
loop_
_atom_site_type_symbol
_atom_site_label
_atom_site_fract_x
_atom_site_fract_y
_atom_site_fract_z
Si Si1 0.311892 0.132472 0.376301
Si Si2 0.494315 0.330029 0.163315
Si Si3 0.965427 0.585987 0.950845
Si Si4 0.402409 0.225447 0.867822
Si Si5 0.880262 0.861404 0.241290
Si Si6 0.302415 0.549553 0.433137
Si Si7 0.278200 0.975868 0.894104
O O1 0.572994 0.343848 0.450689
O O2 0.504584 0.065747 0.227036
O O3 0.000000 0.000000 0.500000
O O4 0.137834 0.067239 0.317642
O O5 0.264451 0.368697 0.320510
O O6 0.727419 0.387816 0.171744
O O7 0.738599 0.467175 0.062218
O O8 0.331769 0.121888 0.051624
O O9 0.739688 0.444777 0.875232
O O10 0.040363 0.779698 0.063911
O O11 0.312413 0.158736 0.760235
O O12 0.395571 0.086500 0.824990
O O13 0.111963 0.201676 0.042605
O O14 0.609200 0.708093 0.334181
O O15 0.000000 0.500000 0.500000
#
# Coordination Sequence:
#
# PCOD9106593 Si02
#       7
#     2   2   2   2   2   2   2
#     4  10  22  39  61  86 121 161 197 234 307 363
#     4   9  18  36  61  85 111 158 201 241 289 359
#     4   9  17  33  60  85 116 145 199 246 297 337
#     4  10  22  33  63  91 121 147 206 256 289 340
#     4  10  20  40  57  93 117 158 197 251 296 345
#     4  10  23  38  64  87 121 160 199 239 298 363
#     4  10  21  39  62  90 113 160 201 247 297 349
#
# _framework density 23.840903000000001
#
# number of rings (size 3 to 8) (size 9 to 14) (size 15 to 20)
#    0.000    2.286    1.429    0.429   14.000    0.571 
#    0.000    2.857    0.000    1.714    0.000    0.000 
#    0.000    0.000    0.000    0.000    0.000    0.000 
#
# Total GULP energy -78253.464119 kJ/mol
# GULP energy per Si atom -5589.533151 kJ/mol
# Density = 2.378664 g / cm^3
# Si number density = 23.840903 Si / 1000 Ang^3
#
#
#
# Elastic Constant Matrix: (Units=GPa)
#
#
# Indices 1 2 3 4 5 6 
#
# 1 128.1837 28.3170 50.9703 27.9981 14.4231 44.0719
# 2 28.3170 75.8073 34.5103 4.4291 0.9335 12.2216
# 3 50.9703 34.5103 98.7480 19.5106 -11.9810 21.0264
# 4 27.9981 4.4291 19.5106 31.3348 8.0862 5.3582
# 5 14.4231 0.9335 -11.9810 8.0862 49.0647 -2.2799
# 6 44.0719 12.2216 21.0264 5.3582 -2.2799 36.3556
#
#
#
# Elastic Compliance Matrix: (Units=1/GPa)
#
#
# Indices 1 2 3 4 5 6 
#
# 1 0.019144 -0.001561 -0.004061 -0.009529 -0.005916 -0.019300
# 2 -0.001561 0.016277 -0.005512 0.003146 -0.001760 -0.000966
# 3 -0.004061 -0.005512 0.016709 -0.007448 0.006542 -0.001379
# 4 -0.009529 0.003146 -0.007448 0.044862 -0.006108 0.007806
# 5 -0.005916 -0.001760 0.006542 -0.006108 0.025058 0.006451
# 6 -0.019300 -0.000966 -0.001379 0.007806 0.006451 0.051278
#
#
# Mechanical properties :
#
#
# Convention : Reuss Voigt Hill
#
# Bulk Modulus (GPa) = 33.48934 58.92602 46.20768
# Shear Modulus (GPa) = 24.32500 35.94712 30.13606
#
# Velocity S-wave (km/s) = 3.19769 3.88724 3.55920
# Velocity P-wave (km/s) = 5.26413 6.70206 6.02614
#
# Compressibility (1/GPa) = 0.02986025
#
# Stress axis : x y z
#
# Youngs Moduli (GPa) = 52.23682 61.43484 59.84967
#
# Poissons Ratio (x) = 0.09590 0.24307
# Poissons Ratio (y) = 0.08154 0.32991
# Poissons Ratio (z) = 0.21215 0.33865
#
# Static dielectric constant tensor:
#      x y z
#    x 1.952140 -0.031430 0.055810 
#    y -0.031430 2.013650 -0.009620 
#    z 0.055810 -0.009620 1.903960 
# 
# From -- ./inp_files/239919.got.cif
#   From: 2010.05.17/outbox.cif.g08.bks.cpg/sg2_120_cif.got.tgz:239919.got - 2010.06.03 11:33:40.
