data_PCOD9106182
_publ_section_title
;
Structure prediction by ZEFSAII (Michael W. Deem and Ramdas Pophale) SiO2 
 PCOD9106182
Probable space group: P -1
;
_chemical_formula_sum "Si O2"
_cell_formula_units_Z 16
_cell_length_a 14.220799
_cell_length_b 19.442525
_cell_length_c 11.096744
_cell_angle_alpha 151.404798
_cell_angle_beta 131.307914
_cell_angle_gamma 31.959829
_cell_volume 732.425590
_symmetry_space_group_name_H-M "P -1"
_symmetry_group_IT_number 2
_symmetry_cell_setting 'triclinic'
loop_
_space_group_symop_operation_xyz
x,y,z
-x,-y,-z
loop_
_atom_site_type_symbol
_atom_site_label
_atom_site_fract_x
_atom_site_fract_y
_atom_site_fract_z
Si Si1 0.598398 0.072133 0.915943
Si Si2 0.482258 0.636898 0.364685
Si Si3 0.600776 0.757824 0.225330
Si Si4 0.366332 0.782500 0.239128
Si Si5 0.672377 0.307457 0.434638
Si Si6 0.931195 0.618849 0.384879
Si Si7 0.650828 0.767171 0.830816
Si Si8 0.011670 0.124972 0.296947
O O1 0.501117 0.224030 0.948249
O O2 0.758890 0.814814 0.629496
O O3 0.702158 0.112294 0.133659
O O4 0.421034 0.172174 0.998570
O O5 0.359047 0.810748 0.419963
O O6 0.368029 0.652498 0.396374
O O7 0.607729 0.647672 0.554134
O O8 0.609564 0.407837 0.056661
O O9 0.540055 0.723414 0.239457
O O10 0.821738 0.604532 0.180186
O O11 0.500000 0.000000 0.500000
O O12 0.195570 0.970787 0.298501
O O13 0.500000 0.500000 0.500000
O O14 0.843564 0.250190 0.440811
O O15 0.129924 0.384386 0.235667
O O16 0.990819 0.720601 0.534600
O O17 0.500000 0.000000 0.000000
O O18 0.000000 0.000000 0.000000
#
# Coordination Sequence:
#
# PCOD9106182 Si02
#       8
#     2   2   2   2   2   2   2   2
#     4  10  21  41  64  95 134 169 225 283 329 408
#     4  10  25  43  63  97 136 180 216 276 354 398
#     4  10  20  39  67  98 131 173 226 280 337 405
#     4  11  22  43  68  95 139 174 219 284 337 415
#     4  11  21  38  65  96 136 173 223 283 331 401
#     4  11  23  40  67 102 125 179 232 272 350 400
#     4  11  26  44  65  96 138 178 229 285 338 412
#     4  12  20  36  70  97 125 172 224 281 336 407
#
# _framework density 21.845220999999999
#
# number of rings (size 3 to 8) (size 9 to 14) (size 15 to 20)
#    0.000    1.250    3.750    3.750    3.500    1.500 
#    0.000    3.750    0.000    0.000    0.000    0.000 
#    0.000    0.000    0.000    0.000    0.000    0.000 
#
# Total GULP energy -89267.289693 kJ/mol
# GULP energy per Si atom -5579.205606 kJ/mol
# Density = 2.179550 g / cm^3
# Si number density = 21.845221 Si / 1000 Ang^3
#
#
#
# Elastic Constant Matrix: (Units=GPa)
#
#
# Indices 1 2 3 4 5 6 
#
# 1 82.2785 42.0471 8.7201 -10.3942 -13.4662 2.4204
# 2 42.0471 122.7250 28.6315 11.5754 -15.4431 -7.0755
# 3 8.7201 28.6315 46.8018 7.9738 -11.4181 -5.5167
# 4 -10.3942 11.5754 7.9738 24.1896 8.0831 -3.1932
# 5 -13.4662 -15.4431 -11.4181 8.0831 31.4909 -4.1660
# 6 2.4204 -7.0755 -5.5167 -3.1932 -4.1660 47.1739
#
#
#
# Elastic Compliance Matrix: (Units=1/GPa)
#
#
# Indices 1 2 3 4 5 6 
#
# 1 0.017098 -0.006581 -0.000804 0.010272 0.001001 -0.001175
# 2 -0.006581 0.012809 -0.003740 -0.009066 0.004653 0.001619
# 3 -0.000804 -0.003740 0.029020 -0.011634 0.011744 0.003124
# 4 0.010272 -0.009066 -0.011634 0.060460 -0.019911 -0.000913
# 5 0.001001 0.004653 0.011744 -0.019911 0.044442 0.004597
# 6 -0.001175 0.001619 0.003124 -0.000913 0.004597 0.022211
#
#
# Mechanical properties :
#
#
# Convention : Reuss Voigt Hill
#
# Bulk Modulus (GPa) = 27.26450 45.62252 36.44351
# Shear Modulus (GPa) = 22.67416 32.06466 27.36941
#
# Velocity S-wave (km/s) = 3.22521 3.83536 3.54344
# Velocity P-wave (km/s) = 5.13587 6.36734 5.78447
#
# Compressibility (1/GPa) = 0.03667773
#
# Stress axis : x y z
#
# Youngs Moduli (GPa) = 58.48575 78.06764 34.45945
#
# Poissons Ratio (x) = 0.51377 0.02771
# Poissons Ratio (y) = 0.38490 0.12886
# Poissons Ratio (z) = 0.04703 0.29194
#
# Static dielectric constant tensor:
#      x y z
#    x 1.740870 0.093970 -0.029230 
#    y 0.093970 1.818380 -0.035520 
#    z -0.029230 -0.035520 1.916320 
# 
# From -- ./inp_files/457559.got.cif
#   From: 2010.05.17/outbox.cif.g08.bks.cpg/sg2_229_cif.got.tgz:457559.got - 2010.06.03 11:33:40.
