data_PCOD9106578
_publ_section_title
;
Structure prediction by ZEFSAII (Michael W. Deem and Ramdas Pophale) SiO2 
 PCOD9106578
Probable space group: P -1
;
_chemical_formula_sum "Si O2"
_cell_formula_units_Z 16
_cell_length_a 12.436314
_cell_length_b 14.253757
_cell_length_c 9.218092
_cell_angle_alpha 91.220605
_cell_angle_beta 29.237830
_cell_angle_gamma 82.917057
_cell_volume 763.512619
_symmetry_space_group_name_H-M "P -1"
_symmetry_group_IT_number 2
_symmetry_cell_setting 'triclinic'
loop_
_space_group_symop_operation_xyz
x,y,z
-x,-y,-z
loop_
_atom_site_type_symbol
_atom_site_label
_atom_site_fract_x
_atom_site_fract_y
_atom_site_fract_z
Si Si1 0.774354 0.223059 0.376457
Si Si2 0.465953 0.590917 0.193913
Si Si3 0.144325 0.577238 0.334101
Si Si4 0.616684 0.085343 0.335146
Si Si5 0.274832 0.295838 0.310897
Si Si6 0.975510 0.921590 0.340715
Si Si7 0.812232 0.777354 0.314633
Si Si8 0.272042 0.869812 0.274437
O O1 0.584282 0.329131 0.617809
O O2 0.685716 0.142192 0.391721
O O3 0.815892 0.182864 0.490116
O O4 0.994197 0.239643 0.037364
O O5 0.230002 0.589412 0.394987
O O6 0.629044 0.481541 0.025815
O O7 0.589843 0.635157 0.920870
O O8 0.000000 0.500000 0.500000
O O9 0.972227 0.676000 0.476749
O O10 0.431281 0.166818 0.465033
O O11 0.500000 0.000000 0.500000
O O12 0.845466 0.043219 0.969764
O O13 0.219951 0.308565 0.546768
O O14 0.460946 0.189720 0.064721
O O15 0.121349 0.872643 0.307774
O O16 0.890028 0.847340 0.340598
O O17 0.773279 0.016547 0.627938
#
# Coordination Sequence:
#
# PCOD9106578 Si02
#       8
#     2   2   2   2   2   2   2   2
#     4  10  23  38  60  88 121 159 205 251 299 360
#     4   9  20  40  63  94 123 150 198 251 301 370
#     4   9  19  38  67  94 121 151 193 249 314 366
#     4  11  22  40  58  82 125 173 207 248 304 354
#     4  10  21  35  60  91 116 157 198 243 308 357
#     4  10  22  39  56  82 123 157 210 258 303 346
#     4  11  23  38  57  85 121 165 200 248 306 361
#     4  10  20  40  56  86 116 156 209 261 293 351
#
# _framework density 20.955777000000001
#
# number of rings (size 3 to 8) (size 9 to 14) (size 15 to 20)
#    0.000    2.000    1.250    1.500    3.500    5.500 
#    9.000    0.625    0.000    7.500    0.000    0.000 
#    0.000    0.000    0.000    0.000    0.000    0.000 
#
# Total GULP energy -89212.199978 kJ/mol
# GULP energy per Si atom -5575.762499 kJ/mol
# Density = 2.090808 g / cm^3
# Si number density = 20.955777 Si / 1000 Ang^3
#
#
#
# Elastic Constant Matrix: (Units=GPa)
#
#
# Indices 1 2 3 4 5 6 
#
# 1 69.9194 17.8917 30.2196 15.2693 -0.1750 -10.8242
# 2 17.8917 50.8425 45.4874 17.2823 -2.7870 1.3339
# 3 30.2196 45.4874 109.6237 8.9229 4.2592 -14.4511
# 4 15.2693 17.2823 8.9229 46.0283 -10.1267 -5.2160
# 5 -0.1750 -2.7870 4.2592 -10.1267 31.6656 5.7512
# 6 -10.8242 1.3339 -14.4511 -5.2160 5.7512 29.8254
#
#
#
# Elastic Compliance Matrix: (Units=1/GPa)
#
#
# Indices 1 2 3 4 5 6 
#
# 1 0.017854 -0.002564 -0.002785 -0.004311 -0.002017 0.004880
# 2 -0.002564 0.040511 -0.017189 -0.011580 0.004703 -0.014003
# 3 -0.002785 -0.017189 0.018212 0.003999 -0.004544 0.010158
# 4 -0.004311 -0.011580 0.003999 0.028741 0.006773 0.004611
# 5 -0.002017 0.004703 -0.004544 0.006773 0.036390 -0.008977
# 6 0.004880 -0.014003 0.010158 0.004611 -0.008977 0.043385
#
#
# Mechanical properties :
#
#
# Convention : Reuss Voigt Hill
#
# Bulk Modulus (GPa) = 31.74551 46.39809 39.07180
# Shear Modulus (GPa) = 20.77531 30.62299 25.69915
#
# Velocity S-wave (km/s) = 3.15205 3.82686 3.50573
# Velocity P-wave (km/s) = 5.33188 6.45876 5.92218
#
# Compressibility (1/GPa) = 0.03150052
#
# Stress axis : x y z
#
# Youngs Moduli (GPa) = 56.00992 24.68481 54.90781
#
# Poissons Ratio (x) = 0.06330 0.15293
# Poissons Ratio (y) = 0.14363 0.94380
# Poissons Ratio (z) = 0.15599 0.42430
#
# Static dielectric constant tensor:
#      x y z
#    x 1.755660 -0.015890 -0.003190 
#    y -0.015890 1.832870 0.010560 
#    z -0.003190 0.010560 1.789610 
# 
# From -- ./inp_files/128176.got.cif
#   From: 2010.05.17/outbox.cif.g08.bks.cpg/sg2_65_cif.got.tgz:128176.got - 2010.06.03 11:33:40.
