data_PCOD9106214
_publ_section_title
;
Structure prediction by ZEFSAII (Michael W. Deem and Ramdas Pophale) SiO2 
 PCOD9106214
Probable space group: P -1
;
_chemical_formula_sum "Si O2"
_cell_formula_units_Z 14
_cell_length_a 7.940511
_cell_length_b 9.493736
_cell_length_c 9.134245
_cell_angle_alpha 82.636273
_cell_angle_beta 98.059764
_cell_angle_gamma 109.983519
_cell_volume 638.347469
_symmetry_space_group_name_H-M "P -1"
_symmetry_group_IT_number 2
_symmetry_cell_setting 'triclinic'
loop_
_space_group_symop_operation_xyz
x,y,z
-x,-y,-z
loop_
_atom_site_type_symbol
_atom_site_label
_atom_site_fract_x
_atom_site_fract_y
_atom_site_fract_z
Si Si1 0.562401 0.682324 0.488431
Si Si2 0.005867 0.586409 0.835422
Si Si3 0.181454 0.166649 0.257421
Si Si4 0.073472 0.142696 0.669260
Si Si5 0.716634 0.892782 0.032891
Si Si6 0.320248 0.791739 0.977842
Si Si7 0.800682 0.299700 0.693122
O O1 0.500000 0.500000 0.500000
O O2 0.633004 0.755241 0.644732
O O3 0.746494 0.764496 0.408750
O O4 0.390690 0.720156 0.401211
O O5 0.894350 0.700982 0.814453
O O6 0.924981 0.473061 0.709336
O O7 0.213056 0.688426 0.847304
O O8 0.000000 0.500000 0.000000
O O9 0.214503 0.086053 0.126206
O O10 0.027206 0.036458 0.342847
O O11 0.149224 0.156211 0.842854
O O12 0.917725 0.217094 0.632247
O O13 0.687021 0.041853 0.075072
O O14 0.515878 0.777347 0.017136
O O15 0.237325 0.756350 0.135585
#
# Coordination Sequence:
#
# PCOD9106214 Si02
#       7
#     2   2   2   2   2   2   2
#     4  12  28  50  68  99 147 184 234 286 346 423
#     4  10  21  39  67 100 140 175 224 285 341 406
#     4  12  24  45  70 105 140 182 231 288 344 412
#     4  12  25  46  76 101 138 185 234 288 350 404
#     4  11  21  39  73 106 134 176 227 293 345 398
#     4  10  20  39  68 106 141 170 229 290 341 405
#     4  11  23  46  69  99 139 187 229 283 347 416
#
# _framework density 21.931628
#
# number of rings (size 3 to 8) (size 9 to 14) (size 15 to 20)
#    0.000    0.857    5.714    2.571    0.000    2.286 
#    2.571    2.857    0.000    0.000    0.000    0.000 
#    0.000    0.000    0.000    0.000    0.000    0.000 
#
# Total GULP energy -78143.369352 kJ/mol
# GULP energy per Si atom -5581.669239 kJ/mol
# Density = 2.188171 g / cm^3
# Si number density = 21.931628 Si / 1000 Ang^3
#
#
#
# Elastic Constant Matrix: (Units=GPa)
#
#
# Indices 1 2 3 4 5 6 
#
# 1 120.1541 47.3370 37.9878 -2.9608 40.3725 -0.0024
# 2 47.3370 101.0324 19.6623 0.7355 14.6103 9.9140
# 3 37.9878 19.6623 61.1489 2.6823 14.7786 9.9807
# 4 -2.9608 0.7355 2.6823 13.7840 5.9546 13.3030
# 5 40.3725 14.6103 14.7786 5.9546 37.2651 2.9197
# 6 -0.0024 9.9140 9.9807 13.3030 2.9197 28.8543
#
#
#
# Elastic Compliance Matrix: (Units=1/GPa)
#
#
# Indices 1 2 3 4 5 6 
#
# 1 0.018562 -0.004940 -0.006089 0.013975 -0.017926 -0.000824
# 2 -0.004940 0.012819 -0.000268 0.004303 0.000240 -0.006320
# 3 -0.006089 -0.000268 0.022031 0.004232 -0.001985 -0.009279
# 4 0.013975 0.004303 0.004232 0.162639 -0.038695 -0.074009
# 5 -0.017926 0.000240 -0.001985 -0.038695 0.052100 0.013170
# 6 -0.000824 -0.006320 -0.009279 -0.074009 0.013170 0.072827
#
#
# Mechanical properties :
#
#
# Convention : Reuss Voigt Hill
#
# Bulk Modulus (GPa) = 32.44940 54.70107 43.57523
# Shear Modulus (GPa) = 13.37460 27.80390 20.58925
#
# Velocity S-wave (km/s) = 2.47216 3.56442 3.06730
# Velocity P-wave (km/s) = 4.79339 6.47579 5.69704
#
# Compressibility (1/GPa) = 0.03081721
#
# Stress axis : x y z
#
# Youngs Moduli (GPa) = 53.87434 78.01054 45.39107
#
# Poissons Ratio (x) = 0.38540 0.27637
# Poissons Ratio (y) = 0.26616 0.01216
# Poissons Ratio (z) = 0.32802 0.02091
#
# Static dielectric constant tensor:
#      x y z
#    x 1.801480 0.065140 -0.018690 
#    y 0.065140 1.902110 -0.026310 
#    z -0.018690 -0.026310 1.839220 
# 
# From -- ./inp_files/158197.got.cif
#   From: 2010.05.17/outbox.cif.g08.bks.cpg/sg2_80_cif.got.tgz:158197.got - 2010.06.03 11:33:40.
