data_PCOD9106668
_publ_section_title
;
Structure prediction by ZEFSAII (Michael W. Deem and Ramdas Pophale) SiO2 
 PCOD9106668
Probable space group: P -1
;
_chemical_formula_sum "Si O2"
_cell_formula_units_Z 16
_cell_length_a 17.188532
_cell_length_b 8.311555
_cell_length_c 18.970268
_cell_angle_alpha 125.253440
_cell_angle_beta 21.515455
_cell_angle_gamma 114.674186
_cell_volume 744.240052
_symmetry_space_group_name_H-M "P -1"
_symmetry_group_IT_number 2
_symmetry_cell_setting 'triclinic'
loop_
_space_group_symop_operation_xyz
x,y,z
-x,-y,-z
loop_
_atom_site_type_symbol
_atom_site_label
_atom_site_fract_x
_atom_site_fract_y
_atom_site_fract_z
Si Si1 0.553152 0.826585 0.223486
Si Si2 0.785319 0.183174 0.688646
Si Si3 0.849630 0.227681 0.983910
Si Si4 0.897791 0.176756 0.428076
Si Si5 0.419258 0.593075 0.478764
Si Si6 0.713863 0.671348 0.892327
Si Si7 0.949762 0.911483 0.947025
Si Si8 0.294111 0.303169 0.620285
O O1 0.357639 0.730688 0.369019
O O2 0.405989 0.076836 0.428035
O O3 0.656414 0.772144 0.044275
O O4 0.782744 0.784454 0.065061
O O5 0.757939 0.421441 0.794091
O O6 0.844706 0.151895 0.547760
O O7 0.520923 0.199235 0.921954
O O8 0.000000 0.000000 0.500000
O O9 0.035737 0.332047 0.862144
O O10 0.943185 0.049633 0.799487
O O11 0.842166 0.105770 0.031921
O O12 0.597857 0.412239 0.233538
O O13 0.053041 0.312802 0.326469
O O14 0.313713 0.482592 0.597951
O O15 0.561426 0.699938 0.431891
O O16 0.199200 0.762841 0.668534
O O17 0.000000 0.000000 0.000000
#
# Coordination Sequence:
#
# PCOD9106668 Si02
#       8
#     2   2   2   2   2   2   2   2
#     4  10  20  41  61  90 129 169 207 258 317 361
#     4  10  23  42  71 100 123 157 202 254 311 385
#     4  11  23  42  58  89 128 166 209 261 316 370
#     4  10  21  42  68  89 132 170 198 257 319 375
#     4  11  21  38  60  86 119 169 215 265 312 359
#     4  10  20  43  67  93 131 164 198 249 321 379
#     4  12  22  40  65  88 125 173 221 268 306 357
#     4  10  20  40  60  81 127 165 208 269 318 357
#
# _framework density 21.498441
#
# number of rings (size 3 to 8) (size 9 to 14) (size 15 to 20)
#    0.000    1.500    3.750    1.500    0.000    1.000 
#   13.500    2.500    0.000    0.000    0.000    0.000 
#    0.000    0.000    0.000    0.000    0.000    0.000 
#
# Total GULP energy -89315.619001 kJ/mol
# GULP energy per Si atom -5582.226188 kJ/mol
# Density = 2.144951 g / cm^3
# Si number density = 21.498441 Si / 1000 Ang^3
#
#
#
# Elastic Constant Matrix: (Units=GPa)
#
#
# Indices 1 2 3 4 5 6 
#
# 1 67.3165 18.2275 25.9574 1.2161 -1.3613 16.0986
# 2 18.2275 59.7635 31.9919 -25.6384 -17.4752 20.0120
# 3 25.9574 31.9919 133.2179 -15.5976 -24.5945 3.5196
# 4 1.2161 -25.6384 -15.5976 50.8145 11.3618 -3.4482
# 5 -1.3613 -17.4752 -24.5945 11.3618 43.0061 -4.2998
# 6 16.0986 20.0120 3.5196 -3.4482 -4.2998 24.2840
#
#
#
# Elastic Compliance Matrix: (Units=1/GPa)
#
#
# Indices 1 2 3 4 5 6 
#
# 1 0.019714 -0.002071 -0.003898 -0.002869 -0.002860 -0.011711
# 2 -0.002071 0.035594 -0.004877 0.013613 0.005579 -0.024331
# 3 -0.003898 -0.004877 0.010079 0.000188 0.004200 0.005913
# 4 -0.002869 0.013613 0.000188 0.026744 -0.002109 -0.005920
# 5 -0.002860 0.005579 0.004200 -0.002109 0.028532 0.001442
# 6 -0.011711 -0.024331 0.005913 -0.005920 0.001442 0.067551
#
#
# Mechanical properties :
#
#
# Convention : Reuss Voigt Hill
#
# Bulk Modulus (GPa) = 22.88740 45.85016 34.36878
# Shear Modulus (GPa) = 22.27441 35.89567 29.08504
#
# Velocity S-wave (km/s) = 3.22233 4.09061 3.68216
# Velocity P-wave (km/s) = 4.95114 6.60941 5.83944
#
# Compressibility (1/GPa) = 0.04369216
#
# Stress axis : x y z
#
# Youngs Moduli (GPa) = 50.72585 28.09452 99.22028
#
# Poissons Ratio (x) = 0.05820 0.38679
# Poissons Ratio (y) = 0.10507 0.48395
# Poissons Ratio (z) = 0.19774 0.13703
#
# Static dielectric constant tensor:
#      x y z
#    x 1.782030 0.028850 -0.030170 
#    y 0.028850 1.807910 -0.045750 
#    z -0.030170 -0.045750 1.824860 
# 
# From -- ./inp_files/599548.got.cif
#   From: 2010.05.17/outbox.cif.g08.bks.cpg/sg2_300_cif.got.tgz:599548.got - 2010.06.03 11:33:40.
