data_PCOD9106472
_publ_section_title
;
Structure prediction by ZEFSAII (Michael W. Deem and Ramdas Pophale) SiO2 
 PCOD9106472
Probable space group: P -1
;
_chemical_formula_sum "Si O2"
_cell_formula_units_Z 15
_cell_length_a 7.091508
_cell_length_b 15.117528
_cell_length_c 20.187345
_cell_angle_alpha 23.813472
_cell_angle_beta 98.745215
_cell_angle_gamma 113.768571
_cell_volume 647.767510
_symmetry_space_group_name_H-M "P -1"
_symmetry_group_IT_number 2
_symmetry_cell_setting 'triclinic'
loop_
_space_group_symop_operation_xyz
x,y,z
-x,-y,-z
loop_
_atom_site_type_symbol
_atom_site_label
_atom_site_fract_x
_atom_site_fract_y
_atom_site_fract_z
Si Si1 0.071420 0.700685 0.429652
Si Si2 0.217199 0.786570 0.159136
Si Si3 0.500000 0.500000 0.000000
Si Si4 0.693256 0.846595 0.967573
Si Si5 0.859848 0.576742 0.769686
Si Si6 0.990188 0.036147 0.359991
Si Si7 0.550170 0.035869 0.315460
Si Si8 0.226793 0.578903 0.720279
O O1 0.850427 0.487940 0.616298
O O2 0.000000 0.500000 0.500000
O O3 0.329399 0.821358 0.396783
O O4 0.137858 0.979658 0.207105
O O5 0.009599 0.652963 0.182314
O O6 0.189327 0.961497 0.091401
O O7 0.500000 0.000000 0.000000
O O8 0.226043 0.176101 0.228199
O O9 0.624566 0.346624 0.101811
O O10 0.414359 0.743378 0.018591
O O11 0.642274 0.550936 0.169267
O O12 0.895356 0.757049 0.710833
O O13 0.094886 0.589781 0.768395
O O14 0.874731 0.727188 0.598690
O O15 0.776623 0.033598 0.321067
O O16 0.422076 0.882118 0.485006
#
# Coordination Sequence:
#
# PCOD9106472 Si02
#       8
#     2   2   1   2   2   2   2   2
#     4   9  22  42  68  96 133 168 214 276 325 385
#     4  10  20  39  70  96 132 172 217 267 330 395
#     4  12  24  42  66  98 138 172 220 278 332 388
#     4  11  21  41  67  95 132 171 217 275 330 384
#     4  11  23  41  65  94 132 168 227 271 328 384
#     4  11  25  42  66  97 127 178 220 278 326 398
#     4  11  23  43  68  97 130 178 223 268 336 399
#     4  11  22  40  68  97 128 177 222 270 327 401
#
# _framework density 23.156457
#
# number of rings (size 3 to 8) (size 9 to 14) (size 15 to 20)
#    0.000    1.333    4.000    1.600    0.000    2.667 
#    0.000    0.667    2.933    0.000    0.000    0.000 
#    0.000    0.000    0.000    0.000    0.000    0.000 
#
# Total GULP energy -83625.269792 kJ/mol
# GULP energy per Si atom -5575.017986 kJ/mol
# Density = 2.310375 g / cm^3
# Si number density = 23.156457 Si / 1000 Ang^3
#
#
#
# Elastic Constant Matrix: (Units=GPa)
#
#
# Indices 1 2 3 4 5 6 
#
# 1 94.5443 10.1607 28.0670 7.6635 -10.3458 1.7277
# 2 10.1607 80.6066 7.5058 -5.6987 -5.9588 5.2969
# 3 28.0670 7.5058 134.6963 16.1453 -13.4657 2.6189
# 4 7.6635 -5.6987 16.1453 26.2616 -2.3299 -7.6250
# 5 -10.3458 -5.9588 -13.4657 -2.3299 44.6294 -1.6761
# 6 1.7277 5.2969 2.6189 -7.6250 -1.6761 26.2530
#
#
#
# Elastic Compliance Matrix: (Units=1/GPa)
#
#
# Indices 1 2 3 4 5 6 
#
# 1 0.011697 -0.001294 -0.001843 -0.002688 0.001805 -0.000990
# 2 -0.001294 0.013064 -0.000696 0.003348 0.001356 -0.001422
# 3 -0.001843 -0.000696 0.008711 -0.005414 0.001748 -0.002068
# 4 -0.002688 0.003348 -0.005414 0.047020 0.001162 0.013772
# 5 0.001805 0.001356 0.001748 0.001162 0.023642 0.001280
# 6 -0.000990 -0.001422 -0.002068 0.013772 0.001280 0.042731
#
#
# Mechanical properties :
#
#
# Convention : Reuss Voigt Hill
#
# Bulk Modulus (GPa) = 38.75366 44.59046 41.67206
# Shear Modulus (GPa) = 30.64954 37.03637 33.84295
#
# Velocity S-wave (km/s) = 3.64206 4.00358 3.82709
# Velocity P-wave (km/s) = 5.87010 6.37727 6.12893
#
# Compressibility (1/GPa) = 0.02580401
#
# Stress axis : x y z
#
# Youngs Moduli (GPa) = 85.49285 76.54440 114.79917
#
# Poissons Ratio (x) = 0.09908 0.21160
# Poissons Ratio (y) = 0.11066 0.07995
# Poissons Ratio (z) = 0.15758 0.05331
#
# Static dielectric constant tensor:
#      x y z
#    x 1.840350 -0.025110 0.018230 
#    y -0.025110 1.898630 0.023270 
#    z 0.018230 0.023270 1.896940 
# 
# From -- ./inp_files/94752.got.cif
#   From: 2010.05.17/outbox.cif.g08.bks.cpg/sg2_48_cif.got.tgz:94752.got - 2010.06.03 11:33:40.
