data_PCOD9106022
_publ_section_title
;
Structure prediction by ZEFSAII (Michael W. Deem and Ramdas Pophale) SiO2 
 PCOD9106022
Probable space group: P -1
;
_chemical_formula_sum "Si O2"
_cell_formula_units_Z 12
_cell_length_a 12.269302
_cell_length_b 7.790436
_cell_length_c 19.489862
_cell_angle_alpha 134.832339
_cell_angle_beta 156.842997
_cell_angle_gamma 39.821353
_cell_volume 469.143389
_symmetry_space_group_name_H-M "P -1"
_symmetry_group_IT_number 2
_symmetry_cell_setting 'triclinic'
loop_
_space_group_symop_operation_xyz
x,y,z
-x,-y,-z
loop_
_atom_site_type_symbol
_atom_site_label
_atom_site_fract_x
_atom_site_fract_y
_atom_site_fract_z
Si Si1 0.383836 0.405805 0.838822
Si Si2 0.589834 0.512304 0.840814
Si Si3 0.460480 0.037261 0.609408
Si Si4 0.062886 0.998847 0.619146
Si Si5 0.707676 0.782151 0.816793
Si Si6 0.283810 0.467956 0.471475
O O1 0.541173 0.079815 0.837574
O O2 0.011399 0.520598 0.653583
O O3 0.500000 0.500000 0.000000
O O4 0.492931 0.498044 0.859080
O O5 0.951626 0.392355 0.010804
O O6 0.399506 0.807946 0.785107
O O7 0.716329 0.867991 0.766539
O O8 0.516678 0.827917 0.523136
O O9 0.150061 0.107319 0.491984
O O10 0.493237 0.304184 0.685633
O O11 0.924537 0.312179 0.645313
O O12 0.000000 0.000000 0.500000
O O13 0.521472 0.599013 0.661540
#
# Coordination Sequence:
#
# PCOD9106022 Si02
#       6
#     2   2   2   2   2   2
#     4  11  22  41  69 104 140 181 228 282 341 410
#     4  11  23  42  71 104 134 177 232 285 339 406
#     4  10  21  42  68  99 135 179 228 284 341 410
#     4  11  23  43  69  98 137 183 229 283 343 405
#     4  10  20  39  67 101 139 178 224 286 344 403
#     4  11  22  43  69  98 141 184 218 280 352 410
#
# _framework density 25.578534000000001
#
# number of rings (size 3 to 8) (size 9 to 14) (size 15 to 20)
#    0.000    1.333    0.000   10.000    0.000    0.000 
#    0.000   23.333    0.000    8.000    0.000    0.000 
#    0.000    0.000    0.000    0.000    0.000    0.000 
#
# Total GULP energy -67102.272324 kJ/mol
# GULP energy per Si atom -5591.856027 kJ/mol
# Density = 2.552032 g / cm^3
# Si number density = 25.578534 Si / 1000 Ang^3
#
#
#
# Elastic Constant Matrix: (Units=GPa)
#
#
# Indices 1 2 3 4 5 6 
#
# 1 137.9659 51.8697 41.1342 0.9625 1.7229 12.4286
# 2 51.8697 130.8042 73.7967 7.7887 -5.6230 -13.7285
# 3 41.1342 73.7967 158.9787 -21.5618 12.1818 -15.3137
# 4 0.9625 7.7887 -21.5618 59.1630 -4.9990 -1.6512
# 5 1.7229 -5.6230 12.1818 -4.9990 30.9082 -9.8138
# 6 12.4286 -13.7285 -15.3137 -1.6512 -9.8138 43.2143
#
#
#
# Elastic Compliance Matrix: (Units=1/GPa)
#
#
# Indices 1 2 3 4 5 6 
#
# 1 0.009431 -0.003743 -0.001035 -0.000375 -0.002391 -0.004826
# 2 -0.003743 0.013173 -0.005575 -0.003097 0.005720 0.004467
# 3 -0.001035 -0.005575 0.010139 0.004162 -0.003832 0.001409
# 4 -0.000375 -0.003097 0.004162 0.018998 0.001412 0.001645
# 5 -0.002391 0.005720 -0.003832 0.001412 0.038418 0.009925
# 6 -0.004826 0.004467 0.001409 0.001645 0.009925 0.028763
#
#
# Mechanical properties :
#
#
# Convention : Reuss Voigt Hill
#
# Bulk Modulus (GPa) = 83.06605 84.59445 83.83025
# Shear Modulus (GPa) = 34.80880 44.05365 39.43123
#
# Velocity S-wave (km/s) = 3.69299 4.15455 3.93055
# Velocity P-wave (km/s) = 7.12247 7.49386 7.31053
#
# Compressibility (1/GPa) = 0.01203861
#
# Stress axis : x y z
#
# Youngs Moduli (GPa) = 106.03140 75.91087 98.62438
#
# Poissons Ratio (x) = 0.28412 0.10210
# Poissons Ratio (y) = 0.39685 0.54980
# Poissons Ratio (z) = 0.10977 0.42318
#
# Static dielectric constant tensor:
#      x y z
#    x 2.124610 -0.033000 -0.010440 
#    y -0.033000 2.036480 0.009720 
#    z -0.010440 0.009720 2.076910 
# 
# From -- ./inp_files/489430.got.cif
#   From: 2010.05.17/outbox.cif.g08.bks.cpg/sg2_245_cif.got.tgz:489430.got - 2010.06.03 11:33:40.
