data_PCOD9106315
_publ_section_title
;
Structure prediction by ZEFSAII (Michael W. Deem and Ramdas Pophale) SiO2 
 PCOD9106315
Probable space group: P -1
;
_chemical_formula_sum "Si O2"
_cell_formula_units_Z 14
_cell_length_a 9.232960
_cell_length_b 12.225709
_cell_length_c 17.770410
_cell_angle_alpha 28.139064
_cell_angle_beta 68.034210
_cell_angle_gamma 50.439533
_cell_volume 624.800602
_symmetry_space_group_name_H-M "P -1"
_symmetry_group_IT_number 2
_symmetry_cell_setting 'triclinic'
loop_
_space_group_symop_operation_xyz
x,y,z
-x,-y,-z
loop_
_atom_site_type_symbol
_atom_site_label
_atom_site_fract_x
_atom_site_fract_y
_atom_site_fract_z
Si Si1 0.613876 0.171639 0.852420
Si Si2 0.019370 0.300464 0.481082
Si Si3 0.063590 0.782470 0.192835
Si Si4 0.519049 0.754924 0.334281
Si Si5 0.760044 0.225285 0.113979
Si Si6 0.858743 0.459198 0.257718
Si Si7 0.142120 0.350360 0.138468
O O1 0.737768 0.285172 0.765051
O O2 0.583550 0.103049 0.815262
O O3 0.368504 0.441663 0.769627
O O4 0.763063 0.818891 0.076390
O O5 0.115778 0.459797 0.362657
O O6 0.770620 0.566833 0.399404
O O7 0.987314 0.241956 0.438061
O O8 0.152299 0.993406 0.695886
O O9 0.861267 0.996604 0.160283
O O10 0.000000 0.000000 0.000000
O O11 0.500000 0.500000 0.500000
O O12 0.379329 0.017361 0.267668
O O13 0.500000 0.500000 0.000000
O O14 0.844335 0.401292 0.986476
O O15 0.021921 0.316996 0.243100
O O16 0.000000 0.500000 0.000000
#
# Coordination Sequence:
#
# PCOD9106315 Si02
#       7
#     2   2   2   2   2   2   2
#     4  10  20  39  68  98 135 173 223 268 334 402
#     4  11  24  45  68  96 139 179 228 272 335 412
#     4  12  22  42  69 101 133 183 221 270 334 409
#     4  11  23  42  70 101 131 176 225 277 341 401
#     4  12  27  45  65 100 135 177 224 283 339 397
#     4  10  21  41  69  99 133 175 225 276 330 393
#     4  12  22  42  70 101 137 174 222 283 334 391
#
# _framework density 22.407149
#
# number of rings (size 3 to 8) (size 9 to 14) (size 15 to 20)
#    0.000    0.857    4.286    3.000    0.000    2.286 
#    0.000   12.143    0.000    0.000    0.000    0.000 
#    0.000    0.000    0.000    0.000    0.000    0.000 
#
# Total GULP energy -78365.057862 kJ/mol
# GULP energy per Si atom -5597.504133 kJ/mol
# Density = 2.235615 g / cm^3
# Si number density = 22.407149 Si / 1000 Ang^3
#
#
#
# Elastic Constant Matrix: (Units=GPa)
#
#
# Indices 1 2 3 4 5 6 
#
# 1 108.8056 24.4273 27.5062 -7.9411 0.3374 -26.3227
# 2 24.4273 140.8955 45.5892 22.1022 24.2508 -22.7788
# 3 27.5062 45.5892 104.9415 19.7206 12.3143 -1.4363
# 4 -7.9411 22.1022 19.7206 25.1176 2.9524 0.4646
# 5 0.3374 24.2508 12.3143 2.9524 44.6855 -1.3192
# 6 -26.3227 -22.7788 -1.4363 0.4646 -1.3192 31.5018
#
#
#
# Elastic Compliance Matrix: (Units=1/GPa)
#
#
# Indices 1 2 3 4 5 6 
#
# 1 0.013800 -0.000595 -0.004950 0.008415 0.001346 0.010807
# 2 -0.000595 0.011255 -0.002659 -0.007596 -0.004650 0.007437
# 3 -0.004950 -0.002659 0.013987 -0.009887 -0.001879 -0.005354
# 4 0.008415 -0.007596 -0.009887 0.056554 0.003058 0.000383
# 5 0.001346 -0.004650 -0.001879 0.003058 0.025169 -0.001314
# 6 0.010807 0.007437 -0.005354 0.000383 -0.001314 0.045848
#
#
# Mechanical properties :
#
#
# Convention : Reuss Voigt Hill
#
# Bulk Modulus (GPa) = 44.18116 61.07645 52.62880
# Shear Modulus (GPa) = 26.23775 37.40230 31.82003
#
# Velocity S-wave (km/s) = 3.42563 4.09003 3.77249
# Velocity P-wave (km/s) = 5.95037 7.04423 6.52028
#
# Compressibility (1/GPa) = 0.02263408
#
# Stress axis : x y z
#
# Youngs Moduli (GPa) = 72.46189 88.84819 71.49650
#
# Poissons Ratio (x) = 0.05291 0.35390
# Poissons Ratio (y) = 0.04315 0.19008
# Poissons Ratio (z) = 0.35868 0.23621
#
# Static dielectric constant tensor:
#      x y z
#    x 1.911950 0.006040 -0.099350 
#    y 0.006040 1.873200 0.041630 
#    z -0.099350 0.041630 2.028850 
# 
# From -- ./inp_files/156683.got.cif
#   From: 2010.05.17/outbox.cif.g08.bks.cpg/sg2_79_cif.got.tgz:156683.got - 2010.06.03 11:33:40.
