data_PCOD9106140
_publ_section_title
;
Structure prediction by ZEFSAII (Michael W. Deem and Ramdas Pophale) SiO2 
 PCOD9106140
Probable space group: P -1
;
_chemical_formula_sum "Si O2"
_cell_formula_units_Z 15
_cell_length_a 12.400127
_cell_length_b 9.667079
_cell_length_c 7.971732
_cell_angle_alpha 81.147290
_cell_angle_beta 36.350632
_cell_angle_gamma 85.463053
_cell_volume 558.014863
_symmetry_space_group_name_H-M "P -1"
_symmetry_group_IT_number 2
_symmetry_cell_setting 'triclinic'
loop_
_space_group_symop_operation_xyz
x,y,z
-x,-y,-z
loop_
_atom_site_type_symbol
_atom_site_label
_atom_site_fract_x
_atom_site_fract_y
_atom_site_fract_z
Si Si1 0.290955 0.218047 0.085556
Si Si2 0.682057 0.178313 0.720029
Si Si3 0.134716 0.537465 0.475408
Si Si4 0.000000 0.000000 0.500000
Si Si5 0.748292 0.672430 0.408789
Si Si6 0.312797 0.067336 0.725225
Si Si7 0.166114 0.781724 0.854715
Si Si8 0.240509 0.485514 0.903184
O O1 0.093108 0.159415 0.410839
O O2 0.463205 0.167389 0.979580
O O3 0.277422 0.143280 0.929903
O O4 0.313246 0.382867 0.972646
O O5 0.738498 0.322638 0.718627
O O6 0.742588 0.194447 0.445520
O O7 0.810430 0.067193 0.660188
O O8 0.253265 0.411122 0.402932
O O9 0.000000 0.500000 0.500000
O O10 0.980325 0.551793 0.810296
O O11 0.660705 0.817293 0.474317
O O12 0.686804 0.565679 0.356614
O O13 0.957820 0.727925 0.104326
O O14 0.500000 0.000000 0.500000
O O15 0.169552 0.933858 0.909078
O O16 0.260977 0.654929 0.853336
#
# Coordination Sequence:
#
# PCOD9106140 Si02
#       8
#     2   2   2   1   2   2   2   2
#     4  11  25  46  73  99 138 187 235 281 350 420
#     4  12  23  43  71  98 135 190 229 282 352 415
#     4  11  22  40  66 103 136 179 240 289 333 414
#     4  12  26  46  66  94 140 192 234 276 334 426
#     4  10  20  39  67  95 138 187 220 275 362 410
#     4  11  23  39  63 107 139 162 231 300 340 398
#     4  11  20  39  70 101 137 170 230 287 348 417
#     4  10  20  43  70  98 134 181 226 285 358 413
#
# _framework density 26.881004000000001
#
# number of rings (size 3 to 8) (size 9 to 14) (size 15 to 20)
#    0.000    1.067    5.333    2.400    0.000    4.800 
#    0.000    0.667    0.000    0.000    0.000    0.000 
#    0.000    0.000    0.000    0.000    0.000    0.000 
#
# Total GULP energy -83735.602284 kJ/mol
# GULP energy per Si atom -5582.373486 kJ/mol
# Density = 2.681982 g / cm^3
# Si number density = 26.881004 Si / 1000 Ang^3
#
#
#
# Elastic Constant Matrix: (Units=GPa)
#
#
# Indices 1 2 3 4 5 6 
#
# 1 156.6392 93.9233 36.5122 -8.1509 -15.8163 -23.1464
# 2 93.9233 197.0289 10.3660 -7.4492 -13.6063 -40.0553
# 3 36.5122 10.3660 53.6682 -6.1377 -17.0969 -3.5636
# 4 -8.1509 -7.4492 -6.1377 33.8637 2.7390 -13.3534
# 5 -15.8163 -13.6063 -17.0969 2.7390 54.7084 5.5427
# 6 -23.1464 -40.0553 -3.5636 -13.3534 5.5427 59.1322
#
#
#
# Elastic Compliance Matrix: (Units=1/GPa)
#
#
# Indices 1 2 3 4 5 6 
#
# 1 0.010783 -0.004599 -0.006339 0.000809 -0.000141 0.000919
# 2 -0.004599 0.008216 0.002444 0.002835 0.000883 0.004470
# 3 -0.006339 0.002444 0.024923 0.003350 0.006311 0.000841
# 4 0.000809 0.002835 0.003350 0.035145 -0.000833 0.010453
# 5 -0.000141 0.000883 0.006311 -0.000833 0.020593 -0.001195
# 6 0.000919 0.004470 0.000841 0.010453 -0.001195 0.022822
#
#
# Mechanical properties :
#
#
# Convention : Reuss Voigt Hill
#
# Bulk Modulus (GPa) = 37.12764 76.54883 56.83823
# Shear Modulus (GPa) = 33.68183 47.30983 40.49583
#
# Velocity S-wave (km/s) = 3.54361 4.19975 3.88556
# Velocity P-wave (km/s) = 5.53035 7.21498 6.42809
#
# Compressibility (1/GPa) = 0.02693411
#
# Stress axis : x y z
#
# Youngs Moduli (GPa) = 92.73778 121.71405 40.12331
#
# Poissons Ratio (x) = 0.55976 0.25435
# Poissons Ratio (y) = 0.42650 -0.09807
# Poissons Ratio (z) = 0.58788 -0.29749
#
# Static dielectric constant tensor:
#      x y z
#    x 2.232420 0.119560 -0.078880 
#    y 0.119560 2.447160 -0.193080 
#    z -0.078880 -0.193080 2.318050 
# 
# From -- ./inp_files/243276.got.cif
#   From: 2010.05.17/outbox.cif.g08.bks.cpg/sg2_122_cif.got.tgz:243276.got - 2010.06.03 11:33:40.
