data_PCOD9106903
_publ_section_title
;
Structure prediction by ZEFSAII (Michael W. Deem and Ramdas Pophale) SiO2 
 PCOD9106903
Probable space group: P -1
;
_chemical_formula_sum "Si O2"
_cell_formula_units_Z 16
_cell_length_a 20.733263
_cell_length_b 7.642293
_cell_length_c 22.517711
_cell_angle_alpha 143.057361
_cell_angle_beta 19.947804
_cell_angle_gamma 134.468484
_cell_volume 708.803662
_symmetry_space_group_name_H-M "P -1"
_symmetry_group_IT_number 2
_symmetry_cell_setting 'triclinic'
loop_
_space_group_symop_operation_xyz
x,y,z
-x,-y,-z
loop_
_atom_site_type_symbol
_atom_site_label
_atom_site_fract_x
_atom_site_fract_y
_atom_site_fract_z
Si Si1 0.184167 0.311529 0.081167
Si Si2 0.285618 0.630393 0.277278
Si Si3 0.052385 0.432710 0.534863
Si Si4 0.595534 0.864141 0.630025
Si Si5 0.356976 0.834118 0.112164
Si Si6 0.012436 0.069733 0.925147
Si Si7 0.392640 0.806921 0.580679
Si Si8 0.743026 0.735812 0.341130
O O1 0.263290 0.613695 0.092768
O O2 0.029590 0.364560 0.283024
O O3 0.085797 0.200290 0.079482
O O4 0.373115 0.047838 0.862220
O O5 0.177503 0.562986 0.413439
O O6 0.139366 0.603584 0.344307
O O7 0.319942 0.961068 0.344867
O O8 0.494443 0.385183 0.031357
O O9 0.182858 0.112728 0.357517
O O10 0.600119 0.518051 0.541560
O O11 0.714975 0.874278 0.468450
O O12 0.500000 0.000000 0.000000
O O13 0.137337 0.121555 0.771946
O O14 0.169479 0.988789 0.819851
O O15 0.856870 0.386768 0.153517
O O16 0.524464 0.763895 0.513442
O O17 0.500000 0.000000 0.500000
#
# Coordination Sequence:
#
# PCOD9106903 Si02
#       8
#     2   2   2   2   2   2   2   2
#     4  11  22  37  63  90 119 158 203 241 295 361
#     4   9  21  39  62  87 117 157 197 245 298 356
#     4  10  20  40  62  86 121 154 197 247 299 350
#     4  11  22  39  64  88 125 158 202 248 303 358
#     4   9  20  38  57  83 118 153 192 244 296 343
#     4  10  22  39  64  90 118 159 207 245 300 360
#     4  10  22  40  61  87 122 159 200 249 301 353
#     4  10  21  43  62  85 126 159 193 258 306 350
#
# _framework density 22.573248
#
# number of rings (size 3 to 8) (size 9 to 14) (size 15 to 20)
#    0.000    2.000    1.250    1.500    1.750    2.500 
#    2.250    0.000   11.000    0.000    0.000    0.000 
#    0.000    0.000    0.000    0.000    0.000    0.000 
#
# Total GULP energy -89418.820626 kJ/mol
# GULP energy per Si atom -5588.676289 kJ/mol
# Density = 2.252187 g / cm^3
# Si number density = 22.573248 Si / 1000 Ang^3
#
#
#
# Elastic Constant Matrix: (Units=GPa)
#
#
# Indices 1 2 3 4 5 6 
#
# 1 89.4542 28.0378 36.6627 9.9832 -8.2989 22.0136
# 2 28.0378 89.7679 19.6732 0.4935 -10.1226 4.2313
# 3 36.6627 19.6732 152.1651 -4.8929 -1.7050 10.0700
# 4 9.9832 0.4935 -4.8929 35.8549 5.8101 2.3419
# 5 -8.2989 -10.1226 -1.7050 5.8101 25.9245 -6.8643
# 6 22.0136 4.2313 10.0700 2.3419 -6.8643 45.1622
#
#
#
# Elastic Compliance Matrix: (Units=1/GPa)
#
#
# Indices 1 2 3 4 5 6 
#
# 1 0.015881 -0.003641 -0.003082 -0.004880 0.002962 -0.006010
# 2 -0.003641 0.012866 -0.000833 -0.000046 0.004182 0.001393
# 3 -0.003082 -0.000833 0.007503 0.002149 -0.001411 -0.000419
# 4 -0.004880 -0.000046 0.002149 0.031013 -0.008659 -0.001021
# 5 0.002962 0.004182 -0.001411 -0.008659 0.044510 0.005693
# 6 -0.006010 0.001393 -0.000419 -0.001021 0.005693 0.025953
#
#
# Mechanical properties :
#
#
# Convention : Reuss Voigt Hill
#
# Bulk Modulus (GPa) = 47.30581 55.57053 51.43817
# Shear Modulus (GPa) = 31.27278 37.85589 34.56433
#
# Velocity S-wave (km/s) = 3.72612 4.09959 3.91731
# Velocity P-wave (km/s) = 6.28602 6.86150 6.58005
#
# Compressibility (1/GPa) = 0.02113905
#
# Stress axis : x y z
#
# Youngs Moduli (GPa) = 62.96674 77.72556 133.27940
#
# Poissons Ratio (x) = 0.28299 0.41074
# Poissons Ratio (y) = 0.22925 0.11102
# Poissons Ratio (z) = 0.19405 0.06474
#
# Static dielectric constant tensor:
#      x y z
#    x 1.904400 -0.031750 0.021020 
#    y -0.031750 1.840730 -0.045440 
#    z 0.021020 -0.045440 1.830520 
# 
# From -- ./inp_files/613625.got.cif
#   From: 2010.05.17/outbox.cif.g08.bks.cpg/sg2_307_cif.got.tgz:613625.got - 2010.06.03 11:33:40.
