data_PCOD9106064
_publ_section_title
;
Structure prediction by ZEFSAII (Michael W. Deem and Ramdas Pophale) SiO2 
 PCOD9106064
Probable space group: P -1
;
_chemical_formula_sum "Si O2"
_cell_formula_units_Z 14
_cell_length_a 19.704225
_cell_length_b 5.499311
_cell_length_c 8.988853
_cell_angle_alpha 63.837196
_cell_angle_beta 139.593683
_cell_angle_gamma 126.949660
_cell_volume 504.302110
_symmetry_space_group_name_H-M "P -1"
_symmetry_group_IT_number 2
_symmetry_cell_setting 'triclinic'
loop_
_space_group_symop_operation_xyz
x,y,z
-x,-y,-z
loop_
_atom_site_type_symbol
_atom_site_label
_atom_site_fract_x
_atom_site_fract_y
_atom_site_fract_z
Si Si1 0.054665 0.265853 0.640584
Si Si2 0.220285 0.679053 0.155473
Si Si3 0.301391 0.009468 0.500553
Si Si4 0.674156 0.331148 0.106067
Si Si5 0.438827 0.630615 0.479758
Si Si6 0.277735 0.086120 0.880945
Si Si7 0.883369 0.901171 0.669584
O O1 0.188061 0.474904 0.760716
O O2 0.000000 0.500000 0.500000
O O3 0.000000 0.000000 0.500000
O O4 0.015508 0.090566 0.780191
O O5 0.304404 0.569961 0.235661
O O6 0.134361 0.399441 0.190462
O O7 0.293049 0.923562 0.337915
O O8 0.194418 0.860049 0.932234
O O9 0.390255 0.358628 0.595157
O O10 0.170359 0.934907 0.356162
O O11 0.341467 0.802312 0.719206
O O12 0.639632 0.601849 0.981024
O O13 0.639150 0.043274 0.019661
O O14 0.500000 0.500000 0.500000
O O15 0.500000 0.000000 0.500000
O O16 0.200957 0.138396 0.606973
#
# Coordination Sequence:
#
# PCOD9106064 Si02
#       7
#     2   2   2   2   2   2   2
#     4  12  19  36  63  88 124 170 215 257 309 353
#     4  11  23  41  68  95 122 168 208 252 315 379
#     4  10  20  39  67  91 121 162 209 252 307 377
#     4  11  22  40  62  93 124 172 210 260 307 363
#     4  11  23  40  65  96 124 158 203 254 316 376
#     4  11  23  38  63  91 129 161 214 257 308 366
#     4  10  22  39  62  94 124 172 211 261 303 366
#
# _framework density 27.761139
#
# number of rings (size 3 to 8) (size 9 to 14) (size 15 to 20)
#    0.000    1.143    7.143    0.000    4.000    0.000 
#    0.000    1.429    0.000   22.286    0.000    0.000 
#    0.000    0.000    0.000    0.000    0.000    0.000 
#
# Total GULP energy -78107.833650 kJ/mol
# GULP energy per Si atom -5579.130975 kJ/mol
# Density = 2.769795 g / cm^3
# Si number density = 27.761139 Si / 1000 Ang^3
#
#
#
# Elastic Constant Matrix: (Units=GPa)
#
#
# Indices 1 2 3 4 5 6 
#
# 1 143.7641 45.1550 23.4923 6.2992 -16.2376 -28.5129
# 2 45.1550 178.7395 57.5058 -39.5741 -9.7518 -28.1617
# 3 23.4923 57.5058 134.9900 -13.6751 -43.5954 9.1129
# 4 6.2992 -39.5741 -13.6751 43.1421 13.6416 -9.5318
# 5 -16.2376 -9.7518 -43.5954 13.6416 32.6643 3.7186
# 6 -28.5129 -28.1617 9.1129 -9.5318 3.7186 61.3950
#
#
#
# Elastic Compliance Matrix: (Units=1/GPa)
#
#
# Indices 1 2 3 4 5 6 
#
# 1 0.009414 -0.004415 0.002774 -0.007780 0.010302 0.000103
# 2 -0.004415 0.016409 -0.012993 0.022346 -0.025383 0.012411
# 3 0.002774 -0.012993 0.024215 -0.020314 0.039877 -0.013835
# 4 -0.007780 0.022346 -0.020314 0.059591 -0.051703 0.022035
# 5 0.010302 -0.025383 0.039877 -0.051703 0.106072 -0.027229
# 6 0.000103 0.012411 -0.013835 0.022035 -0.027229 0.029153
#
#
# Mechanical properties :
#
#
# Convention : Reuss Voigt Hill
#
# Bulk Modulus (GPa) = 48.14742 78.86665 63.50704
# Shear Modulus (GPa) = 17.79080 49.52964 33.66022
#
# Velocity S-wave (km/s) = 2.53425 4.22849 3.48587
# Velocity P-wave (km/s) = 5.09356 7.23262 6.25520
#
# Compressibility (1/GPa) = 0.02076954
#
# Stress axis : x y z
#
# Youngs Moduli (GPa) = 106.22356 60.94383 41.29721
#
# Poissons Ratio (x) = 0.26907 -0.11457
# Poissons Ratio (y) = 0.46897 0.53658
# Poissons Ratio (z) = -0.29470 0.79186
#
# Static dielectric constant tensor:
#      x y z
#    x 2.235290 -0.050050 0.070960 
#    y -0.050050 2.349930 -0.027400 
#    z 0.070960 -0.027400 2.297950 
# 
# From -- ./inp_files/339634.got.cif
#   From: 2010.05.17/outbox.cif.g08.bks.cpg/sg2_170_cif.got.tgz:339634.got - 2010.06.03 11:33:40.
