data_PCOD9106760
_publ_section_title
;
Structure prediction by ZEFSAII (Michael W. Deem and Ramdas Pophale) SiO2 
 PCOD9106760
Probable space group: P -1
;
_chemical_formula_sum "Si O2"
_cell_formula_units_Z 14
_cell_length_a 11.521384
_cell_length_b 7.865765
_cell_length_c 8.807833
_cell_angle_alpha 57.825013
_cell_angle_beta 109.074933
_cell_angle_gamma 112.845312
_cell_volume 615.203880
_symmetry_space_group_name_H-M "P -1"
_symmetry_group_IT_number 2
_symmetry_cell_setting 'triclinic'
loop_
_space_group_symop_operation_xyz
x,y,z
-x,-y,-z
loop_
_atom_site_type_symbol
_atom_site_label
_atom_site_fract_x
_atom_site_fract_y
_atom_site_fract_z
Si Si1 0.410509 0.271462 0.044545
Si Si2 0.239032 0.941908 0.314933
Si Si3 0.644110 0.132204 0.296246
Si Si4 0.128587 0.525040 0.881230
Si Si5 0.888745 0.238584 0.943224
Si Si6 0.246020 0.158071 0.738101
Si Si7 0.995799 0.801532 0.489560
O O1 0.504227 0.121844 0.181660
O O2 0.297751 0.176106 0.163115
O O3 0.500000 0.500000 0.000000
O O4 0.352866 0.258995 0.857546
O O5 0.335743 0.895112 0.503631
O O6 0.207157 0.798077 0.220764
O O7 0.103060 0.884936 0.368878
O O8 0.733258 0.362467 0.178490
O O9 0.697720 0.956690 0.317433
O O10 0.038431 0.292531 0.939689
O O11 0.042351 0.640378 0.690056
O O12 0.132387 0.589390 0.028814
O O13 0.849582 0.029281 0.122773
O O14 0.150045 0.290270 0.582067
O O15 0.000000 0.000000 0.500000
#
# Coordination Sequence:
#
# PCOD9106760 Si02
#       7
#     2   2   2   2   2   2   2
#     4  11  25  41  57  87 117 154 204 244 278 337
#     4  10  22  37  63  83 116 155 191 241 296 339
#     4  10  20  40  61  79 118 161 191 231 287 355
#     4   9  19  34  59  87 120 150 188 236 292 351
#     4   9  18  34  53  91 116 146 191 233 293 348
#     4  10  21  40  61  83 117 160 190 236 299 344
#     4  11  19  38  60  88 118 147 187 240 299 348
#
# _framework density 22.756685000000001
#
# number of rings (size 3 to 8) (size 9 to 14) (size 15 to 20)
#    0.000    2.000    4.286    0.857    0.000    8.000 
#    2.571    0.714    0.000    0.000    0.000    0.000 
#    0.000    0.000    0.000    0.000    0.000    0.000 
#
# Total GULP energy -78145.750049 kJ/mol
# GULP energy per Si atom -5581.839289 kJ/mol
# Density = 2.270489 g / cm^3
# Si number density = 22.756685 Si / 1000 Ang^3
#
#
#
# Elastic Constant Matrix: (Units=GPa)
#
#
# Indices 1 2 3 4 5 6 
#
# 1 92.1823 11.1998 47.0069 14.3073 22.0056 12.2805
# 2 11.1998 96.7217 39.0469 20.4636 -8.1693 26.7342
# 3 47.0069 39.0469 114.5069 37.7311 -2.8170 9.5954
# 4 14.3073 20.4636 37.7311 41.3889 17.9573 5.1082
# 5 22.0056 -8.1693 -2.8170 17.9573 42.9045 3.5320
# 6 12.2805 26.7342 9.5954 5.1082 3.5320 25.1103
#
#
#
# Elastic Compliance Matrix: (Units=1/GPa)
#
#
# Indices 1 2 3 4 5 6 
#
# 1 0.019125 0.000522 -0.011322 0.010369 -0.014326 -0.005676
# 2 0.000522 0.019011 -0.001789 -0.009377 0.008735 -0.019133
# 3 -0.011322 -0.001789 0.021456 -0.021838 0.015896 0.001449
# 4 0.010369 -0.009377 -0.021838 0.059016 -0.033732 0.005997
# 5 -0.014326 0.008735 0.015896 -0.033732 0.048162 -0.008280
# 6 -0.005676 -0.019133 0.001449 0.005997 -0.008280 0.062362
#
#
# Mechanical properties :
#
#
# Convention : Reuss Voigt Hill
#
# Bulk Modulus (GPa) = 29.05874 55.32425 42.19150
# Shear Modulus (GPa) = 18.81241 35.62455 27.21848
#
# Velocity S-wave (km/s) = 2.87832 3.96087 3.46217
# Velocity P-wave (km/s) = 4.88296 6.72919 5.87900
#
# Compressibility (1/GPa) = 0.03441305
#
# Stress axis : x y z
#
# Youngs Moduli (GPa) = 52.28714 52.60178 46.60611
#
# Poissons Ratio (x) = -0.02743 0.52770
# Poissons Ratio (y) = -0.02727 0.08336
# Poissons Ratio (z) = 0.59202 0.09409
#
# Static dielectric constant tensor:
#      x y z
#    x 1.928720 0.007930 0.026570 
#    y 0.007930 1.874100 -0.009950 
#    z 0.026570 -0.009950 1.888370 
# 
# From -- ./inp_files/242637.got.cif
#   From: 2010.05.17/outbox.cif.g08.bks.cpg/sg2_122_cif.got.tgz:242637.got - 2010.06.03 11:33:40.
