data_PCOD9106375
_publ_section_title
;
Structure prediction by ZEFSAII (Michael W. Deem and Ramdas Pophale) SiO2 
 PCOD9106375
Probable space group: P -1
;
_chemical_formula_sum "Si O2"
_cell_formula_units_Z 16
_cell_length_a 18.322148
_cell_length_b 8.765983
_cell_length_c 8.479184
_cell_angle_alpha 108.814486
_cell_angle_beta 111.430264
_cell_angle_gamma 126.876061
_cell_volume 695.710955
_symmetry_space_group_name_H-M "P -1"
_symmetry_group_IT_number 2
_symmetry_cell_setting 'triclinic'
loop_
_space_group_symop_operation_xyz
x,y,z
-x,-y,-z
loop_
_atom_site_type_symbol
_atom_site_label
_atom_site_fract_x
_atom_site_fract_y
_atom_site_fract_z
Si Si1 0.584566 0.506276 0.414640
Si Si2 0.293610 0.108312 0.085887
Si Si3 0.259326 0.325134 0.921325
Si Si4 0.959343 0.474058 0.141395
Si Si5 0.083780 0.274963 0.957348
Si Si6 0.198451 0.339825 0.531648
Si Si7 0.808862 0.352969 0.527853
Si Si8 0.446782 0.268112 0.767721
O O1 0.422956 0.212326 0.188178
O O2 0.639740 0.634476 0.674209
O O3 0.669233 0.509701 0.399456
O O4 0.610434 0.720645 0.417231
O O5 0.240583 0.108314 0.887921
O O6 0.176524 0.833838 0.003666
O O7 0.183726 0.307731 0.982422
O O8 0.201772 0.276447 0.689469
O O9 0.421864 0.615073 0.135580
O O10 0.936325 0.625024 0.161875
O O11 0.078951 0.597833 0.379412
O O12 0.000000 0.500000 0.000000
O O13 0.145258 0.463086 0.222685
O O14 0.934837 0.952550 0.757585
O O15 0.196055 0.528711 0.578993
O O16 0.667102 0.032404 0.346939
O O17 0.500000 0.500000 0.000000
#
# Coordination Sequence:
#
# PCOD9106375 Si02
#       8
#     2   2   2   2   2   2   2   2
#     4  10  20  39  69  94 132 178 225 274 328 398
#     4  10  21  39  66 101 129 174 229 274 331 394
#     4  11  25  42  65  97 144 177 219 282 339 393
#     4  10  21  40  66  96 129 166 221 277 329 394
#     4  11  23  42  67  99 135 172 227 286 328 397
#     4  12  23  42  66  99 141 183 217 272 345 400
#     4  11  24  41  71  97 127 180 234 271 333 406
#     4  11  23  45  68  97 135 178 224 277 334 400
#
# _framework density 22.998055999999998
#
# number of rings (size 3 to 8) (size 9 to 14) (size 15 to 20)
#    0.000    1.250    1.250    6.000    0.000    2.000 
#    4.500    1.250    0.000    0.000    0.000    0.000 
#    0.000    0.000    0.000    0.000    0.000    0.000 
#
# Total GULP energy -89509.183175 kJ/mol
# GULP energy per Si atom -5594.323948 kJ/mol
# Density = 2.294571 g / cm^3
# Si number density = 22.998056 Si / 1000 Ang^3
#
#
#
# Elastic Constant Matrix: (Units=GPa)
#
#
# Indices 1 2 3 4 5 6 
#
# 1 104.9481 22.3846 42.7001 5.2892 39.4918 3.4401
# 2 22.3846 159.2641 66.9042 18.6846 25.4264 -4.5410
# 3 42.7001 66.9042 99.6417 6.8395 13.8645 -5.4632
# 4 5.2892 18.6846 6.8395 48.1396 7.4065 8.8805
# 5 39.4918 25.4264 13.8645 7.4065 36.8711 -4.8418
# 6 3.4401 -4.5410 -5.4632 8.8805 -4.8418 29.7630
#
#
#
# Elastic Compliance Matrix: (Units=1/GPa)
#
#
# Indices 1 2 3 4 5 6 
#
# 1 0.021724 0.004233 -0.009409 0.002571 -0.024257 -0.008305
# 2 0.004233 0.010424 -0.007540 -0.001901 -0.008653 -0.001123
# 3 -0.009409 -0.007540 0.018183 -0.000993 0.009307 0.005085
# 4 0.002571 -0.001901 -0.000993 0.024150 -0.007120 -0.009133
# 5 -0.024257 -0.008653 0.009307 -0.007120 0.058957 0.014907
# 6 -0.008305 -0.001123 0.005085 -0.009133 0.014907 0.040471
#
#
# Mechanical properties :
#
#
# Convention : Reuss Voigt Hill
#
# Bulk Modulus (GPa) = 40.16184 69.75908 54.96046
# Shear Modulus (GPa) = 24.08018 38.41240 31.24629
#
# Velocity S-wave (km/s) = 3.23933 4.09130 3.68998
# Velocity P-wave (km/s) = 5.61178 7.26063 6.48879
#
# Compressibility (1/GPa) = 0.02489926
#
# Stress axis : x y z
#
# Youngs Moduli (GPa) = 46.03186 95.93389 54.99727
#
# Poissons Ratio (x) = -0.40611 0.51745
# Poissons Ratio (y) = -0.19486 0.41469
# Poissons Ratio (z) = 0.43310 0.72337
#
# Static dielectric constant tensor:
#      x y z
#    x 1.838020 0.016980 -0.015110 
#    y 0.016980 1.881420 -0.080140 
#    z -0.015110 -0.080140 1.932490 
# 
# From -- ./inp_files/343669.got.cif
#   From: 2010.05.17/outbox.cif.g08.bks.cpg/sg2_172_cif.got.tgz:343669.got - 2010.06.03 11:33:40.
