data_PCOD9106734
_publ_section_title
;
Structure prediction by ZEFSAII (Michael W. Deem and Ramdas Pophale) SiO2 
 PCOD9106734
Probable space group: P -1
;
_chemical_formula_sum "Si O2"
_cell_formula_units_Z 16
_cell_length_a 11.697358
_cell_length_b 10.344609
_cell_length_c 8.812809
_cell_angle_alpha 122.999403
_cell_angle_beta 88.558487
_cell_angle_gamma 117.922619
_cell_volume 751.250524
_symmetry_space_group_name_H-M "P -1"
_symmetry_group_IT_number 2
_symmetry_cell_setting 'triclinic'
loop_
_space_group_symop_operation_xyz
x,y,z
-x,-y,-z
loop_
_atom_site_type_symbol
_atom_site_label
_atom_site_fract_x
_atom_site_fract_y
_atom_site_fract_z
Si Si1 0.996144 0.494838 0.743983
Si Si2 0.234199 0.680994 0.616022
Si Si3 0.022982 0.068336 0.218693
Si Si4 0.348930 0.421830 0.012312
Si Si5 0.315952 0.218590 0.302502
Si Si6 0.561821 0.396947 0.575726
Si Si7 0.063827 0.303095 0.859112
Si Si8 0.247882 0.015028 0.876896
O O1 0.139774 0.610301 0.723917
O O2 0.000400 0.338984 0.738915
O O3 0.872943 0.415266 0.579031
O O4 0.973379 0.615130 0.943635
O O5 0.348707 0.635615 0.564537
O O6 0.311006 0.902181 0.749716
O O7 0.180033 0.218596 0.334186
O O8 0.992378 0.905787 0.228814
O O9 0.909133 0.115295 0.258153
O O10 0.000000 0.000000 0.000000
O O11 0.372222 0.563490 0.235915
O O12 0.500000 0.500000 0.000000
O O13 0.227187 0.401121 0.901618
O O14 0.293725 0.213262 0.935321
O O15 0.403843 0.237536 0.457479
O O16 0.418355 0.406078 0.329733
O O17 0.269417 0.052257 0.081188
#
# Coordination Sequence:
#
# PCOD9106734 Si02
#       8
#     2   2   2   2   2   2   2   2
#     4  10  22  35  62  88 127 156 198 253 309 354
#     4  11  22  38  61  91 123 159 200 250 308 354
#     4   9  17  33  62  84 115 154 203 246 295 344
#     4  10  21  42  62  81 121 165 197 243 310 362
#     4   9  19  35  58  87 115 154 203 243 293 353
#     4  10  21  37  60  87 118 158 206 245 290 374
#     4  10  20  40  60  92 117 160 205 251 298 362
#     4   9  20  36  59  88 116 152 201 249 293 361
#
# _framework density 21.297820999999999
#
# number of rings (size 3 to 8) (size 9 to 14) (size 15 to 20)
#    0.000    2.250    1.250    2.250    3.500    3.500 
#    2.250    4.375    0.000    0.000    0.000    0.000 
#    0.000    0.000    0.000    0.000    0.000    0.000 
#
# Total GULP energy -89134.517279 kJ/mol
# GULP energy per Si atom -5570.907330 kJ/mol
# Density = 2.124935 g / cm^3
# Si number density = 21.297821 Si / 1000 Ang^3
#
#
#
# Elastic Constant Matrix: (Units=GPa)
#
#
# Indices 1 2 3 4 5 6 
#
# 1 94.3388 17.0836 26.5311 6.6989 4.9387 14.3016
# 2 17.0836 37.1116 8.7595 -2.4488 6.2743 -3.5109
# 3 26.5311 8.7595 51.7106 11.5613 0.0853 3.4218
# 4 6.6989 -2.4488 11.5613 20.1368 2.7251 -0.4952
# 5 4.9387 6.2743 0.0853 2.7251 40.0390 3.8552
# 6 14.3016 -3.5109 3.4218 -0.4952 3.8552 34.6738
#
#
#
# Elastic Compliance Matrix: (Units=1/GPa)
#
#
# Indices 1 2 3 4 5 6 
#
# 1 0.014293 -0.006050 -0.005336 -0.002568 -0.000050 -0.006012
# 2 -0.006050 0.033297 -0.005246 0.010040 -0.005835 0.007177
# 3 -0.005336 -0.005246 0.026254 -0.014314 0.002534 -0.001407
# 4 -0.002568 0.010040 -0.014314 0.060869 -0.005851 0.005008
# 5 -0.000050 -0.005835 0.002534 -0.005851 0.026661 -0.003868
# 6 -0.006012 0.007177 -0.001407 0.005008 -0.003868 0.032687
#
#
# Mechanical properties :
#
#
# Convention : Reuss Voigt Hill
#
# Bulk Modulus (GPa) = 24.64328 31.98993 28.31661
# Shear Modulus (GPa) = 20.75961 27.68903 24.22432
#
# Velocity S-wave (km/s) = 3.12545 3.60958 3.37621
# Velocity P-wave (km/s) = 4.96191 5.69430 5.34067
#
# Compressibility (1/GPa) = 0.04057901
#
# Stress axis : x y z
#
# Youngs Moduli (GPa) = 69.96539 30.03296 38.08901
#
# Poissons Ratio (x) = 0.18169 0.20326
# Poissons Ratio (y) = 0.42326 0.19983
# Poissons Ratio (z) = 0.37336 0.15756
#
# Static dielectric constant tensor:
#      x y z
#    x 1.801860 0.019420 0.026650 
#    y 0.019420 1.817200 -0.026820 
#    z 0.026650 -0.026820 1.828260 
# 
# From -- ./inp_files/263462.got.cif
#   From: 2010.05.17/outbox.cif.g08.bks.cpg/sg2_132_cif.got.tgz:263462.got - 2010.06.03 11:33:40.
