data_PCOD9106434
_publ_section_title
;
Structure prediction by ZEFSAII (Michael W. Deem and Ramdas Pophale) SiO2 
 PCOD9106434
Probable space group: P -1
;
_chemical_formula_sum "Si O2"
_cell_formula_units_Z 14
_cell_length_a 8.467444
_cell_length_b 19.998002
_cell_length_c 10.946096
_cell_angle_alpha 148.182061
_cell_angle_beta 61.006135
_cell_angle_gamma 138.871282
_cell_volume 574.684690
_symmetry_space_group_name_H-M "P -1"
_symmetry_group_IT_number 2
_symmetry_cell_setting 'triclinic'
loop_
_space_group_symop_operation_xyz
x,y,z
-x,-y,-z
loop_
_atom_site_type_symbol
_atom_site_label
_atom_site_fract_x
_atom_site_fract_y
_atom_site_fract_z
Si Si1 0.188952 0.056822 0.741132
Si Si2 0.030153 0.221542 0.424780
Si Si3 0.621807 0.078976 0.941458
Si Si4 0.423737 0.226765 0.548245
Si Si5 0.881873 0.700644 0.755833
Si Si6 0.508416 0.713976 0.667957
Si Si7 0.289505 0.581547 0.025526
O O1 0.461272 0.210391 0.800730
O O2 0.188176 0.190026 0.022302
O O3 0.188036 0.931067 0.630551
O O4 0.895500 0.903196 0.542785
O O5 0.971717 0.236255 0.332609
O O6 0.187283 0.171902 0.270533
O O7 0.235689 0.426039 0.727869
O O8 0.542502 0.177567 0.083212
O O9 0.936412 0.243938 0.111219
O O10 0.500000 0.000000 0.000000
O O11 0.564420 0.917206 0.645535
O O12 0.547016 0.304935 0.486703
O O13 0.605089 0.391777 0.835701
O O14 0.645364 0.476741 0.500892
O O15 0.000000 0.500000 0.000000
#
# Coordination Sequence:
#
# PCOD9106434 Si02
#       7
#     2   2   2   2   2   2   2
#     4  10  23  46  73 102 134 190 234 283 347 408
#     4  11  25  44  70 103 143 181 227 287 355 414
#     4   9  20  38  64  99 133 177 230 284 341 402
#     4   9  22  45  69 100 142 184 235 279 339 424
#     4  11  21  42  68 106 140 172 230 293 352 406
#     4  10  20  39  70 106 129 184 231 286 344 402
#     4  12  27  47  68 101 144 186 232 285 347 417
#
# _framework density 24.361186
#
# number of rings (size 3 to 8) (size 9 to 14) (size 15 to 20)
#    0.000    1.714    1.429    2.571    4.000    2.857 
#    5.143    0.000    0.000    0.000    0.000    0.000 
#    0.000    0.000    0.000    0.000    0.000    0.000 
#
# Total GULP energy -78186.233682 kJ/mol
# GULP energy per Si atom -5584.730977 kJ/mol
# Density = 2.430574 g / cm^3
# Si number density = 24.361186 Si / 1000 Ang^3
#
#
#
# Elastic Constant Matrix: (Units=GPa)
#
#
# Indices 1 2 3 4 5 6 
#
# 1 94.7083 37.3619 56.2845 -6.6104 8.3782 -6.4372
# 2 37.3619 99.5139 36.6208 21.9932 1.6737 -8.3324
# 3 56.2845 36.6208 120.8584 -1.0883 17.0171 -15.1611
# 4 -6.6104 21.9932 -1.0883 43.4876 -14.9199 -2.9988
# 5 8.3782 1.6737 17.0171 -14.9199 40.6546 -2.6261
# 6 -6.4372 -8.3324 -15.1611 -2.9988 -2.6261 30.1519
#
#
#
# Elastic Compliance Matrix: (Units=1/GPa)
#
#
# Indices 1 2 3 4 5 6 
#
# 1 0.016602 -0.005145 -0.006377 0.005425 0.001424 -0.000420
# 2 -0.005145 0.014697 -0.001724 -0.008878 -0.002014 0.001038
# 3 -0.006377 -0.001724 0.012853 -0.000875 -0.004046 0.004186
# 4 0.005425 -0.008878 -0.000875 0.032473 0.011693 0.002513
# 5 0.001424 -0.002014 -0.004046 0.011693 0.030471 0.001530
# 6 -0.000420 0.001038 0.004186 0.002513 0.001530 0.035850
#
#
# Mechanical properties :
#
#
# Convention : Reuss Voigt Hill
#
# Bulk Modulus (GPa) = 56.61875 63.95722 60.28799
# Shear Modulus (GPa) = 28.51842 35.17971 31.84907
#
# Velocity S-wave (km/s) = 3.42519 3.80424 3.61968
# Velocity P-wave (km/s) = 6.23974 6.75330 6.50159
#
# Compressibility (1/GPa) = 0.01766199
#
# Stress axis : x y z
#
# Youngs Moduli (GPa) = 60.23216 68.03894 77.80154
#
# Poissons Ratio (x) = 0.35003 0.49617
# Poissons Ratio (y) = 0.30987 0.13410
# Poissons Ratio (z) = 0.38412 0.11727
#
# Static dielectric constant tensor:
#      x y z
#    x 2.071840 0.027720 0.037530 
#    y 0.027720 2.002180 -0.005210 
#    z 0.037530 -0.005210 1.932900 
# 
# From -- ./inp_files/405691.got.cif
#   From: 2010.05.17/outbox.cif.g08.bks.cpg/sg2_203_cif.got.tgz:405691.got - 2010.06.03 11:33:40.
