data_PCOD9106519
_publ_section_title
;
Structure prediction by ZEFSAII (Michael W. Deem and Ramdas Pophale) SiO2 
 PCOD9106519
Probable space group: P -1
;
_chemical_formula_sum "Si O2"
_cell_formula_units_Z 16
_cell_length_a 14.591814
_cell_length_b 14.126010
_cell_length_c 15.130382
_cell_angle_alpha 142.055754
_cell_angle_beta 151.080883
_cell_angle_gamma 27.356599
_cell_volume 692.151545
_symmetry_space_group_name_H-M "P -1"
_symmetry_group_IT_number 2
_symmetry_cell_setting 'triclinic'
loop_
_space_group_symop_operation_xyz
x,y,z
-x,-y,-z
loop_
_atom_site_type_symbol
_atom_site_label
_atom_site_fract_x
_atom_site_fract_y
_atom_site_fract_z
Si Si1 0.353313 0.599883 0.643568
Si Si2 0.123962 0.773421 0.245620
Si Si3 0.283952 0.015583 0.089995
Si Si4 0.897031 0.229270 0.070397
Si Si5 0.569554 0.782168 0.885979
Si Si6 0.964405 0.346666 0.733980
Si Si7 0.326503 0.627167 0.837732
Si Si8 0.648659 0.056279 0.353773
O O1 0.651014 0.403699 0.757728
O O2 0.369122 0.767001 0.743208
O O3 0.236761 0.649034 0.678060
O O4 0.248586 0.536384 0.435827
O O5 0.203530 0.900755 0.433093
O O6 0.126003 0.679547 0.270074
O O7 0.868384 0.897332 0.066806
O O8 0.524423 0.993150 0.262282
O O9 0.097130 0.180233 0.130269
O O10 0.356630 0.796455 0.001343
O O11 0.871104 0.315361 0.210258
O O12 0.603348 0.400264 0.917169
O O13 0.000000 0.000000 0.000000
O O14 0.563529 0.762202 0.760310
O O15 0.839977 0.625151 0.049720
O O16 0.500000 0.000000 0.000000
O O17 0.145737 0.126884 0.673709
#
# Coordination Sequence:
#
# PCOD9106519 Si02
#       8
#     2   2   2   2   2   2   2   2
#     4  12  24  39  60  95 132 170 222 267 319 383
#     4  12  24  38  60  91 134 179 216 268 313 374
#     4  11  22  42  67  97 133 169 218 269 318 385
#     4   9  20  41  71 102 124 159 215 275 329 396
#     4  10  22  36  58  86 122 176 215 257 311 371
#     4  11  23  38  59  86 131 179 222 259 308 379
#     4  10  20  39  71  99 124 169 215 263 339 383
#     4  11  23  38  60  89 131 181 219 257 319 375
#
# _framework density 23.116323999999999
#
# number of rings (size 3 to 8) (size 9 to 14) (size 15 to 20)
#    0.000    1.250    3.750    3.000    3.500    1.500 
#    2.250    0.000    0.000   14.250    0.000    0.000 
#    0.000    0.000    0.000    0.000    0.000    0.000 
#
# Total GULP energy -89339.463631 kJ/mol
# GULP energy per Si atom -5583.716477 kJ/mol
# Density = 2.306371 g / cm^3
# Si number density = 23.116324 Si / 1000 Ang^3
#
#
#
# Elastic Constant Matrix: (Units=GPa)
#
#
# Indices 1 2 3 4 5 6 
#
# 1 122.2020 11.3291 37.4562 10.6592 -39.6353 -19.1457
# 2 11.3291 81.9258 6.0292 -3.9919 -7.2905 -7.2937
# 3 37.4562 6.0292 105.1196 5.1780 -5.4892 -4.0033
# 4 10.6592 -3.9919 5.1780 29.5338 -8.5845 -8.5596
# 5 -39.6353 -7.2905 -5.4892 -8.5845 28.3559 3.7813
# 6 -19.1457 -7.2937 -4.0033 -8.5596 3.7813 28.2962
#
#
#
# Elastic Compliance Matrix: (Units=1/GPa)
#
#
# Indices 1 2 3 4 5 6 
#
# 1 0.019765 0.001279 -0.005542 0.004981 0.026947 0.010825
# 2 0.001279 0.013257 -0.000959 0.004549 0.005754 0.004754
# 3 -0.005542 -0.000959 0.011253 -0.002614 -0.006292 -0.002355
# 4 0.004981 0.004549 -0.002614 0.042789 0.018629 0.014627
# 5 0.026947 0.005754 -0.006292 0.018629 0.076943 0.014179
# 6 0.010825 0.004754 -0.002355 0.014627 0.014179 0.046087
#
#
# Mechanical properties :
#
#
# Convention : Reuss Voigt Hill
#
# Bulk Modulus (GPa) = 29.55804 46.54183 38.04993
# Shear Modulus (GPa) = 21.56905 34.19937 27.88421
#
# Velocity S-wave (km/s) = 3.05793 3.85053 3.47689
# Velocity P-wave (km/s) = 5.02815 6.32030 5.71089
#
# Compressibility (1/GPa) = 0.03383174
#
# Stress axis : x y z
#
# Youngs Moduli (GPa) = 50.59484 75.43344 88.86374
#
# Poissons Ratio (x) = -0.09649 0.49248
# Poissons Ratio (y) = -0.06471 0.08519
# Poissons Ratio (z) = 0.28039 0.07232
#
# Static dielectric constant tensor:
#      x y z
#    x 1.874580 -0.014160 -0.029930 
#    y -0.014160 2.122460 -0.101210 
#    z -0.029930 -0.101210 1.887120 
# 
# From -- ./inp_files/534469.got.cif
#   From: 2010.05.17/outbox.cif.g08.bks.cpg/sg2_268_cif.got.tgz:534469.got - 2010.06.03 11:33:40.
