data_PCOD9106135
_publ_section_title
;
Structure prediction by ZEFSAII (Michael W. Deem and Ramdas Pophale) SiO2 
 PCOD9106135
Probable space group: P -1
;
_chemical_formula_sum "Si O2"
_cell_formula_units_Z 16
_cell_length_a 10.422071
_cell_length_b 11.434378
_cell_length_c 12.660843
_cell_angle_alpha 40.402889
_cell_angle_beta 45.291494
_cell_angle_gamma 54.010140
_cell_volume 690.584721
_symmetry_space_group_name_H-M "P -1"
_symmetry_group_IT_number 2
_symmetry_cell_setting 'triclinic'
loop_
_space_group_symop_operation_xyz
x,y,z
-x,-y,-z
loop_
_atom_site_type_symbol
_atom_site_label
_atom_site_fract_x
_atom_site_fract_y
_atom_site_fract_z
Si Si1 0.576789 0.779750 0.810883
Si Si2 0.022892 0.170508 0.111721
Si Si3 0.649487 0.882059 0.924827
Si Si4 0.286854 0.071173 0.574229
Si Si5 0.862586 0.560012 0.284852
Si Si6 0.357402 0.408710 0.410576
Si Si7 0.732890 0.418217 0.885031
Si Si8 0.246552 0.551047 0.797718
O O1 0.713654 0.841816 0.602183
O O2 0.642775 0.563706 0.923508
O O3 0.846738 0.935943 0.804693
O O4 0.594990 0.891833 0.827987
O O5 0.911661 0.350193 0.104801
O O6 0.057681 0.566840 0.222552
O O7 0.870061 0.054826 0.240108
O O8 0.847283 0.760786 0.101178
O O9 0.683358 0.662345 0.076101
O O10 0.500000 0.000000 0.000000
O O11 0.264931 0.227521 0.566082
O O12 0.500000 0.000000 0.500000
O O13 0.726571 0.511863 0.487258
O O14 0.825317 0.435512 0.290669
O O15 0.364871 0.765014 0.915161
O O16 0.312817 0.525940 0.249287
O O17 0.571531 0.358505 0.341846
#
# Coordination Sequence:
#
# PCOD9106135 Si02
#       8
#     2   2   2   2   2   2   2   2
#     4  10  21  39  65  91 130 176 219 268 333 385
#     4  11  24  44  70  95 134 177 225 267 325 404
#     4  11  24  43  67 100 137 173 217 279 338 390
#     4  11  23  40  64  95 129 169 228 277 318 393
#     4  11  23  38  66  99 130 172 218 276 336 386
#     4  11  23  40  66  97 133 171 220 278 333 389
#     4  10  20  39  67  95 129 173 227 270 326 399
#     4  11  22  46  71  94 133 178 226 268 323 408
#
# _framework density 23.168769999999999
#
# number of rings (size 3 to 8) (size 9 to 14) (size 15 to 20)
#    0.000    1.250    2.500    4.500    1.750    4.000 
#    6.750    0.000    0.000    0.000    0.000    0.000 
#    0.000    0.000    0.000    0.000    0.000    0.000 
#
# Total GULP energy -89187.074204 kJ/mol
# GULP energy per Si atom -5574.192138 kJ/mol
# Density = 2.311604 g / cm^3
# Si number density = 23.168770 Si / 1000 Ang^3
#
#
#
# Elastic Constant Matrix: (Units=GPa)
#
#
# Indices 1 2 3 4 5 6 
#
# 1 150.1103 18.4422 22.4900 8.6483 -9.0717 15.0112
# 2 18.4422 60.4867 2.6818 13.5275 9.1014 7.3092
# 3 22.4900 2.6818 47.5903 9.5724 -1.1313 14.2193
# 4 8.6483 13.5275 9.5724 28.7254 12.1286 -0.2870
# 5 -9.0717 9.1014 -1.1313 12.1286 29.1422 8.0770
# 6 15.0112 7.3092 14.2193 -0.2870 8.0770 35.1738
#
#
#
# Elastic Compliance Matrix: (Units=1/GPa)
#
#
# Indices 1 2 3 4 5 6 
#
# 1 0.008049 -0.002055 -0.001890 -0.003115 0.005339 -0.003496
# 2 -0.002055 0.019788 0.002785 -0.008858 -0.001918 -0.003993
# 3 -0.001890 0.002785 0.029049 -0.014607 0.009583 -0.013835
# 4 -0.003115 -0.008858 -0.014607 0.056113 -0.026449 0.015607
# 5 0.005339 -0.001918 0.009583 -0.026449 0.052982 -0.018136
# 6 -0.003496 -0.003993 -0.013835 0.015607 -0.018136 0.040637
#
#
# Mechanical properties :
#
#
# Convention : Reuss Voigt Hill
#
# Bulk Modulus (GPa) = 18.32647 38.37947 28.35297
# Shear Modulus (GPa) = 22.01434 32.91320 27.46377
#
# Velocity S-wave (km/s) = 3.08583 3.77315 3.44667
# Velocity P-wave (km/s) = 4.54133 5.96518 5.30127
#
# Compressibility (1/GPa) = 0.05456587
#
# Stress axis : x y z
#
# Youngs Moduli (GPa) = 124.23801 50.53656 34.42511
#
# Poissons Ratio (x) = 0.10383 0.06507
# Poissons Ratio (y) = 0.25526 -0.09587
# Poissons Ratio (z) = 0.23482 -0.14074
#
# Static dielectric constant tensor:
#      x y z
#    x 2.023750 -0.052000 0.066860 
#    y -0.052000 1.890730 -0.062450 
#    z 0.066860 -0.062450 1.985880 
# 
# From -- ./inp_files/392007.got.cif
#   From: 2010.05.17/outbox.cif.g08.bks.cpg/sg2_197_cif.got.tgz:392007.got - 2010.06.03 11:33:40.
