data_PCOD9106914
_publ_section_title
;
Structure prediction by ZEFSAII (Michael W. Deem and Ramdas Pophale) SiO2 
 PCOD9106914
Probable space group: P -1
;
_chemical_formula_sum "Si O2"
_cell_formula_units_Z 14
_cell_length_a 8.743263
_cell_length_b 10.510267
_cell_length_c 7.229042
_cell_angle_alpha 96.365433
_cell_angle_beta 103.682974
_cell_angle_gamma 49.973862
_cell_volume 493.495184
_symmetry_space_group_name_H-M "P -1"
_symmetry_group_IT_number 2
_symmetry_cell_setting 'triclinic'
loop_
_space_group_symop_operation_xyz
x,y,z
-x,-y,-z
loop_
_atom_site_type_symbol
_atom_site_label
_atom_site_fract_x
_atom_site_fract_y
_atom_site_fract_z
Si Si1 0.936409 0.677884 0.466507
Si Si2 0.483471 0.175501 0.719854
Si Si3 0.294409 0.824227 0.705967
Si Si4 0.862080 0.112694 0.745833
Si Si5 0.934628 0.345965 0.926054
Si Si6 0.627715 0.471301 0.343089
Si Si7 0.675432 0.739322 0.909914
O O1 0.691368 0.811761 0.440395
O O2 0.000000 0.500000 0.500000
O O3 0.981248 0.681060 0.263832
O O4 0.122302 0.657469 0.608097
O O5 0.726899 0.059895 0.750371
O O6 0.431570 0.354476 0.697985
O O7 0.433545 0.168104 0.915356
O O8 0.201018 0.841795 0.480970
O O9 0.399606 0.644445 0.796724
O O10 0.484816 0.820321 0.732052
O O11 0.105808 0.968409 0.796021
O O12 0.830155 0.261577 0.873579
O O13 0.790152 0.543506 0.944936
O O14 0.138660 0.264461 0.091690
O O15 0.500000 0.500000 0.500000
#
# Coordination Sequence:
#
# PCOD9106914 Si02
#       7
#     2   2   2   2   2   2   2
#     4   9  18  31  57  88 113 145 189 243 294 339
#     4  10  21  37  59  89 117 152 195 254 293 352
#     4  11  23  37  60  90 115 163 200 240 290 364
#     4  11  23  39  62  82 122 162 206 231 292 361
#     4  10  20  40  62  87 118 158 191 249 299 360
#     4  11  18  35  63  86 112 154 196 245 291 342
#     4  10  23  38  62  90 121 147 201 249 306 343
#
# _framework density 28.369071999999999
#
# number of rings (size 3 to 8) (size 9 to 14) (size 15 to 20)
#    0.000    1.714    2.857    1.714    2.000    3.429 
#    0.000    0.714    0.000    0.000    0.000    0.000 
#    0.000    0.000    0.000    0.000    0.000    0.000 
#
# Total GULP energy -78213.548231 kJ/mol
# GULP energy per Si atom -5586.682016 kJ/mol
# Density = 2.830450 g / cm^3
# Si number density = 28.369072 Si / 1000 Ang^3
#
#
#
# Elastic Constant Matrix: (Units=GPa)
#
#
# Indices 1 2 3 4 5 6 
#
# 1 202.4304 38.1175 51.0120 -14.5315 35.2571 -33.2324
# 2 38.1175 99.7418 12.9036 -13.4773 1.8695 -6.1847
# 3 51.0120 12.9036 47.1516 -11.1708 25.2469 2.9313
# 4 -14.5315 -13.4773 -11.1708 25.4985 -10.4403 -0.7269
# 5 35.2571 1.8695 25.2469 -10.4403 70.3457 -11.7630
# 6 -33.2324 -6.1847 2.9313 -0.7269 -11.7630 52.6565
#
#
#
# Elastic Compliance Matrix: (Units=1/GPa)
#
#
# Indices 1 2 3 4 5 6 
#
# 1 0.008470 -0.001701 -0.009017 0.000139 0.000002 0.005650
# 2 -0.001701 0.011573 -0.001097 0.005465 0.001891 0.000845
# 3 -0.009017 -0.001097 0.038939 0.006917 -0.010097 -0.010147
# 4 0.000139 0.005465 0.006917 0.047176 0.004644 0.002033
# 5 0.000002 0.001891 -0.010097 0.004644 0.019342 0.005170
# 6 0.005650 0.000845 -0.010147 0.002033 0.005170 0.024404
#
#
# Mechanical properties :
#
#
# Convention : Reuss Voigt Hill
#
# Bulk Modulus (GPa) = 28.28647 61.48779 44.88713
# Shear Modulus (GPa) = 26.98055 46.18616 36.58336
#
# Velocity S-wave (km/s) = 3.08726 4.03928 3.59493
# Velocity P-wave (km/s) = 4.76453 6.59361 5.75224
#
# Compressibility (1/GPa) = 0.03535259
#
# Stress axis : x y z
#
# Youngs Moduli (GPa) = 118.06751 86.40523 25.68088
#
# Poissons Ratio (x) = 0.14699 0.23156
# Poissons Ratio (y) = 0.20086 0.02817
# Poissons Ratio (z) = 1.06459 0.09479
#
# Static dielectric constant tensor:
#      x y z
#    x 2.273430 -0.025750 0.077250 
#    y -0.025750 2.294270 -0.031460 
#    z 0.077250 -0.031460 2.317870 
# 
# From -- ./inp_files/174081.got.cif
#   From: 2010.05.17/outbox.cif.g08.bks.cpg/sg2_88_cif.got.tgz:174081.got - 2010.06.03 11:33:40.
