data_PCOD9106245
_publ_section_title
;
Structure prediction by ZEFSAII (Michael W. Deem and Ramdas Pophale) SiO2 
 PCOD9106245
Probable space group: P -1
;
_chemical_formula_sum "Si O2"
_cell_formula_units_Z 14
_cell_length_a 8.557524
_cell_length_b 19.154871
_cell_length_c 16.125432
_cell_angle_alpha 20.511484
_cell_angle_beta 139.356399
_cell_angle_gamma 137.906302
_cell_volume 597.542042
_symmetry_space_group_name_H-M "P -1"
_symmetry_group_IT_number 2
_symmetry_cell_setting 'triclinic'
loop_
_space_group_symop_operation_xyz
x,y,z
-x,-y,-z
loop_
_atom_site_type_symbol
_atom_site_label
_atom_site_fract_x
_atom_site_fract_y
_atom_site_fract_z
Si Si1 0.325512 0.942836 0.614668
Si Si2 0.348090 0.744490 0.507883
Si Si3 0.731606 0.939215 0.997506
Si Si4 0.078946 0.767773 0.879770
Si Si5 0.354834 0.549101 0.969448
Si Si6 0.141462 0.465090 0.514113
Si Si7 0.582976 0.277110 0.777593
O O1 0.227594 0.834049 0.782349
O O2 0.567667 0.094497 0.565477
O O3 0.370239 0.777551 0.749665
O O4 0.117629 0.078253 0.357238
O O5 0.522690 0.575261 0.772132
O O6 0.071188 0.637876 0.519008
O O7 0.394352 0.883296 0.290342
O O8 0.688369 0.705590 0.208223
O O9 0.648782 0.889906 0.113819
O O10 0.000000 0.000000 0.000000
O O11 0.920424 0.551898 0.040908
O O12 0.239748 0.762106 0.032476
O O13 0.500000 0.500000 0.000000
O O14 0.263744 0.678931 0.292600
O O15 0.000000 0.500000 0.500000
O O16 0.500000 0.500000 0.500000
#
# Coordination Sequence:
#
# PCOD9106245 Si02
#       7
#     2   2   2   2   2   2   2
#     4  10  22  41  69  92 134 179 224 289 332 412
#     4  10  21  39  65  93 129 176 228 275 340 400
#     4   9  19  39  62  89 129 169 222 279 334 400
#     4  10  21  41  64  98 130 176 234 272 343 407
#     4  11  24  40  63  99 134 177 224 283 354 405
#     4  10  22  38  62  98 136 180 225 277 345 407
#     4  10  20  39  68  92 133 180 220 280 335 416
#
# _framework density 23.429314999999999
#
# number of rings (size 3 to 8) (size 9 to 14) (size 15 to 20)
#    0.000    2.000    1.429    1.286    2.000    2.286 
#    2.571    2.857    0.000    0.000    0.000    0.000 
#    0.000    0.000    0.000    0.000    0.000    0.000 
#
# Total GULP energy -78050.143825 kJ/mol
# GULP energy per Si atom -5575.010273 kJ/mol
# Density = 2.337599 g / cm^3
# Si number density = 23.429315 Si / 1000 Ang^3
#
#
#
# Elastic Constant Matrix: (Units=GPa)
#
#
# Indices 1 2 3 4 5 6 
#
# 1 131.8572 31.8858 44.4679 -12.9951 -25.2630 4.2163
# 2 31.8858 98.4354 40.0328 -19.7004 12.9297 5.2265
# 3 44.4679 40.0328 126.2325 -13.0519 -17.7775 -11.1276
# 4 -12.9951 -19.7004 -13.0519 46.9996 -2.4022 -1.9163
# 5 -25.2630 12.9297 -17.7775 -2.4022 45.1410 -13.6293
# 6 4.2163 5.2265 -11.1276 -1.9163 -13.6293 30.4433
#
#
#
# Elastic Compliance Matrix: (Units=1/GPa)
#
#
# Indices 1 2 3 4 5 6 
#
# 1 0.010262 -0.003580 -0.001172 0.001449 0.006983 0.001983
# 2 -0.003580 0.016586 -0.006216 0.003224 -0.011986 -0.009787
# 3 -0.001172 -0.006216 0.012644 0.001464 0.009223 0.010073
# 4 0.001449 0.003224 0.001464 0.023656 0.002435 0.002360
# 5 0.006983 -0.011986 0.009223 0.002435 0.040065 0.022552
# 6 0.001983 -0.009787 0.010073 0.002360 0.022552 0.048180
#
#
# Mechanical properties :
#
#
# Convention : Reuss Voigt Hill
#
# Bulk Modulus (GPa) = 56.95876 65.47755 61.21815
# Shear Modulus (GPa) = 27.90464 40.52601 34.21533
#
# Velocity S-wave (km/s) = 3.45485 4.16349 3.82562
# Velocity P-wave (km/s) = 6.34652 7.14986 6.76013
#
# Compressibility (1/GPa) = 0.01755656
#
# Stress axis : x y z
#
# Youngs Moduli (GPa) = 97.44550 60.29196 79.08774
#
# Poissons Ratio (x) = 0.21585 0.09266
# Poissons Ratio (y) = 0.34887 0.49162
# Poissons Ratio (z) = 0.11417 0.37478
#
# Static dielectric constant tensor:
#      x y z
#    x 2.073270 0.033620 -0.016540 
#    y 0.033620 2.018580 0.003890 
#    z -0.016540 0.003890 1.904500 
# 
# From -- ./inp_files/562893.got.cif
#   From: 2010.05.17/outbox.cif.g08.bks.cpg/sg2_282_cif.got.tgz:562893.got - 2010.06.03 11:33:40.
