data_PCOD9106662
_publ_section_title
;
Structure prediction by ZEFSAII (Michael W. Deem and Ramdas Pophale) SiO2 
 PCOD9106662
Probable space group: P -1
;
_chemical_formula_sum "Si O2"
_cell_formula_units_Z 16
_cell_length_a 11.617007
_cell_length_b 9.065822
_cell_length_c 8.568093
_cell_angle_alpha 73.108763
_cell_angle_beta 114.471820
_cell_angle_gamma 120.678080
_cell_volume 702.738566
_symmetry_space_group_name_H-M "P -1"
_symmetry_group_IT_number 2
_symmetry_cell_setting 'triclinic'
loop_
_space_group_symop_operation_xyz
x,y,z
-x,-y,-z
loop_
_atom_site_type_symbol
_atom_site_label
_atom_site_fract_x
_atom_site_fract_y
_atom_site_fract_z
Si Si1 0.394105 0.735292 0.137355
Si Si2 0.216635 0.058088 0.470678
Si Si3 0.267286 0.314231 0.932162
Si Si4 0.109476 0.419950 0.075823
Si Si5 0.541049 0.741703 0.687775
Si Si6 0.967778 0.024710 0.154932
Si Si7 0.369957 0.390531 0.643509
Si Si8 0.608282 0.103291 0.243431
O O1 0.254820 0.575244 0.174402
O O2 0.518541 0.678815 0.221352
O O3 0.466693 0.920392 0.204915
O O4 0.365801 0.784418 0.932475
O O5 0.324750 0.113186 0.368491
O O6 0.255693 0.241201 0.520252
O O7 0.060140 0.972646 0.341048
O O8 0.261622 0.939972 0.638486
O O9 0.308284 0.418954 0.763670
O O10 0.193211 0.116569 0.886531
O O11 0.167782 0.372627 0.961499
O O12 0.390773 0.322014 0.113428
O O13 0.022927 0.226670 0.155533
O O14 0.000000 0.500000 0.000000
O O15 0.459853 0.583714 0.572732
O O16 0.431622 0.806188 0.667243
O O17 0.000000 0.000000 0.000000
#
# Coordination Sequence:
#
# PCOD9106662 Si02
#       8
#     2   2   2   2   2   2   2   2
#     4  10  20  40  59  98 131 164 211 259 321 371
#     4  11  23  40  60  95 133 169 206 262 318 376
#     4  11  22  40  68  94 123 173 215 255 314 383
#     4  11  23  37  64  94 124 167 222 260 303 376
#     4  12  20  39  66  98 128 164 214 261 322 374
#     4  10  22  43  65  88 122 173 216 252 309 384
#     4  11  22  39  68  96 129 164 209 269 320 376
#     4  10  23  34  66  97 130 166 204 267 318 374
#
# _framework density 22.768068
#
# number of rings (size 3 to 8) (size 9 to 14) (size 15 to 20)
#    0.000    1.250    5.000    1.875    1.750    1.500 
#    0.000    2.500    0.000    4.500    0.000    0.000 
#    0.000    0.000    0.000    0.000    0.000    0.000 
#
# Total GULP energy -89310.341022 kJ/mol
# GULP energy per Si atom -5581.896314 kJ/mol
# Density = 2.271625 g / cm^3
# Si number density = 22.768068 Si / 1000 Ang^3
#
#
#
# Elastic Constant Matrix: (Units=GPa)
#
#
# Indices 1 2 3 4 5 6 
#
# 1 58.9147 20.7966 10.2025 9.8019 11.6579 -13.5770
# 2 20.7966 137.8695 26.1571 11.3148 14.4503 -0.3088
# 3 10.2025 26.1571 82.3895 20.2591 17.2469 -6.4149
# 4 9.8019 11.3148 20.2591 26.6760 8.9718 5.0926
# 5 11.6579 14.4503 17.2469 8.9718 19.0295 0.3857
# 6 -13.5770 -0.3088 -6.4149 5.0926 0.3857 35.7798
#
#
#
# Elastic Compliance Matrix: (Units=1/GPa)
#
#
# Indices 1 2 3 4 5 6 
#
# 1 0.023358 -0.002181 0.003098 -0.008052 -0.011881 0.010674
# 2 -0.002181 0.008261 -0.001714 -0.000090 -0.003320 -0.001015
# 3 0.003098 -0.001714 0.018009 -0.011321 -0.011705 0.006127
# 4 -0.008052 -0.000090 -0.011321 0.055033 -0.010424 -0.012807
# 5 -0.011881 -0.003320 -0.011705 -0.010424 0.077994 -0.005993
# 6 0.010674 -0.001015 0.006127 -0.012807 -0.005993 0.034976
#
#
# Mechanical properties :
#
#
# Convention : Reuss Voigt Hill
#
# Bulk Modulus (GPa) = 20.81906 43.72068 32.26987
# Shear Modulus (GPa) = 21.25524 31.09823 26.17674
#
# Velocity S-wave (km/s) = 3.05873 3.69978 3.39442
# Velocity P-wave (km/s) = 4.65169 6.12335 5.43754
#
# Compressibility (1/GPa) = 0.04803291
#
# Stress axis : x y z
#
# Youngs Moduli (GPa) = 42.81241 121.05700 55.52694
#
# Poissons Ratio (x) = 0.26404 -0.17204
# Poissons Ratio (y) = 0.09338 0.09520
# Poissons Ratio (z) = -0.13264 0.20755
#
# Static dielectric constant tensor:
#      x y z
#    x 1.860930 0.045480 -0.061820 
#    y 0.045480 1.927360 -0.045630 
#    z -0.061820 -0.045630 1.885560 
# 
# From -- ./inp_files/243203.got.cif
#   From: 2010.05.17/outbox.cif.g08.bks.cpg/sg2_122_cif.got.tgz:243203.got - 2010.06.03 11:33:40.
