data_PCOD9106366
_publ_section_title
;
Structure prediction by ZEFSAII (Michael W. Deem and Ramdas Pophale) SiO2 
 PCOD9106366
Probable space group: P -1
;
_chemical_formula_sum "Si O2"
_cell_formula_units_Z 15
_cell_length_a 6.099582
_cell_length_b 13.651963
_cell_length_c 14.081581
_cell_angle_alpha 145.215509
_cell_angle_beta 100.717464
_cell_angle_gamma 64.805926
_cell_volume 574.093819
_symmetry_space_group_name_H-M "P -1"
_symmetry_group_IT_number 2
_symmetry_cell_setting 'triclinic'
loop_
_space_group_symop_operation_xyz
x,y,z
-x,-y,-z
loop_
_atom_site_type_symbol
_atom_site_label
_atom_site_fract_x
_atom_site_fract_y
_atom_site_fract_z
Si Si1 0.280401 0.572827 0.427974
Si Si2 0.549594 0.588118 0.279204
Si Si3 0.756507 0.883411 0.538309
Si Si4 0.987434 0.253597 0.734076
Si Si5 0.000000 0.000000 0.000000
Si Si6 0.028498 0.354557 0.016453
Si Si7 0.532551 0.194241 0.244618
Si Si8 0.401967 0.918710 0.129597
O O1 0.494662 0.531524 0.333514
O O2 0.304065 0.373878 0.313201
O O3 0.319991 0.697350 0.612615
O O4 0.017073 0.712542 0.468072
O O5 0.581442 0.780897 0.441755
O O6 0.308699 0.648399 0.239302
O O7 0.804012 0.406734 0.113850
O O8 0.650368 0.060540 0.745006
O O9 0.840555 0.909421 0.460170
O O10 0.035289 0.216576 0.820187
O O11 0.054898 0.427637 0.856249
O O12 0.261912 0.963763 0.935184
O O13 0.169736 0.937469 0.063283
O O14 0.314556 0.264270 0.007716
O O15 0.435822 0.103636 0.244951
#
# Coordination Sequence:
#
# PCOD9106366 Si02
#       8
#     2   2   2   2   1   2   2   2
#     4  10  22  42  66  90 123 178 217 266 313 378
#     4  10  20  39  69  93 126 167 219 265 317 389
#     4  10  21  41  66  92 133 165 222 265 318 388
#     4   9  21  43  67 100 123 167 221 263 322 392
#     4  12  28  44  60  92 142 170 214 272 324 384
#     4  10  23  41  68  96 134 165 211 270 329 385
#     4  11  25  42  62  91 125 172 228 261 318 380
#     4  12  26  44  61  98 134 175 211 269 329 382
#
# _framework density 26.128132000000001
#
# number of rings (size 3 to 8) (size 9 to 14) (size 15 to 20)
#    0.000    1.600    2.667    0.800    7.467    2.133 
#    0.000    0.667    0.000    0.000    0.000    0.000 
#    0.000    0.000    0.000    0.000    0.000    0.000 
#
# Total GULP energy -83783.695070 kJ/mol
# GULP energy per Si atom -5585.579671 kJ/mol
# Density = 2.606866 g / cm^3
# Si number density = 26.128132 Si / 1000 Ang^3
#
#
#
# Elastic Constant Matrix: (Units=GPa)
#
#
# Indices 1 2 3 4 5 6 
#
# 1 60.8584 7.1093 29.6154 -1.3367 -11.5034 8.6079
# 2 7.1093 74.6688 37.9708 5.2656 -3.9735 -0.7253
# 3 29.6154 37.9708 95.6881 -22.3241 -26.2567 -13.4985
# 4 -1.3367 5.2656 -22.3241 40.3964 -2.8616 9.3781
# 5 -11.5034 -3.9735 -26.2567 -2.8616 43.3900 -7.1891
# 6 8.6079 -0.7253 -13.4985 9.3781 -7.1891 21.0175
#
#
#
# Elastic Compliance Matrix: (Units=1/GPa)
#
#
# Indices 1 2 3 4 5 6 
#
# 1 0.024678 0.004927 -0.014720 -0.003807 -0.005402 -0.019540
# 2 0.004927 0.021225 -0.016098 -0.009734 -0.008841 -0.010305
# 3 -0.014720 -0.016098 0.034995 0.015927 0.021523 0.028204
# 4 -0.003807 -0.009734 0.015927 0.035648 0.009913 -0.001063
# 5 -0.005402 -0.008841 0.021523 0.009913 0.038541 0.024491
# 6 -0.019540 -0.010305 0.028204 -0.001063 0.024491 0.082192
#
#
# Mechanical properties :
#
#
# Convention : Reuss Voigt Hill
#
# Bulk Modulus (GPa) = 34.34490 42.28957 38.31723
# Shear Modulus (GPa) = 16.73538 31.39544 24.06541
#
# Velocity S-wave (km/s) = 2.53358 3.47016 3.03818
# Velocity P-wave (km/s) = 4.66176 5.68125 5.19657
#
# Compressibility (1/GPa) = 0.02911641
#
# Stress axis : x y z
#
# Youngs Moduli (GPa) = 40.52147 47.11327 28.57553
#
# Poissons Ratio (x) = -0.23213 0.42063
# Poissons Ratio (y) = -0.19965 0.46001
# Poissons Ratio (z) = 0.59648 0.75843
#
# Static dielectric constant tensor:
#      x y z
#    x 2.026850 0.023770 0.025200 
#    y 0.023770 2.020910 -0.028290 
#    z 0.025200 -0.028290 2.171700 
# 
# From -- ./inp_files/44950.got.cif
#   From: 2010.05.17/outbox.cif.g08.bks.cpg/sg2_23_cif.got.tgz:44950.got - 2010.06.03 11:33:40.
