data_PCOD9106298
_publ_section_title
;
Structure prediction by ZEFSAII (Michael W. Deem and Ramdas Pophale) SiO2 
 PCOD9106298
Probable space group: P -1
;
_chemical_formula_sum "Si O2"
_cell_formula_units_Z 16
_cell_length_a 12.839502
_cell_length_b 9.073607
_cell_length_c 7.300881
_cell_angle_alpha 85.011805
_cell_angle_beta 107.323945
_cell_angle_gamma 52.881634
_cell_volume 606.437432
_symmetry_space_group_name_H-M "P -1"
_symmetry_group_IT_number 2
_symmetry_cell_setting 'triclinic'
loop_
_space_group_symop_operation_xyz
x,y,z
-x,-y,-z
loop_
_atom_site_type_symbol
_atom_site_label
_atom_site_fract_x
_atom_site_fract_y
_atom_site_fract_z
Si Si1 0.128168 0.057926 0.759612
Si Si2 0.241936 0.391406 0.231771
Si Si3 0.015939 0.157679 0.051046
Si Si4 0.873630 0.265693 0.338424
Si Si5 0.561592 0.981427 0.837601
Si Si6 0.552623 0.622810 0.170402
Si Si7 0.723811 0.900276 0.468348
Si Si8 0.478876 0.673132 0.688910
O O1 0.200582 0.124944 0.678138
O O2 0.140314 0.082530 0.977357
O O3 0.961819 0.191581 0.581837
O O4 0.183953 0.843584 0.752485
O O5 0.111839 0.616964 0.097683
O O6 0.197257 0.303691 0.363032
O O7 0.379595 0.380612 0.326080
O O8 0.295839 0.236260 0.112967
O O9 0.998694 0.187951 0.258460
O O10 0.000000 0.000000 0.000000
O O11 0.727361 0.491712 0.259428
O O12 0.543623 0.170850 0.800498
O O13 0.434797 0.030113 0.638946
O O14 0.500000 0.000000 0.000000
O O15 0.532510 0.492551 0.293044
O O16 0.500268 0.674685 0.923894
O O17 0.668009 0.113359 0.482182
#
# Coordination Sequence:
#
# PCOD9106298 Si02
#       8
#     2   2   2   2   2   2   2   2
#     4  10  23  42  69  97 128 184 230 274 342 395
#     4  11  23  43  64  93 141 173 213 285 344 400
#     4  10  22  43  69  95 130 178 227 282 333 394
#     4  10  20  43  67  95 137 168 234 290 323 398
#     4  11  21  40  64 100 134 174 214 275 348 401
#     4  11  20  36  70 100 131 177 226 279 342 401
#     4  11  23  43  63  93 144 174 217 281 338 405
#     4  10  20  39  68  97 131 176 224 276 339 401
#
# _framework density 26.383597000000002
#
# number of rings (size 3 to 8) (size 9 to 14) (size 15 to 20)
#    0.000    1.500    5.000    1.500    1.750    0.500 
#    2.250    5.625    0.000    0.000    0.000    0.000 
#    0.000    0.000    0.000    0.000    0.000    0.000 
#
# Total GULP energy -89243.966922 kJ/mol
# GULP energy per Si atom -5577.747933 kJ/mol
# Density = 2.632355 g / cm^3
# Si number density = 26.383597 Si / 1000 Ang^3
#
#
#
# Elastic Constant Matrix: (Units=GPa)
#
#
# Indices 1 2 3 4 5 6 
#
# 1 122.2884 41.0790 31.6246 -0.6212 -35.1259 1.1150
# 2 41.0790 168.8421 33.7809 -27.6453 -5.1295 9.7191
# 3 31.6246 33.7809 76.4825 -9.0359 -23.7530 -5.3340
# 4 -0.6212 -27.6453 -9.0359 51.6771 -6.8846 -10.5676
# 5 -35.1259 -5.1295 -23.7530 -6.8846 51.0403 -6.4826
# 6 1.1150 9.7191 -5.3340 -10.5676 -6.4826 37.1391
#
#
#
# Elastic Compliance Matrix: (Units=1/GPa)
#
#
# Indices 1 2 3 4 5 6 
#
# 1 0.011349 -0.002371 -0.001383 -0.000174 0.007065 0.001265
# 2 -0.002371 0.007573 -0.002772 0.002896 -0.002003 -0.001834
# 3 -0.001383 -0.002772 0.018495 0.004147 0.008714 0.006124
# 4 -0.000174 0.002896 0.004147 0.024062 0.006337 0.007796
# 5 0.007065 -0.002003 0.008714 0.006337 0.030262 0.008649
# 6 0.001265 -0.001834 0.006124 0.007796 0.008649 0.031975
#
#
# Mechanical properties :
#
#
# Convention : Reuss Voigt Hill
#
# Bulk Modulus (GPa) = 41.04625 64.50910 52.77767
# Shear Modulus (GPa) = 34.50900 45.37987 39.94444
#
# Velocity S-wave (km/s) = 3.62051 4.15179 3.89522
# Velocity P-wave (km/s) = 5.75054 6.89106 6.34647
#
# Compressibility (1/GPa) = 0.02436276
#
# Stress axis : x y z
#
# Youngs Moduli (GPa) = 88.11691 132.04511 54.06946
#
# Poissons Ratio (x) = 0.31307 0.07480
# Poissons Ratio (y) = 0.20892 0.14991
# Poissons Ratio (z) = 0.12190 0.36609
#
# Static dielectric constant tensor:
#      x y z
#    x 2.179060 0.057670 -0.052740 
#    y 0.057670 2.239240 -0.299020 
#    z -0.052740 -0.299020 2.812400 
# 
# From -- ./inp_files/295245.got.cif
#   From: 2010.05.17/outbox.cif.g08.bks.cpg/sg2_148_cif.got.tgz:295245.got - 2010.06.03 11:33:40.
