data_PCOD9106198
_publ_section_title
;
Structure prediction by ZEFSAII (Michael W. Deem and Ramdas Pophale) SiO2 
 PCOD9106198
Probable space group: P -1
;
_chemical_formula_sum "Si O2"
_cell_formula_units_Z 16
_cell_length_a 12.935461
_cell_length_b 9.399607
_cell_length_c 22.692957
_cell_angle_alpha 136.817790
_cell_angle_beta 153.017994
_cell_angle_gamma 33.422828
_cell_volume 688.373262
_symmetry_space_group_name_H-M "P -1"
_symmetry_group_IT_number 2
_symmetry_cell_setting 'triclinic'
loop_
_space_group_symop_operation_xyz
x,y,z
-x,-y,-z
loop_
_atom_site_type_symbol
_atom_site_label
_atom_site_fract_x
_atom_site_fract_y
_atom_site_fract_z
Si Si1 0.151850 0.077665 0.520534
Si Si2 0.935902 0.997558 0.136031
Si Si3 0.687018 0.432339 0.486482
Si Si4 0.561818 0.145625 0.820527
Si Si5 0.050213 0.569355 0.771636
Si Si6 0.899788 0.325310 0.981362
Si Si7 0.710572 0.763979 0.094942
Si Si8 0.918104 0.064758 0.678740
O O1 0.226063 0.803780 0.497703
O O2 0.116048 0.088504 0.435432
O O3 0.403462 0.086621 0.674787
O O4 0.866519 0.298424 0.477411
O O5 0.960799 0.178180 0.158962
O O6 0.612304 0.108080 0.015327
O O7 0.094227 0.728145 0.100876
O O8 0.053949 0.015123 0.263451
O O9 0.353239 0.634887 0.370136
O O10 0.790351 0.590697 0.616399
O O11 0.322146 0.353996 0.806543
O O12 0.694257 0.274162 0.895014
O O13 0.793188 0.893548 0.900006
O O14 0.100906 0.458256 0.828554
O O15 0.798256 0.610175 0.031758
O O16 0.805262 0.949770 0.200416
#
# Coordination Sequence:
#
# PCOD9106198 Si02
#       8
#     2   2   2   2   2   2   2   2
#     4  10  22  43  68  99 130 168 221 275 322 379
#     4  12  27  43  62 100 138 175 212 270 331 389
#     4  10  23  41  68 100 125 173 219 271 315 390
#     4  10  20  39  68 100 128 163 222 282 316 373
#     4  11  21  43  69  96 132 164 227 272 318 381
#     4  11  23  38  67  98 126 172 222 271 323 377
#     4  12  24  44  69  95 130 173 226 275 313 386
#     4  12  27  43  66  98 139 176 211 261 339 399
#
# _framework density 23.243203000000001
#
# number of rings (size 3 to 8) (size 9 to 14) (size 15 to 20)
#    0.000    1.000    3.750    3.375    3.500    3.000 
#    0.000    1.250    0.000    0.000    0.000    0.000 
#    0.000    0.000    0.000    0.000    0.000    0.000 
#
# Total GULP energy -89630.584648 kJ/mol
# GULP energy per Si atom -5601.911541 kJ/mol
# Density = 2.319030 g / cm^3
# Si number density = 23.243203 Si / 1000 Ang^3
#
#
#
# Elastic Constant Matrix: (Units=GPa)
#
#
# Indices 1 2 3 4 5 6 
#
# 1 67.2670 -3.4287 25.3465 -0.9508 -24.3043 -4.6944
# 2 -3.4287 19.9609 13.2222 8.6659 2.1865 -8.5035
# 3 25.3465 13.2222 99.7364 11.4109 -5.7061 -10.7884
# 4 -0.9508 8.6659 11.4109 31.0136 -5.6664 -5.6615
# 5 -24.3043 2.1865 -5.7061 -5.6664 44.1236 1.8013
# 6 -4.6944 -8.5035 -10.7884 -5.6615 1.8013 29.3235
#
#
#
# Elastic Compliance Matrix: (Units=1/GPa)
#
#
# Indices 1 2 3 4 5 6 
#
# 1 0.021674 0.006014 -0.005750 0.003725 0.011248 0.003127
# 2 0.006014 0.069450 -0.007609 -0.014195 -0.003580 0.015782
# 3 -0.005750 -0.007609 0.012859 -0.002853 -0.001540 0.001148
# 4 0.003725 -0.014195 -0.002853 0.039175 0.007313 0.002544
# 5 0.011248 -0.003580 -0.001540 0.007313 0.029786 -0.000222
# 6 0.003127 0.015782 0.001148 0.002544 -0.000222 0.040107
#
#
# Mechanical properties :
#
#
# Convention : Reuss Voigt Hill
#
# Bulk Modulus (GPa) = 11.19907 28.58270 19.89088
# Shear Modulus (GPa) = 19.41721 31.01377 25.21549
#
# Velocity S-wave (km/s) = 2.89345 3.65679 3.29729
# Velocity P-wave (km/s) = 3.99893 5.49121 4.80338
#
# Compressibility (1/GPa) = 0.08929316
#
# Stress axis : x y z
#
# Youngs Moduli (GPa) = 46.13802 14.39894 77.76713
#
# Poissons Ratio (x) = -0.08660 0.44716
# Poissons Ratio (y) = -0.27749 0.59174
# Poissons Ratio (z) = 0.26529 0.10956
#
# Static dielectric constant tensor:
#      x y z
#    x 1.867760 -0.008990 -0.029420 
#    y -0.008990 1.840710 0.001970 
#    z -0.029420 0.001970 1.869640 
# 
# From -- ./inp_files/427589.got.cif
#   From: 2010.05.17/outbox.cif.g08.bks.cpg/sg2_214_cif.got.tgz:427589.got - 2010.06.03 11:33:40.
