data_PCOD9106536
_publ_section_title
;
Structure prediction by ZEFSAII (Michael W. Deem and Ramdas Pophale) SiO2 
 PCOD9106536
Probable space group: P -1
;
_chemical_formula_sum "Si O2"
_cell_formula_units_Z 16
_cell_length_a 10.626364
_cell_length_b 8.667638
_cell_length_c 11.822607
_cell_angle_alpha 61.711668
_cell_angle_beta 53.443743
_cell_angle_gamma 89.890328
_cell_volume 707.160440
_symmetry_space_group_name_H-M "P -1"
_symmetry_group_IT_number 2
_symmetry_cell_setting 'triclinic'
loop_
_space_group_symop_operation_xyz
x,y,z
-x,-y,-z
loop_
_atom_site_type_symbol
_atom_site_label
_atom_site_fract_x
_atom_site_fract_y
_atom_site_fract_z
Si Si1 0.123609 0.222334 0.356755
Si Si2 0.808128 0.480224 0.140348
Si Si3 0.574624 0.817549 0.928357
Si Si4 0.982503 0.791354 0.107247
Si Si5 0.541603 0.203016 0.761523
Si Si6 0.773138 0.647129 0.491275
Si Si7 0.502866 0.303862 0.511821
Si Si8 0.230606 0.590753 0.059122
O O1 0.291301 0.234391 0.195408
O O2 0.159018 0.286070 0.444607
O O3 0.088376 0.392216 0.253240
O O4 0.000000 0.000000 0.500000
O O5 0.848047 0.667320 0.128157
O O6 0.679037 0.325555 0.349176
O O7 0.716975 0.455789 0.076835
O O8 0.000000 0.500000 0.000000
O O9 0.605741 0.036509 0.810540
O O10 0.579775 0.801334 0.066796
O O11 0.386934 0.681328 0.030225
O O12 0.913413 0.724753 0.292374
O O13 0.149166 0.744482 0.027075
O O14 0.000000 0.000000 0.000000
O O15 0.687049 0.416963 0.611231
O O16 0.465605 0.170665 0.687213
O O17 0.636175 0.735125 0.497781
O O18 0.500000 0.500000 0.500000
#
# Coordination Sequence:
#
# PCOD9106536 Si02
#       8
#     2   2   2   2   2   2   2   2
#     4  12  29  46  70 104 146 195 241 298 364 435
#     4  10  22  42  66 101 138 184 233 295 358 423
#     4  11  25  46  72 105 143 187 249 291 361 446
#     4  11  26  44  71 105 143 186 245 296 369 434
#     4  10  23  43  75 102 138 187 242 298 355 427
#     4  11  24  45  70 105 142 183 249 299 351 435
#     4  10  20  39  72  98 132 185 230 295 351 416
#     4  11  26  46  72 100 148 193 230 305 369 427
#
# _framework density 22.625699000000001
#
# number of rings (size 3 to 8) (size 9 to 14) (size 15 to 20)
#    0.000    1.250    3.750    1.125    8.750    2.500 
#    2.250    1.250    0.000    0.000    0.000    0.000 
#    0.000    0.000    0.000    0.000    0.000    0.000 
#
# Total GULP energy -89344.352725 kJ/mol
# GULP energy per Si atom -5584.022045 kJ/mol
# Density = 2.257420 g / cm^3
# Si number density = 22.625699 Si / 1000 Ang^3
#
#
#
# Elastic Constant Matrix: (Units=GPa)
#
#
# Indices 1 2 3 4 5 6 
#
# 1 60.3014 23.6856 34.9397 2.9489 19.1827 9.0548
# 2 23.6856 92.3856 52.1112 1.5172 19.0050 4.6962
# 3 34.9397 52.1112 127.4075 7.2636 34.2594 7.1363
# 4 2.9489 1.5172 7.2636 46.6319 3.2976 5.1470
# 5 19.1827 19.0050 34.2594 3.2976 42.8186 8.8027
# 6 9.0548 4.6962 7.1363 5.1470 8.8027 34.5280
#
#
#
# Elastic Compliance Matrix: (Units=1/GPa)
#
#
# Indices 1 2 3 4 5 6 
#
# 1 0.021642 -0.002409 -0.003347 -0.000031 -0.005266 -0.003309
# 2 -0.002409 0.014504 -0.004907 0.000552 -0.001468 -0.000035
# 3 -0.003347 -0.004907 0.012522 -0.001211 -0.006407 0.000771
# 4 -0.000031 0.000552 -0.001211 0.021973 -0.000336 -0.003006
# 5 -0.005266 -0.001468 -0.006407 -0.000336 0.032620 -0.005361
# 6 -0.003309 -0.000035 0.000771 -0.003006 -0.005361 0.031490
#
#
# Mechanical properties :
#
#
# Convention : Reuss Voigt Hill
#
# Bulk Modulus (GPa) = 36.57035 55.72971 46.15003
# Shear Modulus (GPa) = 30.26817 36.08623 33.17720
#
# Velocity S-wave (km/s) = 3.66153 3.99798 3.83345
# Velocity P-wave (km/s) = 5.83730 6.78207 6.32734
#
# Compressibility (1/GPa) = 0.02734456
#
# Stress axis : x y z
#
# Youngs Moduli (GPa) = 46.20578 68.94620 79.85826
#
# Poissons Ratio (x) = 0.16608 0.26726
# Poissons Ratio (y) = 0.11130 0.39183
# Poissons Ratio (z) = 0.15464 0.33829
#
# Static dielectric constant tensor:
#      x y z
#    x 1.941370 -0.009500 -0.043790 
#    y -0.009500 1.850870 -0.026560 
#    z -0.043790 -0.026560 1.872600 
# 
# From -- ./inp_files/419132.got.cif
#   From: 2010.05.17/outbox.cif.g08.bks.cpg/sg2_210_cif.got.tgz:419132.got - 2010.06.03 11:33:40.
