data_PCOD9106370
_publ_section_title
;
Structure prediction by ZEFSAII (Michael W. Deem and Ramdas Pophale) SiO2 
 PCOD9106370
Probable space group: P -1
;
_chemical_formula_sum "Si O2"
_cell_formula_units_Z 16
_cell_length_a 8.570544
_cell_length_b 7.829642
_cell_length_c 12.634973
_cell_angle_alpha 88.740674
_cell_angle_beta 91.880295
_cell_angle_gamma 128.640054
_cell_volume 661.892924
_symmetry_space_group_name_H-M "P -1"
_symmetry_group_IT_number 2
_symmetry_cell_setting 'triclinic'
loop_
_space_group_symop_operation_xyz
x,y,z
-x,-y,-z
loop_
_atom_site_type_symbol
_atom_site_label
_atom_site_fract_x
_atom_site_fract_y
_atom_site_fract_z
Si Si1 0.812266 0.031652 0.209263
Si Si2 0.677575 0.398273 0.531332
Si Si3 0.779683 0.890205 0.814498
Si Si4 0.065902 0.344469 0.734357
Si Si5 0.462123 0.489535 0.667907
Si Si6 0.881825 0.275963 0.409264
Si Si7 0.425496 0.261032 0.973084
Si Si8 0.193055 0.628865 0.931284
O O1 0.795300 0.078724 0.329730
O O2 0.788538 0.188986 0.139168
O O3 0.033640 0.110038 0.192902
O O4 0.655833 0.807107 0.146054
O O5 0.570398 0.389360 0.635613
O O6 0.542564 0.385975 0.435609
O O7 0.732883 0.243711 0.497103
O O8 0.902885 0.632207 0.542016
O O9 0.589234 0.674334 0.757392
O O10 0.734798 0.893477 0.936764
O O11 0.854085 0.111317 0.752802
O O12 0.225401 0.322490 0.688218
O O13 0.068914 0.520252 0.663676
O O14 0.157460 0.454302 0.848597
O O15 0.614279 0.269451 0.995050
O O16 0.500000 0.500000 0.000000
O O17 0.000000 0.500000 0.000000
#
# Coordination Sequence:
#
# PCOD9106370 Si02
#       8
#     2   2   2   2   2   2   2   2
#     4  11  23  38  65  98 128 173 217 263 324 390
#     4   9  18  39  68  92 127 173 212 277 329 379
#     4  12  23  42  65  98 133 172 220 268 317 392
#     4  10  22  40  64  95 133 173 214 268 323 386
#     4  10  20  39  69  94 127 174 220 266 330 381
#     4   9  19  39  67  94 133 167 217 273 330 381
#     4  12  25  43  68  96 134 176 217 266 321 390
#     4  11  22  42  61  93 134 171 211 266 324 385
#
# _framework density 24.173093999999999
#
# number of rings (size 3 to 8) (size 9 to 14) (size 15 to 20)
#    0.000    1.500    2.500    3.000    0.000    0.000 
#    0.000    7.500    0.000    0.000    0.000    0.000 
#    0.000    0.000    0.000    0.000    0.000    0.000 
#
# Total GULP energy -89459.841755 kJ/mol
# GULP energy per Si atom -5591.240110 kJ/mol
# Density = 2.411807 g / cm^3
# Si number density = 24.173094 Si / 1000 Ang^3
#
#
#
# Elastic Constant Matrix: (Units=GPa)
#
#
# Indices 1 2 3 4 5 6 
#
# 1 104.5357 14.7099 25.9769 13.5686 -12.5107 9.9402
# 2 14.7099 101.5978 19.5486 14.9233 -8.8735 0.8570
# 3 25.9769 19.5486 128.2206 37.7696 -12.7494 4.1123
# 4 13.5686 14.9233 37.7696 35.2348 4.6327 -1.1497
# 5 -12.5107 -8.8735 -12.7494 4.6327 54.6402 -1.8192
# 6 9.9402 0.8570 4.1123 -1.1497 -1.8192 29.8638
#
#
#
# Elastic Compliance Matrix: (Units=1/GPa)
#
#
# Indices 1 2 3 4 5 6 
#
# 1 0.010926 -0.000677 -0.000694 -0.003609 0.002419 -0.003513
# 2 -0.000677 0.010787 0.000065 -0.004645 0.002001 -0.000150
# 3 -0.000694 0.000065 0.012367 -0.013577 0.003830 -0.001763
# 4 -0.003609 -0.004645 -0.013577 0.047575 -0.008632 0.004510
# 5 0.002419 0.002001 0.003830 -0.008632 0.020791 -0.000456
# 6 -0.003513 -0.000150 -0.001763 0.004510 -0.000456 0.035048
#
#
# Mechanical properties :
#
#
# Convention : Reuss Voigt Hill
#
# Bulk Modulus (GPa) = 31.78022 50.53610 41.15816
# Shear Modulus (GPa) = 33.20191 42.22237 37.71214
#
# Velocity S-wave (km/s) = 3.71011 4.18385 3.95408
# Velocity P-wave (km/s) = 5.61504 6.65513 6.15709
#
# Compressibility (1/GPa) = 0.03146611
#
# Stress axis : x y z
#
# Youngs Moduli (GPa) = 91.52560 92.70742 80.86303
#
# Poissons Ratio (x) = 0.06279 0.05611
# Poissons Ratio (y) = 0.06199 -0.00523
# Poissons Ratio (z) = 0.06350 -0.00600
#
# Static dielectric constant tensor:
#      x y z
#    x 1.921200 -0.063500 -0.015560 
#    y -0.063500 2.008900 -0.034670 
#    z -0.015560 -0.034670 1.931510 
# 
# From -- ./inp_files/53690.got.cif
#   From: 2010.05.17/outbox.cif.g08.bks.cpg/sg2_27_cif.got.tgz:53690.got - 2010.06.03 11:33:40.
