data_PCOD9106878
_publ_section_title
;
Structure prediction by ZEFSAII (Michael W. Deem and Ramdas Pophale) SiO2 
 PCOD9106878
Probable space group: P -1
;
_chemical_formula_sum "Si O2"
_cell_formula_units_Z 16
_cell_length_a 12.426409
_cell_length_b 4.826523
_cell_length_c 12.006326
_cell_angle_alpha 109.355393
_cell_angle_beta 107.989440
_cell_angle_gamma 75.715453
_cell_volume 637.764491
_symmetry_space_group_name_H-M "P -1"
_symmetry_group_IT_number 2
_symmetry_cell_setting 'triclinic'
loop_
_space_group_symop_operation_xyz
x,y,z
-x,-y,-z
loop_
_atom_site_type_symbol
_atom_site_label
_atom_site_fract_x
_atom_site_fract_y
_atom_site_fract_z
Si Si1 0.642498 0.892133 0.313128
Si Si2 0.159720 0.364538 0.156636
Si Si3 0.979643 0.743179 0.692489
Si Si4 0.684812 0.209999 0.812543
Si Si5 0.481321 0.465735 0.621011
Si Si6 0.109942 0.165208 0.545829
Si Si7 0.857721 0.841661 0.114434
Si Si8 0.298559 0.583524 0.914389
O O1 0.613448 0.733545 0.397668
O O2 0.771365 0.965135 0.375690
O O3 0.635733 0.648432 0.182335
O O4 0.558436 0.196893 0.305648
O O5 0.200848 0.667575 0.174540
O O6 0.072706 0.375288 0.230263
O O7 0.274741 0.136521 0.196528
O O8 0.110743 0.227673 0.012936
O O9 0.070004 0.490115 0.627703
O O10 0.045306 0.015599 0.775209
O O11 0.877690 0.819583 0.580881
O O12 0.591086 0.300771 0.700942
O O13 0.649087 0.369383 0.941274
O O14 0.500000 0.500000 0.500000
O O15 0.000000 0.000000 0.500000
O O16 0.743631 0.093971 0.108784
O O17 0.817625 0.551890 0.114030
#
# Coordination Sequence:
#
# PCOD9106878 Si02
#       8
#     2   2   2   2   2   2   2   2
#     4  12  26  46  72  97 131 182 219 278 348 380
#     4  10  23  39  71  97 136 179 214 276 335 395
#     4  11  24  39  65  96 136 178 223 267 330 405
#     4  10  24  45  65 102 133 172 227 278 332 387
#     4  12  29  46  71  97 133 174 230 283 332 406
#     4  11  27  42  65 100 135 180 226 275 323 405
#     4  10  20  40  62 103 137 172 217 269 329 398
#     4  10  21  41  70  95 137 169 219 278 329 406
#
# _framework density 25.087630999999998
#
# number of rings (size 3 to 8) (size 9 to 14) (size 15 to 20)
#    0.000    1.250    1.250    3.000    8.750    1.000 
#    0.000    3.750    0.000    0.000    0.000    0.000 
#    0.000    0.000    0.000    0.000    0.000    0.000 
#
# Total GULP energy -89686.022756 kJ/mol
# GULP energy per Si atom -5605.376422 kJ/mol
# Density = 2.503053 g / cm^3
# Si number density = 25.087631 Si / 1000 Ang^3
#
#
#
# Elastic Constant Matrix: (Units=GPa)
#
#
# Indices 1 2 3 4 5 6 
#
# 1 81.3067 8.2884 30.4377 1.3737 -0.0491 8.8728
# 2 8.2884 94.4584 9.6883 -6.5422 -1.1975 -2.0473
# 3 30.4377 9.6883 131.2025 -14.4126 -5.8966 -12.5720
# 4 1.3737 -6.5422 -14.4126 25.4942 -1.0507 -1.0421
# 5 -0.0491 -1.1975 -5.8966 -1.0507 37.3075 -5.1891
# 6 8.8728 -2.0473 -12.5720 -1.0421 -5.1891 42.0012
#
#
#
# Elastic Compliance Matrix: (Units=1/GPa)
#
#
# Indices 1 2 3 4 5 6 
#
# 1 0.014573 -0.001225 -0.004212 -0.003731 -0.001440 -0.004670
# 2 -0.001225 0.010930 -0.000097 0.002875 0.000540 0.000901
# 3 -0.004212 -0.000097 0.009775 0.005996 0.002295 0.004243
# 4 -0.003731 0.002875 0.005996 0.043841 0.002849 0.004163
# 5 -0.001440 0.000540 0.002295 0.002849 0.027893 0.004534
# 6 -0.004670 0.000901 0.004243 0.004163 0.004534 0.026773
#
#
# Mechanical properties :
#
#
# Convention : Reuss Voigt Hill
#
# Bulk Modulus (GPa) = 41.30548 44.86627 43.08587
# Shear Modulus (GPa) = 32.69672 38.19745 35.44709
#
# Velocity S-wave (km/s) = 3.61404 3.90623 3.76298
# Velocity P-wave (km/s) = 5.82368 6.18608 6.00761
#
# Compressibility (1/GPa) = 0.02420986
#
# Stress axis : x y z
#
# Youngs Moduli (GPa) = 68.62200 91.49528 102.30624
#
# Poissons Ratio (x) = 0.11204 0.43095
# Poissons Ratio (y) = 0.08403 0.00988
# Poissons Ratio (z) = 0.28906 0.00884
#
# Static dielectric constant tensor:
#      x y z
#    x 2.001770 -0.029470 -0.014070 
#    y -0.029470 1.958960 -0.023810 
#    z -0.014070 -0.023810 1.987690 
# 
# From -- ./inp_files/411115.got.cif
#   From: 2010.05.17/outbox.cif.g08.bks.cpg/sg2_206_cif.got.tgz:411115.got - 2010.06.03 11:33:40.
