data_PCOD9106450
_publ_section_title
;
Structure prediction by ZEFSAII (Michael W. Deem and Ramdas Pophale) SiO2 
 PCOD9106450
Probable space group: P -1
;
_chemical_formula_sum "Si O2"
_cell_formula_units_Z 15
_cell_length_a 8.468838
_cell_length_b 16.075993
_cell_length_c 11.510089
_cell_angle_alpha 147.001863
_cell_angle_beta 128.310156
_cell_angle_gamma 52.352832
_cell_volume 654.339043
_symmetry_space_group_name_H-M "P -1"
_symmetry_group_IT_number 2
_symmetry_cell_setting 'triclinic'
loop_
_space_group_symop_operation_xyz
x,y,z
-x,-y,-z
loop_
_atom_site_type_symbol
_atom_site_label
_atom_site_fract_x
_atom_site_fract_y
_atom_site_fract_z
Si Si1 0.361299 0.218620 0.302139
Si Si2 0.000000 0.500000 0.500000
Si Si3 0.687520 0.184772 0.608625
Si Si4 0.295664 0.723833 0.629508
Si Si5 0.590606 0.601055 0.820553
Si Si6 0.953022 0.962321 0.134985
Si Si7 0.300859 0.683744 0.982090
Si Si8 0.134696 0.149053 0.772725
O O1 0.207068 0.383616 0.409657
O O2 0.492716 0.221514 0.480600
O O3 0.530891 0.192457 0.247877
O O4 0.214970 0.095546 0.090150
O O5 0.141879 0.574683 0.749782
O O6 0.906409 0.210692 0.689820
O O7 0.743293 0.994396 0.417092
O O8 0.655978 0.283469 0.826756
O O9 0.381584 0.661945 0.721201
O O10 0.306177 0.570859 0.377416
O O11 0.085484 0.852264 0.682524
O O12 0.511526 0.616215 0.932948
O O13 0.741748 0.716477 0.003154
O O14 0.899590 0.916520 0.189608
O O15 0.176187 0.856890 0.085733
#
# Coordination Sequence:
#
# PCOD9106450 Si02
#       8
#     2   1   2   2   2   2   2   2
#     4  11  19  38  67  96 118 164 221 264 292 375
#     4  10  22  40  64  90 128 166 214 256 316 372
#     4  10  22  37  68  92 124 166 222 251 310 380
#     4  11  21  36  66  95 122 165 214 268 300 377
#     4  11  23  38  62  93 137 160 205 265 335 350
#     4  10  20  39  70  93 119 167 234 243 299 380
#     4  10  23  40  63  95 130 167 198 270 318 381
#     4  10  20  40  65  94 123 173 211 262 301 385
#
# _framework density 22.923897
#
# number of rings (size 3 to 8) (size 9 to 14) (size 15 to 20)
#    0.000    1.600    4.000    1.200    0.000    1.600 
#    0.000    0.667    5.867    0.000    0.000    0.000 
#    0.000    0.000    0.000    0.000    0.000    0.000 
#
# Total GULP energy -83561.621197 kJ/mol
# GULP energy per Si atom -5570.774746 kJ/mol
# Density = 2.287172 g / cm^3
# Si number density = 22.923897 Si / 1000 Ang^3
#
#
#
# Elastic Constant Matrix: (Units=GPa)
#
#
# Indices 1 2 3 4 5 6 
#
# 1 24.9841 11.5909 25.9324 -0.3599 -5.9094 -7.0316
# 2 11.5909 47.6777 23.1178 -17.3699 14.0138 -6.3323
# 3 25.9324 23.1178 113.8044 -10.3964 -1.7986 5.1201
# 4 -0.3599 -17.3699 -10.3964 37.7616 -1.2978 -0.7967
# 5 -5.9094 14.0138 -1.7986 -1.2978 31.6508 -1.5616
# 6 -7.0316 -6.3323 5.1201 -0.7967 -1.5616 19.7142
#
#
#
# Elastic Compliance Matrix: (Units=1/GPa)
#
#
# Indices 1 2 3 4 5 6 
#
# 1 0.077808 -0.018030 -0.015913 -0.010579 0.022526 0.027451
# 2 -0.018030 0.039607 -0.003010 0.016658 -0.020087 0.006155
# 3 -0.015913 -0.003010 0.013643 0.001960 -0.001286 -0.010208
# 4 -0.010579 0.016658 0.001960 0.034356 -0.007740 0.001843
# 5 0.022526 -0.020087 -0.001286 -0.007740 0.044557 0.005133
# 6 0.027451 0.006155 -0.010208 0.001843 0.005133 0.065626
#
#
# Mechanical properties :
#
#
# Convention : Reuss Voigt Hill
#
# Bulk Modulus (GPa) = 17.49690 34.19426 25.84558
# Shear Modulus (GPa) = 13.56657 26.21366 19.89011
#
# Velocity S-wave (km/s) = 2.43535 3.38525 2.94880
# Velocity P-wave (km/s) = 3.94425 5.49806 4.78465
#
# Compressibility (1/GPa) = 0.05715298
#
# Stress axis : x y z
#
# Youngs Moduli (GPa) = 12.85208 25.24800 73.30025
#
# Poissons Ratio (x) = 0.45521 1.16643
# Poissons Ratio (y) = 0.23172 0.22063
# Poissons Ratio (z) = 0.20452 0.07599
#
# Static dielectric constant tensor:
#      x y z
#    x 1.829150 0.042630 -0.010340 
#    y 0.042630 1.931950 0.014980 
#    z -0.010340 0.014980 1.869010 
# 
# From -- ./inp_files/277425.got.cif
#   From: 2010.05.17/outbox.cif.g08.bks.cpg/sg2_139_cif.got.tgz:277425.got - 2010.06.03 11:33:40.
