data_PCOD9106045
_publ_section_title
;
Structure prediction by ZEFSAII (Michael W. Deem and Ramdas Pophale) SiO2 
 PCOD9106045
Probable space group: P -1
;
_chemical_formula_sum "Si O2"
_cell_formula_units_Z 16
_cell_length_a 17.038951
_cell_length_b 9.101104
_cell_length_c 9.646028
_cell_angle_alpha 100.546920
_cell_angle_beta 123.521263
_cell_angle_gamma 124.625995
_cell_volume 707.604746
_symmetry_space_group_name_H-M "P -1"
_symmetry_group_IT_number 2
_symmetry_cell_setting 'triclinic'
loop_
_space_group_symop_operation_xyz
x,y,z
-x,-y,-z
loop_
_atom_site_type_symbol
_atom_site_label
_atom_site_fract_x
_atom_site_fract_y
_atom_site_fract_z
Si Si1 0.462343 0.000088 0.290306
Si Si2 0.820653 0.674865 0.501313
Si Si3 0.913326 0.823792 0.023076
Si Si4 0.846630 0.471885 0.739103
Si Si5 0.900511 0.284078 0.574479
Si Si6 0.558284 0.336992 0.664384
Si Si7 0.221240 0.652664 0.775822
Si Si8 0.615261 0.687714 0.276073
O O1 0.384079 0.743271 0.220718
O O2 0.652372 0.203981 0.516925
O O3 0.446430 0.125115 0.394077
O O4 0.387162 0.925142 0.054351
O O5 0.853601 0.597578 0.640131
O O6 0.769923 0.506434 0.294867
O O7 0.683650 0.619581 0.389441
O O8 0.988922 0.986996 0.717461
O O9 0.920151 0.655056 0.972666
O O10 0.723504 0.620947 0.812163
O O11 0.000000 0.000000 0.000000
O O12 0.922002 0.416409 0.752916
O O13 0.821043 0.290886 0.381447
O O14 0.073540 0.466412 0.709391
O O15 0.770658 0.985940 0.426989
O O16 0.473376 0.332656 0.692834
O O17 0.500000 0.500000 0.000000
#
# Coordination Sequence:
#
# PCOD9106045 Si02
#       8
#     2   2   2   2   2   2   2   2
#     4  10  20  39  67  88 120 159 213 255 304 366
#     4  10  23  38  62  91 125 164 206 248 317 367
#     4   9  20  41  64  91 127 164 200 253 313 376
#     4   9  19  41  64  87 119 165 204 254 303 367
#     4  10  23  41  61  90 125 161 218 250 308 358
#     4  10  22  40  63  96 122 162 205 259 311 361
#     4  10  23  41  64  91 119 172 207 258 300 372
#     4  12  26  40  59  95 132 163 201 264 308 366
#
# _framework density 22.611492999999999
#
# number of rings (size 3 to 8) (size 9 to 14) (size 15 to 20)
#    0.000    2.000    1.250    0.750    5.250    2.500 
#    0.000    8.125    0.000    0.000    0.000    0.000 
#    0.000    0.000    0.000    0.000    0.000    0.000 
#
# Total GULP energy -89286.282689 kJ/mol
# GULP energy per Si atom -5580.392668 kJ/mol
# Density = 2.256003 g / cm^3
# Si number density = 22.611493 Si / 1000 Ang^3
#
#
#
# Elastic Constant Matrix: (Units=GPa)
#
#
# Indices 1 2 3 4 5 6 
#
# 1 158.9081 30.6274 46.2896 15.0464 -25.1673 -16.9750
# 2 30.6274 43.4447 30.1124 16.2042 0.8034 -12.6981
# 3 46.2896 30.1124 92.7052 8.8675 -28.0519 -10.0864
# 4 15.0464 16.2042 8.8675 28.4927 4.0090 6.3104
# 5 -25.1673 0.8034 -28.0519 4.0090 36.2879 5.1698
# 6 -16.9750 -12.6981 -10.0864 6.3104 5.1698 28.3095
#
#
#
# Elastic Compliance Matrix: (Units=1/GPa)
#
#
# Indices 1 2 3 4 5 6 
#
# 1 0.008779 -0.003028 -0.001013 -0.004122 0.005331 0.003490
# 2 -0.003028 0.054149 -0.015331 -0.027992 -0.015781 0.026132
# 3 -0.001013 -0.015331 0.020582 0.001358 0.015875 -0.003353
# 4 -0.004122 -0.027992 0.001358 0.059309 -0.003887 -0.027054
# 5 0.005331 -0.015781 0.015875 -0.003887 0.045102 -0.005596
# 6 0.003490 0.026132 -0.003353 -0.027054 -0.005596 0.054996
#
#
# Mechanical properties :
#
#
# Convention : Reuss Voigt Hill
#
# Bulk Modulus (GPa) = 22.33871 56.56853 39.45362
# Shear Modulus (GPa) = 16.85868 31.15326 24.00597
#
# Velocity S-wave (km/s) = 2.73349 3.71585 3.26186
# Velocity P-wave (km/s) = 4.45684 6.59408 5.62785
#
# Compressibility (1/GPa) = 0.04476533
#
# Stress axis : x y z
#
# Youngs Moduli (GPa) = 113.90830 18.46750 48.58721
#
# Poissons Ratio (x) = 0.05592 0.04922
# Poissons Ratio (y) = 0.34490 0.74491
# Poissons Ratio (z) = 0.11539 0.28313
#
# Static dielectric constant tensor:
#      x y z
#    x 1.518620 -0.695470 -0.084740 
#    y -0.695470 0.300580 -0.093450 
#    z -0.084740 -0.093450 1.873930 
# 
# From -- ./inp_files/262761.got.cif
#   From: 2010.05.17/outbox.cif.g08.bks.cpg/sg2_132_cif.got.tgz:262761.got - 2010.06.03 11:33:40.
