data_PCOD9106296
_publ_section_title
;
Structure prediction by ZEFSAII (Michael W. Deem and Ramdas Pophale) SiO2 
 PCOD9106296
Probable space group: P -1
;
_chemical_formula_sum "Si O2"
_cell_formula_units_Z 14
_cell_length_a 14.788785
_cell_length_b 5.230468
_cell_length_c 11.227651
_cell_angle_alpha 63.286530
_cell_angle_beta 130.346976
_cell_angle_gamma 107.213674
_cell_volume 591.241409
_symmetry_space_group_name_H-M "P -1"
_symmetry_group_IT_number 2
_symmetry_cell_setting 'triclinic'
loop_
_space_group_symop_operation_xyz
x,y,z
-x,-y,-z
loop_
_atom_site_type_symbol
_atom_site_label
_atom_site_fract_x
_atom_site_fract_y
_atom_site_fract_z
Si Si1 0.399900 0.200952 0.189586
Si Si2 0.195821 0.351513 0.127985
Si Si3 0.024919 0.316937 0.767497
Si Si4 0.213488 0.969177 0.919089
Si Si5 0.187529 0.314671 0.403005
Si Si6 0.535364 0.633232 0.374063
Si Si7 0.126634 0.852698 0.622028
O O1 0.304999 0.144591 0.228660
O O2 0.472725 0.471001 0.244207
O O3 0.490945 0.956955 0.282498
O O4 0.304827 0.204922 0.999104
O O5 0.159734 0.314802 0.239498
O O6 0.088949 0.315181 0.951508
O O7 0.242281 0.673127 0.072539
O O8 0.073862 0.018960 0.820817
O O9 0.093028 0.524647 0.686748
O O10 0.897897 0.456686 0.651943
O O11 0.215901 0.936631 0.787029
O O12 0.324661 0.393821 0.516171
O O13 0.172125 0.995825 0.510772
O O14 0.500000 0.500000 0.500000
O O15 0.000000 0.000000 0.500000
#
# Coordination Sequence:
#
# PCOD9106296 Si02
#       7
#     2   2   2   2   2   2   2
#     4  11  22  43  68  94 133 183 224 268 336 393
#     4  10  20  39  68  97 131 172 222 279 336 400
#     4   9  21  40  66  93 132 178 215 275 339 407
#     4  10  20  42  70  92 134 181 224 269 339 399
#     4  11  22  40  62 102 135 168 225 278 339 392
#     4  12  24  42  65 101 138 178 221 280 333 396
#     4   9  21  42  63  95 136 175 220 274 340 400
#
# _framework density 23.678989999999999
#
# number of rings (size 3 to 8) (size 9 to 14) (size 15 to 20)
#    0.000    1.714    2.857    0.857    0.000    2.857 
#   10.286    1.429    0.000    0.000    0.000    0.000 
#    0.000    0.000    0.000    0.000    0.000    0.000 
#
# Total GULP energy -78142.467446 kJ/mol
# GULP energy per Si atom -5581.604818 kJ/mol
# Density = 2.362510 g / cm^3
# Si number density = 23.678990 Si / 1000 Ang^3
#
#
#
# Elastic Constant Matrix: (Units=GPa)
#
#
# Indices 1 2 3 4 5 6 
#
# 1 95.1020 36.5027 61.0698 -1.5162 26.4703 2.0587
# 2 36.5027 74.7801 43.7213 11.5916 0.2997 -23.2426
# 3 61.0698 43.7213 113.8336 0.7010 -10.9386 2.8532
# 4 -1.5162 11.5916 0.7010 30.7748 -6.7534 5.1227
# 5 26.4703 0.2997 -10.9386 -6.7534 59.7514 -6.0291
# 6 2.0587 -23.2426 2.8532 5.1227 -6.0291 35.2984
#
#
#
# Elastic Compliance Matrix: (Units=1/GPa)
#
#
# Indices 1 2 3 4 5 6 
#
# 1 0.025343 -0.009385 -0.011096 0.003618 -0.013775 -0.009638
# 2 -0.009385 0.033217 -0.007957 -0.016396 0.003305 0.026007
# 3 -0.011096 -0.007957 0.018703 0.004755 0.008376 -0.005363
# 4 0.003618 -0.016396 0.004755 0.042109 0.002384 -0.017095
# 5 -0.013775 0.003305 0.008376 0.002384 0.025257 0.006271
# 6 -0.009638 0.026007 -0.005363 -0.017095 0.006271 0.050002
#
#
# Mechanical properties :
#
#
# Convention : Reuss Voigt Hill
#
# Bulk Modulus (GPa) = 49.04594 62.92258 55.98426
# Shear Modulus (GPa) = 19.35722 34.65970 27.00846
#
# Velocity S-wave (km/s) = 2.86227 3.83003 3.38095
# Velocity P-wave (km/s) = 5.62861 6.79630 6.23983
#
# Compressibility (1/GPa) = 0.02038905
#
# Stress axis : x y z
#
# Youngs Moduli (GPa) = 39.45920 30.10512 53.46600
#
# Poissons Ratio (x) = 0.28252 0.59325
# Poissons Ratio (y) = 0.37031 0.42541
# Poissons Ratio (z) = 0.43783 0.23954
#
# Static dielectric constant tensor:
#      x y z
#    x 1.880200 0.005960 0.019440 
#    y 0.005960 2.030830 0.011170 
#    z 0.019440 0.011170 1.934750 
# 
# From -- ./inp_files/440944.got.cif
#   From: 2010.05.17/outbox.cif.g08.bks.cpg/sg2_221_cif.got.tgz:440944.got - 2010.06.03 11:33:40.
