data_PCOD9106737
_publ_section_title
;
Structure prediction by ZEFSAII (Michael W. Deem and Ramdas Pophale) SiO2 
 PCOD9106737
Probable space group: P -1
;
_chemical_formula_sum "Si O2"
_cell_formula_units_Z 15
_cell_length_a 9.857284
_cell_length_b 9.112920
_cell_length_c 12.530176
_cell_angle_alpha 124.862598
_cell_angle_beta 54.458706
_cell_angle_gamma 120.559638
_cell_volume 724.864887
_symmetry_space_group_name_H-M "P -1"
_symmetry_group_IT_number 2
_symmetry_cell_setting 'triclinic'
loop_
_space_group_symop_operation_xyz
x,y,z
-x,-y,-z
loop_
_atom_site_type_symbol
_atom_site_label
_atom_site_fract_x
_atom_site_fract_y
_atom_site_fract_z
Si Si1 0.332141 0.634734 0.738296
Si Si2 0.500000 0.500000 0.000000
Si Si3 0.664306 0.920336 0.409532
Si Si4 0.045488 0.806593 0.917939
Si Si5 0.987564 0.229227 0.457190
Si Si6 0.168250 0.458098 0.272832
Si Si7 0.757276 0.606134 0.112548
Si Si8 0.701279 0.721407 0.530171
O O1 0.244113 0.801823 0.830013
O O2 0.256429 0.525629 0.834643
O O3 0.538790 0.698440 0.672903
O O4 0.288123 0.482136 0.599318
O O5 0.639295 0.528319 0.847474
O O6 0.341969 0.496512 0.987050
O O7 0.669994 0.768828 0.254833
O O8 0.655682 0.821417 0.487267
O O9 0.500000 0.000000 0.500000
O O10 0.848710 0.072937 0.391714
O O11 0.961940 0.673660 0.804035
O O12 0.948625 0.711731 0.029490
O O13 0.000000 0.000000 0.000000
O O14 0.117253 0.365537 0.373147
O O15 0.118990 0.172049 0.454642
O O16 0.873883 0.343976 0.619146
#
# Coordination Sequence:
#
# PCOD9106737 Si02
#       8
#     2   1   2   2   2   2   2   2
#     4  10  21  40  63  93 127 167 222 257 326 385
#     4  10  20  40  60  92 124 164 216 260 318 386
#     4  11  24  38  64  96 129 163 217 274 324 378
#     4  11  22  38  63  91 130 168 212 266 317 388
#     4  11  21  40  64  95 127 170 215 270 323 378
#     4  10  22  36  65  89 128 167 216 257 325 386
#     4  10  22  39  63  90 124 173 211 261 322 393
#     4  10  22  38  66  91 130 166 212 272 320 383
#
# _framework density 20.693511000000001
#
# number of rings (size 3 to 8) (size 9 to 14) (size 15 to 20)
#    0.000    1.600    1.333    3.200    3.733    2.133 
#    0.000    0.000    2.933    3.200    0.000    0.000 
#    0.000    0.000    0.000    0.000    0.000    0.000 
#
# Total GULP energy -83501.986628 kJ/mol
# GULP energy per Si atom -5566.799109 kJ/mol
# Density = 2.064641 g / cm^3
# Si number density = 20.693511 Si / 1000 Ang^3
#
#
#
# Elastic Constant Matrix: (Units=GPa)
#
#
# Indices 1 2 3 4 5 6 
#
# 1 91.9415 21.5768 14.5808 2.9221 -23.2022 0.8247
# 2 21.5768 60.2246 24.6838 -8.0416 -19.7753 -3.4770
# 3 14.5808 24.6838 63.3825 -12.9327 -16.8879 -13.0059
# 4 2.9221 -8.0416 -12.9327 35.4478 4.9158 -6.9708
# 5 -23.2022 -19.7753 -16.8879 4.9158 37.4229 3.1082
# 6 0.8247 -3.4770 -13.0059 -6.9708 3.1082 25.9235
#
#
#
# Elastic Compliance Matrix: (Units=1/GPa)
#
#
# Indices 1 2 3 4 5 6 
#
# 1 0.013747 -0.002575 -0.001838 -0.004105 0.007177 -0.003669
# 2 -0.002575 0.022648 -0.005817 0.002170 0.007470 -0.000111
# 3 -0.001838 -0.005817 0.024443 0.009826 0.004392 0.013657
# 4 -0.004105 0.002170 0.009826 0.036069 -0.002982 0.015408
# 5 0.007177 0.007470 0.004392 -0.002982 0.037687 -0.002343
# 6 -0.003669 -0.000111 0.013657 0.015408 -0.002343 0.049953
#
#
# Mechanical properties :
#
#
# Convention : Reuss Voigt Hill
#
# Bulk Modulus (GPa) = 24.76642 37.47015 31.11829
# Shear Modulus (GPa) = 22.88691 30.07263 26.47977
#
# Velocity S-wave (km/s) = 3.32926 3.81627 3.58105
# Velocity P-wave (km/s) = 5.17424 6.12904 5.67177
#
# Compressibility (1/GPa) = 0.04037725
#
# Stress axis : x y z
#
# Youngs Moduli (GPa) = 72.74449 44.15478 40.91162
#
# Poissons Ratio (x) = 0.11371 0.07518
# Poissons Ratio (y) = 0.18734 0.23799
# Poissons Ratio (z) = 0.13368 0.25686
#
# Static dielectric constant tensor:
#      x y z
#    x 1.704670 -0.011400 -0.000810 
#    y -0.011400 1.773360 -0.006730 
#    z -0.000810 -0.006730 1.750730 
# 
# From -- ./inp_files/185804.got.cif
#   From: 2010.05.17/outbox.cif.g08.bks.cpg/sg2_93_cif.got.tgz:185804.got - 2010.06.03 11:33:40.
