data_PCOD9106944
_publ_section_title
;
Structure prediction by ZEFSAII (Michael W. Deem and Ramdas Pophale) SiO2 
 PCOD9106944
Probable space group: P -1
;
_chemical_formula_sum "Si O2"
_cell_formula_units_Z 16
_cell_length_a 12.084642
_cell_length_b 14.327175
_cell_length_c 8.994176
_cell_angle_alpha 77.091592
_cell_angle_beta 65.707617
_cell_angle_gamma 31.133672
_cell_volume 705.943854
_symmetry_space_group_name_H-M "P -1"
_symmetry_group_IT_number 2
_symmetry_cell_setting 'triclinic'
loop_
_space_group_symop_operation_xyz
x,y,z
-x,-y,-z
loop_
_atom_site_type_symbol
_atom_site_label
_atom_site_fract_x
_atom_site_fract_y
_atom_site_fract_z
Si Si1 0.744209 0.300799 0.863505
Si Si2 0.185700 0.762822 0.619547
Si Si3 0.628870 0.511814 0.586030
Si Si4 0.428845 0.109953 0.147004
Si Si5 0.306089 0.835043 0.270035
Si Si6 0.917611 0.784860 0.169611
Si Si7 0.017818 0.375702 0.504691
Si Si8 0.792262 0.573794 0.022731
O O1 0.755542 0.355138 0.687127
O O2 0.712872 0.214805 0.852964
O O3 0.965743 0.190043 0.874647
O O4 0.500000 0.500000 0.000000
O O5 0.345589 0.692672 0.692394
O O6 0.293741 0.587270 0.577811
O O7 0.241523 0.807966 0.450817
O O8 0.903935 0.946372 0.714100
O O9 0.754353 0.525425 0.541505
O O10 0.211387 0.217359 0.328240
O O11 0.331239 0.279492 0.089498
O O12 0.661715 0.961742 0.172392
O O13 0.500000 0.000000 0.000000
O O14 0.564541 0.703114 0.203095
O O15 0.913405 0.727812 0.346464
O O16 0.092311 0.602784 0.034611
O O17 0.000000 0.500000 0.500000
O O18 0.000000 0.500000 0.000000
#
# Coordination Sequence:
#
# PCOD9106944 Si02
#       8
#     2   2   2   2   2   2   2   2
#     4  10  20  40  62  88 124 170 204 268 333 381
#     4   9  20  40  62  93 124 169 215 274 328 392
#     4   9  21  37  64  91 123 167 219 261 333 394
#     4  12  27  44  68 101 132 184 229 270 343 399
#     4  10  22  39  64  93 131 164 219 272 332 397
#     4  11  24  46  67  96 139 174 227 275 338 407
#     4  11  24  43  68  96 139 181 224 277 335 408
#     4  12  25  43  68 101 136 175 224 285 336 400
#
# _framework density 22.664691000000001
#
# number of rings (size 3 to 8) (size 9 to 14) (size 15 to 20)
#    0.000    1.500    3.750    0.375    3.500    2.000 
#    0.000    1.250    0.000    0.000    0.000    0.000 
#    0.000    0.000    0.000    0.000    0.000    0.000 
#
# Total GULP energy -89315.257632 kJ/mol
# GULP energy per Si atom -5582.203602 kJ/mol
# Density = 2.261310 g / cm^3
# Si number density = 22.664691 Si / 1000 Ang^3
#
#
#
# Elastic Constant Matrix: (Units=GPa)
#
#
# Indices 1 2 3 4 5 6 
#
# 1 130.9143 28.3266 11.5770 -2.5335 -6.5161 -29.7847
# 2 28.3266 104.3782 7.4653 -1.2223 -0.8389 -25.1977
# 3 11.5770 7.4653 53.1534 11.4257 -4.6882 -16.7591
# 4 -2.5335 -1.2223 11.4257 26.0840 -4.1321 2.7834
# 5 -6.5161 -0.8389 -4.6882 -4.1321 25.0225 2.9687
# 6 -29.7847 -25.1977 -16.7591 2.7834 2.9687 35.8713
#
#
#
# Elastic Compliance Matrix: (Units=1/GPa)
#
#
# Indices 1 2 3 4 5 6 
#
# 1 0.009551 -0.000817 0.000498 0.000146 0.001695 0.007437
# 2 -0.000817 0.011693 0.001329 -0.001117 -0.000741 0.008304
# 3 0.000498 0.001329 0.025824 -0.012527 0.001250 0.014280
# 4 0.000146 -0.001117 -0.012527 0.045950 0.006501 -0.010619
# 5 0.001695 -0.000741 0.001250 0.006501 0.041986 -0.002509
# 6 0.007437 0.008304 0.014280 -0.010619 -0.002509 0.047589
#
#
# Mechanical properties :
#
#
# Convention : Reuss Voigt Hill
#
# Bulk Modulus (GPa) = 20.37234 42.57595 31.47415
# Shear Modulus (GPa) = 25.38903 33.46736 29.42820
#
# Velocity S-wave (km/s) = 3.35057 3.84686 3.60726
# Velocity P-wave (km/s) = 4.89659 6.20943 5.59167
#
# Compressibility (1/GPa) = 0.04908616
#
# Stress axis : x y z
#
# Youngs Moduli (GPa) = 104.70617 85.52253 38.72373
#
# Poissons Ratio (x) = 0.06985 -0.01927
# Poissons Ratio (y) = 0.08552 -0.05145
# Poissons Ratio (z) = -0.05209 -0.11363
#
# Static dielectric constant tensor:
#      x y z
#    x 1.882360 -0.045480 0.017510 
#    y -0.045480 1.869620 -0.036780 
#    z 0.017510 -0.036780 1.979660 
# 
# From -- ./inp_files/272856.got.cif
#   From: 2010.05.17/outbox.cif.g08.bks.cpg/sg2_137_cif.got.tgz:272856.got - 2010.06.03 11:33:40.
