data_PCOD9106784
_publ_section_title
;
Structure prediction by ZEFSAII (Michael W. Deem and Ramdas Pophale) SiO2 
 PCOD9106784
Probable space group: P -1
;
_chemical_formula_sum "Si O2"
_cell_formula_units_Z 14
_cell_length_a 5.208794
_cell_length_b 18.700830
_cell_length_c 8.851426
_cell_angle_alpha 36.109318
_cell_angle_beta 89.160804
_cell_angle_gamma 94.112811
_cell_volume 502.934452
_symmetry_space_group_name_H-M "P -1"
_symmetry_group_IT_number 2
_symmetry_cell_setting 'triclinic'
loop_
_space_group_symop_operation_xyz
x,y,z
-x,-y,-z
loop_
_atom_site_type_symbol
_atom_site_label
_atom_site_fract_x
_atom_site_fract_y
_atom_site_fract_z
Si Si1 0.369845 0.918813 0.501690
Si Si2 0.739454 0.141802 0.706820
Si Si3 0.264917 0.563360 0.463293
Si Si4 0.433206 0.340239 0.441677
Si Si5 0.911084 0.621326 0.862700
Si Si6 0.821236 0.790965 0.811684
Si Si7 0.999227 0.774895 0.157883
O O1 0.361641 0.950831 0.268288
O O2 0.554887 0.812437 0.697804
O O3 0.067756 0.887089 0.597022
O O4 0.500000 0.000000 0.500000
O O5 0.499468 0.203517 0.663949
O O6 0.911158 0.257599 0.420171
O O7 0.895715 0.123189 0.891824
O O8 0.500000 0.500000 0.500000
O O9 0.341423 0.573356 0.623002
O O10 0.231052 0.708967 0.195190
O O11 0.000000 0.500000 0.500000
O O12 0.367089 0.376958 0.213800
O O13 0.179052 0.329930 0.565996
O O14 0.897159 0.662718 0.966189
O O15 0.000000 0.500000 0.000000
O O16 0.825968 0.803405 0.970553
#
# Coordination Sequence:
#
# PCOD9106784 Si02
#       7
#     2   2   2   2   2   2   2
#     4  11  24  48  73  95 129 171 217 272 338 400
#     4   9  21  42  64  93 127 178 213 265 329 388
#     4  11  22  36  54  86 125 174 224 252 311 371
#     4  10  20  40  61  86 132 178 213 261 331 376
#     4  10  22  40  61  94 135 178 224 265 316 385
#     4  11  25  43  68 103 129 167 224 274 325 389
#     4  10  23  39  65  92 133 168 211 278 329 379
#
# _framework density 27.836628000000001
#
# number of rings (size 3 to 8) (size 9 to 14) (size 15 to 20)
#    0.000    1.714    2.857    0.429    6.000    0.571 
#    2.571    1.429    0.000    0.000    0.000    0.000 
#    0.000    0.000    0.000    0.000    0.000    0.000 
#
# Total GULP energy -78143.753067 kJ/mol
# GULP energy per Si atom -5581.696648 kJ/mol
# Density = 2.777327 g / cm^3
# Si number density = 27.836628 Si / 1000 Ang^3
#
#
#
# Elastic Constant Matrix: (Units=GPa)
#
#
# Indices 1 2 3 4 5 6 
#
# 1 135.1028 45.1194 20.0259 12.4864 11.6843 8.6512
# 2 45.1194 273.4699 49.9700 41.6938 14.5811 15.7146
# 3 20.0259 49.9700 51.4210 17.0766 14.0216 15.4798
# 4 12.4864 41.6938 17.0766 50.2137 21.1860 15.3012
# 5 11.6843 14.5811 14.0216 21.1860 42.0550 5.6044
# 6 8.6512 15.7146 15.4798 15.3012 5.6044 46.5763
#
#
#
# Elastic Compliance Matrix: (Units=1/GPa)
#
#
# Indices 1 2 3 4 5 6 
#
# 1 0.008112 -0.000924 -0.001783 0.000045 -0.001300 -0.000461
# 2 -0.000924 0.004918 -0.003925 -0.003359 0.001453 0.000745
# 3 -0.001783 -0.003925 0.027969 -0.001328 -0.005935 -0.006490
# 4 0.000045 -0.003359 -0.001328 0.030737 -0.012961 -0.006972
# 5 -0.001300 0.001453 -0.005935 -0.012961 0.031858 0.002148
# 6 -0.000461 0.000745 -0.006490 -0.006972 0.002148 0.025493
#
#
# Mechanical properties :
#
#
# Convention : Reuss Voigt Hill
#
# Bulk Modulus (GPa) = 36.05446 76.69160 56.37303
# Shear Modulus (GPa) = 32.98243 50.76089 41.87166
#
# Velocity S-wave (km/s) = 3.44591 4.27491 3.88260
# Velocity P-wave (km/s) = 5.36774 7.20950 6.35569
#
# Compressibility (1/GPa) = 0.02773582
#
# Stress axis : x y z
#
# Youngs Moduli (GPa) = 123.26824 203.33035 35.75428
#
# Poissons Ratio (x) = 0.18781 0.06377
# Poissons Ratio (y) = 0.11386 0.14032
# Poissons Ratio (z) = 0.21985 0.79798
#
# Static dielectric constant tensor:
#      x y z
#    x 2.269800 -0.023920 -0.104940 
#    y -0.023920 2.179170 -0.037420 
#    z -0.104940 -0.037420 2.416250 
# 
# From -- ./inp_files/138412.got.cif
#   From: 2010.05.17/outbox.cif.g08.bks.cpg/sg2_70_cif.got.tgz:138412.got - 2010.06.03 11:33:40.
