data_PCOD9106821
_publ_section_title
;
Structure prediction by ZEFSAII (Michael W. Deem and Ramdas Pophale) SiO2 
 PCOD9106821
Probable space group: P -1
;
_chemical_formula_sum "Si O2"
_cell_formula_units_Z 16
_cell_length_a 10.420983
_cell_length_b 9.266188
_cell_length_c 10.153385
_cell_angle_alpha 107.355882
_cell_angle_beta 58.063805
_cell_angle_gamma 66.720454
_cell_volume 580.263325
_symmetry_space_group_name_H-M "P -1"
_symmetry_group_IT_number 2
_symmetry_cell_setting 'triclinic'
loop_
_space_group_symop_operation_xyz
x,y,z
-x,-y,-z
loop_
_atom_site_type_symbol
_atom_site_label
_atom_site_fract_x
_atom_site_fract_y
_atom_site_fract_z
Si Si1 0.386304 0.735600 0.174981
Si Si2 0.787629 0.075604 0.391667
Si Si3 0.156105 0.535901 0.432379
Si Si4 0.729213 0.762763 0.057507
Si Si5 0.750151 0.359119 0.324686
Si Si6 0.401406 0.910198 0.976775
Si Si7 0.045279 0.301737 0.667207
Si Si8 0.327580 0.289599 0.644941
O O1 0.271757 0.805150 0.399808
O O2 0.546624 0.764694 0.127036
O O3 0.500000 0.500000 0.000000
O O4 0.281172 0.889097 0.144398
O O5 0.845254 0.133180 0.247403
O O6 0.569256 0.150388 0.490143
O O7 0.954543 0.837316 0.272724
O O8 0.165377 0.611538 0.584944
O O9 0.393901 0.327275 0.226720
O O10 0.000000 0.500000 0.500000
O O11 0.053991 0.693240 0.409413
O O12 0.750800 0.747583 0.197355
O O13 0.714302 0.937058 0.044322
O O14 0.916310 0.535917 0.839158
O O15 0.500000 0.500000 0.500000
O O16 0.769164 0.474844 0.236201
O O17 0.500000 0.000000 0.000000
O O18 0.273681 0.222173 0.528312
#
# Coordination Sequence:
#
# PCOD9106821 Si02
#       8
#     2   2   2   2   2   2   2   2
#     4  10  20  40  61  89 126 169 213 261 324 393
#     4  10  24  39  67  94 130 178 217 267 339 389
#     4  12  24  38  70 101 129 165 224 280 324 381
#     4  10  23  41  63  92 131 171 218 264 331 390
#     4  10  23  45  64  94 134 175 213 265 337 401
#     4  10  21  40  62  94 130 168 213 269 332 385
#     4  12  23  40  64 101 131 161 228 282 320 385
#     4  10  22  43  66  88 132 179 217 270 329 395
#
# _framework density 27.573688000000001
#
# number of rings (size 3 to 8) (size 9 to 14) (size 15 to 20)
#    0.000    1.500    3.750    1.500    5.250    2.500 
#    0.000    0.625    0.000    0.000    0.000    0.000 
#    0.000    0.000    0.000    0.000    0.000    0.000 
#
# Total GULP energy -89281.637747 kJ/mol
# GULP energy per Si atom -5580.102359 kJ/mol
# Density = 2.751093 g / cm^3
# Si number density = 27.573688 Si / 1000 Ang^3
#
#
#
# Elastic Constant Matrix: (Units=GPa)
#
#
# Indices 1 2 3 4 5 6 
#
# 1 139.6327 29.4282 20.0435 -3.4324 15.1498 0.0088
# 2 29.4282 275.2876 43.9672 9.7854 -3.4698 -16.7177
# 3 20.0435 43.9672 91.8368 -7.1164 11.1399 -0.6076
# 4 -3.4324 9.7854 -7.1164 24.4948 -0.7881 -3.8564
# 5 15.1498 -3.4698 11.1399 -0.7881 25.3927 -1.9180
# 6 0.0088 -16.7177 -0.6076 -3.8564 -1.9180 38.0190
#
#
#
# Elastic Compliance Matrix: (Units=1/GPa)
#
#
# Indices 1 2 3 4 5 6 
#
# 1 0.007965 -0.000867 -0.000692 0.001032 -0.004574 -0.000520
# 2 -0.000867 0.004301 -0.002290 -0.002160 0.002174 0.001745
# 3 -0.000692 -0.002290 0.013146 0.004357 -0.005580 -0.000636
# 4 0.001032 -0.002160 0.004357 0.043608 -0.001206 0.003482
# 5 -0.004574 0.002174 -0.005580 -0.001206 0.045046 0.003018
# 6 -0.000520 0.001745 -0.000636 0.003482 0.003018 0.027566
#
#
# Mechanical properties :
#
#
# Convention : Reuss Voigt Hill
#
# Bulk Modulus (GPa) = 56.44610 77.07054 66.75832
# Shear Modulus (GPa) = 32.20928 45.13586 38.67257
#
# Velocity S-wave (km/s) = 3.42148 4.05027 3.74908
# Velocity P-wave (km/s) = 6.01034 7.06289 6.55776
#
# Compressibility (1/GPa) = 0.01771602
#
# Stress axis : x y z
#
# Youngs Moduli (GPa) = 125.54279 232.49901 76.06672
#
# Poissons Ratio (x) = 0.20156 0.05264
# Poissons Ratio (y) = 0.10884 0.17416
# Poissons Ratio (z) = 0.08687 0.53231
#
# Static dielectric constant tensor:
#      x y z
#    x 2.304590 -0.132850 -0.086640 
#    y -0.132850 2.632760 -0.011330 
#    z -0.086640 -0.011330 2.390930 
# 
# From -- ./inp_files/417822.got.cif
#   From: 2010.05.17/outbox.cif.g08.bks.cpg/sg2_209_cif.got.tgz:417822.got - 2010.06.03 11:33:40.
