data_PCOD9106982
_publ_section_title
;
Structure prediction by ZEFSAII (Michael W. Deem and Ramdas Pophale) SiO2 
 PCOD9106982
Probable space group: P -1
;
_chemical_formula_sum "Si O2"
_cell_formula_units_Z 14
_cell_length_a 8.065401
_cell_length_b 6.302663
_cell_length_c 14.154935
_cell_angle_alpha 72.411366
_cell_angle_beta 63.168396
_cell_angle_gamma 89.283687
_cell_volume 605.532928
_symmetry_space_group_name_H-M "P -1"
_symmetry_group_IT_number 2
_symmetry_cell_setting 'triclinic'
loop_
_space_group_symop_operation_xyz
x,y,z
-x,-y,-z
loop_
_atom_site_type_symbol
_atom_site_label
_atom_site_fract_x
_atom_site_fract_y
_atom_site_fract_z
Si Si1 0.832995 0.094516 0.456536
Si Si2 0.951435 0.831089 0.290676
Si Si3 0.003791 0.635915 0.075688
Si Si4 0.388974 0.564114 0.610556
Si Si5 0.776502 0.988973 0.142526
Si Si6 0.575009 0.807719 0.707275
Si Si7 0.141525 0.462011 0.255953
O O1 0.906259 0.914048 0.393699
O O2 0.731045 0.987709 0.589877
O O3 0.676196 0.197275 0.424782
O O4 0.000902 0.304953 0.385127
O O5 0.786894 0.632551 0.327431
O O6 0.141081 0.718374 0.257011
O O7 0.925040 0.009394 0.190796
O O8 0.058606 0.488908 0.168915
O O9 0.162388 0.846149 0.982605
O O10 0.812879 0.746154 0.124913
O O11 0.000000 0.500000 0.000000
O O12 0.500000 0.500000 0.500000
O O13 0.498446 0.619951 0.672361
O O14 0.586195 0.059210 0.226254
O O15 0.677698 0.663168 0.774651
#
# Coordination Sequence:
#
# PCOD9106982 Si02
#       7
#     2   2   2   2   2   2   2
#     4  11  21  41  63  88 136 174 209 243 309 395
#     4  10  20  40  62  90 123 174 213 244 310 382
#     4  10  22  45  69  89 118 167 216 258 321 386
#     4  11  21  36  62  91 127 172 213 255 296 375
#     4  10  22  39  69  90 119 163 214 264 309 377
#     4  12  23  40  62 100 133 160 209 269 313 361
#     4  10  25  41  62  94 132 167 206 262 320 368
#
# _framework density 23.12013
#
# number of rings (size 3 to 8) (size 9 to 14) (size 15 to 20)
#    0.000    1.429    2.857    2.571    4.000    1.143 
#    5.143    0.714    0.000    0.000    0.000    0.000 
#    0.000    0.000    0.000    0.000    0.000    0.000 
#
# Total GULP energy -77950.702689 kJ/mol
# GULP energy per Si atom -5567.907335 kJ/mol
# Density = 2.306751 g / cm^3
# Si number density = 23.120130 Si / 1000 Ang^3
#
#
#
# Elastic Constant Matrix: (Units=GPa)
#
#
# Indices 1 2 3 4 5 6 
#
# 1 61.2451 43.9681 30.3243 -0.0816 11.3101 -29.7974
# 2 43.9681 129.4421 41.4912 30.5964 5.7731 -35.3072
# 3 30.3243 41.4912 109.1012 9.9417 -3.4294 -23.5803
# 4 -0.0816 30.5964 9.9417 53.2469 -8.3872 -9.3570
# 5 11.3101 5.7731 -3.4294 -8.3872 17.3142 -2.4483
# 6 -29.7974 -35.3072 -23.5803 -9.3570 -2.4483 43.9107
#
#
#
# Elastic Compliance Matrix: (Units=1/GPa)
#
#
# Indices 1 2 3 4 5 6 
#
# 1 0.033480 -0.006011 -0.004605 0.004496 -0.016415 0.015456
# 2 -0.006011 0.013343 -0.002047 -0.007242 -0.003900 0.003790
# 3 -0.004605 -0.002047 0.011833 0.000335 0.006482 0.002017
# 4 0.004496 -0.007242 0.000335 0.025454 0.012373 0.003521
# 5 -0.016415 -0.003900 0.006482 0.012373 0.076506 -0.003892
# 6 0.015456 0.003790 0.002017 0.003521 -0.003892 0.037925
#
#
# Mechanical properties :
#
#
# Convention : Reuss Voigt Hill
#
# Bulk Modulus (GPa) = 30.00255 59.03952 44.52103
# Shear Modulus (GPa) = 21.27859 35.16134 28.21997
#
# Velocity S-wave (km/s) = 3.03702 3.90399 3.49747
# Velocity P-wave (km/s) = 5.03020 6.77591 5.96724
#
# Compressibility (1/GPa) = 0.03333049
#
# Stress axis : x y z
#
# Youngs Moduli (GPa) = 29.86831 74.94579 84.50748
#
# Poissons Ratio (x) = 0.45050 0.38914
# Poissons Ratio (y) = 0.17954 0.17300
# Poissons Ratio (z) = 0.13754 0.15343
#
# Static dielectric constant tensor:
#      x y z
#    x -1.042680 -4.944620 -11.818090 
#    y -4.944620 -6.141350 -19.414000 
#    z -11.818090 -19.414000 -43.865470 
# 
# From -- ./inp_files/51574.got.cif
#   From: 2010.05.17/outbox.cif.g08.bks.cpg/sg2_26_cif.got.tgz:51574.got - 2010.06.03 11:33:40.
