data_PCOD9106416
_publ_section_title
;
Structure prediction by ZEFSAII (Michael W. Deem and Ramdas Pophale) SiO2 
 PCOD9106416
Probable space group: P -1
;
_chemical_formula_sum "Si O2"
_cell_formula_units_Z 14
_cell_length_a 12.876448
_cell_length_b 15.346970
_cell_length_c 9.751222
_cell_angle_alpha 153.792085
_cell_angle_beta 135.750137
_cell_angle_gamma 53.935079
_cell_volume 584.651400
_symmetry_space_group_name_H-M "P -1"
_symmetry_group_IT_number 2
_symmetry_cell_setting 'triclinic'
loop_
_space_group_symop_operation_xyz
x,y,z
-x,-y,-z
loop_
_atom_site_type_symbol
_atom_site_label
_atom_site_fract_x
_atom_site_fract_y
_atom_site_fract_z
Si Si1 0.662738 0.228264 0.477084
Si Si2 0.655066 0.131580 0.880961
Si Si3 0.840868 0.676343 0.204679
Si Si4 0.655606 0.407516 0.014378
Si Si5 0.536451 0.735743 0.882213
Si Si6 0.868633 0.818052 0.721489
Si Si7 0.936801 0.069664 0.399173
O O1 0.497948 0.188179 0.193189
O O2 0.767652 0.089280 0.309122
O O3 0.755380 0.452610 0.840986
O O4 0.649433 0.250764 0.660510
O O5 0.500000 0.000000 0.500000
O O6 0.765272 0.980504 0.810427
O O7 0.693953 0.297399 0.033625
O O8 0.600853 0.223884 0.097068
O O9 0.925771 0.763037 0.547773
O O10 0.963511 0.722242 0.265518
O O11 0.701263 0.787743 0.181001
O O12 0.778306 0.604446 0.382485
O O13 0.500000 0.500000 0.000000
O O14 0.500000 0.500000 0.500000
O O15 0.954212 0.915455 0.074485
O O16 0.000000 0.000000 0.500000
#
# Coordination Sequence:
#
# PCOD9106416 Si02
#       7
#     2   2   2   2   2   2   2
#     4  10  23  43  67 100 135 172 220 278 339 388
#     4  12  21  40  70  99 133 172 221 271 339 395
#     4  10  22  44  68  92 135 177 220 272 335 403
#     4  11  23  42  69 102 138 170 222 278 333 404
#     4  10  20  39  70 101 129 168 219 279 340 390
#     4  11  24  45  66  96 132 181 223 271 330 405
#     4  12  27  44  63  96 137 177 228 278 330 396
#
# _framework density 23.945893999999999
#
# number of rings (size 3 to 8) (size 9 to 14) (size 15 to 20)
#    0.000    1.143    4.286    2.571    2.000    3.429 
#    2.571    3.571    0.000    0.000    0.000    0.000 
#    0.000    0.000    0.000    0.000    0.000    0.000 
#
# Total GULP energy -78175.914543 kJ/mol
# GULP energy per Si atom -5583.993896 kJ/mol
# Density = 2.389139 g / cm^3
# Si number density = 23.945894 Si / 1000 Ang^3
#
#
#
# Elastic Constant Matrix: (Units=GPa)
#
#
# Indices 1 2 3 4 5 6 
#
# 1 83.2854 21.6039 12.8412 -0.1570 5.1996 26.9118
# 2 21.6039 117.4903 25.1360 -10.0302 -0.1904 35.5875
# 3 12.8412 25.1360 84.5580 -15.8811 -12.1304 20.8614
# 4 -0.1570 -10.0302 -15.8811 43.6042 6.1373 -3.8369
# 5 5.1996 -0.1904 -12.1304 6.1373 33.7347 -2.2249
# 6 26.9118 35.5875 20.8614 -3.8369 -2.2249 33.8017
#
#
#
# Elastic Compliance Matrix: (Units=1/GPa)
#
#
# Indices 1 2 3 4 5 6 
#
# 1 0.016743 0.001463 0.000229 -0.000382 -0.003428 -0.015280
# 2 0.001463 0.012809 -0.000390 0.001770 -0.001559 -0.014311
# 3 0.000229 -0.000390 0.015394 0.004180 0.004175 -0.008523
# 4 -0.000382 0.001770 0.004180 0.025168 -0.003105 -0.001487
# 5 -0.003428 -0.001559 0.004175 -0.003105 0.032465 0.003579
# 6 -0.015280 -0.014311 -0.008523 -0.001487 0.003579 0.062144
#
#
# Mechanical properties :
#
#
# Convention : Reuss Voigt Hill
#
# Bulk Modulus (GPa) = 21.03114 44.94399 32.98756
# Shear Modulus (GPa) = 28.09445 37.27830 32.68637
#
# Velocity S-wave (km/s) = 3.42899 3.94988 3.69861
# Velocity P-wave (km/s) = 4.94764 6.29379 5.66087
#
# Compressibility (1/GPa) = 0.04754853
#
# Stress axis : x y z
#
# Youngs Moduli (GPa) = 59.72628 78.06802 64.95953
#
# Poissons Ratio (x) = -0.11418 -0.01486
# Poissons Ratio (y) = -0.08735 0.02536
# Poissons Ratio (z) = -0.01367 0.03048
#
# Static dielectric constant tensor:
#      x y z
#    x 1.017040 -0.026640 0.519690 
#    y -0.026640 1.973300 0.023740 
#    z 0.519690 0.023740 1.702570 
# 
# From -- ./inp_files/223774.got.cif
#   From: 2010.05.17/outbox.cif.g08.bks.cpg/sg2_112_cif.got.tgz:223774.got - 2010.06.03 11:33:40.
