data_PCOD9106616
_publ_section_title
;
Structure prediction by ZEFSAII (Michael W. Deem and Ramdas Pophale) SiO2 
 PCOD9106616
Probable space group: P -1
;
_chemical_formula_sum "Si O2"
_cell_formula_units_Z 16
_cell_length_a 12.100002
_cell_length_b 9.383810
_cell_length_c 8.618157
_cell_angle_alpha 64.056994
_cell_angle_beta 114.989260
_cell_angle_gamma 128.208460
_cell_volume 675.263959
_symmetry_space_group_name_H-M "P -1"
_symmetry_group_IT_number 2
_symmetry_cell_setting 'triclinic'
loop_
_space_group_symop_operation_xyz
x,y,z
-x,-y,-z
loop_
_atom_site_type_symbol
_atom_site_label
_atom_site_fract_x
_atom_site_fract_y
_atom_site_fract_z
Si Si1 0.871097 0.250375 0.256557
Si Si2 0.828454 0.861356 0.961944
Si Si3 0.774735 0.069060 0.603351
Si Si4 0.348647 0.040380 0.959317
Si Si5 0.817174 0.591026 0.590043
Si Si6 0.590250 0.162389 0.660578
Si Si7 0.902002 0.605312 0.273296
Si Si8 0.604040 0.719374 0.419435
O O1 0.814418 0.098105 0.432761
O O2 0.757602 0.152871 0.100525
O O3 0.879566 0.424079 0.263102
O O4 0.032270 0.314553 0.275167
O O5 0.810410 0.668278 0.090962
O O6 0.752637 0.918700 0.016364
O O7 0.765526 0.885325 0.754219
O O8 0.000000 0.000000 0.000000
O O9 0.659215 0.115054 0.579883
O O10 0.927254 0.238025 0.692232
O O11 0.418606 0.206351 0.795094
O O12 0.439770 0.993396 0.152958
O O13 0.710300 0.375843 0.680402
O O14 0.850399 0.578517 0.433671
O O15 0.751836 0.721928 0.497775
O O16 0.451534 0.178955 0.545967
O O17 0.500000 0.500000 0.500000
#
# Coordination Sequence:
#
# PCOD9106616 Si02
#       8
#     2   2   2   2   2   2   2   2
#     4  11  21  34  61  92 129 143 183 258 308 343
#     4   9  19  35  55  83 119 155 197 227 283 367
#     4   9  17  34  56  84 114 163 198 227 286 359
#     4  11  23  38  58  96 119 146 196 256 302 327
#     4  10  18  36  58  90 114 161 196 228 293 362
#     4  10  19  37  61  82 115 158 211 228 275 358
#     4  10  16  34  59  81 119 156 195 224 293 362
#     4  10  22  39  62  82 111 163 212 239 269 354
#
# _framework density 23.694437000000001
#
# number of rings (size 3 to 8) (size 9 to 14) (size 15 to 20)
#    0.000    2.000    3.750    1.125    0.000    1.000 
#    0.000    1.875    0.000    0.750    0.000    0.000 
#    0.000    0.000    0.000    0.000    0.000    0.000 
#
# Total GULP energy -89374.390220 kJ/mol
# GULP energy per Si atom -5585.899389 kJ/mol
# Density = 2.364051 g / cm^3
# Si number density = 23.694437 Si / 1000 Ang^3
#
#
#
# Elastic Constant Matrix: (Units=GPa)
#
#
# Indices 1 2 3 4 5 6 
#
# 1 133.2046 30.2484 24.6103 -11.6830 15.8094 -29.3784
# 2 30.2484 63.7719 15.1721 -19.3480 5.9568 -28.7283
# 3 24.6103 15.1721 86.5223 -22.5937 6.7580 -17.8932
# 4 -11.6830 -19.3480 -22.5937 32.2966 -2.2518 1.1549
# 5 15.8094 5.9568 6.7580 -2.2518 30.7036 -9.7570
# 6 -29.3784 -28.7283 -17.8932 1.1549 -9.7570 47.2068
#
#
#
# Elastic Compliance Matrix: (Units=1/GPa)
#
#
# Indices 1 2 3 4 5 6 
#
# 1 0.009398 -0.001944 -0.001045 0.001166 -0.002996 0.003622
# 2 -0.001944 0.029505 0.004034 0.019255 0.001561 0.018127
# 3 -0.001045 0.004034 0.016138 0.013028 -0.000455 0.007509
# 4 0.001166 0.019255 0.013028 0.051571 0.001821 0.016496
# 5 -0.002996 0.001561 -0.000455 0.001821 0.036051 0.006320
# 6 0.003622 0.018127 0.007509 0.016496 0.006320 0.038218
#
#
# Mechanical properties :
#
#
# Convention : Reuss Voigt Hill
#
# Bulk Modulus (GPa) = 17.50349 47.06227 32.28288
# Shear Modulus (GPa) = 25.27357 36.27260 30.77308
#
# Velocity S-wave (km/s) = 3.26950 3.91685 3.60772
# Velocity P-wave (km/s) = 4.65360 6.35302 5.56852
#
# Compressibility (1/GPa) = 0.05713146
#
# Stress axis : x y z
#
# Youngs Moduli (GPa) = 106.40107 33.89246 61.96564
#
# Poissons Ratio (x) = 0.06589 0.06475
# Poissons Ratio (y) = 0.20685 -0.24996
# Poissons Ratio (z) = 0.11118 -0.13672
#
# Static dielectric constant tensor:
#      x y z
#    x 1.945370 0.095780 0.043920 
#    y 0.095780 2.005230 0.065470 
#    z 0.043920 0.065470 1.981740 
# 
# From -- ./inp_files/237783.got.cif
#   From: 2010.05.17/outbox.cif.g08.bks.cpg/sg2_119_cif.got.tgz:237783.got - 2010.06.03 11:33:40.
