data_PCOD9106156
_publ_section_title
;
Structure prediction by ZEFSAII (Michael W. Deem and Ramdas Pophale) SiO2 
 PCOD9106156
Probable space group: P -1
;
_chemical_formula_sum "Si O2"
_cell_formula_units_Z 14
_cell_length_a 11.060101
_cell_length_b 21.294639
_cell_length_c 5.028628
_cell_angle_alpha 116.098122
_cell_angle_beta 104.665177
_cell_angle_gamma 32.507153
_cell_volume 554.286637
_symmetry_space_group_name_H-M "P -1"
_symmetry_group_IT_number 2
_symmetry_cell_setting 'triclinic'
loop_
_space_group_symop_operation_xyz
x,y,z
-x,-y,-z
loop_
_atom_site_type_symbol
_atom_site_label
_atom_site_fract_x
_atom_site_fract_y
_atom_site_fract_z
Si Si1 0.947096 0.731186 0.087755
Si Si2 0.412514 0.313500 0.282292
Si Si3 0.345365 0.128365 0.315369
Si Si4 0.674176 0.091188 0.377357
Si Si5 0.253036 0.460196 0.971069
Si Si6 0.858825 0.117807 0.946327
Si Si7 0.608803 0.409429 0.136517
O O1 0.786922 0.837475 0.433193
O O2 0.819148 0.764885 0.813603
O O3 0.071993 0.608200 0.088558
O O4 0.123606 0.702819 0.992846
O O5 0.527886 0.187475 0.219180
O O6 0.264071 0.412059 0.621272
O O7 0.255286 0.403092 0.104946
O O8 0.652958 0.244785 0.247793
O O9 0.514009 0.111046 0.469615
O O10 0.500000 0.000000 0.000000
O O11 0.735675 0.128246 0.670208
O O12 0.926349 0.940824 0.162626
O O13 0.498328 0.385369 0.007587
O O14 0.000000 0.000000 0.000000
O O15 0.500000 0.500000 0.500000
O O16 0.500000 0.500000 0.000000
#
# Coordination Sequence:
#
# PCOD9106156 Si02
#       7
#     2   2   2   2   2   2   2
#     4  11  25  47  66 101 141 185 234 289 343 415
#     4  11  21  39  66 108 133 171 224 286 353 414
#     4  12  28  48  71  97 138 193 242 282 345 426
#     4  10  23  44  68 101 144 179 228 297 344 401
#     4  11  22  39  70 100 139 176 225 283 352 417
#     4   9  20  40  70  97 138 173 229 292 357 382
#     4  10  20  39  67  96 133 180 225 284 338 390
#
# _framework density 25.257688999999999
#
# number of rings (size 3 to 8) (size 9 to 14) (size 15 to 20)
#    0.000    1.429    1.429    4.714    4.000    2.286 
#    0.000    4.286    0.000    0.000    0.000    0.000 
#    0.000    0.000    0.000    0.000    0.000    0.000 
#
# Total GULP energy -78073.621873 kJ/mol
# GULP energy per Si atom -5576.687277 kJ/mol
# Density = 2.520020 g / cm^3
# Si number density = 25.257689 Si / 1000 Ang^3
#
#
#
# Elastic Constant Matrix: (Units=GPa)
#
#
# Indices 1 2 3 4 5 6 
#
# 1 78.5229 39.6820 31.5629 0.6622 -15.8661 -12.8456
# 2 39.6820 96.2984 32.8048 -15.2192 -8.0199 15.2446
# 3 31.5629 32.8048 148.4044 -13.7656 -44.7612 1.0586
# 4 0.6622 -15.2192 -13.7656 43.2930 2.0869 -8.4336
# 5 -15.8661 -8.0199 -44.7612 2.0869 36.0288 -1.0712
# 6 -12.8456 15.2446 1.0586 -8.4336 -1.0712 45.3664
#
#
#
# Elastic Compliance Matrix: (Units=1/GPa)
#
#
# Indices 1 2 3 4 5 6 
#
# 1 0.020545 -0.009491 -0.000557 -0.002449 0.006644 0.008721
# 2 -0.009491 0.016613 -0.002426 0.003928 -0.003949 -0.007576
# 3 -0.000557 -0.002426 0.011744 0.002456 0.013697 0.001164
# 4 -0.002449 0.003928 0.002456 0.025765 0.001437 0.002753
# 5 0.006644 -0.003949 0.013697 0.001437 0.046863 0.004262
# 6 0.008721 -0.007576 0.001164 0.002753 0.004262 0.027643
#
#
# Mechanical properties :
#
#
# Convention : Reuss Voigt Hill
#
# Bulk Modulus (GPa) = 41.74683 59.03612 50.39148
# Shear Modulus (GPa) = 27.45649 39.54936 33.50293
#
# Velocity S-wave (km/s) = 3.30063 3.96136 3.64599
# Velocity P-wave (km/s) = 5.57582 6.65938 6.14155
#
# Compressibility (1/GPa) = 0.02395392
#
# Stress axis : x y z
#
# Youngs Moduli (GPa) = 48.67371 60.19337 85.14932
#
# Poissons Ratio (x) = 0.57127 0.04744
# Poissons Ratio (y) = 0.46194 0.20661
# Poissons Ratio (z) = 0.02712 0.14606
#
# Static dielectric constant tensor:
#      x y z
#    x 2.402720 -0.008230 -0.062440 
#    y -0.008230 2.073420 0.072970 
#    z -0.062440 0.072970 2.017360 
# 
# From -- ./inp_files/84113.got.cif
#   From: 2010.05.17/outbox.cif.g08.bks.cpg/sg2_43_cif.got.tgz:84113.got - 2010.06.03 11:33:40.
