data_PCOD9106747
_publ_section_title
;
Structure prediction by ZEFSAII (Michael W. Deem and Ramdas Pophale) SiO2 
 PCOD9106747
Probable space group: P -1
;
_chemical_formula_sum "Si O2"
_cell_formula_units_Z 14
_cell_length_a 5.224567
_cell_length_b 10.801205
_cell_length_c 14.035593
_cell_angle_alpha 126.623048
_cell_angle_beta 83.614158
_cell_angle_gamma 115.044576
_cell_volume 564.934449
_symmetry_space_group_name_H-M "P -1"
_symmetry_group_IT_number 2
_symmetry_cell_setting 'triclinic'
loop_
_space_group_symop_operation_xyz
x,y,z
-x,-y,-z
loop_
_atom_site_type_symbol
_atom_site_label
_atom_site_fract_x
_atom_site_fract_y
_atom_site_fract_z
Si Si1 0.366377 0.674149 0.795707
Si Si2 0.410306 0.135855 0.513137
Si Si3 0.086131 0.232260 0.078930
Si Si4 0.077014 0.181033 0.702261
Si Si5 0.644091 0.215524 0.341452
Si Si6 0.942408 0.464642 0.874047
Si Si7 0.989811 0.998011 0.199753
O O1 0.699905 0.741753 0.831850
O O2 0.281449 0.631297 0.668900
O O3 0.216873 0.538616 0.824237
O O4 0.229722 0.803974 0.888002
O O5 0.331896 0.244533 0.643426
O O6 0.616203 0.243829 0.467909
O O7 0.500000 0.000000 0.500000
O O8 0.117627 0.014003 0.414014
O O9 0.199906 0.416342 0.102602
O O10 0.074110 0.090746 0.940903
O O11 0.859931 0.266656 0.764523
O O12 0.178768 0.162288 0.794000
O O13 0.861516 0.131723 0.284924
O O14 0.328761 0.078800 0.250599
O O15 0.000000 0.500000 0.000000
#
# Coordination Sequence:
#
# PCOD9106747 Si02
#       7
#     2   2   2   2   2   2   2
#     4  10  23  40  57  88 126 165 200 245 302 368
#     4  10  21  38  64  91 117 159 206 262 305 349
#     4  10  22  39  57  91 122 164 205 234 310 362
#     4  10  20  40  60  94 122 155 208 253 309 353
#     4  11  23  38  62  87 126 155 207 257 303 356
#     4  10  22  41  61  90 126 167 198 250 296 377
#     4  11  21  36  63  90 119 165 198 257 302 358
#
# _framework density 24.781634
#
# number of rings (size 3 to 8) (size 9 to 14) (size 15 to 20)
#    0.857    0.857    2.857    1.714    0.000    5.143 
#    0.000    0.714    0.000    1.714    0.000    0.000 
#    0.000    0.000    0.000    0.000    0.000    0.000 
#
# Total GULP energy -78007.028942 kJ/mol
# GULP energy per Si atom -5571.930639 kJ/mol
# Density = 2.472523 g / cm^3
# Si number density = 24.781634 Si / 1000 Ang^3
#
#
#
# Elastic Constant Matrix: (Units=GPa)
#
#
# Indices 1 2 3 4 5 6 
#
# 1 105.0076 13.5510 4.3027 -9.5431 -6.9920 -19.1423
# 2 13.5510 77.1583 39.3342 -34.2237 -0.0297 -15.1634
# 3 4.3027 39.3342 81.3109 -33.0913 -15.6364 -2.7733
# 4 -9.5431 -34.2237 -33.0913 51.1155 -2.3361 -1.5359
# 5 -6.9920 -0.0297 -15.6364 -2.3361 26.6772 -6.9245
# 6 -19.1423 -15.1634 -2.7733 -1.5359 -6.9245 28.4721
#
#
#
# Elastic Compliance Matrix: (Units=1/GPa)
#
#
# Indices 1 2 3 4 5 6 
#
# 1 0.012530 0.001060 0.003361 0.005983 0.008839 0.011788
# 2 0.001060 0.024382 -0.005481 0.013498 0.002007 0.014380
# 3 0.003361 -0.005481 0.023896 0.013443 0.017803 0.006723
# 4 0.005983 0.013498 0.013443 0.039810 0.017885 0.019018
# 5 0.008839 0.002007 0.017803 0.017885 0.057986 0.023813
# 6 0.011788 0.014380 0.006723 0.019018 0.023813 0.058178
#
#
# Mechanical properties :
#
#
# Convention : Reuss Voigt Hill
#
# Bulk Modulus (GPa) = 17.03951 41.98365 29.51158
# Shear Modulus (GPa) = 20.96733 35.00555 27.98644
#
# Velocity S-wave (km/s) = 2.91191 3.76248 3.36418
# Velocity P-wave (km/s) = 4.26572 5.98776 5.19854
#
# Compressibility (1/GPa) = 0.05868714
#
# Stress axis : x y z
#
# Youngs Moduli (GPa) = 79.80955 41.01311 41.84763
#
# Poissons Ratio (x) = -0.04347 -0.14065
# Poissons Ratio (y) = -0.08458 0.22939
# Poissons Ratio (z) = -0.26824 0.22481
#
# Static dielectric constant tensor:
#      x y z
#    x 1.968690 0.020250 -0.010260 
#    y 0.020250 2.427870 -0.123520 
#    z -0.010260 -0.123520 1.929920 
# 
# From -- ./inp_files/365392.got.cif
#   From: 2010.05.17/outbox.cif.g08.bks.cpg/sg2_183_cif.got.tgz:365392.got - 2010.06.03 11:33:40.
