data_PCOD9106681
_publ_section_title
;
Structure prediction by ZEFSAII (Michael W. Deem and Ramdas Pophale) SiO2 
 PCOD9106681
Probable space group: P -1
;
_chemical_formula_sum "Si O2"
_cell_formula_units_Z 12
_cell_length_a 27.631698
_cell_length_b 7.952682
_cell_length_c 13.973134
_cell_angle_alpha 40.286034
_cell_angle_beta 161.094532
_cell_angle_gamma 146.055443
_cell_volume 551.408498
_symmetry_space_group_name_H-M "P -1"
_symmetry_group_IT_number 2
_symmetry_cell_setting 'triclinic'
loop_
_space_group_symop_operation_xyz
x,y,z
-x,-y,-z
loop_
_atom_site_type_symbol
_atom_site_label
_atom_site_fract_x
_atom_site_fract_y
_atom_site_fract_z
Si Si1 0.230078 0.419518 0.208682
Si Si2 0.792333 0.026728 0.784149
Si Si3 0.006723 0.645421 0.797356
Si Si4 0.521206 0.070054 0.670191
Si Si5 0.269421 0.223794 0.766494
Si Si6 0.352477 0.381049 0.641695
O O1 0.415910 0.698164 0.399470
O O2 0.260504 0.242963 0.429756
O O3 0.160894 0.193914 0.087656
O O4 0.108262 0.547231 0.958191
O O5 0.878261 0.339327 0.750037
O O6 0.582378 0.868293 0.468770
O O7 0.866491 0.106833 0.995322
O O8 0.887947 0.770999 0.480052
O O9 0.382543 0.718552 0.540525
O O10 0.687731 0.041029 0.021970
O O11 0.250520 0.238666 0.610109
O O12 0.449505 0.529682 0.004212
#
# Coordination Sequence:
#
# PCOD9106681 Si02
#       6
#     2   2   2   2   2   2
#     4  12  23  35  62  92 111 145 197 240 278 334
#     4  11  22  38  60  84 115 156 190 231 282 341
#     4  11  20  39  58  82 121 149 188 234 285 341
#     4  10  20  40  60  85 115 149 193 234 285 331
#     4   9  18  36  64  79 112 164 178 227 297 333
#     4   9  17  37  61  82 110 153 194 223 278 339
#
# _framework density 21.762449
#
# number of rings (size 3 to 8) (size 9 to 14) (size 15 to 20)
#    1.000    0.667    3.333    2.500    0.000    0.667 
#    0.000    5.833    0.000    0.000    0.000    0.000 
#    0.000    0.000    0.000    0.000    0.000    0.000 
#
# Total GULP energy -66818.457136 kJ/mol
# GULP energy per Si atom -5568.204761 kJ/mol
# Density = 2.171292 g / cm^3
# Si number density = 21.762449 Si / 1000 Ang^3
#
#
#
# Elastic Constant Matrix: (Units=GPa)
#
#
# Indices 1 2 3 4 5 6 
#
# 1 128.6715 35.7348 49.4631 -14.3300 20.5270 -19.1837
# 2 35.7348 35.8457 15.8150 -7.2214 0.7804 -15.0859
# 3 49.4631 15.8150 90.9681 -22.3207 26.5836 -26.7065
# 4 -14.3300 -7.2214 -22.3207 14.2510 -6.2760 6.5467
# 5 20.5270 0.7804 26.5836 -6.2760 23.5498 1.2588
# 6 -19.1837 -15.0859 -26.7065 6.5467 1.2588 43.9869
#
#
#
# Elastic Compliance Matrix: (Units=1/GPa)
#
#
# Indices 1 2 3 4 5 6 
#
# 1 0.013529 -0.012045 -0.002964 -0.000970 -0.008325 0.000352
# 2 -0.012045 0.045554 0.001710 0.014051 0.010322 0.009021
# 3 -0.002964 0.001710 0.031209 0.028613 -0.025864 0.014724
# 4 -0.000970 0.014051 0.028613 0.119092 -0.000398 0.004054
# 5 -0.008325 0.010322 -0.025864 -0.000398 0.079430 -0.018008
# 6 0.000352 0.009021 0.014724 0.004054 -0.018008 0.034833
#
#
# Mechanical properties :
#
#
# Convention : Reuss Voigt Hill
#
# Bulk Modulus (GPa) = 15.70059 50.83456 33.26757
# Shear Modulus (GPa) = 13.45982 26.65570 20.05776
#
# Velocity S-wave (km/s) = 2.48964 3.50358 3.03919
# Velocity P-wave (km/s) = 3.93632 6.30685 5.25694
#
# Compressibility (1/GPa) = 0.06369188
#
# Stress axis : x y z
#
# Youngs Moduli (GPa) = 73.91610 21.95217 32.04226
#
# Poissons Ratio (x) = 0.26442 0.09497
# Poissons Ratio (y) = 0.89034 -0.05478
# Poissons Ratio (z) = 0.21909 -0.03753
#
# Static dielectric constant tensor:
#      x y z
#    x 1.857320 -0.035740 0.007780 
#    y -0.035740 1.824920 0.012440 
#    z 0.007780 0.012440 1.870560 
# 
# From -- ./inp_files/544762.got.cif
#   From: 2010.05.17/outbox.cif.g08.bks.cpg/sg2_273_cif.got.tgz:544762.got - 2010.06.03 11:33:40.
