data_PCOD9106770
_publ_section_title
;
Structure prediction by ZEFSAII (Michael W. Deem and Ramdas Pophale) SiO2 
 PCOD9106770
Probable space group: P -1
;
_chemical_formula_sum "Si O2"
_cell_formula_units_Z 16
_cell_length_a 16.288971
_cell_length_b 5.973805
_cell_length_c 23.334860
_cell_angle_alpha 110.709694
_cell_angle_beta 157.688726
_cell_angle_gamma 65.847598
_cell_volume 784.528850
_symmetry_space_group_name_H-M "P -1"
_symmetry_group_IT_number 2
_symmetry_cell_setting 'triclinic'
loop_
_space_group_symop_operation_xyz
x,y,z
-x,-y,-z
loop_
_atom_site_type_symbol
_atom_site_label
_atom_site_fract_x
_atom_site_fract_y
_atom_site_fract_z
Si Si1 0.425527 0.922171 0.521976
Si Si2 0.020533 0.287933 0.446741
Si Si3 0.430558 0.854308 0.653998
Si Si4 0.141108 0.004786 0.246431
Si Si5 0.940015 0.802618 0.991088
Si Si6 0.373114 0.790402 0.882136
Si Si7 0.808330 0.404958 0.137560
Si Si8 0.812067 0.540004 0.546737
O O1 0.264150 0.841134 0.364211
O O2 0.418193 0.844822 0.575562
O O3 0.670173 0.876509 0.649912
O O4 0.323990 0.215894 0.487824
O O5 0.804203 0.180600 0.281758
O O6 0.000000 0.500000 0.500000
O O7 0.236374 0.066712 0.574234
O O8 0.069958 0.404354 0.429370
O O9 0.673317 0.875969 0.829088
O O10 0.365398 0.602654 0.603335
O O11 0.939450 0.209330 0.159859
O O12 0.056672 0.855435 0.129189
O O13 0.000000 0.500000 0.000000
O O14 0.000000 0.000000 0.000000
O O15 0.253809 0.733154 0.858513
O O16 0.577068 0.561047 0.979160
O O17 0.500000 0.000000 0.000000
O O18 0.982901 0.565415 0.286986
#
# Coordination Sequence:
#
# PCOD9106770 Si02
#       8
#     2   2   2   2   2   2   2   2
#     4   9  19  39  64  92 127 165 222 278 329 406
#     4  10  23  39  61  92 127 170 224 280 339 419
#     4  11  22  40  68  88 133 181 220 276 347 413
#     4  10  20  41  62  97 128 168 230 273 337 405
#     4  12  27  48  69 100 146 185 222 281 354 416
#     4  10  20  40  61  85 125 164 218 282 347 393
#     4   9  20  37  61  88 123 163 215 281 331 401
#     4   9  19  39  62  87 125 170 216 269 345 400
#
# _framework density 20.394407000000001
#
# number of rings (size 3 to 8) (size 9 to 14) (size 15 to 20)
#    0.000    2.000    1.250    2.250    3.500    0.500 
#    9.000    3.750    0.000    0.000    0.000    0.000 
#    0.000    0.000    0.000    0.000    0.000    0.000 
#
# Total GULP energy -89106.685974 kJ/mol
# GULP energy per Si atom -5569.167873 kJ/mol
# Density = 2.034799 g / cm^3
# Si number density = 20.394407 Si / 1000 Ang^3
#
#
#
# Elastic Constant Matrix: (Units=GPa)
#
#
# Indices 1 2 3 4 5 6 
#
# 1 -9.3911 44.7532 35.8602 -13.2321 25.6093 -22.1880
# 2 44.7532 64.3317 58.9940 1.7880 -4.7571 -19.7507
# 3 35.8602 58.9940 160.2703 11.5189 -1.5476 -16.3045
# 4 -13.2321 1.7880 11.5189 30.9798 -3.4132 5.9865
# 5 25.6093 -4.7571 -1.5476 -3.4132 27.2352 -0.1038
# 6 -22.1880 -19.7507 -16.3045 5.9865 -0.1038 28.6342
#
#
#
# Elastic Compliance Matrix: (Units=1/GPa)
#
#
# Indices 1 2 3 4 5 6 
#
# 1 -0.013035 0.009854 -0.000582 -0.003903 0.013446 -0.002770
# 2 0.009854 0.021199 -0.008503 0.002248 -0.005700 0.016926
# 3 -0.000582 -0.008503 0.009735 -0.003457 -0.000818 -0.000053
# 4 -0.003903 0.002248 -0.003457 0.034731 0.008178 -0.010674
# 5 0.013446 -0.005700 -0.000818 0.008178 0.024074 0.004399
# 6 -0.002770 0.016926 -0.000053 -0.010674 0.004399 0.046669
#
#
# Mechanical properties :
#
#
# Convention : Reuss Voigt Hill
#
# Bulk Modulus (GPa) = 51.44827 54.93617 53.19222
# Shear Modulus (GPa) = 38.96737 22.41007 30.68872
#
# Velocity S-wave (km/s) = 4.37589 3.31846 3.88333
# Velocity P-wave (km/s) = 7.12829 6.45587 6.80040
#
# Compressibility (1/GPa) = 0.01943700
#
# Stress axis : x y z
#
# Youngs Moduli (GPa) = -76.71429 47.17201 102.72564
#
# Poissons Ratio (x) = -0.46484 0.05979
# Poissons Ratio (y) = 0.75596 0.87345
# Poissons Ratio (z) = -0.04465 0.40109
#
# Static dielectric constant tensor:
#      x y z
#    x 1.716540 0.084980 -0.013170 
#    y 0.084980 1.815990 0.004210 
#    z -0.013170 0.004210 1.757110 
# 
# From -- ./inp_files/109519.got.cif
#   From: 2010.05.17/outbox.cif.g08.bks.cpg/sg2_55_cif.got.tgz:109519.got - 2010.06.03 11:33:40.
