data_PCOD9106468
_publ_section_title
;
Structure prediction by ZEFSAII (Michael W. Deem and Ramdas Pophale) SiO2 
 PCOD9106468
Probable space group: P -1
;
_chemical_formula_sum "Si O2"
_cell_formula_units_Z 10
_cell_length_a 7.423809
_cell_length_b 13.939294
_cell_length_c 12.514235
_cell_angle_alpha 147.854807
_cell_angle_beta 138.590836
_cell_angle_gamma 37.782143
_cell_volume 408.961918
_symmetry_space_group_name_H-M "P -1"
_symmetry_group_IT_number 2
_symmetry_cell_setting 'triclinic'
loop_
_space_group_symop_operation_xyz
x,y,z
-x,-y,-z
loop_
_atom_site_type_symbol
_atom_site_label
_atom_site_fract_x
_atom_site_fract_y
_atom_site_fract_z
Si Si1 0.694069 0.835786 0.096321
Si Si2 0.835985 0.057085 0.197940
Si Si3 0.375024 0.579843 0.136946
Si Si4 0.076309 0.772082 0.862350
Si Si5 0.366813 0.124688 0.405387
O O1 0.021305 0.649294 0.063880
O O2 0.735611 0.024037 0.238313
O O3 0.571990 0.917552 0.238420
O O4 0.451710 0.813323 0.884925
O O5 0.119416 0.110290 0.363235
O O6 0.958396 0.834935 0.988986
O O7 0.591719 0.405954 0.150307
O O8 0.437693 0.773567 0.364205
O O9 0.500000 0.500000 0.000000
O O10 0.851056 0.730314 0.647349
O O11 0.000000 0.000000 0.000000
#
# Coordination Sequence:
#
# PCOD9106468 Si02
#       5
#     2   2   2   2   2
#     4  10  20  39  70  95 134 171 215 272 331 386
#     4   9  19  41  67  93 130 177 209 267 340 387
#     4  12  23  39  66 103 131 169 222 281 319 382
#     4   9  19  41  65  89 130 178 207 263 334 386
#     4  10  22  41  69  93 131 178 217 262 335 397
#
# _framework density 24.452155000000001
#
# number of rings (size 3 to 8) (size 9 to 14) (size 15 to 20)
#    0.000    2.000    2.000    3.000    0.000    0.800 
#    0.000   17.000   13.200    0.000    0.000    0.000 
#    0.000    0.000    0.000    0.000    0.000    0.000 
#
# Total GULP energy -55732.820429 kJ/mol
# GULP energy per Si atom -5573.282043 kJ/mol
# Density = 2.439650 g / cm^3
# Si number density = 24.452155 Si / 1000 Ang^3
#
#
#
# Elastic Constant Matrix: (Units=GPa)
#
#
# Indices 1 2 3 4 5 6 
#
# 1 107.6889 26.5524 14.6234 2.3327 9.9172 -17.0903
# 2 26.5524 197.7569 7.9548 0.0317 -3.4496 -34.9006
# 3 14.6234 7.9548 64.2193 -3.7137 5.2235 -1.0483
# 4 2.3327 0.0317 -3.7137 20.9288 -4.7472 1.9456
# 5 9.9172 -3.4496 5.2235 -4.7472 21.0816 -0.9564
# 6 -17.0903 -34.9006 -1.0483 1.9456 -0.9564 44.5664
#
#
#
# Elastic Compliance Matrix: (Units=1/GPa)
#
#
# Indices 1 2 3 4 5 6 
#
# 1 0.010883 -0.000857 -0.002065 -0.003101 -0.005289 0.003476
# 2 -0.000857 0.006003 -0.000620 -0.000040 0.001729 0.004397
# 3 -0.002065 -0.000620 0.016471 0.002648 -0.002663 -0.001062
# 4 -0.003101 -0.000040 0.002648 0.051677 0.012290 -0.003151
# 5 -0.005289 0.001729 -0.002663 0.012290 0.053628 -0.000122
# 6 0.003476 0.004397 -0.001062 -0.003151 -0.000122 0.027324
#
#
# Mechanical properties :
#
#
# Convention : Reuss Voigt Hill
#
# Bulk Modulus (GPa) = 38.05821 51.99183 45.02502
# Shear Modulus (GPa) = 27.49871 38.68430 33.09150
#
# Velocity S-wave (km/s) = 3.35713 3.98180 3.68274
# Velocity P-wave (km/s) = 5.53401 6.51525 6.04457
#
# Compressibility (1/GPa) = 0.02627554
#
# Stress axis : x y z
#
# Youngs Moduli (GPa) = 91.88249 166.59032 60.71293
#
# Poissons Ratio (x) = 0.14269 0.12535
# Poissons Ratio (y) = 0.07870 0.03762
# Poissons Ratio (z) = 0.18970 0.10324
#
# Static dielectric constant tensor:
#      x y z
#    x 2.175040 0.038150 0.003320 
#    y 0.038150 2.026930 -0.054100 
#    z 0.003320 -0.054100 2.005780 
# 
# From -- ./inp_files/210343.got.cif
#   From: 2010.05.17/outbox.cif.g08.bks.cpg/sg2_106_cif.got.tgz:210343.got - 2010.06.03 11:33:40.
