data_PCOD9106320
_publ_section_title
;
Structure prediction by ZEFSAII (Michael W. Deem and Ramdas Pophale) SiO2 
 PCOD9106320
Probable space group: P -1
;
_chemical_formula_sum "Si O2"
_cell_formula_units_Z 12
_cell_length_a 5.189844
_cell_length_b 8.621191
_cell_length_c 15.586815
_cell_angle_alpha 53.130738
_cell_angle_beta 64.791903
_cell_angle_gamma 57.669081
_cell_volume 465.703438
_symmetry_space_group_name_H-M "P -1"
_symmetry_group_IT_number 2
_symmetry_cell_setting 'triclinic'
loop_
_space_group_symop_operation_xyz
x,y,z
-x,-y,-z
loop_
_atom_site_type_symbol
_atom_site_label
_atom_site_fract_x
_atom_site_fract_y
_atom_site_fract_z
Si Si1 0.779176 0.876669 0.935894
Si Si2 0.368854 0.898001 0.475869
Si Si3 0.386513 0.508330 0.685229
Si Si4 0.983674 0.227940 0.799132
Si Si5 0.777094 0.828617 0.749931
Si Si6 0.774627 0.435701 0.919723
O O1 0.712323 0.868240 0.846949
O O2 0.032272 0.986338 0.856007
O O3 0.923591 0.647750 0.035447
O O4 0.500000 0.000000 0.000000
O O5 0.465466 0.649455 0.555372
O O6 0.500000 0.000000 0.500000
O O7 0.409431 0.977252 0.348977
O O8 0.000000 0.000000 0.500000
O O9 0.705564 0.362533 0.731437
O O10 0.220325 0.349193 0.732800
O O11 0.143944 0.698589 0.716331
O O12 0.844736 0.248231 0.907662
O O13 0.685003 0.635212 0.804716
O O14 0.500000 0.500000 0.000000
#
# Coordination Sequence:
#
# PCOD9106320 Si02
#       6
#     2   2   2   2   2   2
#     4  12  24  41  63  98 140 182 221 272 335 401
#     4  10  20  39  68  99 126 163 221 284 333 387
#     4  10  21  42  66  94 127 171 224 279 332 396
#     4  11  23  40  63  93 134 176 215 272 338 396
#     4  10  22  39  65  96 127 171 224 275 326 395
#     4  11  22  39  64  94 128 177 231 278 322 391
#
# _framework density 25.767471
#
# number of rings (size 3 to 8) (size 9 to 14) (size 15 to 20)
#    0.000    1.333    0.000    8.000    0.000    2.667 
#    0.000    1.667    0.000    0.000    0.000    1.167 
#    0.000    0.000    0.000    0.000    0.000    0.000 
#
# Total GULP energy -66869.114547 kJ/mol
# GULP energy per Si atom -5572.426212 kJ/mol
# Density = 2.570882 g / cm^3
# Si number density = 25.767471 Si / 1000 Ang^3
#
#
#
# Elastic Constant Matrix: (Units=GPa)
#
#
# Indices 1 2 3 4 5 6 
#
# 1 158.5134 28.0829 41.8647 -17.0123 9.7971 26.5264
# 2 28.0829 83.4015 27.9901 -5.4218 4.5507 11.3046
# 3 41.8647 27.9901 168.7985 -30.9255 16.7253 9.6172
# 4 -17.0123 -5.4218 -30.9255 43.3010 2.0893 1.7285
# 5 9.7971 4.5507 16.7253 2.0893 40.4466 -10.4850
# 6 26.5264 11.3046 9.6172 1.7285 -10.4850 48.9425
#
#
#
# Elastic Compliance Matrix: (Units=1/GPa)
#
#
# Indices 1 2 3 4 5 6 
#
# 1 0.007989 -0.001511 -0.000685 0.002777 -0.002803 -0.004545
# 2 -0.001511 0.013396 -0.001604 0.000076 -0.001049 -0.002188
# 3 -0.000685 -0.001604 0.007796 0.005342 -0.003607 -0.001751
# 4 0.002777 0.000076 0.005342 0.028471 -0.005599 -0.004777
# 5 -0.002803 -0.001049 -0.003607 -0.005599 0.029640 0.009018
# 6 -0.004545 -0.002188 -0.001751 -0.004777 0.009018 0.025846
#
#
# Mechanical properties :
#
#
# Convention : Reuss Voigt Hill
#
# Bulk Modulus (GPa) = 46.33737 67.39872 56.86805
# Shear Modulus (GPa) = 39.08358 47.38972 43.23665
#
# Velocity S-wave (km/s) = 3.89881 4.29316 4.10073
# Velocity P-wave (km/s) = 6.18786 7.12659 6.67375
#
# Compressibility (1/GPa) = 0.02158085
#
# Stress axis : x y z
#
# Youngs Moduli (GPa) = 125.16970 74.64978 128.26937
#
# Poissons Ratio (x) = 0.11276 0.08793
# Poissons Ratio (y) = 0.18907 0.20576
# Poissons Ratio (z) = 0.08580 0.11975
#
# Static dielectric constant tensor:
#      x y z
#    x 2.593150 -0.346090 -0.103600 
#    y -0.346090 2.285080 0.070040 
#    z -0.103600 0.070040 2.224350 
# 
# From -- ./inp_files/478817.got.cif
#   From: 2010.05.17/outbox.cif.g08.bks.cpg/sg2_240_cif.got.tgz:478817.got - 2010.06.03 11:33:40.
