data_PCOD9106882
_publ_section_title
;
Structure prediction by ZEFSAII (Michael W. Deem and Ramdas Pophale) SiO2 
 PCOD9106882
Probable space group: P -1
;
_chemical_formula_sum "Si O2"
_cell_formula_units_Z 13
_cell_length_a 5.448535
_cell_length_b 12.160322
_cell_length_c 8.904229
_cell_angle_alpha 112.483058
_cell_angle_beta 87.595008
_cell_angle_gamma 72.023605
_cell_volume 509.843611
_symmetry_space_group_name_H-M "P -1"
_symmetry_group_IT_number 2
_symmetry_cell_setting 'triclinic'
loop_
_space_group_symop_operation_xyz
x,y,z
-x,-y,-z
loop_
_atom_site_type_symbol
_atom_site_label
_atom_site_fract_x
_atom_site_fract_y
_atom_site_fract_z
Si Si1 0.245000 0.107584 0.182617
Si Si2 0.000000 0.000000 0.500000
Si Si3 0.454054 0.842617 0.058513
Si Si4 0.287034 0.671160 0.739695
Si Si5 0.480359 0.772627 0.533962
Si Si6 0.792467 0.434575 0.019846
Si Si7 0.173072 0.218946 0.718178
O O1 0.452592 0.134181 0.299821
O O2 0.980368 0.224770 0.256435
O O3 0.212841 0.974578 0.158089
O O4 0.339048 0.108777 0.010113
O O5 0.774862 0.139013 0.505979
O O6 0.169092 0.082302 0.602003
O O7 0.589090 0.790861 0.181144
O O8 0.406504 0.742009 0.897909
O O9 0.453507 0.657173 0.575819
O O10 0.220278 0.575494 0.804131
O O11 0.741010 0.722537 0.399254
O O12 0.916602 0.299026 0.860257
O O13 0.500000 0.500000 0.000000
O O14 0.000000 0.500000 0.000000
#
# Coordination Sequence:
#
# PCOD9106882 Si02
#       7
#     2   1   2   2   2   2   2
#     4  10  20  40  62 110 151 200 238 305 380 481
#     4  12  26  44  74 118 168 204 236 306 408 480
#     4  10  21  37  68 108 151 198 248 299 385 470
#     4  11  24  44  74 102 151 200 257 323 382 458
#     4  11  26  41  70 113 164 197 243 306 400 481
#     4  12  30  55  83 110 145 209 282 337 381 446
#     4  12  26  47  75 112 158 202 255 317 389 469
#
# _framework density 25.498014999999999
#
# number of rings (size 3 to 8) (size 9 to 14) (size 15 to 20)
#    0.000    0.923    3.077    2.769    8.615    0.000 
#    0.000    1.538    0.000    0.000    0.000    0.000 
#    0.000    0.000    0.000    0.000    0.000    0.000 
#
# Total GULP energy -72429.610769 kJ/mol
# GULP energy per Si atom -5571.508521 kJ/mol
# Density = 2.543998 g / cm^3
# Si number density = 25.498015 Si / 1000 Ang^3
#
#
#
# Elastic Constant Matrix: (Units=GPa)
#
#
# Indices 1 2 3 4 5 6 
#
# 1 93.7063 35.3581 34.8748 -20.7419 -3.2566 3.5859
# 2 35.3581 95.8644 30.9234 -21.3855 -15.6795 13.2380
# 3 34.8748 30.9234 90.6830 -28.3866 -17.8000 0.5663
# 4 -20.7419 -21.3855 -28.3866 32.1356 14.5390 3.7589
# 5 -3.2566 -15.6795 -17.8000 14.5390 53.9179 -8.1191
# 6 3.5859 13.2380 0.5663 3.7589 -8.1191 37.8591
#
#
#
# Elastic Compliance Matrix: (Units=1/GPa)
#
#
# Indices 1 2 3 4 5 6 
#
# 1 0.014294 -0.003261 -0.003145 0.005736 -0.002874 -0.001352
# 2 -0.003261 0.014383 -0.001434 0.006327 0.001037 -0.005105
# 3 -0.003145 -0.001434 0.016450 0.010685 0.001928 -0.000094
# 4 0.005736 0.006327 0.010685 0.054493 -0.010576 -0.010594
# 5 -0.002874 0.001037 0.001928 -0.010576 0.023048 0.005873
# 6 -0.001352 -0.005105 -0.000094 -0.010594 0.005873 0.030640
#
#
# Mechanical properties :
#
#
# Convention : Reuss Voigt Hill
#
# Bulk Modulus (GPa) = 33.96119 53.61850 43.78985
# Shear Modulus (GPa) = 27.96346 36.72234 32.34290
#
# Velocity S-wave (km/s) = 3.31523 3.79912 3.56539
# Velocity P-wave (km/s) = 5.29173 6.34969 5.84470
#
# Compressibility (1/GPa) = 0.02944537
#
# Stress axis : x y z
#
# Youngs Moduli (GPa) = 69.95762 69.52628 60.79065
#
# Poissons Ratio (x) = 0.22675 0.19120
# Poissons Ratio (y) = 0.22816 0.08719
# Poissons Ratio (z) = 0.22004 0.09972
#
# Static dielectric constant tensor:
#      x y z
#    x 2.055460 0.001510 -0.125290 
#    y 0.001510 2.191790 0.080330 
#    z -0.125290 0.080330 2.097200 
# 
# From -- ./inp_files/59451.got.cif
#   From: 2010.05.17/outbox.cif.g08.bks.cpg/sg2_30_cif.got.tgz:59451.got - 2010.06.03 11:33:40.
