data_PCOD9106258
_publ_section_title
;
Structure prediction by ZEFSAII (Michael W. Deem and Ramdas Pophale) SiO2 
 PCOD9106258
Probable space group: P -1
;
_chemical_formula_sum "Si O2"
_cell_formula_units_Z 13
_cell_length_a 13.517609
_cell_length_b 11.574470
_cell_length_c 6.612416
_cell_angle_alpha 107.819564
_cell_angle_beta 103.275584
_cell_angle_gamma 134.566525
_cell_volume 530.119759
_symmetry_space_group_name_H-M "P -1"
_symmetry_group_IT_number 2
_symmetry_cell_setting 'triclinic'
loop_
_space_group_symop_operation_xyz
x,y,z
-x,-y,-z
loop_
_atom_site_type_symbol
_atom_site_label
_atom_site_fract_x
_atom_site_fract_y
_atom_site_fract_z
Si Si1 0.174160 0.995225 0.060799
Si Si2 0.800567 0.706464 0.844891
Si Si3 0.219082 0.979548 0.542498
Si Si4 0.921238 0.496146 0.147015
Si Si5 0.000000 0.000000 0.500000
Si Si6 0.573238 0.276228 0.677516
Si Si7 0.630037 0.041959 0.951292
O O1 0.243229 0.203150 0.210222
O O2 0.297560 0.024361 0.004787
O O3 0.187927 0.951763 0.267233
O O4 0.952958 0.794168 0.815371
O O5 0.627736 0.449711 0.667189
O O6 0.905810 0.832959 0.174337
O O7 0.153926 0.044473 0.624033
O O8 0.434711 0.166263 0.736018
O O9 0.085889 0.742496 0.433482
O O10 0.761776 0.420605 0.939712
O O11 0.816989 0.302788 0.143860
O O12 0.000000 0.500000 0.000000
O O13 0.486268 0.093255 0.383582
O O14 0.500000 0.000000 0.000000
#
# Coordination Sequence:
#
# PCOD9106258 Si02
#       7
#     2   2   2   2   1   2   2
#     4   9  19  42  62  88 132 169 208 266 338 375
#     4  10  20  39  68  94 124 169 219 269 327 383
#     4  10  22  39  66  94 127 169 220 264 323 389
#     4  12  21  45  68  90 132 180 216 260 326 397
#     4  10  20  42  58  96 132 154 216 270 320 374
#     4  11  22  42  70  92 122 182 221 256 331 390
#     4  11  25  42  62 100 134 165 224 268 317 390
#
# _framework density 24.522758
#
# number of rings (size 3 to 8) (size 9 to 14) (size 15 to 20)
#    0.000    1.538    6.154    0.462    0.000    4.308 
#   11.077    1.538    0.000    0.000    0.000    0.000 
#    0.000    0.000    0.000    0.000    0.000    0.000 
#
# Total GULP energy -72411.291439 kJ/mol
# GULP energy per Si atom -5570.099341 kJ/mol
# Density = 2.446694 g / cm^3
# Si number density = 24.522758 Si / 1000 Ang^3
#
#
#
# Elastic Constant Matrix: (Units=GPa)
#
#
# Indices 1 2 3 4 5 6 
#
# 1 221.6036 77.1918 24.5487 21.5725 2.1240 38.8808
# 2 77.1918 126.2111 36.0128 37.4583 -8.0301 13.9910
# 3 24.5487 36.0128 72.2619 12.3545 -3.1406 11.6377
# 4 21.5725 37.4583 12.3545 37.8115 5.1180 2.3681
# 5 2.1240 -8.0301 -3.1406 5.1180 33.6108 -7.5370
# 6 38.8808 13.9910 11.6377 2.3681 -7.5370 61.8834
#
#
#
# Elastic Compliance Matrix: (Units=1/GPa)
#
#
# Indices 1 2 3 4 5 6 
#
# 1 0.006431 -0.003933 0.000117 0.000707 -0.002221 -0.003471
# 2 -0.003933 0.015508 -0.004140 -0.012594 0.005691 0.000919
# 3 0.000117 -0.004140 0.016430 -0.001232 0.000244 -0.002150
# 4 0.000707 -0.012594 -0.001232 0.040183 -0.009295 -0.000035
# 5 -0.002221 0.005691 0.000244 -0.009295 0.033705 0.004524
# 6 -0.003471 0.000919 -0.002150 -0.000035 0.004524 0.019089
#
#
# Mechanical properties :
#
#
# Convention : Reuss Voigt Hill
#
# Bulk Modulus (GPa) = 44.53018 77.28701 60.90859
# Shear Modulus (GPa) = 32.31139 45.48266 38.89703
#
# Velocity S-wave (km/s) = 3.63383 4.31131 3.98698
# Velocity P-wave (km/s) = 5.98368 7.50787 6.78868
#
# Compressibility (1/GPa) = 0.02245668
#
# Stress axis : x y z
#
# Youngs Moduli (GPa) = 155.49526 64.48208 60.86577
#
# Poissons Ratio (x) = 0.25361 -0.00712
# Poissons Ratio (y) = 0.61157 0.25198
# Poissons Ratio (z) = -0.01818 0.26695
#
# Static dielectric constant tensor:
#      x y z
#    x 1.974220 -0.021170 0.046300 
#    y -0.021170 2.224600 -0.154530 
#    z 0.046300 -0.154530 1.995460 
# 
# From -- ./inp_files/310196.got.cif
#   From: 2010.05.17/outbox.cif.g08.bks.cpg/sg2_156_cif.got.tgz:310196.got - 2010.06.03 11:33:40.
