data_PCOD9106989
_publ_section_title
;
Structure prediction by ZEFSAII (Michael W. Deem and Ramdas Pophale) SiO2 
 PCOD9106989
Probable space group: P -1
;
_chemical_formula_sum "Si O2"
_cell_formula_units_Z 12
_cell_length_a 13.147626
_cell_length_b 10.569743
_cell_length_c 15.201016
_cell_angle_alpha 26.587020
_cell_angle_beta 27.319443
_cell_angle_gamma 33.571889
_cell_volume 426.145890
_symmetry_space_group_name_H-M "P -1"
_symmetry_group_IT_number 2
_symmetry_cell_setting 'triclinic'
loop_
_space_group_symop_operation_xyz
x,y,z
-x,-y,-z
loop_
_atom_site_type_symbol
_atom_site_label
_atom_site_fract_x
_atom_site_fract_y
_atom_site_fract_z
Si Si1 0.773047 0.471562 0.291112
Si Si2 0.457499 0.059797 0.357992
Si Si3 0.901191 0.717495 0.221359
Si Si4 0.253589 0.214159 0.068096
Si Si5 0.506666 0.332445 0.962837
Si Si6 0.990871 0.267530 0.575729
O O1 0.500000 0.500000 0.500000
O O2 0.861512 0.650891 0.191487
O O3 0.983771 0.187961 0.303420
O O4 0.764615 0.594603 0.123444
O O5 0.490827 0.345370 0.206108
O O6 0.202685 0.022477 0.586394
O O7 0.643511 0.793704 0.408297
O O8 0.490365 0.140919 0.180549
O O9 0.017998 0.442800 0.357502
O O10 0.000000 0.000000 0.000000
O O11 0.311276 0.343340 0.036445
O O12 0.500000 0.000000 0.000000
O O13 0.745246 0.200984 0.815112
O O14 0.000000 0.500000 0.500000
#
# Coordination Sequence:
#
# PCOD9106989 Si02
#       6
#     2   2   2   2   2   2
#     4  11  26  45  65  97 133 169 218 268 318 386
#     4  10  21  38  62  90 127 166 205 263 323 372
#     4  12  23  40  68  94 125 168 210 262 323 376
#     4  11  24  42  67  92 127 176 219 262 320 386
#     4  10  20  40  62  90 129 166 210 265 316 376
#     4  10  22  37  58  91 126 160 206 258 313 378
#
# _framework density 28.159369000000002
#
# number of rings (size 3 to 8) (size 9 to 14) (size 15 to 20)
#    0.000    1.333    0.000    7.000    0.000    4.667 
#    0.000    8.333    0.000    0.000    0.000    0.000 
#    0.000    0.000    0.000    0.000    0.000    0.000 
#
# Total GULP energy -67091.103739 kJ/mol
# GULP energy per Si atom -5590.925312 kJ/mol
# Density = 2.809528 g / cm^3
# Si number density = 28.159369 Si / 1000 Ang^3
#
#
#
# Elastic Constant Matrix: (Units=GPa)
#
#
# Indices 1 2 3 4 5 6 
#
# 1 229.9963 36.7922 61.9088 -8.7859 -11.8793 -0.5575
# 2 36.7922 173.9234 50.5175 44.9612 -23.3269 -30.6255
# 3 61.9088 50.5175 113.5443 42.2884 -9.7420 -8.4001
# 4 -8.7859 44.9612 42.2884 60.2130 -17.6049 -22.0886
# 5 -11.8793 -23.3269 -9.7420 -17.6049 65.5844 4.8800
# 6 -0.5575 -30.6255 -8.4001 -22.0886 4.8800 47.5022
#
#
#
# Elastic Compliance Matrix: (Units=1/GPa)
#
#
# Indices 1 2 3 4 5 6 
#
# 1 0.006140 -0.001004 -0.004907 0.005974 0.001542 0.001177
# 2 -0.001004 0.008008 -0.001292 -0.003732 0.001245 0.003059
# 3 -0.004907 -0.001292 0.016613 -0.013543 -0.002217 -0.004022
# 4 0.005974 -0.003732 -0.013543 0.035811 0.006519 0.011251
# 5 0.001542 0.001245 -0.002217 0.006519 0.017265 0.001686
# 6 0.001177 0.003059 -0.004022 0.011251 0.001686 0.027385
#
#
# Mechanical properties :
#
#
# Convention : Reuss Voigt Hill
#
# Bulk Modulus (GPa) = 61.14214 90.65568 75.89891
# Shear Modulus (GPa) = 38.14472 59.20961 48.67716
#
# Velocity S-wave (km/s) = 3.68448 4.59045 4.16219
# Velocity P-wave (km/s) = 6.31352 7.76917 7.07886
#
# Compressibility (1/GPa) = 0.01635533
#
# Stress axis : x y z
#
# Youngs Moduli (GPa) = 162.86633 124.87739 60.19229
#
# Poissons Ratio (x) = 0.12538 0.29535
# Poissons Ratio (y) = 0.16352 0.07778
# Poissons Ratio (z) = 0.79914 0.16137
#
# Static dielectric constant tensor:
#      x y z
#    x 2.107670 0.128970 -0.076200 
#    y 0.128970 2.277020 0.053060 
#    z -0.076200 0.053060 2.254220 
# 
# From -- ./inp_files/517562.got.cif
#   From: 2010.05.17/outbox.cif.g08.bks.cpg/sg2_259_cif.got.tgz:517562.got - 2010.06.03 11:33:40.
