data_PCOD9106864
_publ_section_title
;
Structure prediction by ZEFSAII (Michael W. Deem and Ramdas Pophale) SiO2 
 PCOD9106864
Probable space group: P -1
;
_chemical_formula_sum "Si O2"
_cell_formula_units_Z 16
_cell_length_a 11.310905
_cell_length_b 7.248727
_cell_length_c 11.237866
_cell_angle_alpha 98.608302
_cell_angle_beta 123.955860
_cell_angle_gamma 66.194563
_cell_volume 695.746189
_symmetry_space_group_name_H-M "P -1"
_symmetry_group_IT_number 2
_symmetry_cell_setting 'triclinic'
loop_
_space_group_symop_operation_xyz
x,y,z
-x,-y,-z
loop_
_atom_site_type_symbol
_atom_site_label
_atom_site_fract_x
_atom_site_fract_y
_atom_site_fract_z
Si Si1 0.949181 0.162133 0.598451
Si Si2 0.559754 0.834132 0.861691
Si Si3 0.368172 0.485693 0.513643
Si Si4 0.050414 0.041174 0.165410
Si Si5 0.247293 0.711861 0.874719
Si Si6 0.748856 0.881448 0.183888
Si Si7 0.350866 0.130225 0.350789
Si Si8 0.482368 0.437144 0.819067
O O1 0.768781 0.310514 0.496005
O O2 0.084602 0.251522 0.680717
O O3 0.944788 0.101517 0.731474
O O4 0.000000 0.000000 0.500000
O O5 0.599175 0.842748 0.749740
O O6 0.519106 0.638859 0.842137
O O7 0.410417 0.040009 0.824695
O O8 0.701268 0.813857 0.026137
O O9 0.500000 0.500000 0.500000
O O10 0.286587 0.353665 0.393022
O O11 0.455126 0.370002 0.668961
O O12 0.218129 0.045589 0.259948
O O13 0.914101 0.251344 0.151598
O O14 0.000000 0.000000 0.000000
O O15 0.331854 0.510377 0.826268
O O16 0.229218 0.906189 0.804553
O O17 0.369838 0.712587 0.043540
O O18 0.500000 0.000000 0.500000
#
# Coordination Sequence:
#
# PCOD9106864 Si02
#       8
#     2   2   2   2   2   2   2   2
#     4  11  24  45  72  96 136 182 227 281 344 408
#     4  10  20  40  61  95 126 172 222 274 331 405
#     4  12  25  42  66 100 135 177 227 275 349 402
#     4  11  25  43  68  98 136 182 221 282 343 407
#     4   9  20  40  64  90 126 172 222 265 335 392
#     4   9  20  38  68  91 123 173 226 268 331 400
#     4  12  27  41  65  99 141 176 226 279 350 403
#     4  10  21  40  64  92 126 170 218 279 323 409
#
# _framework density 22.996894999999999
#
# number of rings (size 3 to 8) (size 9 to 14) (size 15 to 20)
#    0.000    1.500    1.250    4.500    7.000    1.000 
#    0.000    4.375    0.000    0.000    0.000    0.000 
#    0.000    0.000    0.000    0.000    0.000    0.000 
#
# Total GULP energy -89284.560256 kJ/mol
# GULP energy per Si atom -5580.285016 kJ/mol
# Density = 2.294455 g / cm^3
# Si number density = 22.996895 Si / 1000 Ang^3
#
#
#
# Elastic Constant Matrix: (Units=GPa)
#
#
# Indices 1 2 3 4 5 6 
#
# 1 89.2252 21.3409 55.6775 -3.3198 5.0344 -24.5145
# 2 21.3409 49.6648 11.0038 7.2398 3.5982 -20.6523
# 3 55.6775 11.0038 156.2344 16.9492 -3.1278 -16.5631
# 4 -3.3198 7.2398 16.9492 31.2581 -6.4853 5.5815
# 5 5.0344 3.5982 -3.1278 -6.4853 49.1103 -1.8225
# 6 -24.5145 -20.6523 -16.5631 5.5815 -1.8225 30.0420
#
#
#
# Elastic Compliance Matrix: (Units=1/GPa)
#
#
# Indices 1 2 3 4 5 6 
#
# 1 0.018217 -0.003614 -0.005837 0.004223 -0.001108 0.008311
# 2 -0.003614 0.033483 0.003047 -0.014740 -0.002933 0.024309
# 3 -0.005837 0.003047 0.009451 -0.007104 0.000183 0.003874
# 4 0.004223 -0.014740 -0.007104 0.044112 0.005334 -0.018476
# 5 -0.001108 -0.002933 0.000183 0.005334 0.021313 -0.002518
# 6 0.008311 0.024309 0.003874 -0.018476 -0.002518 0.062196
#
#
# Mechanical properties :
#
#
# Convention : Reuss Voigt Hill
#
# Bulk Modulus (GPa) = 20.68499 52.35209 36.51854
# Shear Modulus (GPa) = 22.96796 35.88890 29.42843
#
# Velocity S-wave (km/s) = 3.16372 3.95473 3.58113
# Velocity P-wave (km/s) = 4.72860 6.60813 5.74574
#
# Compressibility (1/GPa) = 0.04834424
#
# Stress axis : x y z
#
# Youngs Moduli (GPa) = 54.89263 29.86623 105.80777
#
# Poissons Ratio (x) = 0.10793 0.61758
# Poissons Ratio (y) = 0.19838 -0.32242
# Poissons Ratio (z) = 0.32040 -0.09101
#
# Static dielectric constant tensor:
#      x y z
#    x 1.923130 -0.014510 0.034100 
#    y -0.014510 1.972030 -0.035430 
#    z 0.034100 -0.035430 1.872220 
# 
# From -- ./inp_files/419628.got.cif
#   From: 2010.05.17/outbox.cif.g08.bks.cpg/sg2_210_cif.got.tgz:419628.got - 2010.06.03 11:33:40.
