data_PCOD9106002
_publ_section_title
;
Structure prediction by ZEFSAII (Michael W. Deem and Ramdas Pophale) SiO2 
 PCOD9106002
Probable space group: P -1
;
_chemical_formula_sum "Si O2"
_cell_formula_units_Z 16
_cell_length_a 11.274680
_cell_length_b 12.072930
_cell_length_c 10.707009
_cell_angle_alpha 49.527267
_cell_angle_beta 67.466659
_cell_angle_gamma 104.908426
_cell_volume 710.479983
_symmetry_space_group_name_H-M "P -1"
_symmetry_group_IT_number 2
_symmetry_cell_setting 'triclinic'
loop_
_space_group_symop_operation_xyz
x,y,z
-x,-y,-z
loop_
_atom_site_type_symbol
_atom_site_label
_atom_site_fract_x
_atom_site_fract_y
_atom_site_fract_z
Si Si1 0.116262 0.220906 0.112433
Si Si2 0.231328 0.617161 0.659807
Si Si3 0.351082 0.136378 0.070902
Si Si4 0.978937 0.653395 0.302303
Si Si5 0.832520 0.827573 0.332952
Si Si6 0.038405 0.736214 0.643077
Si Si7 0.365419 0.090617 0.806094
Si Si8 0.741722 0.470167 0.765656
O O1 0.197233 0.442149 0.876988
O O2 0.280676 0.241319 0.050098
O O3 0.994893 0.157451 0.329182
O O4 0.983082 0.042360 0.191915
O O5 0.124622 0.504198 0.654873
O O6 0.138722 0.683751 0.707301
O O7 0.445366 0.812339 0.398712
O O8 0.177000 0.896496 0.358325
O O9 0.392422 0.155805 0.892739
O O10 0.535277 0.247087 0.991002
O O11 0.927637 0.785894 0.234127
O O12 0.884004 0.524503 0.563697
O O13 0.197949 0.838652 0.058933
O O14 0.698190 0.821948 0.313823
O O15 0.736157 0.638727 0.608929
O O16 0.841907 0.534027 0.809801
#
# Coordination Sequence:
#
# PCOD9106002 Si02
#       8
#     2   2   2   2   2   2   2   2
#     4  12  24  47  71  93 134 185 226 271 321 391
#     4  12  27  42  69  98 137 182 215 272 336 403
#     4  12  23  43  76 102 126 171 226 285 335 384
#     4  10  20  39  66  99 133 163 209 286 336 384
#     4  10  20  39  71 100 129 167 220 283 327 375
#     4  12  28  48  61  95 147 182 220 262 327 406
#     4  12  20  41  69 107 131 160 223 284 337 387
#     4  10  23  42  67 103 129 172 217 277 339 385
#
# _framework density 22.519985999999999
#
# number of rings (size 3 to 8) (size 9 to 14) (size 15 to 20)
#    0.750    0.000    6.250    2.625    0.000    4.000 
#    2.250    0.625    0.000    0.000    0.000    0.000 
#    0.000    0.000    0.000    0.000    0.000    0.000 
#
# Total GULP energy -89483.346843 kJ/mol
# GULP energy per Si atom -5592.709178 kJ/mol
# Density = 2.246873 g / cm^3
# Si number density = 22.519986 Si / 1000 Ang^3
#
#
#
# Elastic Constant Matrix: (Units=GPa)
#
#
# Indices 1 2 3 4 5 6 
#
# 1 104.4172 23.5400 47.4023 -10.9504 -18.6983 -12.9639
# 2 23.5400 50.1786 11.8490 2.6133 -20.1044 -1.9027
# 3 47.4023 11.8490 81.7238 -7.2784 -17.8069 -3.1338
# 4 -10.9504 2.6133 -7.2784 26.4058 2.8353 -0.3221
# 5 -18.6983 -20.1044 -17.8069 2.8353 40.7730 -11.5270
# 6 -12.9639 -1.9027 -3.1338 -0.3221 -11.5270 24.6826
#
#
#
# Elastic Compliance Matrix: (Units=1/GPa)
#
#
# Indices 1 2 3 4 5 6 
#
# 1 0.016185 -0.003882 -0.006971 0.004771 0.004860 0.009648
# 2 -0.003882 0.028036 0.001239 -0.005567 0.015012 0.007218
# 3 -0.006971 0.001239 0.017393 0.001232 0.005237 0.001104
# 4 0.004771 -0.005567 0.001232 0.041018 -0.002407 0.001644
# 5 0.004860 0.015012 0.005237 -0.002407 0.043595 0.024702
# 6 0.009648 0.007218 0.001104 0.001644 0.024702 0.057836
#
#
# Mechanical properties :
#
#
# Convention : Reuss Voigt Hill
#
# Bulk Modulus (GPa) = 23.59315 44.65581 34.12448
# Shear Modulus (GPa) = 21.05961 28.60752 24.83357
#
# Velocity S-wave (km/s) = 3.06134 3.56802 3.32435
# Velocity P-wave (km/s) = 4.79531 6.07016 5.47000
#
# Compressibility (1/GPa) = 0.04238519
#
# Stress axis : x y z
#
# Youngs Moduli (GPa) = 61.78401 35.66850 57.49326
#
# Poissons Ratio (x) = 0.13848 0.40081
# Poissons Ratio (y) = 0.23987 -0.07123
# Poissons Ratio (z) = 0.43072 -0.04419
#
# Static dielectric constant tensor:
#      x y z
#    x 1.875370 -0.034360 0.058590 
#    y -0.034360 1.801740 -0.000170 
#    z 0.058590 -0.000170 1.852690 
# 
# From -- ./inp_files/427547.got.cif
#   From: 2010.05.17/outbox.cif.g08.bks.cpg/sg2_214_cif.got.tgz:427547.got - 2010.06.03 11:33:40.
