data_PCOD9106945
_publ_section_title
;
Structure prediction by ZEFSAII (Michael W. Deem and Ramdas Pophale) SiO2 
 PCOD9106945
Probable space group: P -1
;
_chemical_formula_sum "Si O2"
_cell_formula_units_Z 16
_cell_length_a 15.270081
_cell_length_b 9.734930
_cell_length_c 15.532230
_cell_angle_alpha 135.915602
_cell_angle_beta 31.003750
_cell_angle_gamma 130.495147
_cell_volume 823.757795
_symmetry_space_group_name_H-M "P -1"
_symmetry_group_IT_number 2
_symmetry_cell_setting 'triclinic'
loop_
_space_group_symop_operation_xyz
x,y,z
-x,-y,-z
loop_
_atom_site_type_symbol
_atom_site_label
_atom_site_fract_x
_atom_site_fract_y
_atom_site_fract_z
Si Si1 0.564861 0.307272 0.402512
Si Si2 0.754245 0.499726 0.998686
Si Si3 0.158617 0.651224 0.329307
Si Si4 0.919225 0.504293 0.164127
Si Si5 0.723323 0.886282 0.545864
Si Si6 0.481803 0.768641 0.395552
Si Si7 0.456021 0.209385 0.165146
Si Si8 0.236788 0.490672 0.371796
O O1 0.500000 0.500000 0.500000
O O2 0.764900 0.330701 0.224386
O O3 0.441244 0.128809 0.385914
O O4 0.539389 0.321836 0.531978
O O5 0.768504 0.412431 0.851974
O O6 0.938025 0.528179 0.900103
O O7 0.649467 0.692519 0.176223
O O8 0.634943 0.341927 0.085008
O O9 0.241422 0.541852 0.290128
O O10 0.957325 0.578597 0.470189
O O11 0.189968 0.889396 0.422089
O O12 0.845446 0.718487 0.338279
O O13 0.000000 0.500000 0.000000
O O14 0.652416 0.820721 0.670258
O O15 0.317733 0.685660 0.441603
O O16 0.500000 0.000000 0.500000
O O17 0.352431 0.322695 0.232114
O O18 0.500000 0.000000 0.000000
#
# Coordination Sequence:
#
# PCOD9106945 Si02
#       8
#     2   2   2   2   2   2   2   2
#     4  10  20  40  62  88 125 160 204 256 313 359
#     4  11  22  39  65  93 127 158 212 264 311 371
#     4  11  23  42  63  93 127 166 204 260 322 373
#     4  11  22  38  63  95 129 164 210 266 306 364
#     4  11  22  39  65  93 126 167 207 255 317 378
#     4  11  23  43  65  86 120 171 209 255 314 375
#     4  11  22  39  61  95 126 163 206 253 315 379
#     4  10  24  42  61  88 134 162 203 264 315 369
#
# _framework density 19.423183999999999
#
# number of rings (size 3 to 8) (size 9 to 14) (size 15 to 20)
#    0.000    1.250    1.250    7.500    1.750    3.000 
#    2.250    3.750    0.000    0.000    0.000    0.000 
#    0.000    0.000    0.000    0.000    0.000    0.000 
#
# Total GULP energy -89370.584339 kJ/mol
# GULP energy per Si atom -5585.661521 kJ/mol
# Density = 1.937898 g / cm^3
# Si number density = 19.423184 Si / 1000 Ang^3
#
#
#
# Elastic Constant Matrix: (Units=GPa)
#
#
# Indices 1 2 3 4 5 6 
#
# 1 125.4610 38.3780 48.6645 -16.1538 0.3000 22.4133
# 2 38.3780 97.7713 52.3163 -0.4177 -1.1788 29.5919
# 3 48.6645 52.3163 125.1288 -2.0243 17.3612 18.0289
# 4 -16.1538 -0.4177 -2.0243 29.5797 5.0821 8.6441
# 5 0.3000 -1.1788 17.3612 5.0821 40.1586 -11.1351
# 6 22.4133 29.5919 18.0289 8.6441 -11.1351 31.8845
#
#
#
# Elastic Compliance Matrix: (Units=1/GPa)
#
#
# Indices 1 2 3 4 5 6 
#
# 1 0.012312 -0.000125 -0.002486 0.010399 -0.003429 -0.011150
# 2 -0.000125 0.017478 -0.004562 0.004901 -0.002503 -0.015756
# 3 -0.002486 -0.004562 0.012384 0.001708 -0.006750 -0.003841
# 4 0.010399 0.004901 0.001708 0.052003 -0.016296 -0.032614
# 5 -0.003429 -0.002503 -0.006750 -0.016296 0.037014 0.025895
# 6 -0.011150 -0.015756 -0.003841 -0.032614 0.025895 0.073882
#
#
# Mechanical properties :
#
#
# Convention : Reuss Voigt Hill
#
# Bulk Modulus (GPa) = 35.93491 69.67540 52.80515
# Shear Modulus (GPa) = 21.86334 34.25805 28.06069
#
# Velocity S-wave (km/s) = 3.35868 4.20428 3.80505
# Velocity P-wave (km/s) = 5.79501 7.71480 6.82277
#
# Compressibility (1/GPa) = 0.02782809
#
# Stress axis : x y z
#
# Youngs Moduli (GPa) = 81.22091 57.21565 80.75252
#
# Poissons Ratio (x) = 0.00715 0.20072
# Poissons Ratio (y) = 0.01015 0.36840
# Poissons Ratio (z) = 0.20188 0.26102
#
# Static dielectric constant tensor:
#      x y z
#    x 1.692900 0.011270 -0.013850 
#    y 0.011270 1.717910 -0.006190 
#    z -0.013850 -0.006190 1.669320 
# 
# From -- ./inp_files/500102.got.cif
#   From: 2010.05.17/outbox.cif.g08.bks.cpg/sg2_251_cif.got.tgz:500102.got - 2010.06.03 11:33:40.
