data_PCOD9106083
_publ_section_title
;
Structure prediction by ZEFSAII (Michael W. Deem and Ramdas Pophale) SiO2 
 PCOD9106083
Probable space group: P -1
;
_chemical_formula_sum "Si O2"
_cell_formula_units_Z 15
_cell_length_a 13.487827
_cell_length_b 12.444607
_cell_length_c 6.678861
_cell_angle_alpha 87.683348
_cell_angle_beta 59.663659
_cell_angle_gamma 132.130271
_cell_volume 578.050143
_symmetry_space_group_name_H-M "P -1"
_symmetry_group_IT_number 2
_symmetry_cell_setting 'triclinic'
loop_
_space_group_symop_operation_xyz
x,y,z
-x,-y,-z
loop_
_atom_site_type_symbol
_atom_site_label
_atom_site_fract_x
_atom_site_fract_y
_atom_site_fract_z
Si Si1 0.511462 0.549889 0.207350
Si Si2 0.656188 0.341572 0.585845
Si Si3 0.720057 0.072590 0.870097
Si Si4 0.727985 0.788636 0.301041
Si Si5 0.964946 0.145211 0.941680
Si Si6 0.678869 0.207644 0.225778
Si Si7 0.000000 0.500000 0.500000
Si Si8 0.044805 0.696810 0.761348
O O1 0.375488 0.554307 0.365421
O O2 0.707082 0.741706 0.091516
O O3 0.457737 0.401903 0.396482
O O4 0.500000 0.500000 0.000000
O O5 0.654018 0.302742 0.356599
O O6 0.844494 0.437914 0.497574
O O7 0.471851 0.139290 0.883182
O O8 0.785830 0.132736 0.571365
O O9 0.890617 0.146898 0.819498
O O10 0.708668 0.186313 0.967381
O O11 0.774766 0.948164 0.247900
O O12 0.894390 0.847919 0.239357
O O13 0.054580 0.283366 0.016240
O O14 0.856956 0.292188 0.158727
O O15 0.500000 0.000000 0.500000
O O16 0.932439 0.537183 0.737629
#
# Coordination Sequence:
#
# PCOD9106083 Si02
#       8
#     2   2   2   2   2   2   1   2
#     4  11  25  43  67  99 132 172 214 270 330 385
#     4  10  21  41  62  92 133 164 217 260 323 393
#     4  10  20  39  67  93 120 173 214 266 321 389
#     4  10  24  44  64  97 129 170 222 269 323 384
#     4  10  22  42  66  94 129 168 223 268 318 388
#     4   8  18  37  58  87 123 155 210 259 306 382
#     4  10  24  40  58  98 132 160 216 264 318 394
#     4  10  22  39  63  94 128 169 211 265 328 381
#
# _framework density 25.949309
#
# number of rings (size 3 to 8) (size 9 to 14) (size 15 to 20)
#    0.000    2.133    1.333    0.000    5.600    4.800 
#    2.400    6.000    0.000    0.000    0.000    0.000 
#    0.000    0.000    0.000    0.000    0.000    0.000 
#
# Total GULP energy -83592.350662 kJ/mol
# GULP energy per Si atom -5572.823377 kJ/mol
# Density = 2.589025 g / cm^3
# Si number density = 25.949309 Si / 1000 Ang^3
#
#
#
# Elastic Constant Matrix: (Units=GPa)
#
#
# Indices 1 2 3 4 5 6 
#
# 1 115.4556 23.5168 26.1999 2.8547 -4.6263 7.9407
# 2 23.5168 132.4883 33.4528 12.5758 8.4163 -6.4835
# 3 26.1999 33.4528 100.7631 23.2188 16.6627 -0.1380
# 4 2.8547 12.5758 23.2188 45.3384 -0.4119 -0.0526
# 5 -4.6263 8.4163 16.6627 -0.4119 30.7507 -2.9181
# 6 7.9407 -6.4835 -0.1380 -0.0526 -2.9181 49.2735
#
#
#
# Elastic Compliance Matrix: (Units=1/GPa)
#
#
# Indices 1 2 3 4 5 6 
#
# 1 0.009826 -0.001415 -0.002938 0.001307 0.003325 -0.001580
# 2 -0.001415 0.008564 -0.001941 -0.001303 -0.001402 0.001265
# 3 -0.002938 -0.001941 0.014115 -0.006575 -0.007667 -0.000203
# 4 0.001307 -0.001303 -0.006575 0.025743 0.004451 -0.000109
# 5 0.003325 -0.001402 -0.007667 0.004451 0.037760 0.001499
# 6 -0.001580 0.001265 -0.000203 -0.000109 0.001499 0.020804
#
#
# Mechanical properties :
#
#
# Convention : Reuss Voigt Hill
#
# Bulk Modulus (GPa) = 50.21035 57.22733 53.71884
# Shear Modulus (GPa) = 36.75392 42.77502 39.76447
#
# Velocity S-wave (km/s) = 3.76756 4.06446 3.91882
# Velocity P-wave (km/s) = 6.19010 6.64288 6.42048
#
# Compressibility (1/GPa) = 0.01991621
#
# Stress axis : x y z
#
# Youngs Moduli (GPa) = 101.77223 116.77013 70.84429
#
# Poissons Ratio (x) = 0.16520 0.20817
# Poissons Ratio (y) = 0.14398 0.13753
# Poissons Ratio (z) = 0.29905 0.22669
#
# Static dielectric constant tensor:
#      x y z
#    x 2.066010 -0.040950 0.001510 
#    y -0.040950 2.444460 -0.391850 
#    z 0.001510 -0.391850 2.500210 
# 
# From -- ./inp_files/97145.got.cif
#   From: 2010.05.17/outbox.cif.g08.bks.cpg/sg2_49_cif.got.tgz:97145.got - 2010.06.03 11:33:40.
