data_PCOD9106211
_publ_section_title
;
Structure prediction by ZEFSAII (Michael W. Deem and Ramdas Pophale) SiO2 
 PCOD9106211
Probable space group: P -1
;
_chemical_formula_sum "Si O2"
_cell_formula_units_Z 16
_cell_length_a 11.524905
_cell_length_b 17.649692
_cell_length_c 21.105301
_cell_angle_alpha 19.780791
_cell_angle_beta 138.984322
_cell_angle_gamma 149.969094
_cell_volume 679.727275
_symmetry_space_group_name_H-M "P -1"
_symmetry_group_IT_number 2
_symmetry_cell_setting 'triclinic'
loop_
_space_group_symop_operation_xyz
x,y,z
-x,-y,-z
loop_
_atom_site_type_symbol
_atom_site_label
_atom_site_fract_x
_atom_site_fract_y
_atom_site_fract_z
Si Si1 0.740462 0.367114 0.303873
Si Si2 0.315051 0.522378 0.270757
Si Si3 0.812301 0.352549 0.641478
Si Si4 0.911059 0.613279 0.923027
Si Si5 0.368511 0.539684 0.627079
Si Si6 0.570939 0.900235 0.205448
Si Si7 0.619922 0.699196 0.061031
Si Si8 0.210243 0.775458 0.698028
O O1 0.672868 0.562980 0.136936
O O2 0.834591 0.406765 0.240426
O O3 0.941077 0.463337 0.361742
O O4 0.500000 0.000000 0.500000
O O5 0.430503 0.416566 0.365765
O O6 0.444279 0.662969 0.281567
O O7 0.019838 0.257841 0.365022
O O8 0.378442 0.803011 0.034765
O O9 0.821594 0.528521 0.447926
O O10 0.603727 0.239931 0.695239
O O11 0.721288 0.034590 0.826895
O O12 0.677220 0.546585 0.855434
O O13 0.809305 0.400482 0.110955
O O14 0.162413 0.960678 0.773718
O O15 0.000000 0.500000 0.000000
O O16 0.261293 0.281916 0.839016
O O17 0.525644 0.868014 0.470469
#
# Coordination Sequence:
#
# PCOD9106211 Si02
#       8
#     2   2   2   2   2   2   2   2
#     4  12  28  50  71 101 147 193 248 296 344 426
#     4  10  21  38  69 105 142 182 225 296 367 431
#     4  12  25  49  73 105 144 187 242 296 356 426
#     4  11  21  41  74 109 144 175 231 297 361 434
#     4  12  24  42  75 104 138 187 241 288 366 426
#     4  10  20  39  68 105 147 175 229 290 368 429
#     4  12  25  47  73 103 145 196 237 293 357 418
#     4  11  22  44  70 104 143 190 232 296 356 421
#
# _framework density 23.538853
#
# number of rings (size 3 to 8) (size 9 to 14) (size 15 to 20)
#    0.000    0.750    6.250    1.500    0.000    3.500 
#    0.000    0.000    0.000    0.000    0.000    0.000 
#    0.000    0.000    0.000    0.000    0.000    0.000 
#
# Total GULP energy -89668.743667 kJ/mol
# GULP energy per Si atom -5604.296479 kJ/mol
# Density = 2.348528 g / cm^3
# Si number density = 23.538853 Si / 1000 Ang^3
#
#
#
# Elastic Constant Matrix: (Units=GPa)
#
#
# Indices 1 2 3 4 5 6 
#
# 1 125.6259 23.7170 16.5387 18.2174 15.3071 -12.1934
# 2 23.7170 135.5984 22.5621 7.1014 4.7070 -6.6175
# 3 16.5387 22.5621 55.8986 13.0562 -2.0219 -5.4543
# 4 18.2174 7.1014 13.0562 32.4357 -3.1035 -6.2607
# 5 15.3071 4.7070 -2.0219 -3.1035 24.7583 -7.0586
# 6 -12.1934 -6.6175 -5.4543 -6.2607 -7.0586 35.6540
#
#
#
# Elastic Compliance Matrix: (Units=1/GPa)
#
#
# Indices 1 2 3 4 5 6 
#
# 1 0.009974 -0.000954 -0.001496 -0.005265 -0.006544 0.000785
# 2 -0.000954 0.008099 -0.002964 -0.000047 -0.001053 0.000507
# 3 -0.001496 -0.002964 0.021309 -0.006499 0.002878 0.001627
# 4 -0.005265 -0.000047 -0.006499 0.038405 0.009190 0.005759
# 5 -0.006544 -0.001053 0.002878 0.009190 0.048662 0.009254
# 6 0.000785 0.000507 0.001627 0.005759 0.009254 0.031502
#
#
# Mechanical properties :
#
#
# Convention : Reuss Voigt Hill
#
# Bulk Modulus (GPa) = 35.02260 49.19541 42.10901
# Shear Modulus (GPa) = 28.04291 35.52326 31.78309
#
# Velocity S-wave (km/s) = 3.45533 3.88897 3.67855
# Velocity P-wave (km/s) = 5.55248 6.41175 5.99752
#
# Compressibility (1/GPa) = 0.02855299
#
# Stress axis : x y z
#
# Youngs Moduli (GPa) = 100.25679 123.47839 46.92775
#
# Poissons Ratio (x) = 0.11785 0.07021
# Poissons Ratio (y) = 0.09569 0.13910
# Poissons Ratio (z) = 0.15000 0.36601
#
# Static dielectric constant tensor:
#      x y z
#    x 1.880930 0.028380 -0.003930 
#    y 0.028380 1.902950 0.024570 
#    z -0.003930 0.024570 1.901400 
# 
# From -- ./inp_files/447127.got.cif
#   From: 2010.05.17/outbox.cif.g08.bks.cpg/sg2_224_cif.got.tgz:447127.got - 2010.06.03 11:33:40.
