data_PCOD9106947
_publ_section_title
;
Structure prediction by ZEFSAII (Michael W. Deem and Ramdas Pophale) SiO2 
 PCOD9106947
Probable space group: P -1
;
_chemical_formula_sum "Si O2"
_cell_formula_units_Z 10
_cell_length_a 8.988365
_cell_length_b 7.397193
_cell_length_c 6.503683
_cell_angle_alpha 112.254307
_cell_angle_beta 73.882600
_cell_angle_gamma 111.375013
_cell_volume 367.762829
_symmetry_space_group_name_H-M "P -1"
_symmetry_group_IT_number 2
_symmetry_cell_setting 'triclinic'
loop_
_space_group_symop_operation_xyz
x,y,z
-x,-y,-z
loop_
_atom_site_type_symbol
_atom_site_label
_atom_site_fract_x
_atom_site_fract_y
_atom_site_fract_z
Si Si1 0.874550 0.965094 0.843775
Si Si2 0.997362 0.689474 0.360553
Si Si3 0.389891 0.225895 0.835432
Si Si4 0.358309 0.559312 0.712211
Si Si5 0.695271 0.179794 0.492165
O O1 0.923055 0.824812 0.597557
O O2 0.697785 0.845998 0.947190
O O3 0.902065 0.178857 0.810191
O O4 0.000000 0.000000 0.000000
O O5 0.836889 0.533817 0.270304
O O6 0.140299 0.653893 0.430612
O O7 0.383404 0.449058 0.866630
O O8 0.564528 0.197629 0.716632
O O9 0.288816 0.048671 0.634473
O O10 0.500000 0.500000 0.500000
O O11 0.367575 0.772676 0.687419
#
# Coordination Sequence:
#
# PCOD9106947 Si02
#       5
#     2   2   2   2   2
#     4  11  20  38  66  91 121 161 200 247 305 361
#     4  11  21  37  64  91 119 161 205 247 298 357
#     4  10  20  40  62  88 125 162 193 248 310 351
#     4  10  21  39  61  88 126 160 197 254 300 351
#     4  10  21  37  63  93 121 155 205 250 293 362
#
# _framework density 27.191438999999999
#
# number of rings (size 3 to 8) (size 9 to 14) (size 15 to 20)
#    0.000    1.600    4.000    1.800    0.000    0.800 
#    0.000   10.000    0.000    0.000    0.000    0.000 
#    0.000    0.000    0.000    0.000    0.000    0.000 
#
# Total GULP energy -55807.240890 kJ/mol
# GULP energy per Si atom -5580.724089 kJ/mol
# Density = 2.712955 g / cm^3
# Si number density = 27.191439 Si / 1000 Ang^3
#
#
#
# Elastic Constant Matrix: (Units=GPa)
#
#
# Indices 1 2 3 4 5 6 
#
# 1 129.8106 30.3702 45.8284 -24.7907 -7.5937 16.1497
# 2 30.3702 92.7487 54.2333 -26.3115 -8.6129 -2.0474
# 3 45.8284 54.2333 135.5286 -31.1658 -21.8432 -3.9420
# 4 -24.7907 -26.3115 -31.1658 49.1577 6.2312 -2.8383
# 5 -7.5937 -8.6129 -21.8432 6.2312 57.2654 -24.9127
# 6 16.1497 -2.0474 -3.9420 -2.8383 -24.9127 43.3568
#
#
#
# Elastic Compliance Matrix: (Units=1/GPa)
#
#
# Indices 1 2 3 4 5 6 
#
# 1 0.010013 -0.001221 -0.002869 0.002593 -0.002559 -0.005349
# 2 -0.001221 0.015207 -0.004470 0.004705 0.000501 0.001363
# 3 -0.002869 -0.004470 0.011936 0.003344 0.005435 0.005285
# 4 0.002593 0.004705 0.003344 0.026361 0.000024 0.001300
# 5 -0.002559 0.000501 0.005435 0.000024 0.026546 0.016726
# 6 -0.005349 0.001363 0.005285 0.001300 0.016726 0.035297
#
#
# Mechanical properties :
#
#
# Convention : Reuss Voigt Hill
#
# Bulk Modulus (GPa) = 49.91205 68.77242 59.34223
# Shear Modulus (GPa) = 33.52142 45.13304 39.32723
#
# Velocity S-wave (km/s) = 3.51492 4.07852 3.80716
# Velocity P-wave (km/s) = 5.90496 6.89390 6.41851
#
# Compressibility (1/GPa) = 0.02003524
#
# Stress axis : x y z
#
# Youngs Moduli (GPa) = 99.86964 65.76046 83.77936
#
# Poissons Ratio (x) = 0.08032 0.24037
# Poissons Ratio (y) = 0.12198 0.37448
# Poissons Ratio (z) = 0.28653 0.29394
#
# Static dielectric constant tensor:
#      x y z
#    x 2.140940 0.084760 0.084740 
#    y 0.084760 2.229450 0.024290 
#    z 0.084740 0.024290 2.129770 
# 
# From -- ./inp_files/15281.got.cif
#   From: 2010.05.17/outbox.cif.g08.bks.cpg/sg2_8_cif.got.tgz:15281.got - 2010.06.03 11:33:40.
