data_PCOD9106086
_publ_section_title
;
Structure prediction by ZEFSAII (Michael W. Deem and Ramdas Pophale) SiO2 
 PCOD9106086
Probable space group: P -1
;
_chemical_formula_sum "Si O2"
_cell_formula_units_Z 16
_cell_length_a 20.796917
_cell_length_b 8.456714
_cell_length_c 15.466783
_cell_angle_alpha 70.582669
_cell_angle_beta 162.311535
_cell_angle_gamma 117.568757
_cell_volume 670.604343
_symmetry_space_group_name_H-M "P -1"
_symmetry_group_IT_number 2
_symmetry_cell_setting 'triclinic'
loop_
_space_group_symop_operation_xyz
x,y,z
-x,-y,-z
loop_
_atom_site_type_symbol
_atom_site_label
_atom_site_fract_x
_atom_site_fract_y
_atom_site_fract_z
Si Si1 0.825858 0.942265 0.923211
Si Si2 0.410697 0.477292 0.290349
Si Si3 0.373259 0.153857 0.016940
Si Si4 0.828145 0.128963 0.057012
Si Si5 0.766185 0.530799 0.236749
Si Si6 0.313929 0.838107 0.856728
Si Si7 0.891040 0.454993 0.601153
Si Si8 0.318799 0.099237 0.454543
O O1 0.632689 0.731130 0.752792
O O2 0.769136 0.954216 0.748111
O O3 0.098486 0.971038 0.261018
O O4 0.816238 0.094302 0.946534
O O5 0.500000 0.500000 0.500000
O O6 0.614072 0.681167 0.475057
O O7 0.146438 0.459604 0.942192
O O8 0.663557 0.272501 0.389128
O O9 0.185207 0.049060 0.874348
O O10 0.347019 0.332233 0.914660
O O11 0.318484 0.977279 0.914189
O O12 0.581208 0.115379 0.781061
O O13 0.054550 0.338044 0.330619
O O14 0.618766 0.335835 0.023946
O O15 0.823893 0.459311 0.414058
O O16 0.025005 0.690685 0.496502
O O17 0.500000 0.000000 0.000000
#
# Coordination Sequence:
#
# PCOD9106086 Si02
#       8
#     2   2   2   2   2   2   2   2
#     4  10  20  39  67  93 123 177 219 270 345 398
#     4   9  20  40  65  95 132 168 217 281 333 399
#     4  12  25  45  65  97 144 175 226 291 338 404
#     4  11  24  40  61  98 134 171 219 279 342 401
#     4  11  25  45  66  99 134 180 234 278 337 410
#     4  11  24  43  71  95 131 189 226 282 345 399
#     4  11  23  42  65  95 135 177 227 280 336 414
#     4   9  20  41  64  91 130 168 223 277 324 408
#
# _framework density 23.859074
#
# number of rings (size 3 to 8) (size 9 to 14) (size 15 to 20)
#    0.000    1.500    2.500    1.875    0.000    3.000 
#    6.750    0.000    0.000   11.250    0.000    0.000 
#    0.000    0.000    0.000    0.000    0.000    0.000 
#
# Total GULP energy -89155.865012 kJ/mol
# GULP energy per Si atom -5572.241563 kJ/mol
# Density = 2.380477 g / cm^3
# Si number density = 23.859074 Si / 1000 Ang^3
#
#
#
# Elastic Constant Matrix: (Units=GPa)
#
#
# Indices 1 2 3 4 5 6 
#
# 1 55.6434 24.2352 5.8313 21.2097 2.4685 -7.5779
# 2 24.2352 105.2966 30.9798 33.5769 -4.4546 -5.5250
# 3 5.8313 30.9798 51.2260 16.8294 7.6629 -0.3168
# 4 21.2097 33.5769 16.8294 54.3630 3.7373 3.7236
# 5 2.4685 -4.4546 7.6629 3.7373 22.6535 8.1148
# 6 -7.5779 -5.5250 -0.3168 3.7236 8.1148 30.8362
#
#
#
# Elastic Compliance Matrix: (Units=1/GPa)
#
#
# Indices 1 2 3 4 5 6 
#
# 1 0.023586 -0.003594 0.003038 -0.008054 -0.005720 0.007661
# 2 -0.003594 0.014724 -0.007553 -0.005851 0.006573 0.000654
# 3 0.003038 -0.007553 0.026862 -0.004274 -0.011332 0.003168
# 4 -0.008054 -0.005851 -0.004274 0.026964 -0.001114 -0.006034
# 5 -0.005720 0.006573 -0.011332 -0.001114 0.055371 -0.014781
# 6 0.007661 0.000654 0.003168 -0.006034 -0.014781 0.039080
#
#
# Mechanical properties :
#
#
# Convention : Reuss Voigt Hill
#
# Bulk Modulus (GPa) = 20.42728 37.13984 28.78356
# Shear Modulus (GPa) = 22.81817 31.64517 27.23167
#
# Velocity S-wave (km/s) = 3.09588 3.64584 3.38206
# Velocity P-wave (km/s) = 4.62164 5.77261 5.22889
#
# Compressibility (1/GPa) = 0.04895415
#
# Stress axis : x y z
#
# Youngs Moduli (GPa) = 42.39859 67.91454 37.22710
#
# Poissons Ratio (x) = 0.24408 -0.11309
# Poissons Ratio (y) = 0.15238 0.28117
# Poissons Ratio (z) = -0.12879 0.51294
#
# Static dielectric constant tensor:
#      x y z
#    x 1.936530 0.003950 -0.040570 
#    y 0.003950 2.098400 -0.124640 
#    z -0.040570 -0.124640 1.994290 
# 
# From -- ./inp_files/540470.got.cif
#   From: 2010.05.17/outbox.cif.g08.bks.cpg/sg2_271_cif.got.tgz:540470.got - 2010.06.03 11:33:40.
