data_PCOD9106418
_publ_section_title
;
Structure prediction by ZEFSAII (Michael W. Deem and Ramdas Pophale) SiO2 
 PCOD9106418
Probable space group: P -1
;
_chemical_formula_sum "Si O2"
_cell_formula_units_Z 16
_cell_length_a 19.917645
_cell_length_b 5.174829
_cell_length_c 22.713651
_cell_angle_alpha 130.853885
_cell_angle_beta 155.757914
_cell_angle_gamma 51.356372
_cell_volume 724.097626
_symmetry_space_group_name_H-M "P -1"
_symmetry_group_IT_number 2
_symmetry_cell_setting 'triclinic'
loop_
_space_group_symop_operation_xyz
x,y,z
-x,-y,-z
loop_
_atom_site_type_symbol
_atom_site_label
_atom_site_fract_x
_atom_site_fract_y
_atom_site_fract_z
Si Si1 0.074110 0.096735 0.260305
Si Si2 0.693506 0.019278 0.163933
Si Si3 0.881333 0.300182 0.244118
Si Si4 0.846306 0.604666 0.434157
Si Si5 0.695179 0.295748 0.440918
Si Si6 0.370479 0.670378 0.481787
Si Si7 0.073630 0.852430 0.097378
Si Si8 0.451113 0.815913 0.363651
O O1 0.167529 0.437998 0.399004
O O2 0.927516 0.098891 0.190320
O O3 0.206241 0.765222 0.327753
O O4 0.034122 0.089364 0.158368
O O5 0.780002 0.112993 0.185030
O O6 0.727017 0.313425 0.282174
O O7 0.781866 0.659552 0.202796
O O8 0.500000 0.000000 0.000000
O O9 0.057578 0.368082 0.423648
O O10 0.000000 0.500000 0.500000
O O11 0.758398 0.979583 0.404311
O O12 0.665305 0.122748 0.454960
O O13 0.524341 0.530544 0.331403
O O14 0.426657 0.305885 0.502217
O O15 0.516682 0.826777 0.587442
O O16 0.268042 0.787794 0.232223
O O17 0.000000 0.500000 0.000000
O O18 0.000000 0.000000 0.000000
#
# Coordination Sequence:
#
# PCOD9106418 Si02
#       8
#     2   2   2   2   2   2   2   2
#     4  11  23  42  72  97 131 169 235 282 343 406
#     4  11  25  43  64 103 143 184 221 276 345 416
#     4  11  22  43  70  97 131 182 235 281 340 398
#     4  10  20  39  70 101 136 170 228 286 330 401
#     4   9  20  39  67 102 124 167 216 290 344 381
#     4   9  19  36  67  96 122 156 211 286 343 377
#     4  12  29  45  65  92 137 185 231 271 337 421
#     4   9  20  42  61  93 128 163 218 274 342 395
#
# _framework density 22.096468000000002
#
# number of rings (size 3 to 8) (size 9 to 14) (size 15 to 20)
#    0.750    1.000    1.250    3.000    1.750    3.500 
#    2.250    1.250    0.000    0.000    0.000    0.000 
#    0.000    0.000    0.000    0.000    0.000    0.000 
#
# Total GULP energy -89262.583047 kJ/mol
# GULP energy per Si atom -5578.911440 kJ/mol
# Density = 2.204618 g / cm^3
# Si number density = 22.096468 Si / 1000 Ang^3
#
#
#
# Elastic Constant Matrix: (Units=GPa)
#
#
# Indices 1 2 3 4 5 6 
#
# 1 138.1581 38.3692 35.9692 4.0203 8.0307 9.4106
# 2 38.3692 128.9628 40.8171 -11.6888 6.5544 5.3697
# 3 35.9692 40.8171 104.2336 -3.5143 17.4404 1.5008
# 4 4.0203 -11.6888 -3.5143 19.6181 4.4937 -3.3987
# 5 8.0307 6.5544 17.4404 4.4937 35.3038 0.1220
# 6 9.4106 5.3697 1.5008 -3.3987 0.1220 46.9199
#
#
#
# Elastic Compliance Matrix: (Units=1/GPa)
#
#
# Indices 1 2 3 4 5 6 
#
# 1 0.008638 -0.002126 -0.002254 -0.003739 0.000025 -0.001688
# 2 -0.002126 0.009856 -0.002803 0.005939 -0.000717 -0.000180
# 3 -0.002254 -0.002803 0.012447 0.002360 -0.005418 0.000560
# 4 -0.003739 0.005939 0.002360 0.058471 -0.008875 0.004253
# 5 0.000025 -0.000717 -0.005418 -0.008875 0.032261 -0.000476
# 6 -0.001688 -0.000180 0.000560 0.004253 -0.000476 0.021963
#
#
# Mechanical properties :
#
#
# Convention : Reuss Voigt Hill
#
# Bulk Modulus (GPa) = 60.33409 66.85173 63.59291
# Shear Modulus (GPa) = 30.57577 37.44828 34.01203
#
# Velocity S-wave (km/s) = 3.72390 4.12122 3.92759
# Velocity P-wave (km/s) = 6.77156 7.27778 7.02923
#
# Compressibility (1/GPa) = 0.01657438
#
# Stress axis : x y z
#
# Youngs Moduli (GPa) = 115.77063 101.45862 80.33801
#
# Poissons Ratio (x) = 0.21574 0.18108
# Poissons Ratio (y) = 0.24618 0.22519
# Poissons Ratio (z) = 0.26095 0.28440
#
# Static dielectric constant tensor:
#      x y z
#    x 1.920070 -0.083630 -0.055850 
#    y -0.083630 1.930650 0.037660 
#    z -0.055850 0.037660 1.807860 
# 
# From -- ./inp_files/598964.got.cif
#   From: 2010.05.17/outbox.cif.g08.bks.cpg/sg2_300_cif.got.tgz:598964.got - 2010.06.03 11:33:40.
