data_PCOD9106699
_publ_section_title
;
Structure prediction by ZEFSAII (Michael W. Deem and Ramdas Pophale) SiO2 
 PCOD9106699
Probable space group: P -1
;
_chemical_formula_sum "Si O2"
_cell_formula_units_Z 16
_cell_length_a 15.506377
_cell_length_b 14.362066
_cell_length_c 21.533207
_cell_angle_alpha 23.150182
_cell_angle_beta 157.666176
_cell_angle_gamma 145.525216
_cell_volume 705.385651
_symmetry_space_group_name_H-M "P -1"
_symmetry_group_IT_number 2
_symmetry_cell_setting 'triclinic'
loop_
_space_group_symop_operation_xyz
x,y,z
-x,-y,-z
loop_
_atom_site_type_symbol
_atom_site_label
_atom_site_fract_x
_atom_site_fract_y
_atom_site_fract_z
Si Si1 0.148770 0.314902 0.935190
Si Si2 0.164160 0.007286 0.023822
Si Si3 0.661722 0.196328 0.979570
Si Si4 0.142334 0.398372 0.093156
Si Si5 0.978217 0.249590 0.496681
Si Si6 0.394651 0.837503 0.603982
Si Si7 0.316177 0.668562 0.230966
Si Si8 0.829910 0.421587 0.487225
O O1 0.082313 0.592351 0.702067
O O2 0.268790 0.164133 0.047830
O O3 0.335237 0.231714 0.162401
O O4 0.916619 0.215687 0.858720
O O5 0.287873 0.917446 0.097817
O O6 0.942246 0.190457 0.742818
O O7 0.670333 0.423199 0.890941
O O8 0.619985 0.290574 0.822969
O O9 0.500000 0.000000 0.000000
O O10 0.910934 0.028226 0.262093
O O11 0.278464 0.121401 0.352094
O O12 0.000000 0.500000 0.000000
O O13 0.936229 0.410586 0.897313
O O14 0.745143 0.269073 0.368903
O O15 0.164363 0.370892 0.585604
O O16 0.352285 0.686833 0.607883
O O17 0.500000 0.500000 0.500000
O O18 0.000000 0.500000 0.500000
#
# Coordination Sequence:
#
# PCOD9106699 Si02
#       8
#     2   2   2   2   2   2   2   2
#     4  10  24  34  64  95 124 175 201 277 319 394
#     4  10  21  41  55  92 134 158 218 259 333 377
#     4  11  25  44  69  96 130 180 221 268 332 390
#     4  10  21  41  65  94 129 173 219 271 318 397
#     4  10  20  40  60  87 134 162 215 265 328 388
#     4  11  19  39  64  92 123 163 226 257 336 382
#     4  11  23  41  70  94 126 176 217 271 326 386
#     4   9  18  35  61  84 120 162 200 266 320 376
#
# _framework density 22.682628000000001
#
# number of rings (size 3 to 8) (size 9 to 14) (size 15 to 20)
#    0.000    1.750    3.750    1.125    5.250    2.500 
#    2.250    1.875    0.000    0.000    0.000    0.000 
#    0.000    0.000    0.000    0.000    0.000    0.000 
#
# Total GULP energy -89110.854760 kJ/mol
# GULP energy per Si atom -5569.428423 kJ/mol
# Density = 2.263100 g / cm^3
# Si number density = 22.682628 Si / 1000 Ang^3
#
#
#
# Elastic Constant Matrix: (Units=GPa)
#
#
# Indices 1 2 3 4 5 6 
#
# 1 59.4992 25.8395 37.6487 -10.6385 -11.1201 -3.8006
# 2 25.8395 124.9625 49.1181 3.8165 -15.2734 -9.7175
# 3 37.6487 49.1181 120.8198 -9.1108 -22.3683 -9.2867
# 4 -10.6385 3.8165 -9.1108 36.3460 -1.7796 -6.4178
# 5 -11.1201 -15.2734 -22.3683 -1.7796 32.2057 -6.5236
# 6 -3.8006 -9.7175 -9.2867 -6.4178 -6.5236 43.0064
#
#
#
# Elastic Compliance Matrix: (Units=1/GPa)
#
#
# Indices 1 2 3 4 5 6 
#
# 1 0.022903 -0.002386 -0.004746 0.006334 0.004246 0.002049
# 2 -0.002386 0.010118 -0.003054 -0.002181 0.002016 0.001396
# 3 -0.004746 -0.003054 0.012655 0.002960 0.006484 0.003048
# 4 0.006334 -0.002181 0.002960 0.031774 0.006260 0.006397
# 5 0.004246 0.002016 0.006484 0.006260 0.040198 0.009262
# 6 0.002049 0.001396 0.003048 0.006397 0.009262 0.026767
#
#
# Mechanical properties :
#
#
# Convention : Reuss Voigt Hill
#
# Bulk Modulus (GPa) = 39.51754 58.94379 49.23067
# Shear Modulus (GPa) = 28.86513 35.15664 32.01089
#
# Velocity S-wave (km/s) = 3.57117 3.94119 3.76074
# Velocity P-wave (km/s) = 5.87062 6.83765 6.37250
#
# Compressibility (1/GPa) = 0.02530522
#
# Stress axis : x y z
#
# Youngs Moduli (GPa) = 43.66269 98.83789 79.02066
#
# Poissons Ratio (x) = 0.23579 0.37501
# Poissons Ratio (y) = 0.10416 0.24131
# Poissons Ratio (z) = 0.20721 0.30183
#
# Static dielectric constant tensor:
#      x y z
#    x 1.778900 0.164470 0.057360 
#    y 0.164470 1.815590 0.026430 
#    z 0.057360 0.026430 1.876340 
# 
# From -- ./inp_files/277227.got.cif
#   From: 2010.05.17/outbox.cif.g08.bks.cpg/sg2_139_cif.got.tgz:277227.got - 2010.06.03 11:33:40.
