data_PCOD9106675
_publ_section_title
;
Structure prediction by ZEFSAII (Michael W. Deem and Ramdas Pophale) SiO2 
 PCOD9106675
Probable space group: P -1
;
_chemical_formula_sum "Si O2"
_cell_formula_units_Z 16
_cell_length_a 17.052001
_cell_length_b 21.781845
_cell_length_c 11.436415
_cell_angle_alpha 160.628976
_cell_angle_beta 31.189151
_cell_angle_gamma 155.939324
_cell_volume 573.861399
_symmetry_space_group_name_H-M "P -1"
_symmetry_group_IT_number 2
_symmetry_cell_setting 'triclinic'
loop_
_space_group_symop_operation_xyz
x,y,z
-x,-y,-z
loop_
_atom_site_type_symbol
_atom_site_label
_atom_site_fract_x
_atom_site_fract_y
_atom_site_fract_z
Si Si1 0.585559 0.580766 0.207144
Si Si2 0.933695 0.325346 0.160817
Si Si3 0.441415 0.883609 0.648569
Si Si4 0.961661 0.875570 0.147303
Si Si5 0.760946 0.597271 0.252639
Si Si6 0.816614 0.065667 0.387500
Si Si7 0.837922 0.655989 0.685516
Si Si8 0.409485 0.103894 0.867500
O O1 0.747464 0.789391 0.292309
O O2 0.649313 0.608630 0.308408
O O3 0.577950 0.354551 0.775147
O O4 0.388766 0.545664 0.390215
O O5 0.704647 0.181106 0.175134
O O6 0.000000 0.500000 0.500000
O O7 0.973066 0.156410 0.869112
O O8 0.083123 0.429024 0.048107
O O9 0.670154 0.070992 0.665422
O O10 0.351272 0.958478 0.800599
O O11 0.928650 0.692177 0.762149
O O12 0.113531 0.141205 0.387655
O O13 0.590157 0.377124 0.148364
O O14 0.846273 0.886694 0.082624
O O15 0.725991 0.944366 0.156682
O O16 0.022103 0.310348 0.533508
O O17 0.500000 0.000000 0.500000
#
# Coordination Sequence:
#
# PCOD9106675 Si02
#       8
#     2   2   2   2   2   2   2   2
#     4  10  18  37  57  87 114 158 193 241 279 356
#     4  11  18  35  58  87 114 156 192 237 288 351
#     4  10  18  32  60  88 111 141 210 243 274 325
#     4  11  23  35  57  95 125 145 188 253 306 338
#     4  11  21  36  59  93 123 147 189 253 305 330
#     4   9  18  33  57  82 112 150 206 240 270 337
#     4  10  19  34  57  84 118 158 197 232 290 353
#     4  10  16  34  59  87 112 148 194 246 277 339
#
# _framework density 27.881295999999999
#
# number of rings (size 3 to 8) (size 9 to 14) (size 15 to 20)
#    0.000    1.750    6.250    2.625    0.000    1.000 
#    0.000    2.500    2.750    9.750    6.500    0.000 
#    0.000    0.000    0.000    0.000    0.000    0.000 
#
# Total GULP energy -89303.473700 kJ/mol
# GULP energy per Si atom -5581.467106 kJ/mol
# Density = 2.781784 g / cm^3
# Si number density = 27.881296 Si / 1000 Ang^3
#
#
#
# Elastic Constant Matrix: (Units=GPa)
#
#
# Indices 1 2 3 4 5 6 
#
# 1 76.4301 24.4600 6.2595 -1.0007 -31.1694 7.1192
# 2 24.4600 190.2322 9.9585 -1.0578 6.0923 15.0968
# 3 6.2595 9.9585 70.5992 -1.3724 -1.4421 0.5463
# 4 -1.0007 -1.0578 -1.3724 53.8867 -4.4570 -4.9846
# 5 -31.1694 6.0923 -1.4421 -4.4570 23.5708 2.9798
# 6 7.1192 15.0968 0.5463 -4.9846 2.9798 34.7823
#
#
#
# Elastic Compliance Matrix: (Units=1/GPa)
#
#
# Indices 1 2 3 4 5 6 
#
# 1 0.037487 -0.005700 -0.001289 0.004082 0.052892 -0.009125
# 2 -0.005700 0.006386 -0.000594 -0.000848 -0.009267 -0.000923
# 3 -0.001289 -0.000594 0.014352 0.000312 -0.000665 0.000398
# 4 0.004082 -0.000848 0.000312 0.019523 0.009133 0.001543
# 5 0.052892 -0.009267 -0.000665 0.009133 0.118426 -0.015630
# 6 -0.009125 -0.000923 0.000398 0.001543 -0.015630 0.032573
#
#
# Mechanical properties :
#
#
# Convention : Reuss Voigt Hill
#
# Bulk Modulus (GPa) = 23.22405 46.51307 34.86856
# Shear Modulus (GPa) = 19.35998 42.22019 30.79008
#
# Velocity S-wave (km/s) = 2.63795 3.89560 3.32675
# Velocity P-wave (km/s) = 4.19834 6.07890 5.22394
#
# Compressibility (1/GPa) = 0.04305882
#
# Stress axis : x y z
#
# Youngs Moduli (GPa) = 26.67597 156.59131 69.67680
#
# Poissons Ratio (x) = 0.89251 0.08984
# Poissons Ratio (y) = 0.15204 0.04139
# Poissons Ratio (z) = 0.03440 0.09303
#
# Static dielectric constant tensor:
#      x y z
#    x 2.348570 -0.006010 -0.057540 
#    y -0.006010 2.291060 0.021010 
#    z -0.057540 0.021010 2.171690 
# 
# From -- ./inp_files/541867.got.cif
#   From: 2010.05.17/outbox.cif.g08.bks.cpg/sg2_271_cif.got.tgz:541867.got - 2010.06.03 11:33:40.
