data_PCOD9106047
_publ_section_title
;
Structure prediction by ZEFSAII (Michael W. Deem and Ramdas Pophale) SiO2 
 PCOD9106047
Probable space group: P -1
;
_chemical_formula_sum "Si O2"
_cell_formula_units_Z 16
_cell_length_a 9.947217
_cell_length_b 11.713922
_cell_length_c 21.295355
_cell_angle_alpha 39.477161
_cell_angle_beta 140.757573
_cell_angle_gamma 109.325423
_cell_volume 746.630027
_symmetry_space_group_name_H-M "P -1"
_symmetry_group_IT_number 2
_symmetry_cell_setting 'triclinic'
loop_
_space_group_symop_operation_xyz
x,y,z
-x,-y,-z
loop_
_atom_site_type_symbol
_atom_site_label
_atom_site_fract_x
_atom_site_fract_y
_atom_site_fract_z
Si Si1 0.132620 0.500580 0.710252
Si Si2 0.065353 0.666542 0.933679
Si Si3 0.266398 0.566153 0.436439
Si Si4 0.137365 0.862713 0.385417
Si Si5 0.299196 0.926299 0.122540
Si Si6 0.299162 0.007389 0.725145
Si Si7 0.597464 0.378050 0.154590
Si Si8 0.571097 0.349865 0.833282
O O1 0.189253 0.595618 0.749910
O O2 0.415442 0.342585 0.838451
O O3 0.982561 0.394188 0.708857
O O4 0.919414 0.720750 0.492412
O O5 0.339943 0.503071 0.056963
O O6 0.156140 0.708459 0.013933
O O7 0.848284 0.929013 0.709747
O O8 0.000000 0.500000 0.000000
O O9 0.500000 0.500000 0.500000
O O10 0.142713 0.770488 0.357331
O O11 0.459179 0.324464 0.649344
O O12 0.378679 0.616633 0.617159
O O13 0.847394 0.993511 0.265101
O O14 0.394568 0.075221 0.113133
O O15 0.354214 0.847261 0.104149
O O16 0.000000 0.000000 0.000000
O O17 0.293535 0.876944 0.719009
O O18 0.500000 0.500000 0.000000
#
# Coordination Sequence:
#
# PCOD9106047 Si02
#       8
#     2   2   2   2   2   2   2   2
#     4   9  20  40  64  88 122 167 211 264 306 381
#     4  11  25  41  64  91 131 168 211 271 315 379
#     4  10  22  39  61  94 126 161 210 261 323 382
#     4  10  21  43  65  89 126 165 214 263 316 386
#     4  10  22  37  61  94 128 162 202 268 324 372
#     4  10  20  39  67  88 123 171 212 261 314 377
#     4  11  22  40  59  94 125 163 223 254 312 381
#     4   9  21  42  63  91 123 164 215 254 322 378
#
# _framework density 21.429621000000001
#
# number of rings (size 3 to 8) (size 9 to 14) (size 15 to 20)
#    0.000    2.000    1.250    1.125    3.500    5.500 
#    2.250    1.875    0.000    0.000    0.000    0.000 
#    0.000    0.000    0.000    0.000    0.000    0.000 
#
# Total GULP energy -89102.048779 kJ/mol
# GULP energy per Si atom -5568.878049 kJ/mol
# Density = 2.138085 g / cm^3
# Si number density = 21.429621 Si / 1000 Ang^3
#
#
#
# Elastic Constant Matrix: (Units=GPa)
#
#
# Indices 1 2 3 4 5 6 
#
# 1 90.3758 65.2429 18.8855 9.2200 -3.1313 -2.0794
# 2 65.2429 134.0354 30.2476 17.9820 8.6634 -2.5340
# 3 18.8855 30.2476 64.6657 3.4831 -8.1959 11.3318
# 4 9.2200 17.9820 3.4831 38.8576 -1.9416 -3.9118
# 5 -3.1313 8.6634 -8.1959 -1.9416 24.2821 -2.5881
# 6 -2.0794 -2.5340 11.3318 -3.9118 -2.5881 39.3177
#
#
#
# Elastic Compliance Matrix: (Units=1/GPa)
#
#
# Indices 1 2 3 4 5 6 
#
# 1 0.017786 -0.008918 -0.000510 0.000314 0.005424 0.000901
# 2 -0.008918 0.014013 -0.004898 -0.004242 -0.008047 0.000891
# 3 -0.000510 -0.004898 0.019836 0.000447 0.007826 -0.005500
# 4 0.000314 -0.004242 0.000447 0.028065 0.004235 0.002685
# 5 0.005424 -0.008047 0.007826 0.004235 0.047849 0.001084
# 6 0.000901 0.000891 -0.005500 0.002685 0.001084 0.027463
#
#
# Mechanical properties :
#
#
# Convention : Reuss Voigt Hill
#
# Bulk Modulus (GPa) = 43.51107 57.53655 50.52381
# Shear Modulus (GPa) = 26.13353 32.13822 29.13587
#
# Velocity S-wave (km/s) = 3.49593 3.87681 3.69129
# Velocity P-wave (km/s) = 6.05340 6.85178 6.46493
#
# Compressibility (1/GPa) = 0.02298266
#
# Stress axis : x y z
#
# Youngs Moduli (GPa) = 56.22313 71.36201 50.41410
#
# Poissons Ratio (x) = 0.63642 0.02573
# Poissons Ratio (y) = 0.50141 0.24691
# Poissons Ratio (z) = 0.02869 0.34951
#
# Static dielectric constant tensor:
#      x y z
#    x 1.759590 0.037800 -0.001650 
#    y 0.037800 1.953050 -0.086240 
#    z -0.001650 -0.086240 1.866200 
# 
# From -- ./inp_files/187871.got.cif
#   From: 2010.05.17/outbox.cif.g08.bks.cpg/sg2_94_cif.got.tgz:187871.got - 2010.06.03 11:33:40.
