data_PCOD9106338
_publ_section_title
;
Structure prediction by ZEFSAII (Michael W. Deem and Ramdas Pophale) SiO2 
 PCOD9106338
Probable space group: P -1
;
_chemical_formula_sum "Si O2"
_cell_formula_units_Z 16
_cell_length_a 12.789987
_cell_length_b 8.214640
_cell_length_c 14.009705
_cell_angle_alpha 53.693900
_cell_angle_beta 54.509487
_cell_angle_gamma 35.261416
_cell_volume 669.707922
_symmetry_space_group_name_H-M "P -1"
_symmetry_group_IT_number 2
_symmetry_cell_setting 'triclinic'
loop_
_space_group_symop_operation_xyz
x,y,z
-x,-y,-z
loop_
_atom_site_type_symbol
_atom_site_label
_atom_site_fract_x
_atom_site_fract_y
_atom_site_fract_z
Si Si1 0.280538 0.983771 0.498081
Si Si2 0.409881 0.098168 0.117283
Si Si3 0.067297 0.857428 0.409550
Si Si4 0.418863 0.243210 0.379042
Si Si5 0.396153 0.793386 0.893068
Si Si6 0.901571 0.354357 0.190755
Si Si7 0.520189 0.587643 0.334058
Si Si8 0.024402 0.672197 0.052815
O O1 0.375485 0.763407 0.435463
O O2 0.383942 0.742566 0.613075
O O3 0.311513 0.184915 0.398175
O O4 0.067345 0.168344 0.545659
O O5 0.543981 0.076947 0.121954
O O6 0.204863 0.432722 0.107029
O O7 0.417661 0.850039 0.222527
O O8 0.500000 0.000000 0.000000
O O9 0.273724 0.547257 0.404836
O O10 0.000000 0.000000 0.500000
O O11 0.046630 0.054733 0.274234
O O12 0.530205 0.240604 0.240618
O O13 0.500000 0.000000 0.500000
O O14 0.174169 0.001633 0.929747
O O15 0.500000 0.500000 0.000000
O O16 0.706188 0.507655 0.285069
O O17 0.955569 0.522351 0.121169
O O18 0.904553 0.315319 0.089222
#
# Coordination Sequence:
#
# PCOD9106338 Si02
#       8
#     2   2   2   2   2   2   2   2
#     4  10  23  43  70  95 146 188 238 302 363 434
#     4  12  23  41  76 107 141 191 250 290 366 442
#     4  11  27  43  72 104 140 192 250 298 372 443
#     4  12  28  48  71 106 149 195 243 309 380 429
#     4  12  28  51  69 103 158 191 242 315 365 438
#     4  10  20  41  64 102 146 175 238 299 354 428
#     4  10  20  39  69 101 141 185 233 301 359 422
#     4  11  22  40  73 101 139 195 236 293 365 435
#
# _framework density 23.891010999999999
#
# number of rings (size 3 to 8) (size 9 to 14) (size 15 to 20)
#    0.000    1.000    3.750    1.875    8.750    1.500 
#    2.250    0.000    0.000    0.000    0.000    0.000 
#    0.000    0.000    0.000    0.000    0.000    0.000 
#
# Total GULP energy -89291.156931 kJ/mol
# GULP energy per Si atom -5580.697308 kJ/mol
# Density = 2.383663 g / cm^3
# Si number density = 23.891011 Si / 1000 Ang^3
#
#
#
# Elastic Constant Matrix: (Units=GPa)
#
#
# Indices 1 2 3 4 5 6 
#
# 1 42.9294 14.4857 1.4503 7.4478 3.3336 -27.5394
# 2 14.4857 115.5095 30.9599 -11.7803 10.4628 -28.9859
# 3 1.4503 30.9599 135.0657 -15.6514 13.1857 -2.7542
# 4 7.4478 -11.7803 -15.6514 46.9189 0.8514 -0.8235
# 5 3.3336 10.4628 13.1857 0.8514 35.1006 -1.4800
# 6 -27.5394 -28.9859 -2.7542 -0.8235 -1.4800 52.6754
#
#
#
# Elastic Compliance Matrix: (Units=1/GPa)
#
#
# Indices 1 2 3 4 5 6 
#
# 1 0.036636 -0.000093 -0.000404 -0.005599 -0.002366 0.018927
# 2 -0.000093 0.011130 -0.001927 0.002314 -0.002390 0.005944
# 3 -0.000404 -0.001927 0.008367 0.002404 -0.002625 -0.000870
# 4 -0.005599 0.002314 0.002404 0.023594 -0.001684 -0.001206
# 5 -0.002366 -0.002390 -0.002625 -0.001684 0.030375 -0.001862
# 6 0.018927 0.005944 -0.000870 -0.001206 -0.001862 0.032034
#
#
# Mechanical properties :
#
#
# Convention : Reuss Voigt Hill
#
# Bulk Modulus (GPa) = 19.49932 43.03295 31.26613
# Shear Modulus (GPa) = 30.47300 43.37956 36.92628
#
# Velocity S-wave (km/s) = 3.57529 4.26576 3.93569
# Velocity P-wave (km/s) = 5.02226 6.50489 5.81105
#
# Compressibility (1/GPa) = 0.05128385
#
# Stress axis : x y z
#
# Youngs Moduli (GPa) = 27.29542 89.85017 119.51672
#
# Poissons Ratio (x) = 0.00837 0.04827
# Poissons Ratio (y) = 0.00254 0.23037
# Poissons Ratio (z) = 0.01102 0.17318
#
# Static dielectric constant tensor:
#      x y z
#    x 2.079570 0.035410 0.029050 
#    y 0.035410 1.978620 -0.088090 
#    z 0.029050 -0.088090 1.951160 
# 
# From -- ./inp_files/529399.got.cif
#   From: 2010.05.17/outbox.cif.g08.bks.cpg/sg2_265_cif.got.tgz:529399.got - 2010.06.03 11:33:40.
