data_PCOD9106590
_publ_section_title
;
Structure prediction by ZEFSAII (Michael W. Deem and Ramdas Pophale) SiO2 
 PCOD9106590
Probable space group: P -1
;
_chemical_formula_sum "Si O2"
_cell_formula_units_Z 16
_cell_length_a 23.454575
_cell_length_b 18.083230
_cell_length_c 5.945522
_cell_angle_alpha 52.846990
_cell_angle_beta 54.218772
_cell_angle_gamma 20.678600
_cell_volume 707.999897
_symmetry_space_group_name_H-M "P -1"
_symmetry_group_IT_number 2
_symmetry_cell_setting 'triclinic'
loop_
_space_group_symop_operation_xyz
x,y,z
-x,-y,-z
loop_
_atom_site_type_symbol
_atom_site_label
_atom_site_fract_x
_atom_site_fract_y
_atom_site_fract_z
Si Si1 0.058539 0.300826 0.156512
Si Si2 0.989753 0.211809 0.164686
Si Si3 0.695787 0.527519 0.969350
Si Si4 0.330415 0.811031 0.939885
Si Si5 0.630168 0.031499 0.246630
Si Si6 0.128666 0.791370 0.232853
Si Si7 0.592628 0.473421 0.603342
Si Si8 0.134853 0.322934 0.325758
O O1 0.027362 0.240578 0.220976
O O2 0.092360 0.276748 0.384285
O O3 0.904331 0.548575 0.993604
O O4 0.224846 0.140032 0.953482
O O5 0.822641 0.426054 0.027700
O O6 0.970503 0.136526 0.468280
O O7 0.137672 0.034493 0.977450
O O8 0.634998 0.504049 0.274014
O O9 0.545092 0.772844 0.813139
O O10 0.788172 0.384906 0.793765
O O11 0.377727 0.854724 0.845803
O O12 0.417964 0.696531 0.709298
O O13 0.389845 0.656555 0.250563
O O14 0.692766 0.891031 0.559996
O O15 0.276609 0.669785 0.230899
O O16 0.000000 0.000000 0.000000
O O17 0.000000 0.500000 0.500000
#
# Coordination Sequence:
#
# PCOD9106590 Si02
#       8
#     2   2   2   2   2   2   2   2
#     4   9  20  39  63  93 116 157 197 254 305 360
#     4  10  23  40  61  89 124 160 212 247 305 369
#     4  11  23  40  57  88 127 170 200 250 310 366
#     4  10  20  40  57  88 117 162 215 264 288 351
#     4  10  21  36  61  90 120 160 202 250 309 364
#     4  11  22  38  57  83 124 175 206 253 309 357
#     4  10  22  38  57  83 127 161 215 258 300 355
#     4   9  19  37  64  92 123 145 197 249 312 369
#
# _framework density 22.598873999999999
#
# number of rings (size 3 to 8) (size 9 to 14) (size 15 to 20)
#    0.000    2.000    1.250    1.500    1.750    6.500 
#    9.000    0.625    0.000    7.500    0.000    0.000 
#    0.000    0.000    0.000    0.000    0.000    0.000 
#
# Total GULP energy -89393.668217 kJ/mol
# GULP energy per Si atom -5587.104264 kJ/mol
# Density = 2.254744 g / cm^3
# Si number density = 22.598874 Si / 1000 Ang^3
#
#
#
# Elastic Constant Matrix: (Units=GPa)
#
#
# Indices 1 2 3 4 5 6 
#
# 1 45.8577 26.2539 -3.3203 5.7150 12.1513 -1.8921
# 2 26.2539 131.0792 38.2386 -15.3441 6.3996 -17.8940
# 3 -3.3203 38.2386 50.0176 -1.8090 6.6860 -16.3036
# 4 5.7150 -15.3441 -1.8090 37.9765 -12.7202 8.5010
# 5 12.1513 6.3996 6.6860 -12.7202 23.0335 -2.8477
# 6 -1.8921 -17.8940 -16.3036 8.5010 -2.8477 42.6145
#
#
#
# Elastic Compliance Matrix: (Units=1/GPa)
#
#
# Indices 1 2 3 4 5 6 
#
# 1 0.047879 -0.016541 0.022599 -0.028402 -0.042082 0.006680
# 2 -0.016541 0.016135 -0.015657 0.014124 0.016381 -0.001672
# 3 0.022599 -0.015657 0.040530 -0.020205 -0.029008 0.012027
# 4 -0.028402 0.014124 -0.020205 0.052698 0.044718 -0.010585
# 5 -0.042082 0.016381 -0.029008 0.044718 0.093093 -0.008788
# 6 0.006680 -0.001672 0.012027 -0.010585 -0.008788 0.029186
#
#
# Mechanical properties :
#
#
# Convention : Reuss Voigt Hill
#
# Bulk Modulus (GPa) = 11.71695 38.81099 25.26397
# Shear Modulus (GPa) = 15.28271 31.77705 23.52988
#
# Velocity S-wave (km/s) = 2.60332 3.75391 3.23026
# Velocity P-wave (km/s) = 3.77258 6.00002 5.01162
#
# Compressibility (1/GPa) = 0.08534643
#
# Stress axis : x y z
#
# Youngs Moduli (GPa) = 20.88613 61.97850 24.67300
#
# Poissons Ratio (x) = 1.02516 -0.55759
# Poissons Ratio (y) = 0.34547 0.38630
# Poissons Ratio (z) = -0.47201 0.97039
#
# Static dielectric constant tensor:
#      x y z
#    x 1.869230 0.002090 0.009910 
#    y 0.002090 1.832790 -0.036100 
#    z 0.009910 -0.036100 1.889560 
# 
# From -- ./inp_files/52477.got.cif
#   From: 2010.05.17/outbox.cif.g08.bks.cpg/sg2_27_cif.got.tgz:52477.got - 2010.06.03 11:33:40.
