data_PCOD9106727
_publ_section_title
;
Structure prediction by ZEFSAII (Michael W. Deem and Ramdas Pophale) SiO2 
 PCOD9106727
Probable space group: P -1
;
_chemical_formula_sum "Si O2"
_cell_formula_units_Z 16
_cell_length_a 22.761183
_cell_length_b 10.136481
_cell_length_c 16.109477
_cell_angle_alpha 43.404306
_cell_angle_beta 18.319169
_cell_angle_gamma 44.267676
_cell_volume 796.715838
_symmetry_space_group_name_H-M "P -1"
_symmetry_group_IT_number 2
_symmetry_cell_setting 'triclinic'
loop_
_space_group_symop_operation_xyz
x,y,z
-x,-y,-z
loop_
_atom_site_type_symbol
_atom_site_label
_atom_site_fract_x
_atom_site_fract_y
_atom_site_fract_z
Si Si1 0.038218 0.272327 0.752457
Si Si2 0.702089 0.450225 0.022297
Si Si3 0.618540 0.847021 0.853559
Si Si4 0.959728 0.046303 0.228508
Si Si5 0.520996 0.724619 0.866780
Si Si6 0.197644 0.623519 0.816478
Si Si7 0.339204 0.917415 0.866262
Si Si8 0.513664 0.706130 0.469829
O O1 0.262054 0.264821 0.455822
O O2 0.993564 0.063620 0.872789
O O3 0.919405 0.407804 0.780946
O O4 0.953412 0.344930 0.921177
O O5 0.642503 0.276776 0.124495
O O6 0.577400 0.433999 0.279591
O O7 0.670082 0.648732 0.925203
O O8 0.500791 0.806376 0.948806
O O9 0.801467 0.935388 0.534163
O O10 0.500000 0.000000 0.000000
O O11 0.883502 0.263721 0.207190
O O12 0.137391 0.021953 0.061159
O O13 0.376713 0.841246 0.943957
O O14 0.500000 0.500000 0.000000
O O15 0.373673 0.725245 0.570291
O O16 0.287536 0.405667 0.775432
O O17 0.473880 0.086321 0.600477
#
# Coordination Sequence:
#
# PCOD9106727 Si02
#       8
#     2   2   2   2   2   2   2   2
#     4   9  21  36  63  86 117 162 206 249 300 372
#     4  10  21  38  62  90 122 163 208 247 306 367
#     4  11  23  42  65  89 123 167 206 249 305 375
#     4  10  22  38  63  89 124 162 207 249 304 370
#     4  11  23  41  63  89 121 162 204 259 304 360
#     4  10  20  40  60  91 122 164 204 250 310 364
#     4  11  23  39  60  91 122 158 207 259 309 355
#     4  10  21  37  63  90 126 158 202 256 308 363
#
# _framework density 20.082442
#
# number of rings (size 3 to 8) (size 9 to 14) (size 15 to 20)
#    0.000    1.750    1.250    3.000    1.750    7.000 
#    2.250    0.625    0.000    0.000    0.000    0.000 
#    0.000    0.000    0.000    0.000    0.000    0.000 
#
# Total GULP energy -89282.193158 kJ/mol
# GULP energy per Si atom -5580.137072 kJ/mol
# Density = 2.003673 g / cm^3
# Si number density = 20.082442 Si / 1000 Ang^3
#
#
#
# Elastic Constant Matrix: (Units=GPa)
#
#
# Indices 1 2 3 4 5 6 
#
# 1 122.2480 41.8343 27.3688 6.4367 -7.4427 -18.5324
# 2 41.8343 87.7972 21.2225 8.4949 0.2782 -6.0600
# 3 27.3688 21.2225 31.9992 6.2444 -1.2933 5.4770
# 4 6.4367 8.4949 6.2444 28.5248 2.9344 0.8382
# 5 -7.4427 0.2782 -1.2933 2.9344 28.1342 0.7104
# 6 -18.5324 -6.0600 5.4770 0.8382 0.7104 39.3010
#
#
#
# Elastic Compliance Matrix: (Units=1/GPa)
#
#
# Indices 1 2 3 4 5 6 
#
# 1 0.012660 -0.003202 -0.009700 -0.000266 0.002791 0.006783
# 2 -0.003202 0.014980 -0.007150 -0.002110 -0.001151 0.001862
# 3 -0.009700 -0.007150 0.047530 -0.005790 0.000601 -0.012188
# 4 -0.000266 -0.002110 -0.005790 0.037457 -0.004213 -0.000367
# 5 0.002791 -0.001151 0.000601 -0.004213 0.036749 0.000481
# 6 0.006783 0.001862 -0.012188 -0.000367 0.000481 0.030628
#
#
# Mechanical properties :
#
#
# Convention : Reuss Voigt Hill
#
# Bulk Modulus (GPa) = 28.51859 46.98842 37.75351
# Shear Modulus (GPa) = 21.57057 29.29992 25.43525
#
# Velocity S-wave (km/s) = 3.28090 3.82381 3.56271
# Velocity P-wave (km/s) = 5.34640 6.55316 5.98030
#
# Compressibility (1/GPa) = 0.03506484
#
# Stress axis : x y z
#
# Youngs Moduli (GPa) = 78.98934 66.75404 21.03950
#
# Poissons Ratio (x) = 0.21378 0.20409
# Poissons Ratio (y) = 0.25296 0.15043
# Poissons Ratio (z) = 0.76622 0.47728
#
# Static dielectric constant tensor:
#      x y z
#    x 1.725960 0.017620 -0.002430 
#    y 0.017620 1.746460 -0.005360 
#    z -0.002430 -0.005360 1.722520 
# 
# From -- ./inp_files/176623.got.cif
#   From: 2010.05.17/outbox.cif.g08.bks.cpg/sg2_89_cif.got.tgz:176623.got - 2010.06.03 11:33:40.
