data_PCOD9106940
_publ_section_title
;
Structure prediction by ZEFSAII (Michael W. Deem and Ramdas Pophale) SiO2 
 PCOD9106940
Probable space group: P -1
;
_chemical_formula_sum "Si O2"
_cell_formula_units_Z 15
_cell_length_a 27.374908
_cell_length_b 8.030574
_cell_length_c 15.854607
_cell_angle_alpha 48.285335
_cell_angle_beta 160.329482
_cell_angle_gamma 141.927838
_cell_volume 673.411564
_symmetry_space_group_name_H-M "P -1"
_symmetry_group_IT_number 2
_symmetry_cell_setting 'triclinic'
loop_
_space_group_symop_operation_xyz
x,y,z
-x,-y,-z
loop_
_atom_site_type_symbol
_atom_site_label
_atom_site_fract_x
_atom_site_fract_y
_atom_site_fract_z
Si Si1 0.362807 0.735270 0.265086
Si Si2 0.063329 0.898062 0.495278
Si Si3 0.657027 0.401149 0.542482
Si Si4 0.383591 0.226679 0.763789
Si Si5 0.639793 0.158304 0.287910
Si Si6 0.975847 0.298463 0.206313
Si Si7 0.266780 0.669738 0.949596
Si Si8 0.000000 0.500000 0.000000
O O1 0.381727 0.591127 0.424568
O O2 0.550638 0.069534 0.453999
O O3 0.307247 0.595735 0.129993
O O4 0.199196 0.745459 0.023822
O O5 0.164038 0.810941 0.746804
O O6 0.876308 0.604176 0.250138
O O7 0.217521 0.087827 0.608021
O O8 0.004944 0.085223 0.366946
O O9 0.587194 0.525325 0.326322
O O10 0.875287 0.566266 0.825498
O O11 0.330928 0.977748 0.697059
O O12 0.569763 0.326524 0.080899
O O13 0.830840 0.374137 0.576352
O O14 0.465035 0.902350 0.146295
O O15 0.954653 0.274407 0.079335
#
# Coordination Sequence:
#
# PCOD9106940 Si02
#       8
#     2   2   2   2   2   2   2   1
#     4  10  23  39  61  88 130 154 207 246 309 361
#     4  10  22  38  62  88 125 157 207 244 317 344
#     4  10  21  40  64  90 120 166 200 257 300 361
#     4  10  21  41  63  90 123 161 202 259 298 362
#     4  10  23  39  65  91 125 156 211 246 307 356
#     4  11  22  39  62  94 115 169 201 252 300 368
#     4  10  22  40  57  91 126 161 194 262 292 373
#     4  10  20  40  62  88 124 150 210 254 292 360
#
# _framework density 22.274642
#
# number of rings (size 3 to 8) (size 9 to 14) (size 15 to 20)
#    0.000    1.867    1.333    1.600    3.733    2.667 
#    2.400    2.667    0.000    0.000    0.000    0.000 
#    0.000    0.000    0.000    0.000    0.000    0.000 
#
# Total GULP energy -83567.384925 kJ/mol
# GULP energy per Si atom -5571.158995 kJ/mol
# Density = 2.222394 g / cm^3
# Si number density = 22.274642 Si / 1000 Ang^3
#
#
#
# Elastic Constant Matrix: (Units=GPa)
#
#
# Indices 1 2 3 4 5 6 
#
# 1 40.6191 -4.3498 6.1101 -6.6065 -18.9096 12.2514
# 2 -4.3498 28.3581 8.7352 1.4191 -5.4392 15.1841
# 3 6.1101 8.7352 60.4987 17.3708 -2.9319 5.0090
# 4 -6.6065 1.4191 17.3708 15.9479 -12.2634 -13.6781
# 5 -18.9096 -5.4392 -2.9319 -12.2634 4.2734 -23.6474
# 6 12.2514 15.1841 5.0090 -13.6781 -23.6474 16.6215
#
#
#
# Elastic Compliance Matrix: (Units=1/GPa)
#
#
# Indices 1 2 3 4 5 6 
#
# 1 0.051465 0.037470 -0.005748 -0.000791 0.018062 -0.045386
# 2 0.037470 0.073088 -0.011214 0.006652 0.029549 -0.043493
# 3 -0.005748 -0.011214 0.020877 -0.009362 0.007211 0.010745
# 4 -0.000791 0.006652 -0.009362 0.030453 -0.030530 -0.021047
# 5 0.018062 0.029549 0.007211 -0.030530 0.015309 -0.045822
# 6 -0.045386 -0.043493 0.010745 -0.021047 -0.045822 0.047598
#
#
# Mechanical properties :
#
#
# Convention : Reuss Voigt Hill
#
# Bulk Modulus (GPa) = 5.36351 16.71855 11.04103
# Shear Modulus (GPa) = 19.23648 15.30060 17.26854
#
# Velocity S-wave (km/s) = 2.94190 2.62373 2.78736
# Velocity P-wave (km/s) = 3.73535 4.08663 3.91493
#
# Compressibility (1/GPa) = 0.18644510
#
# Stress axis : x y z
#
# Youngs Moduli (GPa) = 19.43069 13.68222 47.90025
#
# Poissons Ratio (x) = -0.51267 0.27532
# Poissons Ratio (y) = -0.72806 0.53716
# Poissons Ratio (z) = 0.11168 0.15343
#
# Static dielectric constant tensor:
#      x y z
#    x 1.822190 0.006830 -0.027030 
#    y 0.006830 1.839740 -0.047770 
#    z -0.027030 -0.047770 1.857790 
# 
# From -- ./inp_files/175461.got.cif
#   From: 2010.05.17/outbox.cif.g08.bks.cpg/sg2_88_cif.got.tgz:175461.got - 2010.06.03 11:33:40.
