data_PCOD9106498
_publ_section_title
;
Structure prediction by ZEFSAII (Michael W. Deem and Ramdas Pophale) SiO2 
 PCOD9106498
Probable space group: P -1
;
_chemical_formula_sum "Si O2"
_cell_formula_units_Z 16
_cell_length_a 8.065513
_cell_length_b 25.473799
_cell_length_c 19.392632
_cell_angle_alpha 19.650919
_cell_angle_beta 30.558121
_cell_angle_gamma 40.404578
_cell_volume 652.079591
_symmetry_space_group_name_H-M "P -1"
_symmetry_group_IT_number 2
_symmetry_cell_setting 'triclinic'
loop_
_space_group_symop_operation_xyz
x,y,z
-x,-y,-z
loop_
_atom_site_type_symbol
_atom_site_label
_atom_site_fract_x
_atom_site_fract_y
_atom_site_fract_z
Si Si1 0.984760 0.388242 0.404867
Si Si2 0.451562 0.480027 0.386701
Si Si3 0.666084 0.956804 0.221190
Si Si4 0.435928 0.235939 0.908281
Si Si5 0.700584 0.365887 0.309914
Si Si6 0.695013 0.266394 0.095856
Si Si7 0.967566 0.839620 0.449786
Si Si8 0.088514 0.852727 0.962588
O O1 0.790147 0.467073 0.320177
O O2 0.710132 0.307549 0.661482
O O3 0.265466 0.541014 0.148642
O O4 0.087468 0.257340 0.482879
O O5 0.419341 0.648579 0.219908
O O6 0.492564 0.456932 0.319788
O O7 0.160635 0.322217 0.711684
O O8 0.510493 0.763623 0.509336
O O9 0.753897 0.039920 0.160898
O O10 0.418911 0.052581 0.158741
O O11 0.000000 0.000000 0.000000
O O12 0.065969 0.249260 0.004109
O O13 0.832416 0.250427 0.459764
O O14 0.000000 0.500000 0.000000
O O15 0.394166 0.176722 0.364858
O O16 0.643825 0.188322 0.134939
O O17 0.119306 0.031414 0.141722
#
# Coordination Sequence:
#
# PCOD9106498 Si02
#       8
#     2   2   2   2   2   2   2   2
#     4  10  20  39  71 103 135 181 239 294 345 420
#     4  10  21  42  71 105 137 187 237 293 345 432
#     4  12  27  44  70 108 143 186 240 303 355 424
#     4  11  22  43  74 104 144 185 239 297 358 417
#     4  11  27  50  71 102 149 191 235 295 368 426
#     4  11  22  44  67 105 140 187 240 291 357 426
#     4  11  26  42  73 101 141 190 237 299 352 425
#     4  12  23  43  67 104 142 181 247 287 353 423
#
# _framework density 24.53688
#
# number of rings (size 3 to 8) (size 9 to 14) (size 15 to 20)
#    0.000    1.000    3.750    3.000    0.000    7.500 
#    0.000    1.875    0.000    0.000    0.000    0.000 
#    0.000    0.000    0.000    0.000    0.000    0.000 
#
# Total GULP energy -89580.904345 kJ/mol
# GULP energy per Si atom -5598.806522 kJ/mol
# Density = 2.448103 g / cm^3
# Si number density = 24.536880 Si / 1000 Ang^3
#
#
#
# Elastic Constant Matrix: (Units=GPa)
#
#
# Indices 1 2 3 4 5 6 
#
# 1 89.9707 36.4333 5.6036 -21.0919 -17.2778 20.8203
# 2 36.4333 159.3143 47.7594 -14.3119 -8.2323 56.1248
# 3 5.6036 47.7594 75.9657 -20.6233 -27.8954 6.6002
# 4 -21.0919 -14.3119 -20.6233 46.2564 -0.4891 -11.4545
# 5 -17.2778 -8.2323 -27.8954 -0.4891 18.8525 -30.0649
# 6 20.8203 56.1248 6.6002 -11.4545 -30.0649 33.5083
#
#
#
# Elastic Compliance Matrix: (Units=1/GPa)
#
#
# Indices 1 2 3 4 5 6 
#
# 1 0.013752 0.000342 0.000100 0.004135 -0.001605 -0.009163
# 2 0.000342 0.004927 0.002519 0.004052 0.013425 0.004470
# 3 0.000100 0.002519 0.008860 0.000612 -0.011699 -0.016314
# 4 0.004135 0.004052 0.000612 0.022352 -0.009554 -0.010408
# 5 -0.001605 0.013425 -0.011699 -0.009554 -0.009454 -0.030933
# 6 -0.009163 0.004470 -0.016314 -0.010408 -0.030933 -0.000048
#
#
# Mechanical properties :
#
#
# Convention : Reuss Voigt Hill
#
# Bulk Modulus (GPa) = 29.88653 56.09370 42.99011
# Shear Modulus (GPa) = 109.59920 35.42040 72.50980
#
# Velocity S-wave (km/s) = 6.69060 3.80354 5.44201
# Velocity P-wave (km/s) = 8.47892 6.49614 7.55288
#
# Compressibility (1/GPa) = 0.03345989
#
# Stress axis : x y z
#
# Youngs Moduli (GPa) = 72.71810 202.97440 112.86362
#
# Poissons Ratio (x) = -0.06934 -0.01131
# Poissons Ratio (y) = -0.02484 -0.28427
# Poissons Ratio (z) = -0.00729 -0.51124
#
# Static dielectric constant tensor:
#      x y z
#    x 2.682630 -0.684440 -0.194050 
#    y -0.684440 2.639820 0.175280 
#    z -0.194050 0.175280 1.959500 
# 
# From -- ./inp_files/592113.got.cif
#   From: 2010.05.17/outbox.cif.g08.bks.cpg/sg2_297_cif.got.tgz:592113.got - 2010.06.03 11:33:40.
