data_PCOD9106277
_publ_section_title
;
Structure prediction by ZEFSAII (Michael W. Deem and Ramdas Pophale) SiO2 
 PCOD9106277
Probable space group: P -1
;
_chemical_formula_sum "Si O2"
_cell_formula_units_Z 16
_cell_length_a 13.290155
_cell_length_b 11.553837
_cell_length_c 8.985775
_cell_angle_alpha 121.519261
_cell_angle_beta 73.004673
_cell_angle_gamma 58.991434
_cell_volume 644.851952
_symmetry_space_group_name_H-M "P -1"
_symmetry_group_IT_number 2
_symmetry_cell_setting 'triclinic'
loop_
_space_group_symop_operation_xyz
x,y,z
-x,-y,-z
loop_
_atom_site_type_symbol
_atom_site_label
_atom_site_fract_x
_atom_site_fract_y
_atom_site_fract_z
Si Si1 0.767108 0.837246 0.370924
Si Si2 0.179046 0.331837 0.082277
Si Si3 0.105675 0.012814 0.887017
Si Si4 0.107546 0.174323 0.411219
Si Si5 0.375082 0.381522 0.887226
Si Si6 0.133976 0.820609 0.456546
Si Si7 0.759695 0.547875 0.325290
Si Si8 0.390717 0.876094 0.852012
O O1 0.856353 0.698188 0.084273
O O2 0.877951 0.824315 0.416486
O O3 0.734601 0.732896 0.411273
O O4 0.580534 0.112140 0.595823
O O5 0.286444 0.353158 0.001462
O O6 0.304319 0.103265 0.971473
O O7 0.000871 0.573031 0.406948
O O8 0.956292 0.292193 0.129261
O O9 0.000000 0.000000 0.000000
O O10 0.159210 0.906177 0.627911
O O11 0.286443 0.867879 0.800261
O O12 0.980667 0.184005 0.425176
O O13 0.308350 0.953375 0.105007
O O14 0.282392 0.485767 0.834595
O O15 0.321835 0.569324 0.131658
O O16 0.000000 0.000000 0.500000
O O17 0.605502 0.662465 0.586735
#
# Coordination Sequence:
#
# PCOD9106277 Si02
#       8
#     2   2   2   2   2   2   2   2
#     4  11  21  42  69 105 131 170 224 281 349 388
#     4  10  20  39  68  95 138 173 217 280 337 400
#     4  12  27  48  67  96 139 186 225 272 342 397
#     4  11  25  39  63 102 136 175 226 276 334 408
#     4  10  20  42  70  98 137 167 224 287 329 393
#     4  11  24  45  67  92 133 179 231 279 321 394
#     4  11  23  44  73 101 135 177 221 285 335 405
#     4  12  24  44  68 100 137 181 223 272 344 406
#
# _framework density 24.811896999999998
#
# number of rings (size 3 to 8) (size 9 to 14) (size 15 to 20)
#    0.000    1.000    5.000    2.250    1.750    2.000 
#    2.250    1.250    0.000    0.000    0.000    0.000 
#    0.000    0.000    0.000    0.000    0.000    0.000 
#
# Total GULP energy -89555.530978 kJ/mol
# GULP energy per Si atom -5597.220686 kJ/mol
# Density = 2.475542 g / cm^3
# Si number density = 24.811897 Si / 1000 Ang^3
#
#
#
# Elastic Constant Matrix: (Units=GPa)
#
#
# Indices 1 2 3 4 5 6 
#
# 1 72.7848 5.8911 47.5717 2.6444 -1.8098 5.4792
# 2 5.8911 52.8676 6.5469 -1.1494 5.5706 11.0732
# 3 47.5717 6.5469 133.9572 -2.2593 10.3144 13.8695
# 4 2.6444 -1.1494 -2.2593 23.1620 -0.9561 -8.9755
# 5 -1.8098 5.5706 10.3144 -0.9561 35.1892 -8.6488
# 6 5.4792 11.0732 13.8695 -8.9755 -8.6488 26.2971
#
#
#
# Elastic Compliance Matrix: (Units=1/GPa)
#
#
# Indices 1 2 3 4 5 6 
#
# 1 0.018478 -0.001787 -0.006859 -0.002416 0.003376 0.000805
# 2 -0.001787 0.022540 0.001481 -0.004210 -0.007610 -0.013840
# 3 -0.006859 0.001481 0.010988 -0.001097 -0.005610 -0.007209
# 4 -0.002416 -0.004210 -0.001097 0.052549 0.008052 0.023439
# 5 0.003376 -0.007610 -0.005610 0.008052 0.036638 0.020258
# 6 0.000805 -0.013840 -0.007209 0.023439 0.020258 0.062152
#
#
# Mechanical properties :
#
#
# Convention : Reuss Voigt Hill
#
# Bulk Modulus (GPa) = 26.54148 42.18098 34.36123
# Shear Modulus (GPa) = 21.71716 30.23631 25.97674
#
# Velocity S-wave (km/s) = 2.96171 3.49466 3.23917
# Velocity P-wave (km/s) = 4.73455 5.77241 5.27905
#
# Compressibility (1/GPa) = 0.03767688
#
# Stress axis : x y z
#
# Youngs Moduli (GPa) = 54.11965 44.36559 91.00663
#
# Poissons Ratio (x) = 0.07926 0.62418
# Poissons Ratio (y) = 0.09669 -0.13476
# Poissons Ratio (z) = 0.37119 -0.06569
#
# Static dielectric constant tensor:
#      x y z
#    x 1.986900 0.024580 -0.009610 
#    y 0.024580 2.012760 0.008740 
#    z -0.009610 0.008740 1.985020 
# 
# From -- ./inp_files/181262.got.cif
#   From: 2010.05.17/outbox.cif.g08.bks.cpg/sg2_91_cif.got.tgz:181262.got - 2010.06.03 11:33:40.
