data_PCOD9106507
_publ_section_title
;
Structure prediction by ZEFSAII (Michael W. Deem and Ramdas Pophale) SiO2 
 PCOD9106507
Probable space group: P -1
;
_chemical_formula_sum "Si O2"
_cell_formula_units_Z 16
_cell_length_a 9.108298
_cell_length_b 26.789252
_cell_length_c 15.347250
_cell_angle_alpha 158.493207
_cell_angle_beta 38.680178
_cell_angle_gamma 131.127096
_cell_volume 818.700827
_symmetry_space_group_name_H-M "P -1"
_symmetry_group_IT_number 2
_symmetry_cell_setting 'triclinic'
loop_
_space_group_symop_operation_xyz
x,y,z
-x,-y,-z
loop_
_atom_site_type_symbol
_atom_site_label
_atom_site_fract_x
_atom_site_fract_y
_atom_site_fract_z
Si Si1 0.513966 0.401443 0.414463
Si Si2 0.045796 0.381018 0.209714
Si Si3 0.708247 0.562386 0.242986
Si Si4 0.373132 0.875880 0.847615
Si Si5 0.276660 0.902246 0.731162
Si Si6 0.043848 0.077719 0.744840
Si Si7 0.493222 0.411040 0.946515
Si Si8 0.382901 0.906876 0.176500
O O1 0.500000 0.500000 0.500000
O O2 0.345533 0.465119 0.677196
O O3 0.786267 0.379509 0.289329
O O4 0.462980 0.257383 0.171682
O O5 0.000000 0.500000 0.500000
O O6 0.221460 0.410501 0.101481
O O7 0.142134 0.216333 0.929202
O O8 0.561450 0.729755 0.562441
O O9 0.593630 0.479754 0.092259
O O10 0.000000 0.500000 0.000000
O O11 0.321805 0.863563 0.749487
O O12 0.113841 0.920152 0.091615
O O13 0.500000 0.000000 0.000000
O O14 0.343611 0.751629 0.406560
O O15 0.464064 0.988311 0.753581
O O16 0.000000 0.000000 0.000000
O O17 0.837066 0.082600 0.773932
O O18 0.268302 0.948799 0.393838
O O19 0.500000 0.500000 0.000000
#
# Coordination Sequence:
#
# PCOD9106507 Si02
#       8
#     2   2   2   2   2   2   2   2
#     4  11  25  43  68  99 133 180 226 286 341 406
#     4  11  21  43  68  93 132 176 227 277 337 402
#     4  12  27  46  66 103 143 177 232 285 341 417
#     4  12  23  45  72  99 136 184 228 277 341 406
#     4  12  27  44  68 102 142 180 224 285 342 410
#     4  10  20  39  71  92 125 175 224 271 329 399
#     4  12  26  44  71 102 136 186 230 282 351 406
#     4  10  21  43  64  97 130 174 227 274 333 406
#
# _framework density 19.543158999999999
#
# number of rings (size 3 to 8) (size 9 to 14) (size 15 to 20)
#    0.000    0.750    7.500    0.000    5.250    1.000 
#    0.000    0.625    0.000    0.000    0.000    0.000 
#    0.000    0.000    0.000    0.000    0.000    0.000 
#
# Total GULP energy -89261.743757 kJ/mol
# GULP energy per Si atom -5578.858985 kJ/mol
# Density = 1.949868 g / cm^3
# Si number density = 19.543159 Si / 1000 Ang^3
#
#
#
# Elastic Constant Matrix: (Units=GPa)
#
#
# Indices 1 2 3 4 5 6 
#
# 1 32.6291 25.7039 42.4063 -0.8338 11.8839 -5.5381
# 2 25.7039 156.6304 67.5958 -20.7894 18.0948 -5.7752
# 3 42.4063 67.5958 125.5384 -10.7519 34.6198 -4.4121
# 4 -0.8338 -20.7894 -10.7519 45.5871 9.2590 5.4772
# 5 11.8839 18.0948 34.6198 9.2590 31.4284 -1.2367
# 6 -5.5381 -5.7752 -4.4121 5.4772 -1.2367 35.5260
#
#
#
# Elastic Compliance Matrix: (Units=1/GPa)
#
#
# Indices 1 2 3 4 5 6 
#
# 1 0.057379 -0.001875 -0.019358 -0.005787 0.002696 0.007222
# 2 -0.001875 0.008798 -0.003318 0.003534 -0.001738 0.000121
# 3 -0.019358 -0.003318 0.021277 0.006765 -0.016300 -0.002525
# 4 -0.005787 0.003534 0.006765 0.028819 -0.015966 -0.004486
# 5 0.002696 -0.001738 -0.016300 -0.015966 0.054556 0.002474
# 6 0.007222 0.000121 -0.002525 -0.004486 0.002474 0.029758
#
#
# Mechanical properties :
#
#
# Convention : Reuss Voigt Hill
#
# Bulk Modulus (GPa) = 26.07376 65.13443 45.60410
# Shear Modulus (GPa) = 19.04955 34.44776 26.74865
#
# Velocity S-wave (km/s) = 3.12547 4.20295 3.70360
# Velocity P-wave (km/s) = 5.13764 7.54678 6.45559
#
# Compressibility (1/GPa) = 0.03835273
#
# Stress axis : x y z
#
# Youngs Moduli (GPa) = 17.42793 113.65780 46.99957
#
# Poissons Ratio (x) = 0.21314 0.90981
# Poissons Ratio (y) = 0.03268 0.15593
# Poissons Ratio (z) = 0.33737 0.37708
#
# Static dielectric constant tensor:
#      x y z
#    x 1.554900 -0.056080 0.086370 
#    y -0.056080 1.667770 0.065280 
#    z 0.086370 0.065280 1.653970 
# 
# From -- ./inp_files/508998.got.cif
#   From: 2010.05.17/outbox.cif.g08.bks.cpg/sg2_255_cif.got.tgz:508998.got - 2010.06.03 11:33:40.
