data_PCOD9106880
_publ_section_title
;
Structure prediction by ZEFSAII (Michael W. Deem and Ramdas Pophale) SiO2 
 PCOD9106880
Probable space group: P -1
;
_chemical_formula_sum "Si O2"
_cell_formula_units_Z 13
_cell_length_a 11.698053
_cell_length_b 9.133233
_cell_length_c 5.351686
_cell_angle_alpha 87.235059
_cell_angle_beta 106.899940
_cell_angle_gamma 103.153628
_cell_volume 532.634596
_symmetry_space_group_name_H-M "P -1"
_symmetry_group_IT_number 2
_symmetry_cell_setting 'triclinic'
loop_
_space_group_symop_operation_xyz
x,y,z
-x,-y,-z
loop_
_atom_site_type_symbol
_atom_site_label
_atom_site_fract_x
_atom_site_fract_y
_atom_site_fract_z
Si Si1 0.259291 0.772153 0.179603
Si Si2 0.921841 0.494729 0.700500
Si Si3 0.500000 0.500000 0.500000
Si Si4 0.747172 0.702768 0.454049
Si Si5 0.545002 0.175619 0.320024
Si Si6 0.648126 0.446971 0.072884
Si Si7 0.693073 0.970505 0.116318
O O1 0.176898 0.666883 0.338916
O O2 0.399110 0.836352 0.368390
O O3 0.265102 0.653044 0.976280
O O4 0.218750 0.914117 0.023017
O O5 0.856373 0.636377 0.645574
O O6 0.000000 0.500000 0.500000
O O7 0.000000 0.500000 0.000000
O O8 0.628538 0.637138 0.551427
O O9 0.548453 0.439454 0.800068
O O10 0.752120 0.871693 0.353705
O O11 0.721289 0.606903 0.188556
O O12 0.622938 0.077572 0.221011
O O13 0.585735 0.357653 0.289629
O O14 0.410995 0.129252 0.119909
#
# Coordination Sequence:
#
# PCOD9106880 Si02
#       7
#     2   2   1   2   2   2   2
#     4  11  23  44  70  95 141 195 232 292 359 438
#     4  12  28  51  79 102 136 197 263 310 356 425
#     4  12  22  34  68 104 146 174 226 302 362 430
#     4  12  25  43  69 109 139 184 244 306 361 427
#     4  10  20  40  62 103 146 190 219 276 371 456
#     4  11  21  37  65 103 146 183 232 283 360 439
#     4  10  24  38  65 105 149 179 226 290 371 448
#
# _framework density 24.406976
#
# number of rings (size 3 to 8) (size 9 to 14) (size 15 to 20)
#    0.000    0.923    4.615    1.846    4.308    1.231 
#    0.000    1.538    0.000    0.000    0.000    0.000 
#    0.000    0.000    0.000    0.000    0.000    0.000 
#
# Total GULP energy -72474.096726 kJ/mol
# GULP energy per Si atom -5574.930517 kJ/mol
# Density = 2.435142 g / cm^3
# Si number density = 24.406976 Si / 1000 Ang^3
#
#
#
# Elastic Constant Matrix: (Units=GPa)
#
#
# Indices 1 2 3 4 5 6 
#
# 1 82.1217 28.6805 45.4367 -31.2084 4.5016 4.5280
# 2 28.6805 120.4792 28.5831 -41.1794 5.4247 -13.7444
# 3 45.4367 28.5831 151.0965 -29.5767 19.8820 -8.4904
# 4 -31.2084 -41.1794 -29.5767 72.6204 -2.9920 -2.4370
# 5 4.5016 5.4247 19.8820 -2.9920 42.0865 -8.5229
# 6 4.5280 -13.7444 -8.4904 -2.4370 -8.5229 22.1642
#
#
#
# Elastic Compliance Matrix: (Units=1/GPa)
#
#
# Indices 1 2 3 4 5 6 
#
# 1 0.017307 -0.002421 -0.004232 0.004103 -0.000548 -0.006418
# 2 -0.002421 0.011919 0.000040 0.006073 0.000944 0.008932
# 3 -0.004232 0.000040 0.008802 0.001781 -0.002908 0.003339
# 4 0.004103 0.006073 0.001781 0.019929 0.000573 0.006022
# 5 -0.000548 0.000944 -0.002908 0.000573 0.027155 0.010089
# 6 -0.006418 0.008932 0.003339 0.006022 0.010089 0.057788
#
#
# Mechanical properties :
#
#
# Convention : Reuss Voigt Hill
#
# Bulk Modulus (GPa) = 40.31822 62.12198 51.22010
# Shear Modulus (GPa) = 30.41460 44.10737 37.26099
#
# Velocity S-wave (km/s) = 3.53391 4.25568 3.91148
# Velocity P-wave (km/s) = 5.76249 7.04667 6.43669
#
# Compressibility (1/GPa) = 0.02480268
#
# Stress axis : x y z
#
# Youngs Moduli (GPa) = 57.77919 83.89683 113.60751
#
# Poissons Ratio (x) = 0.20311 0.48077
# Poissons Ratio (y) = 0.13988 -0.00451
# Poissons Ratio (z) = 0.24451 -0.00333
#
# Static dielectric constant tensor:
#      x y z
#    x 1.899240 0.103650 0.040560 
#    y 0.103650 1.933600 -0.077130 
#    z 0.040560 -0.077130 1.908090 
# 
# From -- ./inp_files/23634.got.cif
#   From: 2010.05.17/outbox.cif.g08.bks.cpg/sg2_12_cif.got.tgz:23634.got - 2010.06.03 11:33:40.
