data_PCOD9106428
_publ_section_title
;
Structure prediction by ZEFSAII (Michael W. Deem and Ramdas Pophale) SiO2 
 PCOD9106428
Probable space group: P -1
;
_chemical_formula_sum "Si O2"
_cell_formula_units_Z 15
_cell_length_a 13.346993
_cell_length_b 9.023061
_cell_length_c 8.501601
_cell_angle_alpha 51.796058
_cell_angle_beta 59.867268
_cell_angle_gamma 65.389178
_cell_volume 687.322277
_symmetry_space_group_name_H-M "P -1"
_symmetry_group_IT_number 2
_symmetry_cell_setting 'triclinic'
loop_
_space_group_symop_operation_xyz
x,y,z
-x,-y,-z
loop_
_atom_site_type_symbol
_atom_site_label
_atom_site_fract_x
_atom_site_fract_y
_atom_site_fract_z
Si Si1 0.000000 0.500000 0.000000
Si Si2 0.175714 0.832529 0.062072
Si Si3 0.901366 0.929337 0.731654
Si Si4 0.513696 0.148291 0.534341
Si Si5 0.987123 0.600264 0.275693
Si Si6 0.385918 0.548308 0.947045
Si Si7 0.261280 0.209315 0.623912
Si Si8 0.314454 0.160002 0.245043
O O1 0.960613 0.523553 0.830844
O O2 0.958730 0.734262 0.902535
O O3 0.056531 0.778099 0.121473
O O4 0.146721 0.906730 0.211794
O O5 0.277128 0.651748 0.069620
O O6 0.225234 0.004748 0.824595
O O7 0.790625 0.895089 0.736945
O O8 0.000000 0.000000 0.500000
O O9 0.585189 0.305675 0.305623
O O10 0.378395 0.235359 0.608264
O O11 0.500000 0.000000 0.500000
O O12 0.581518 0.020369 0.700769
O O13 0.847880 0.640610 0.335298
O O14 0.000000 0.500000 0.500000
O O15 0.500000 0.500000 0.000000
O O16 0.358078 0.351662 0.025732
O O17 0.277634 0.212436 0.421108
#
# Coordination Sequence:
#
# PCOD9106428 Si02
#       8
#     1   2   2   2   2   2   2   2
#     4  12  26  46  70 104 150 186 238 306 364 430
#     4  12  24  43  71 100 140 190 236 296 368 433
#     4  12  28  47  69 105 149 193 241 306 369 444
#     4  10  20  39  70 103 136 184 235 301 355 434
#     4  12  26  44  70 109 143 194 245 302 374 452
#     4  12  21  41  73 105 135 184 244 293 364 438
#     4  11  20  41  68  98 136 183 238 288 361 433
#     4  11  23  42  72 103 140 186 241 299 363 438
#
# _framework density 21.823824999999999
#
# number of rings (size 3 to 8) (size 9 to 14) (size 15 to 20)
#    0.000    0.533    6.667    4.400    1.867    1.067 
#    0.000    2.667    0.000    1.600    0.000    0.000 
#    0.000    0.000    0.000    0.000    0.000    0.000 
#
# Total GULP energy -83611.012615 kJ/mol
# GULP energy per Si atom -5574.067508 kJ/mol
# Density = 2.177415 g / cm^3
# Si number density = 21.823825 Si / 1000 Ang^3
#
#
#
# Elastic Constant Matrix: (Units=GPa)
#
#
# Indices 1 2 3 4 5 6 
#
# 1 140.6534 61.6169 42.6768 -12.0619 -18.1831 -3.1026
# 2 61.6169 85.7406 42.1598 -12.3252 -3.8296 -4.0695
# 3 42.6768 42.1598 114.7555 -11.1335 -12.7245 3.5316
# 4 -12.0619 -12.3252 -11.1335 17.5090 -1.8521 3.3562
# 5 -18.1831 -3.8296 -12.7245 -1.8521 34.1202 -0.7307
# 6 -3.1026 -4.0695 3.5316 3.3562 -0.7307 44.8681
#
#
#
# Elastic Compliance Matrix: (Units=1/GPa)
#
#
# Indices 1 2 3 4 5 6 
#
# 1 0.011391 -0.007172 -0.000757 0.002848 0.005139 0.000068
# 2 -0.007172 0.019706 -0.004388 0.005608 -0.002917 0.001170
# 3 -0.000757 -0.004388 0.011481 0.004380 0.003588 -0.001623
# 4 0.002848 0.005608 0.004380 0.067461 0.007345 -0.004566
# 5 0.005139 -0.002917 0.003588 0.007345 0.033452 -0.000196
# 6 0.000068 0.001170 -0.001623 -0.004566 -0.000196 0.022864
#
#
# Mechanical properties :
#
#
# Convention : Reuss Voigt Hill
#
# Bulk Modulus (GPa) = 55.72943 70.45073 63.09008
# Shear Modulus (GPa) = 25.38441 32.27920 28.83181
#
# Velocity S-wave (km/s) = 3.41420 3.85005 3.63866
# Velocity P-wave (km/s) = 6.41357 7.21911 6.82823
#
# Compressibility (1/GPa) = 0.01794384
#
# Stress axis : x y z
#
# Youngs Moduli (GPa) = 87.78568 50.74585 87.10191
#
# Poissons Ratio (x) = 0.36394 0.06598
# Poissons Ratio (y) = 0.62957 0.38220
# Poissons Ratio (z) = 0.06650 0.22267
#
# Static dielectric constant tensor:
#      x y z
#    x 1.749880 -0.088310 -0.013030 
#    y -0.088310 1.857460 -0.003810 
#    z -0.013030 -0.003810 1.840680 
# 
# From -- ./inp_files/241886.got.cif
#   From: 2010.05.17/outbox.cif.g08.bks.cpg/sg2_121_cif.got.tgz:241886.got - 2010.06.03 11:33:40.
