data_PCOD9106374
_publ_section_title
;
Structure prediction by ZEFSAII (Michael W. Deem and Ramdas Pophale) SiO2 
 PCOD9106374
Probable space group: P -1
;
_chemical_formula_sum "Si O2"
_cell_formula_units_Z 16
_cell_length_a 9.772378
_cell_length_b 14.462180
_cell_length_c 9.334462
_cell_angle_alpha 142.612346
_cell_angle_beta 109.134789
_cell_angle_gamma 69.420569
_cell_volume 747.194542
_symmetry_space_group_name_H-M "P -1"
_symmetry_group_IT_number 2
_symmetry_cell_setting 'triclinic'
loop_
_space_group_symop_operation_xyz
x,y,z
-x,-y,-z
loop_
_atom_site_type_symbol
_atom_site_label
_atom_site_fract_x
_atom_site_fract_y
_atom_site_fract_z
Si Si1 0.341954 0.869317 0.906767
Si Si2 0.849392 0.710811 0.029158
Si Si3 0.394744 0.380842 0.375964
Si Si4 0.791530 0.048645 0.337800
Si Si5 0.676929 0.357474 0.140467
Si Si6 0.164856 0.661379 0.120183
Si Si7 0.518227 0.924231 0.572977
Si Si8 0.637335 0.648695 0.108921
O O1 0.495009 0.780445 0.780803
O O2 0.241165 0.931797 0.817411
O O3 0.277623 0.744716 0.829581
O O4 0.381005 0.992863 0.186224
O O5 0.758250 0.727817 0.165677
O O6 0.007250 0.609661 0.980765
O O7 0.874666 0.877856 0.187645
O O8 0.739966 0.640419 0.798592
O O9 0.500000 0.500000 0.500000
O O10 0.328337 0.464219 0.599457
O O11 0.857011 0.192774 0.601790
O O12 0.637857 0.058560 0.382477
O O13 0.774653 0.301805 0.969385
O O14 0.509225 0.341692 0.024470
O O15 0.288054 0.526014 0.055023
O O16 0.584824 0.746684 0.351043
O O17 0.500000 0.000000 0.500000
#
# Coordination Sequence:
#
# PCOD9106374 Si02
#       8
#     2   2   2   2   2   2   2   2
#     4  11  22  39  68 102 131 172 226 282 331 392
#     4  12  25  46  67 100 139 181 219 279 341 405
#     4  10  20  39  69  94 132 170 221 273 338 383
#     4  12  24  42  70 101 134 179 226 274 338 404
#     4  11  22  42  68  99 133 174 222 284 331 390
#     4  12  28  43  68 100 140 179 226 272 341 403
#     4  12  20  39  70 101 135 168 227 285 326 383
#     4  12  23  43  70  99 132 178 228 276 328 401
#
# _framework density 21.413430999999999
#
# number of rings (size 3 to 8) (size 9 to 14) (size 15 to 20)
#    0.000    0.500    7.500    2.250    3.500    0.500 
#    0.000    0.625    0.000    0.000    0.000    0.000 
#    0.000    0.000    0.000    0.000    0.000    0.000 
#
# Total GULP energy -89431.341080 kJ/mol
# GULP energy per Si atom -5589.458818 kJ/mol
# Density = 2.136469 g / cm^3
# Si number density = 21.413431 Si / 1000 Ang^3
#
#
#
# Elastic Constant Matrix: (Units=GPa)
#
#
# Indices 1 2 3 4 5 6 
#
# 1 54.2690 16.7856 -11.1597 -8.0190 -0.4423 -8.9568
# 2 16.7856 94.3515 22.4056 -13.8233 -2.1029 10.2897
# 3 -11.1597 22.4056 125.0544 -0.8126 -3.6314 -5.2310
# 4 -8.0190 -13.8233 -0.8126 26.9343 5.0735 -4.9961
# 5 -0.4423 -2.1029 -3.6314 5.0735 21.9473 -3.1560
# 6 -8.9568 10.2897 -5.2310 -4.9961 -3.1560 19.8770
#
#
#
# Elastic Compliance Matrix: (Units=1/GPa)
#
#
# Indices 1 2 3 4 5 6 
#
# 1 0.025332 -0.006341 0.004237 0.007465 0.001455 0.017920
# 2 -0.006341 0.014224 -0.003580 0.003678 -0.001719 -0.010511
# 3 0.004237 -0.003580 0.009362 0.000549 0.002128 0.006702
# 4 0.007465 0.003678 0.000549 0.044938 -0.008125 0.011610
# 5 0.001455 -0.001719 0.002128 -0.008125 0.048782 0.007809
# 6 0.017920 -0.010511 0.006702 0.011610 0.007809 0.069747
#
#
# Mechanical properties :
#
#
# Convention : Reuss Voigt Hill
#
# Bulk Modulus (GPa) = 26.63150 36.63756 31.63453
# Shear Modulus (GPa) = 21.16234 30.12794 25.64514
#
# Velocity S-wave (km/s) = 3.14709 3.75502 3.46442
# Velocity P-wave (km/s) = 5.06650 5.99558 5.55052
#
# Compressibility (1/GPa) = 0.03754951
#
# Stress axis : x y z
#
# Youngs Moduli (GPa) = 39.47605 70.30485 106.81752
#
# Poissons Ratio (x) = 0.44580 -0.45259
# Poissons Ratio (y) = 0.25032 0.38241
# Poissons Ratio (z) = -0.16726 0.25169
#
# Static dielectric constant tensor:
#      x y z
#    x 1.751670 0.038660 -0.010330 
#    y 0.038660 1.826790 0.043080 
#    z -0.010330 0.043080 1.814540 
# 
# From -- ./inp_files/209521.got.cif
#   From: 2010.05.17/outbox.cif.g08.bks.cpg/sg2_105_cif.got.tgz:209521.got - 2010.06.03 11:33:40.
