data_PCOD9106157
_publ_section_title
;
Structure prediction by ZEFSAII (Michael W. Deem and Ramdas Pophale) SiO2 
 PCOD9106157
Probable space group: P -1
;
_chemical_formula_sum "Si O2"
_cell_formula_units_Z 12
_cell_length_a 8.418368
_cell_length_b 16.479404
_cell_length_c 15.330183
_cell_angle_alpha 17.913101
_cell_angle_beta 42.277468
_cell_angle_gamma 44.287996
_cell_volume 439.332545
_symmetry_space_group_name_H-M "P -1"
_symmetry_group_IT_number 2
_symmetry_cell_setting 'triclinic'
loop_
_space_group_symop_operation_xyz
x,y,z
-x,-y,-z
loop_
_atom_site_type_symbol
_atom_site_label
_atom_site_fract_x
_atom_site_fract_y
_atom_site_fract_z
Si Si1 0.914833 0.047124 0.131972
Si Si2 0.316914 0.128132 0.759420
Si Si3 0.221357 0.203823 0.289930
Si Si4 0.167445 0.673092 0.945478
Si Si5 0.368227 0.763120 0.254034
Si Si6 0.266086 0.499400 0.799421
O O1 0.094886 0.819885 0.333002
O O2 0.746905 0.899381 0.286813
O O3 0.085362 0.204436 0.835645
O O4 0.813525 0.231283 0.061106
O O5 0.522510 0.320093 0.494791
O O6 0.376584 0.835312 0.074450
O O7 0.281827 0.394221 0.151456
O O8 0.941217 0.280815 0.310066
O O9 0.257977 0.904656 0.610327
O O10 0.669937 0.691938 0.949593
O O11 0.886694 0.650812 0.057300
O O12 0.500000 0.500000 0.500000
O O13 0.500000 0.000000 0.000000
#
# Coordination Sequence:
#
# PCOD9106157 Si02
#       6
#     2   2   2   2   2   2
#     4   9  22  42  69 100 149 176 226 280 359 408
#     4   9  21  46  65 104 142 185 219 286 356 407
#     4   9  21  38  65  99 135 169 238 286 333 387
#     4  10  20  39  67  96 134 179 226 287 331 406
#     4  10  23  42  67  95 128 178 232 271 327 407
#     4   9  20  37  70  95 138 176 234 280 339 401
#
# _framework density 27.314162
#
# number of rings (size 3 to 8) (size 9 to 14) (size 15 to 20)
#    2.000    0.667    0.000    0.500    2.333    3.333 
#    0.000    6.667    0.000    0.000    0.000    0.000 
#    0.000    0.000    0.000    0.167    0.000    0.000 
#
# Total GULP energy -67212.415202 kJ/mol
# GULP energy per Si atom -5601.034600 kJ/mol
# Density = 2.725199 g / cm^3
# Si number density = 27.314162 Si / 1000 Ang^3
#
#
#
# Elastic Constant Matrix: (Units=GPa)
#
#
# Indices 1 2 3 4 5 6 
#
# 1 133.2174 40.5080 26.9806 -10.4676 -8.3919 22.0093
# 2 40.5080 105.1496 44.4865 4.3630 -3.7792 19.3716
# 3 26.9806 44.4865 150.3683 -0.3258 13.3544 -0.0110
# 4 -10.4676 4.3630 -0.3258 43.1963 4.8765 9.6034
# 5 -8.3919 -3.7792 13.3544 4.8765 29.8968 -6.0624
# 6 22.0093 19.3716 -0.0110 9.6034 -6.0624 45.9487
#
#
#
# Elastic Compliance Matrix: (Units=1/GPa)
#
#
# Indices 1 2 3 4 5 6 
#
# 1 0.009508 -0.002561 -0.001074 0.003267 0.001489 -0.003961
# 2 -0.002561 0.012767 -0.003493 -0.001351 0.001942 -0.003618
# 3 -0.001074 -0.003493 0.008251 0.000326 -0.004205 0.001366
# 4 0.003267 -0.001351 0.000326 0.026252 -0.005133 -0.007159
# 5 0.001489 0.001942 -0.004205 -0.005133 0.037744 0.004520
# 6 -0.003961 -0.003618 0.001366 -0.007159 0.004520 0.027279
#
#
# Mechanical properties :
#
#
# Convention : Reuss Voigt Hill
#
# Bulk Modulus (GPa) = 61.46374 68.07614 64.76994
# Shear Modulus (GPa) = 35.34094 42.25906 38.80000
#
# Velocity S-wave (km/s) = 3.60094 3.93765 3.77305
# Velocity P-wave (km/s) = 6.31193 6.75655 6.53802
#
# Compressibility (1/GPa) = 0.01626976
#
# Stress axis : x y z
#
# Youngs Moduli (GPa) = 105.17931 78.32596 121.20130
#
# Poissons Ratio (x) = 0.20057 0.13014
# Poissons Ratio (y) = 0.26933 0.42340
# Poissons Ratio (z) = 0.11294 0.27362
#
# Static dielectric constant tensor:
#      x y z
#    x 2.162300 -0.011200 0.014350 
#    y -0.011200 2.412690 -0.046090 
#    z 0.014350 -0.046090 2.060640 
# 
# From -- ./inp_files/618810.got.cif
#   From: 2010.05.17/outbox.cif.g08.bks.cpg/sg2_310_cif.got.tgz:618810.got - 2010.06.03 11:33:40.
