data_PCOD9106060
_publ_section_title
;
Structure prediction by ZEFSAII (Michael W. Deem and Ramdas Pophale) SiO2 
 PCOD9106060
Probable space group: P -1
;
_chemical_formula_sum "Si O2"
_cell_formula_units_Z 16
_cell_length_a 26.161596
_cell_length_b 9.367243
_cell_length_c 8.836232
_cell_angle_alpha 76.550078
_cell_angle_beta 42.532121
_cell_angle_gamma 44.745783
_cell_volume 815.739794
_symmetry_space_group_name_H-M "P -1"
_symmetry_group_IT_number 2
_symmetry_cell_setting 'triclinic'
loop_
_space_group_symop_operation_xyz
x,y,z
-x,-y,-z
loop_
_atom_site_type_symbol
_atom_site_label
_atom_site_fract_x
_atom_site_fract_y
_atom_site_fract_z
Si Si1 0.220469 0.632643 0.140602
Si Si2 0.841633 0.953802 0.237934
Si Si3 0.772715 0.045049 0.865713
Si Si4 0.731535 0.890408 0.258119
Si Si5 0.994413 0.301851 0.775511
Si Si6 0.533791 0.817316 0.090440
Si Si7 0.037317 0.957856 0.192247
Si Si8 0.376729 0.611941 0.177294
O O1 0.245243 0.768632 0.060868
O O2 0.158898 0.702564 0.092537
O O3 0.348087 0.348140 0.002488
O O4 0.095296 0.809418 0.479194
O O5 0.726927 0.230371 0.500273
O O6 0.782659 0.921150 0.269300
O O7 0.925869 0.940279 0.969626
O O8 0.927435 0.755117 0.238585
O O9 0.687421 0.189901 0.864691
O O10 0.923491 0.792752 0.534592
O O11 0.721749 0.003838 0.100426
O O12 0.597801 0.026893 0.573390
O O13 0.847040 0.593091 0.039157
O O14 0.995492 0.122837 0.829844
O O15 0.586164 0.600646 0.925536
O O16 0.500000 0.000000 0.000000
O O17 0.500000 0.500000 0.000000
#
# Coordination Sequence:
#
# PCOD9106060 Si02
#       8
#     2   2   2   2   2   2   2   2
#     4   9  20  41  64  91 122 165 211 254 302 369
#     4  11  22  38  66  93 119 166 214 252 304 369
#     4   9  20  40  63  88 124 159 207 254 299 365
#     4  12  23  40  63  94 126 167 200 254 317 369
#     4  10  23  38  59  98 129 157 202 261 314 358
#     4  11  26  42  61  91 133 165 202 254 320 371
#     4  10  20  39  67  90 120 165 214 256 301 361
#     4  10  21  42  62  89 120 160 207 254 302 364
#
# _framework density 19.614096
#
# number of rings (size 3 to 8) (size 9 to 14) (size 15 to 20)
#    0.000    1.750    2.500    1.875    3.500    3.000 
#    2.250    0.625    0.000    0.000    0.000    0.000 
#    0.000    0.000    0.000    0.000    0.000    0.000 
#
# Total GULP energy -89224.552874 kJ/mol
# GULP energy per Si atom -5576.534555 kJ/mol
# Density = 1.956945 g / cm^3
# Si number density = 19.614096 Si / 1000 Ang^3
#
#
#
# Elastic Constant Matrix: (Units=GPa)
#
#
# Indices 1 2 3 4 5 6 
#
# 1 66.9967 0.8114 6.9340 1.9940 -5.8497 -11.1481
# 2 0.8114 70.2578 51.6324 -8.7060 -0.1890 -6.2604
# 3 6.9340 51.6324 104.1854 -5.4030 -10.0248 3.3280
# 4 1.9940 -8.7060 -5.4030 31.6567 3.2707 -2.7302
# 5 -5.8497 -0.1890 -10.0248 3.2707 28.4162 5.0921
# 6 -11.1481 -6.2604 3.3280 -2.7302 5.0921 13.5302
#
#
#
# Elastic Compliance Matrix: (Units=1/GPa)
#
#
# Indices 1 2 3 4 5 6 
#
# 1 0.018334 0.004746 -0.004238 0.001199 -0.001242 0.019053
# 2 0.004746 0.029813 -0.016542 0.008538 -0.010566 0.027473
# 3 -0.004238 -0.016542 0.019499 -0.003752 0.009995 -0.020460
# 4 0.001199 0.008538 -0.003752 0.035425 -0.007966 0.016007
# 5 -0.001242 -0.010566 0.009995 -0.007966 0.044068 -0.026563
# 6 0.019053 0.027473 -0.020460 0.016007 -0.026563 0.120578
#
#
# Mechanical properties :
#
#
# Convention : Reuss Voigt Hill
#
# Bulk Modulus (GPa) = 28.10831 40.02172 34.06501
# Shear Modulus (GPa) = 16.04397 26.85809 21.45103
#
# Velocity S-wave (km/s) = 2.86314 3.70446 3.31063
# Velocity P-wave (km/s) = 5.02910 6.22464 5.65854
#
# Compressibility (1/GPa) = 0.03557666
#
# Stress axis : x y z
#
# Youngs Moduli (GPa) = 54.54472 33.54278 51.28481
#
# Poissons Ratio (x) = -0.15918 0.21734
# Poissons Ratio (y) = -0.25885 0.84835
# Poissons Ratio (z) = 0.23116 0.55486
#
# Static dielectric constant tensor:
#      x y z
#    x 1.716030 -0.022750 0.013650 
#    y -0.022750 1.699170 0.015240 
#    z 0.013650 0.015240 1.737310 
# 
# From -- ./inp_files/273879.got.cif
#   From: 2010.05.17/outbox.cif.g08.bks.cpg/sg2_137_cif.got.tgz:273879.got - 2010.06.03 11:33:40.
