data_PCOD9106402
_publ_section_title
;
Structure prediction by ZEFSAII (Michael W. Deem and Ramdas Pophale) SiO2 
 PCOD9106402
Probable space group: P -1
;
_chemical_formula_sum "Si O2"
_cell_formula_units_Z 15
_cell_length_a 13.534844
_cell_length_b 8.223906
_cell_length_c 11.603492
_cell_angle_alpha 72.376118
_cell_angle_beta 32.562101
_cell_angle_gamma 90.715115
_cell_volume 565.174095
_symmetry_space_group_name_H-M "P -1"
_symmetry_group_IT_number 2
_symmetry_cell_setting 'triclinic'
loop_
_space_group_symop_operation_xyz
x,y,z
-x,-y,-z
loop_
_atom_site_type_symbol
_atom_site_label
_atom_site_fract_x
_atom_site_fract_y
_atom_site_fract_z
Si Si1 0.037495 0.356949 0.260007
Si Si2 0.294155 0.526070 0.547551
Si Si3 0.954014 0.800593 0.945941
Si Si4 0.000000 0.000000 0.500000
Si Si5 0.861434 0.779571 0.413723
Si Si6 0.419074 0.273160 0.092343
Si Si7 0.743762 0.249554 0.904476
Si Si8 0.440339 0.903415 0.452120
O O1 0.139090 0.318449 0.055573
O O2 0.860530 0.405822 0.374106
O O3 0.206106 0.550653 0.122158
O O4 0.947001 0.170683 0.474194
O O5 0.320687 0.410830 0.436966
O O6 0.449439 0.710857 0.439569
O O7 0.169787 0.340010 0.796433
O O8 0.193013 0.838590 0.705739
O O9 0.996911 0.023543 0.845963
O O10 0.741135 0.840244 0.829823
O O11 0.762202 0.839189 0.603063
O O12 0.030013 0.737260 0.319777
O O13 0.616985 0.242311 0.916657
O O14 0.500000 0.500000 0.000000
O O15 0.581671 0.069725 0.184124
O O16 0.500000 0.000000 0.500000
#
# Coordination Sequence:
#
# PCOD9106402 Si02
#       8
#     2   2   2   1   2   2   2   2
#     4  10  20  39  69  98 135 185 237 279 362 415
#     4  10  22  40  65 104 143 186 234 294 356 421
#     4  11  20  41  70  95 144 191 227 293 358 417
#     4  12  22  44  74 102 136 188 238 298 350 432
#     4  11  24  45  70 104 143 177 239 303 350 428
#     4  12  25  48  74 100 138 190 239 292 367 427
#     4  11  23  44  69 101 143 181 234 293 353 426
#     4  11  20  38  66 101 140 189 236 276 350 428
#
# _framework density 26.540496000000001
#
# number of rings (size 3 to 8) (size 9 to 14) (size 15 to 20)
#    0.000    1.067    4.000    5.200    0.000    0.533 
#    4.800    2.000    0.000    0.000    0.000    0.000 
#    0.000    0.000    0.000    0.000    0.000    0.000 
#
# Total GULP energy -83640.577647 kJ/mol
# GULP energy per Si atom -5576.038510 kJ/mol
# Density = 2.648009 g / cm^3
# Si number density = 26.540496 Si / 1000 Ang^3
#
#
#
# Elastic Constant Matrix: (Units=GPa)
#
#
# Indices 1 2 3 4 5 6 
#
# 1 1521.3994 613.1420 962.3895-1255.3659 575.4169 776.6679
# 2 613.1420 361.7887 410.7859 -525.5874 225.2488 318.9660
# 3 962.3895 410.7859 696.8979 -856.7441 367.3197 513.5472
# 4 -1255.3659 -525.5874 -856.7441 1155.5595 -500.2401 -684.2254
# 5 575.4169 225.2488 367.3197 -500.2401 268.3634 303.2715
# 6 776.6679 318.9660 513.5472 -684.2254 303.2715 472.6796
#
#
#
# Elastic Compliance Matrix: (Units=1/GPa)
#
#
# Indices 1 2 3 4 5 6 
#
# 1 0.009822 -0.002546 -0.004153 0.001747 -0.005975 -0.003547
# 2 -0.002546 0.009357 -0.001805 0.001040 0.001837 0.000157
# 3 -0.004153 -0.001805 0.019166 0.010569 0.003790 0.000086
# 4 0.001747 0.001040 0.010569 0.017782 0.007224 0.006050
# 5 -0.005975 0.001837 0.003790 0.007224 0.023337 -0.000056
# 6 -0.003547 0.000157 0.000086 0.006050 -0.000056 0.016537
#
#
# Mechanical properties :
#
#
# Convention : Reuss Voigt Hill
#
# Bulk Modulus (GPa) = 46.86739 728.08007 387.47373
# Shear Modulus (GPa) = 41.62463 418.90507 230.26485
#
# Velocity S-wave (km/s) = 3.96453 12.57692 9.32460
# Velocity P-wave (km/s) = 6.21722 22.04152 16.19386
#
# Compressibility (1/GPa) = 0.02133680
#
# Stress axis : x y z
#
# Youngs Moduli (GPa) = 101.80937 106.87148 52.17679
#
# Poissons Ratio (x) = 0.27214 0.21666
# Poissons Ratio (y) = 0.25925 0.09419
# Poissons Ratio (z) = 0.42276 0.19292
#
# Static dielectric constant tensor:
#      x y z
#    x 1.834730 -0.079970 0.058870 
#    y -0.079970 2.082960 0.001360 
#    z 0.058870 0.001360 2.095700 
# 
# From -- ./inp_files/181095.got.cif
#   From: 2010.05.17/outbox.cif.g08.bks.cpg/sg2_91_cif.got.tgz:181095.got - 2010.06.03 11:33:40.
