data_PCOD9106970
_publ_section_title
;
Structure prediction by ZEFSAII (Michael W. Deem and Ramdas Pophale) SiO2 
 PCOD9106970
Probable space group: P -1
;
_chemical_formula_sum "Si O2"
_cell_formula_units_Z 14
_cell_length_a 9.173203
_cell_length_b 9.015881
_cell_length_c 12.219795
_cell_angle_alpha 54.793657
_cell_angle_beta 96.084998
_cell_angle_gamma 117.099581
_cell_volume 717.868016
_symmetry_space_group_name_H-M "P -1"
_symmetry_group_IT_number 2
_symmetry_cell_setting 'triclinic'
loop_
_space_group_symop_operation_xyz
x,y,z
-x,-y,-z
loop_
_atom_site_type_symbol
_atom_site_label
_atom_site_fract_x
_atom_site_fract_y
_atom_site_fract_z
Si Si1 0.855520 0.583672 0.189584
Si Si2 0.855421 0.901402 0.212069
Si Si3 0.014484 0.710807 0.467263
Si Si4 0.110516 0.385725 0.056557
Si Si5 0.488008 0.689165 0.357447
Si Si6 0.171990 0.511364 0.248937
Si Si7 0.645540 0.182500 0.499505
O O1 0.855614 0.788073 0.147834
O O2 0.742246 0.389972 0.343182
O O3 0.046768 0.613967 0.190678
O O4 0.785236 0.537289 0.080176
O O5 0.668155 0.844121 0.255160
O O6 0.916527 0.787150 0.351078
O O7 0.985433 0.142710 0.130521
O O8 0.209577 0.866989 0.429072
O O9 0.000000 0.500000 0.500000
O O10 0.935908 0.674032 0.596814
O O11 0.192009 0.438760 0.160857
O O12 0.000000 0.500000 0.000000
O O13 0.500000 0.500000 0.500000
O O14 0.347937 0.629048 0.276984
O O15 0.431412 0.780039 0.413882
O O16 0.500000 0.000000 0.500000
#
# Coordination Sequence:
#
# PCOD9106970 Si02
#       7
#     2   2   2   2   2   2   2
#     4  10  20  44  64  83 125 170 207 238 303 378
#     4  12  22  38  68  91 122 163 205 254 310 363
#     4  11  18  39  63  91 121 163 199 249 314 370
#     4  10  25  41  62  88 122 170 212 247 291 372
#     4  12  21  37  61  99 126 148 197 266 315 356
#     4  10  20  40  62  89 127 157 200 254 307 362
#     4  11  23  37  65  93 125 156 199 260 314 357
#
# _framework density 19.502192000000001
#
# number of rings (size 3 to 8) (size 9 to 14) (size 15 to 20)
#    0.000    1.143    7.143    0.429    6.000    1.714 
#    0.000    3.571    3.143    0.000    0.000    0.000 
#    0.000    0.000    0.000    0.000    0.000    0.000 
#
# Total GULP energy -78042.353110 kJ/mol
# GULP energy per Si atom -5574.453794 kJ/mol
# Density = 1.945780 g / cm^3
# Si number density = 19.502192 Si / 1000 Ang^3
#
#
#
# Elastic Constant Matrix: (Units=GPa)
#
#
# Indices 1 2 3 4 5 6 
#
# 1 101.8794 49.7835 30.1570 17.7214 -9.5718 17.2551
# 2 49.7835 127.7546 53.5253 36.0884 -3.3838 9.1190
# 3 30.1570 53.5253 82.2176 36.3339 -9.3394 -13.1040
# 4 17.7214 36.0884 36.3339 46.2280 -7.1342 -1.5878
# 5 -9.5718 -3.3838 -9.3394 -7.1342 22.4729 5.7588
# 6 17.2551 9.1190 -13.1040 -1.5878 5.7588 31.6187
#
#
#
# Elastic Compliance Matrix: (Units=1/GPa)
#
#
# Indices 1 2 3 4 5 6 
#
# 1 0.015058 -0.003273 -0.004851 0.001316 0.007012 -0.010495
# 2 -0.003273 0.013379 -0.006453 -0.004640 -0.002368 -0.004549
# 3 -0.004851 -0.006453 0.026390 -0.013352 -0.000100 0.014793
# 4 0.001316 -0.004640 -0.013352 0.036160 0.006909 -0.004356
# 5 0.007012 -0.002368 -0.000100 0.006909 0.052455 -0.012392
# 6 -0.010495 -0.004549 0.014793 -0.004356 -0.012392 0.046835
#
#
# Mechanical properties :
#
#
# Convention : Reuss Voigt Hill
#
# Bulk Modulus (GPa) = 38.94975 64.30922 51.62948
# Shear Modulus (GPa) = 21.93092 31.95632 26.94362
#
# Velocity S-wave (km/s) = 3.35705 4.05236 3.72098
# Velocity P-wave (km/s) = 5.91960 7.41232 6.70761
#
# Compressibility (1/GPa) = 0.02567411
#
# Stress axis : x y z
#
# Youngs Moduli (GPa) = 66.41097 74.74343 37.89276
#
# Poissons Ratio (x) = 0.24460 0.18380
# Poissons Ratio (y) = 0.21733 0.24454
# Poissons Ratio (z) = 0.32213 0.48235
#
# Static dielectric constant tensor:
#      x y z
#    x 1.712280 -0.014930 0.002610 
#    y -0.014930 1.667310 0.027050 
#    z 0.002610 0.027050 1.728100 
# 
# From -- ./inp_files/181961.got.cif
#   From: 2010.05.17/outbox.cif.g08.bks.cpg/sg2_91_cif.got.tgz:181961.got - 2010.06.03 11:33:40.
