data_PCOD9106339
_publ_section_title
;
Structure prediction by ZEFSAII (Michael W. Deem and Ramdas Pophale) SiO2 
 PCOD9106339
Probable space group: P -1
;
_chemical_formula_sum "Si O2"
_cell_formula_units_Z 14
_cell_length_a 19.025207
_cell_length_b 13.578358
_cell_length_c 21.794300
_cell_angle_alpha 159.277960
_cell_angle_beta 161.703326
_cell_angle_gamma 26.934764
_cell_volume 625.096631
_symmetry_space_group_name_H-M "P -1"
_symmetry_group_IT_number 2
_symmetry_cell_setting 'triclinic'
loop_
_space_group_symop_operation_xyz
x,y,z
-x,-y,-z
loop_
_atom_site_type_symbol
_atom_site_label
_atom_site_fract_x
_atom_site_fract_y
_atom_site_fract_z
Si Si1 0.396588 0.082667 0.642191
Si Si2 0.001859 0.275345 0.118926
Si Si3 0.811106 0.693981 0.921984
Si Si4 0.674499 0.540950 0.094396
Si Si5 0.371770 0.465259 0.452504
Si Si6 0.178865 0.650424 0.692435
Si Si7 0.277671 0.079844 0.400594
O O1 0.461044 0.801972 0.564966
O O2 0.319281 0.042195 0.485316
O O3 0.874205 0.019933 0.165406
O O4 0.624201 0.251494 0.918111
O O5 0.838866 0.491407 0.145540
O O6 0.223106 0.423754 0.365892
O O7 0.898550 0.142211 0.895042
O O8 0.000000 0.000000 0.000000
O O9 0.556015 0.700929 0.742473
O O10 0.772954 0.563341 0.746109
O O11 0.000000 0.500000 0.000000
O O12 0.428234 0.638166 0.922949
O O13 0.748626 0.739267 0.325760
O O14 0.000000 0.500000 0.500000
O O15 0.209645 0.406925 0.523700
O O16 0.500000 0.000000 0.500000
#
# Coordination Sequence:
#
# PCOD9106339 Si02
#       7
#     2   2   2   2   2   2   2
#     4  10  20  39  69 101 143 189 237 298 356 428
#     4  12  23  42  69 113 151 192 237 310 373 432
#     4  11  27  48  72 108 150 199 245 303 371 447
#     4  10  21  39  67 106 149 180 242 305 366 420
#     4  11  24  45  73 101 149 196 246 290 381 445
#     4  11  23  42  72 106 138 187 255 300 356 433
#     4  11  22  39  68 109 150 181 236 308 367 420
#
# _framework density 22.396538
#
# number of rings (size 3 to 8) (size 9 to 14) (size 15 to 20)
#    0.000    1.143    5.714    0.857    6.000    1.143 
#    0.000    0.714    0.000    4.286    0.000    0.000 
#    0.000    0.000    0.000    0.000    0.000    0.000 
#
# Total GULP energy -78107.338884 kJ/mol
# GULP energy per Si atom -5579.095635 kJ/mol
# Density = 2.234556 g / cm^3
# Si number density = 22.396538 Si / 1000 Ang^3
#
#
#
# Elastic Constant Matrix: (Units=GPa)
#
#
# Indices 1 2 3 4 5 6 
#
# 1 139.9327 56.8176 70.9294 -2.9911 6.0153 -20.0477
# 2 56.8176 120.7928 40.7545 3.4568 3.8301 -4.4563
# 3 70.9294 40.7545 139.8456 9.1531 14.0357 -4.9246
# 4 -2.9911 3.4568 9.1531 32.8628 2.6405 -0.4200
# 5 6.0153 3.8301 14.0357 2.6405 53.8514 -4.0253
# 6 -20.0477 -4.4563 -4.9246 -0.4200 -4.0253 40.4067
#
#
#
# Elastic Compliance Matrix: (Units=1/GPa)
#
#
# Indices 1 2 3 4 5 6 
#
# 1 0.012032 -0.003874 -0.005037 0.002931 0.000475 0.005006
# 2 -0.003874 0.010450 -0.001031 -0.001172 -0.000053 -0.000913
# 3 -0.005037 -0.001031 0.010356 -0.003092 -0.002030 -0.001585
# 4 0.002931 -0.001172 -0.003092 0.031769 -0.000907 0.001188
# 5 0.000475 -0.000053 -0.002030 -0.000907 0.019235 0.001889
# 6 0.005006 -0.000913 -0.001585 0.001188 0.001889 0.027139
#
#
# Mechanical properties :
#
#
# Convention : Reuss Voigt Hill
#
# Bulk Modulus (GPa) = 77.19061 81.95269 79.57165
# Shear Modulus (GPa) = 36.98702 40.89549 38.94126
#
# Velocity S-wave (km/s) = 4.06823 4.27778 4.17432
# Velocity P-wave (km/s) = 7.52380 7.81475 7.67065
#
# Compressibility (1/GPa) = 0.01295494
#
# Stress axis : x y z
#
# Youngs Moduli (GPa) = 83.11225 95.69121 96.56285
#
# Poissons Ratio (x) = 0.37075 0.48636
# Poissons Ratio (y) = 0.32201 0.09951
# Poissons Ratio (z) = 0.41861 0.09861
#
# Static dielectric constant tensor:
#      x y z
#    x 1.863830 0.010250 -0.008040 
#    y 0.010250 1.913620 -0.035810 
#    z -0.008040 -0.035810 1.940040 
# 
# From -- ./inp_files/600308.got.cif
#   From: 2010.05.17/outbox.cif.g08.bks.cpg/sg2_301_cif.got.tgz:600308.got - 2010.06.03 11:33:40.
