data_PCOD9106133
_publ_section_title
;
Structure prediction by ZEFSAII (Michael W. Deem and Ramdas Pophale) SiO2 
 PCOD9106133
Probable space group: P -1
;
_chemical_formula_sum "Si O2"
_cell_formula_units_Z 16
_cell_length_a 8.650600
_cell_length_b 14.402247
_cell_length_c 6.313388
_cell_angle_alpha 69.872719
_cell_angle_beta 86.107880
_cell_angle_gamma 89.469988
_cell_volume 736.750375
_symmetry_space_group_name_H-M "P -1"
_symmetry_group_IT_number 2
_symmetry_cell_setting 'triclinic'
loop_
_space_group_symop_operation_xyz
x,y,z
-x,-y,-z
loop_
_atom_site_type_symbol
_atom_site_label
_atom_site_fract_x
_atom_site_fract_y
_atom_site_fract_z
Si Si1 0.852179 0.849197 0.325770
Si Si2 0.355192 0.055412 0.365056
Si Si3 0.117825 0.356260 0.061940
Si Si4 0.313141 0.718882 0.357696
Si Si5 0.368904 0.241793 0.917117
Si Si6 0.074529 0.824084 0.990204
Si Si7 0.917871 0.447982 0.353793
Si Si8 0.175712 0.868846 0.508001
O O1 0.737836 0.898473 0.464304
O O2 0.744171 0.770472 0.268643
O O3 0.006548 0.834177 0.466870
O O4 0.946549 0.886282 0.078235
O O5 0.500000 0.000000 0.500000
O O6 0.244122 0.971503 0.336026
O O7 0.395143 0.137499 0.118138
O O8 0.004337 0.276426 0.019061
O O9 0.041672 0.378813 0.277408
O O10 0.283858 0.307443 0.050966
O O11 0.126874 0.463058 0.866330
O O12 0.474923 0.712847 0.230046
O O13 0.226801 0.617032 0.501399
O O14 0.303172 0.785149 0.519256
O O15 0.205041 0.784274 0.164162
O O16 0.149751 0.883951 0.746840
O O17 0.000000 0.500000 0.500000
#
# Coordination Sequence:
#
# PCOD9106133 Si02
#       8
#     2   2   2   2   2   2   2   2
#     4  10  23  40  65  92 126 178 223 277 316 383
#     4  12  26  42  62  95 139 180 224 272 327 384
#     4  10  22  41  68  96 130 167 219 275 324 397
#     4  11  23  40  67  98 136 174 215 273 337 390
#     4  11  26  44  65  98 139 175 217 275 335 389
#     4  10  20  39  67  95 128 172 222 269 324 390
#     4  11  22  41  72  99 124 170 224 270 328 401
#     4  11  23  41  66  95 132 178 228 271 319 391
#
# _framework density 21.716988000000001
#
# number of rings (size 3 to 8) (size 9 to 14) (size 15 to 20)
#    0.000    1.250    2.500    3.375    1.750    5.500 
#    0.000    0.625    0.000    0.000    0.000    0.000 
#    0.000    0.000    0.000    0.000    0.000    0.000 
#
# Total GULP energy -89194.366200 kJ/mol
# GULP energy per Si atom -5574.647888 kJ/mol
# Density = 2.166756 g / cm^3
# Si number density = 21.716988 Si / 1000 Ang^3
#
#
#
# Elastic Constant Matrix: (Units=GPa)
#
#
# Indices 1 2 3 4 5 6 
#
# 1 117.6609 41.6011 44.8040 -2.9911 -31.7231 -8.9268
# 2 41.6011 91.3430 37.0595 0.8861 -25.8969 8.3935
# 3 44.8040 37.0595 81.1448 -19.2253 -18.4975 13.1331
# 4 -2.9911 0.8861 -19.2253 37.4100 5.0188 -6.1499
# 5 -31.7231 -25.8969 -18.4975 5.0188 38.7583 -3.1317
# 6 -8.9268 8.3935 13.1331 -6.1499 -3.1317 28.8920
#
#
#
# Elastic Compliance Matrix: (Units=1/GPa)
#
#
# Indices 1 2 3 4 5 6 
#
# 1 0.014937 -0.002340 -0.007272 -0.002100 0.008195 0.009042
# 2 -0.002340 0.016452 -0.005218 -0.004745 0.006928 -0.003390
# 3 -0.007272 -0.005218 0.022264 0.009627 -0.000778 -0.008886
# 4 -0.002100 -0.004745 0.009627 0.032666 -0.004295 0.002841
# 5 0.008195 0.006928 -0.000778 -0.004295 0.037648 0.004039
# 6 0.009042 -0.003390 -0.008886 0.002841 0.004039 0.043472
#
#
# Mechanical properties :
#
#
# Convention : Reuss Voigt Hill
#
# Bulk Modulus (GPa) = 41.67858 59.67533 50.67695
# Shear Modulus (GPa) = 24.37860 32.12434 28.25147
#
# Velocity S-wave (km/s) = 3.35410 3.85024 3.61070
# Velocity P-wave (km/s) = 5.85092 6.87780 6.38504
#
# Compressibility (1/GPa) = 0.02399314
#
# Stress axis : x y z
#
# Youngs Moduli (GPa) = 66.94624 60.78223 44.91550
#
# Poissons Ratio (x) = 0.14222 0.32663
# Poissons Ratio (y) = 0.15664 0.23438
# Poissons Ratio (z) = 0.48683 0.31718
#
# Static dielectric constant tensor:
#      x y z
#    x 1.807730 -0.019220 0.026880 
#    y -0.019220 1.813800 0.024870 
#    z 0.026880 0.024870 1.857750 
# 
# From -- ./inp_files/37229.got.cif
#   From: 2010.05.17/outbox.cif.g08.bks.cpg/sg2_19_cif.got.tgz:37229.got - 2010.06.03 11:33:40.
