data_PCOD9106194
_publ_section_title
;
Structure prediction by ZEFSAII (Michael W. Deem and Ramdas Pophale) SiO2 
 PCOD9106194
Probable space group: P -1
;
_chemical_formula_sum "Si O2"
_cell_formula_units_Z 14
_cell_length_a 13.136984
_cell_length_b 9.260885
_cell_length_c 11.145440
_cell_angle_alpha 96.000935
_cell_angle_beta 73.781693
_cell_angle_gamma 149.252909
_cell_volume 639.787385
_symmetry_space_group_name_H-M "P -1"
_symmetry_group_IT_number 2
_symmetry_cell_setting 'triclinic'
loop_
_space_group_symop_operation_xyz
x,y,z
-x,-y,-z
loop_
_atom_site_type_symbol
_atom_site_label
_atom_site_fract_x
_atom_site_fract_y
_atom_site_fract_z
Si Si1 0.675718 0.630987 0.032461
Si Si2 0.548061 0.213310 0.686494
Si Si3 0.770993 0.195305 0.609075
Si Si4 0.638131 0.799600 0.445661
Si Si5 0.625287 0.003617 0.909354
Si Si6 0.921318 0.722425 0.801954
Si Si7 0.167219 0.873659 0.915142
O O1 0.747485 0.857023 0.104779
O O2 0.556821 0.340305 0.087238
O O3 0.500000 0.500000 0.000000
O O4 0.868174 0.806734 0.898482
O O5 0.616543 0.139557 0.611108
O O6 0.511919 0.283120 0.598733
O O7 0.723105 0.465809 0.752375
O O8 0.318215 0.941328 0.802030
O O9 0.748182 0.172315 0.757923
O O10 0.000000 0.500000 0.500000
O O11 0.695180 0.954443 0.559863
O O12 0.500000 0.500000 0.500000
O O13 0.863031 0.030257 0.326181
O O14 0.500000 0.000000 0.000000
O O15 0.791250 0.129571 0.963129
O O16 0.949614 0.633700 0.890298
#
# Coordination Sequence:
#
# PCOD9106194 Si02
#       7
#     2   2   2   2   2   2   2
#     4  10  20  39  67  99 142 180 226 300 358 411
#     4  11  22  47  71  95 146 185 230 303 351 415
#     4  12  25  47  73 103 144 195 235 288 361 427
#     4  11  28  46  73 104 139 192 248 291 352 427
#     4  11  22  42  72 102 141 183 240 293 354 426
#     4  11  21  42  73 101 142 183 237 288 367 411
#     4  10  22  40  70 105 141 182 233 300 361 412
#
# _framework density 21.882269999999998
#
# number of rings (size 3 to 8) (size 9 to 14) (size 15 to 20)
#    0.000    1.143    5.714    0.857    4.000    0.571 
#    5.143    4.286    0.000    0.000    0.000    0.000 
#    0.000    0.000    0.000    0.000    0.000    0.000 
#
# Total GULP energy -78048.684663 kJ/mol
# GULP energy per Si atom -5574.906047 kJ/mol
# Density = 2.183247 g / cm^3
# Si number density = 21.882270 Si / 1000 Ang^3
#
#
#
# Elastic Constant Matrix: (Units=GPa)
#
#
# Indices 1 2 3 4 5 6 
#
# 1 110.9349 18.0379 58.6266 -11.8820 -13.1685 12.2382
# 2 18.0379 77.0864 30.2086 5.8860 -2.3813 -4.9313
# 3 58.6266 30.2086 135.0607 3.1612 -6.4816 -0.9991
# 4 -11.8820 5.8860 3.1612 31.1685 0.8072 0.4679
# 5 -13.1685 -2.3813 -6.4816 0.8072 54.9638 5.0304
# 6 12.2382 -4.9313 -0.9991 0.4679 5.0304 49.9094
#
#
#
# Elastic Compliance Matrix: (Units=1/GPa)
#
#
# Indices 1 2 3 4 5 6 
#
# 1 0.013662 -0.001632 -0.005602 0.006071 0.002816 -0.003964
# 2 -0.001632 0.014688 -0.002497 -0.003166 -0.000172 0.001848
# 3 -0.005602 -0.002497 0.010454 -0.002737 -0.000305 0.001392
# 4 0.006071 -0.003166 -0.002737 0.035290 0.000683 -0.002256
# 5 0.002816 -0.000172 -0.000305 0.000683 0.019057 -0.002641
# 6 -0.003964 0.001848 0.001392 -0.002256 -0.002641 0.021506
#
#
# Mechanical properties :
#
#
# Convention : Reuss Voigt Hill
#
# Bulk Modulus (GPa) = 51.70120 59.64756 55.67438
# Shear Modulus (GPa) = 35.57100 41.62227 38.59663
#
# Velocity S-wave (km/s) = 4.03620 4.36604 4.20436
# Velocity P-wave (km/s) = 6.73791 7.26182 7.00476
#
# Compressibility (1/GPa) = 0.01934191
#
# Stress axis : x y z
#
# Youngs Moduli (GPa) = 73.19753 68.08477 95.65846
#
# Poissons Ratio (x) = 0.11110 0.53583
# Poissons Ratio (y) = 0.11944 0.23889
# Poissons Ratio (z) = 0.41002 0.17003
#
# Static dielectric constant tensor:
#      x y z
#    x 1.789490 0.008730 0.019030 
#    y 0.008730 1.929270 0.050580 
#    z 0.019030 0.050580 1.792180 
# 
# From -- ./inp_files/417340.got.cif
#   From: 2010.05.17/outbox.cif.g08.bks.cpg/sg2_209_cif.got.tgz:417340.got - 2010.06.03 11:33:40.
