data_PCOD9106765
_publ_section_title
;
Structure prediction by ZEFSAII (Michael W. Deem and Ramdas Pophale) SiO2 
 PCOD9106765
Probable space group: P -1
;
_chemical_formula_sum "Si O2"
_cell_formula_units_Z 13
_cell_length_a 12.530359
_cell_length_b 11.341507
_cell_length_c 9.667492
_cell_angle_alpha 58.672194
_cell_angle_beta 147.233915
_cell_angle_gamma 134.731507
_cell_volume 518.921581
_symmetry_space_group_name_H-M "P -1"
_symmetry_group_IT_number 2
_symmetry_cell_setting 'triclinic'
loop_
_space_group_symop_operation_xyz
x,y,z
-x,-y,-z
loop_
_atom_site_type_symbol
_atom_site_label
_atom_site_fract_x
_atom_site_fract_y
_atom_site_fract_z
Si Si1 0.743608 0.542783 0.627198
Si Si2 0.000000 0.000000 0.000000
Si Si3 0.406734 0.538773 0.085157
Si Si4 0.896255 0.334077 0.290165
Si Si5 0.373614 0.239897 0.066813
Si Si6 0.270113 0.778514 0.111295
Si Si7 0.708749 0.135007 0.484644
O O1 0.515044 0.548018 0.348414
O O2 0.688797 0.363053 0.712268
O O3 0.852405 0.585384 0.561790
O O4 0.982686 0.688596 0.881215
O O5 0.856280 0.090442 0.766755
O O6 0.875410 0.931455 0.059873
O O7 0.370243 0.379765 0.065188
O O8 0.163360 0.528987 0.837177
O O9 0.572905 0.702724 0.068740
O O10 0.858549 0.239697 0.447957
O O11 0.714140 0.211442 0.045164
O O12 0.592888 0.228972 0.360382
O O13 0.470419 0.955660 0.284828
#
# Coordination Sequence:
#
# PCOD9106765 Si02
#       7
#     2   1   2   2   2   2   2
#     4   9  19  37  58  89 113 155 192 238 291 340
#     4  12  24  40  60  86 116 160 196 234 300 344
#     4  10  20  40  61  84 120 153 199 233 290 348
#     4   9  20  37  61  88 117 153 190 240 289 344
#     4  10  24  39  58  88 118 156 194 246 280 346
#     4   9  20  39  58  88 121 148 190 249 285 341
#     4  11  22  41  59  87 121 151 195 242 292 344
#
# _framework density 25.051953000000001
#
# number of rings (size 3 to 8) (size 9 to 14) (size 15 to 20)
#    0.923    1.231    0.000    2.769    0.000    3.077 
#    2.769    6.154    0.000    0.000    0.000    0.000 
#    0.000    0.000    0.000    0.000    0.000    0.000 
#
# Total GULP energy -72397.365936 kJ/mol
# GULP energy per Si atom -5569.028149 kJ/mol
# Density = 2.499493 g / cm^3
# Si number density = 25.051953 Si / 1000 Ang^3
#
#
#
# Elastic Constant Matrix: (Units=GPa)
#
#
# Indices 1 2 3 4 5 6 
#
# 1 32.7069 6.5762 -3.1729 -5.9229 -15.4918 0.3956
# 2 6.5762 83.5358 30.5121 -3.6310 -10.7053 -8.7842
# 3 -3.1729 30.5121 159.9978 -39.1853 -7.0686 -3.8817
# 4 -5.9229 -3.6310 -39.1853 31.9148 2.9510 5.0325
# 5 -15.4918 -10.7053 -7.0686 2.9510 36.5432 -12.5185
# 6 0.3956 -8.7842 -3.8817 5.0325 -12.5185 17.2292
#
#
#
# Elastic Compliance Matrix: (Units=1/GPa)
#
#
# Indices 1 2 3 4 5 6 
#
# 1 0.043685 -0.000184 0.004551 0.009246 0.023498 0.014301
# 2 -0.000184 0.016139 -0.003805 -0.006424 0.010121 0.016606
# 3 0.004551 -0.003805 0.010334 0.013552 0.000613 -0.003229
# 4 0.009246 -0.006424 0.013552 0.052851 -0.006718 -0.020753
# 5 0.023498 0.010121 0.000613 -0.006718 0.057589 0.048565
# 6 0.014301 0.016606 -0.003229 -0.020753 0.048565 0.106800
#
#
# Mechanical properties :
#
#
# Convention : Reuss Voigt Hill
#
# Bulk Modulus (GPa) = 14.02888 38.23015 26.12952
# Shear Modulus (GPa) = 16.12725 33.29242 24.70984
#
# Velocity S-wave (km/s) = 2.53998 3.64941 3.14402
# Velocity P-wave (km/s) = 3.77016 5.74901 4.86133
#
# Compressibility (1/GPa) = 0.07128151
#
# Stress axis : x y z
#
# Youngs Moduli (GPa) = 22.89137 61.96126 96.77080
#
# Poissons Ratio (x) = 0.01142 -0.44041
# Poissons Ratio (y) = 0.00422 0.36818
# Poissons Ratio (z) = -0.10418 0.23574
#
# Static dielectric constant tensor:
#      x y z
#    x 2.179060 0.047370 0.040390 
#    y 0.047370 1.982330 0.039060 
#    z 0.040390 0.039060 1.985850 
# 
# From -- ./inp_files/448576.got.cif
#   From: 2010.05.17/outbox.cif.g08.bks.cpg/sg2_225_cif.got.tgz:448576.got - 2010.06.03 11:33:40.
