data_PCOD9106190
_publ_section_title
;
Structure prediction by ZEFSAII (Michael W. Deem and Ramdas Pophale) SiO2 
 PCOD9106190
Probable space group: P -1
;
_chemical_formula_sum "Si O2"
_cell_formula_units_Z 12
_cell_length_a 11.800732
_cell_length_b 8.575812
_cell_length_c 8.888812
_cell_angle_alpha 54.225962
_cell_angle_beta 44.190967
_cell_angle_gamma 63.387814
_cell_volume 508.073686
_symmetry_space_group_name_H-M "P -1"
_symmetry_group_IT_number 2
_symmetry_cell_setting 'triclinic'
loop_
_space_group_symop_operation_xyz
x,y,z
-x,-y,-z
loop_
_atom_site_type_symbol
_atom_site_label
_atom_site_fract_x
_atom_site_fract_y
_atom_site_fract_z
Si Si1 0.400697 0.219117 0.796613
Si Si2 0.966365 0.815578 0.740267
Si Si3 0.441786 0.481715 0.310102
Si Si4 0.926353 0.966307 0.250187
Si Si5 0.092461 0.632310 0.449693
Si Si6 0.555263 0.879191 0.661602
O O1 0.413274 0.349346 0.560168
O O2 0.463753 0.341580 0.809307
O O3 0.492357 0.012265 0.786167
O O4 0.214134 0.187036 0.026141
O O5 0.003612 0.641044 0.690888
O O6 0.000000 0.000000 0.500000
O O7 0.087952 0.835629 0.753100
O O8 0.274892 0.570684 0.350452
O O9 0.507390 0.331306 0.202546
O O10 0.752806 0.871287 0.477041
O O11 0.064381 0.834153 0.276959
O O12 0.000000 0.000000 0.000000
O O13 0.000000 0.500000 0.500000
O O14 0.500000 0.000000 0.500000
#
# Coordination Sequence:
#
# PCOD9106190 Si02
#       6
#     2   2   2   2   2   2
#     4  10  22  44  71 102 140 184 237 287 358 426
#     4  10  24  45  67  96 135 187 235 288 349 415
#     4  10  21  42  70 106 139 179 231 295 356 419
#     4  11  22  43  71 100 136 189 238 282 354 429
#     4  11  23  44  66 101 146 174 234 298 345 417
#     4  10  20  39  67  98 138 177 228 286 350 419
#
# _framework density 23.618624000000001
#
# number of rings (size 3 to 8) (size 9 to 14) (size 15 to 20)
#    0.000    1.667    1.667    3.000    0.000    0.667 
#   15.000   17.500    0.000    0.000    0.000    0.000 
#    0.000    0.000    0.000    0.000    0.000    0.000 
#
# Total GULP energy -66989.983480 kJ/mol
# GULP energy per Si atom -5582.498623 kJ/mol
# Density = 2.356487 g / cm^3
# Si number density = 23.618624 Si / 1000 Ang^3
#
#
#
# Elastic Constant Matrix: (Units=GPa)
#
#
# Indices 1 2 3 4 5 6 
#
# 1 128.6070 53.7468 1.3902 -6.2796 -3.5753 35.6894
# 2 53.7468 114.5736 24.0210 9.1131 9.2799 33.0973
# 3 1.3902 24.0210 64.9749 0.0732 5.0273 20.6640
# 4 -6.2796 9.1131 0.0732 27.2911 5.1664 6.2012
# 5 -3.5753 9.2799 5.0273 5.1664 29.3986 1.3848
# 6 35.6894 33.0973 20.6640 6.2012 1.3848 70.1991
#
#
#
# Elastic Compliance Matrix: (Units=1/GPa)
#
#
# Indices 1 2 3 4 5 6 
#
# 1 0.011570 -0.005243 0.003069 0.005144 0.001859 -0.004805
# 2 -0.005243 0.013188 -0.003890 -0.004544 -0.003245 -0.001942
# 3 0.003069 -0.003890 0.018658 0.003575 -0.001959 -0.005496
# 4 0.005144 -0.004544 0.003575 0.041552 -0.005614 -0.005085
# 5 0.001859 -0.003245 -0.001959 -0.005614 0.036543 0.000937
# 6 -0.004805 -0.001942 -0.005496 -0.005085 0.000937 0.019652
#
#
# Mechanical properties :
#
#
# Convention : Reuss Voigt Hill
#
# Bulk Modulus (GPa) = 31.95924 51.83017 41.89471
# Shear Modulus (GPa) = 30.54012 40.64426 35.59219
#
# Velocity S-wave (km/s) = 3.59980 4.15282 3.88616
# Velocity P-wave (km/s) = 5.55328 6.70722 6.15734
#
# Compressibility (1/GPa) = 0.03128986
#
# Stress axis : x y z
#
# Youngs Moduli (GPa) = 86.43308 75.82579 53.59556
#
# Poissons Ratio (x) = 0.39752 -0.16449
# Poissons Ratio (y) = 0.45313 0.20846
# Poissons Ratio (z) = -0.26527 0.29493
#
# Static dielectric constant tensor:
#      x y z
#    x 1.910390 0.130350 0.025100 
#    y 0.130350 2.173550 0.043210 
#    z 0.025100 0.043210 1.892180 
# 
# From -- ./inp_files/173295.got.cif
#   From: 2010.05.17/outbox.cif.g08.bks.cpg/sg2_87_cif.got.tgz:173295.got - 2010.06.03 11:33:40.
