data_PCOD9106569
_publ_section_title
;
Structure prediction by ZEFSAII (Michael W. Deem and Ramdas Pophale) SiO2 
 PCOD9106569
Probable space group: P -1
;
_chemical_formula_sum "Si O2"
_cell_formula_units_Z 14
_cell_length_a 16.733914
_cell_length_b 17.943534
_cell_length_c 5.343514
_cell_angle_alpha 88.945079
_cell_angle_beta 104.113208
_cell_angle_gamma 156.408009
_cell_volume 528.767469
_symmetry_space_group_name_H-M "P -1"
_symmetry_group_IT_number 2
_symmetry_cell_setting 'triclinic'
loop_
_space_group_symop_operation_xyz
x,y,z
-x,-y,-z
loop_
_atom_site_type_symbol
_atom_site_label
_atom_site_fract_x
_atom_site_fract_y
_atom_site_fract_z
Si Si1 0.254142 0.628390 0.609351
Si Si2 0.230559 0.127984 0.407957
Si Si3 0.865029 0.628605 0.652772
Si Si4 0.725680 0.099422 0.749697
Si Si5 0.995612 0.780660 0.250114
Si Si6 0.675825 0.715165 0.029022
Si Si7 0.265330 0.760273 0.960195
O O1 0.290176 0.694236 0.911495
O O2 0.279298 0.562969 0.566052
O O3 0.987738 0.428266 0.338819
O O4 0.456137 0.840996 0.582738
O O5 0.200536 0.015285 0.333987
O O6 0.320353 0.221299 0.749363
O O7 0.369524 0.287711 0.278691
O O8 0.949915 0.916810 0.204548
O O9 0.888122 0.706821 0.442819
O O10 0.127640 0.817020 0.918935
O O11 0.810984 0.616332 0.886501
O O12 0.875105 0.190450 0.632312
O O13 0.748830 0.207282 0.789812
O O14 0.500000 0.500000 0.000000
O O15 0.500000 0.000000 0.000000
#
# Coordination Sequence:
#
# PCOD9106569 Si02
#       7
#     2   2   2   2   2   2   2
#     4   9  15  32  55  81 108 148 194 237 283 333
#     4  10  21  39  62  86 125 154 189 244 289 336
#     4   9  20  36  53  78 116 146 188 233 277 341
#     4   8  18  33  53  78 113 145 188 237 284 341
#     4  10  20  40  55  82 120 151 181 232 289 334
#     4  10  21  40  63  91 116 154 198 237 283 346
#     4   8  14  28  57  79 109 146 191 238 289 330
#
# _framework density 26.476669000000001
#
# number of rings (size 3 to 8) (size 9 to 14) (size 15 to 20)
#    0.857    2.000    0.000    1.286    0.000    0.000 
#    7.714    0.714    0.000   12.000    0.000    0.000 
#    0.000    0.000    0.000    0.000    0.000    0.000 
#
# Total GULP energy -78151.881321 kJ/mol
# GULP energy per Si atom -5582.277237 kJ/mol
# Density = 2.641641 g / cm^3
# Si number density = 26.476669 Si / 1000 Ang^3
#
#
#
# Elastic Constant Matrix: (Units=GPa)
#
#
# Indices 1 2 3 4 5 6 
#
# 1 72.1367 30.5103 37.6270 1.1299 -15.4083 3.3103
# 2 30.5103 134.7868 44.4534 -6.7618 -1.7645 11.7277
# 3 37.6270 44.4534 125.6198 -15.1821 -12.3405 -4.2626
# 4 1.1299 -6.7618 -15.1821 45.2382 -6.7941 -1.9432
# 5 -15.4083 -1.7645 -12.3405 -6.7941 40.0155 9.4345
# 6 3.3103 11.7277 -4.2626 -1.9432 9.4345 49.8354
#
#
#
# Elastic Compliance Matrix: (Units=1/GPa)
#
#
# Indices 1 2 3 4 5 6 
#
# 1 0.018618 -0.002594 -0.004327 -0.001500 0.005981 -0.002187
# 2 -0.002594 0.009018 -0.002523 0.000353 -0.000850 -0.001991
# 3 -0.004327 -0.002523 0.010830 0.003707 0.001813 0.001609
# 4 -0.001500 0.000353 0.003707 0.024146 0.004585 0.000407
# 5 0.005981 -0.000850 0.001813 0.004585 0.029896 -0.005523
# 6 -0.002187 -0.001991 0.001609 0.000407 -0.005523 0.021879
#
#
# Mechanical properties :
#
#
# Convention : Reuss Voigt Hill
#
# Bulk Modulus (GPa) = 51.07462 61.96942 56.52202
# Shear Modulus (GPa) = 35.76557 41.68132 38.72345
#
# Velocity S-wave (km/s) = 3.67936 3.97201 3.82848
# Velocity P-wave (km/s) = 6.11412 6.67022 6.39822
#
# Compressibility (1/GPa) = 0.01957920
#
# Stress axis : x y z
#
# Youngs Moduli (GPa) = 53.71139 110.88784 92.33733
#
# Poissons Ratio (x) = 0.28765 0.39951
# Poissons Ratio (y) = 0.13933 0.23293
# Poissons Ratio (z) = 0.23239 0.27973
#
# Static dielectric constant tensor:
#      x y z
#    x 2.143220 0.076500 -0.031950 
#    y 0.076500 2.081870 -0.017880 
#    z -0.031950 -0.017880 2.105970 
# 
# From -- ./inp_files/120196.got.cif
#   From: 2010.05.17/outbox.cif.g08.bks.cpg/sg2_61_cif.got.tgz:120196.got - 2010.06.03 11:33:40.
