data_PCOD9106893
_publ_section_title
;
Structure prediction by ZEFSAII (Michael W. Deem and Ramdas Pophale) SiO2 
 PCOD9106893
Probable space group: P -1
;
_chemical_formula_sum "Si O2"
_cell_formula_units_Z 14
_cell_length_a 7.094154
_cell_length_b 7.779159
_cell_length_c 15.585525
_cell_angle_alpha 50.957141
_cell_angle_beta 99.722285
_cell_angle_gamma 89.022262
_cell_volume 649.816612
_symmetry_space_group_name_H-M "P -1"
_symmetry_group_IT_number 2
_symmetry_cell_setting 'triclinic'
loop_
_space_group_symop_operation_xyz
x,y,z
-x,-y,-z
loop_
_atom_site_type_symbol
_atom_site_label
_atom_site_fract_x
_atom_site_fract_y
_atom_site_fract_z
Si Si1 0.343241 0.723088 0.607682
Si Si2 0.099919 0.731207 0.200783
Si Si3 0.053729 0.710546 0.724787
Si Si4 0.965302 0.196084 0.021504
Si Si5 0.721078 0.515444 0.031272
Si Si6 0.638585 0.941493 0.655308
Si Si7 0.514812 0.337896 0.635708
O O1 0.157389 0.815482 0.621751
O O2 0.526675 0.746106 0.674992
O O3 0.359901 0.472558 0.648119
O O4 0.357564 0.886168 0.477618
O O5 0.282743 0.679217 0.292813
O O6 0.007570 0.509533 0.253900
O O7 0.128508 0.799337 0.081879
O O8 0.965714 0.962846 0.144364
O O9 0.212331 0.627568 0.834240
O O10 0.864568 0.843895 0.714741
O O11 0.837074 0.396954 0.997347
O O12 0.185478 0.256517 0.018635
O O13 0.500000 0.500000 0.000000
O O14 0.524366 0.087266 0.677140
O O15 0.500000 0.500000 0.500000
#
# Coordination Sequence:
#
# PCOD9106893 Si02
#       7
#     2   2   2   2   2   2   2
#     4  10  22  40  63  92 125 161 209 259 303 366
#     4  10  20  40  62  84 126 162 204 252 312 367
#     4  11  22  38  64  91 124 163 204 263 309 363
#     4   9  21  41  61  85 121 166 196 258 311 362
#     4  10  22  38  61  91 119 153 212 252 307 373
#     4  10  21  42  62  88 127 167 205 250 313 368
#     4  10  21  39  63  90 123 165 204 251 311 371
#
# _framework density 21.544537999999999
#
# number of rings (size 3 to 8) (size 9 to 14) (size 15 to 20)
#    0.000    2.000    1.429    1.286    2.000    2.286 
#    7.714    3.571    0.000    0.000    0.000    0.000 
#    0.000    0.000    0.000    0.000    0.000    0.000 
#
# Total GULP energy -77979.346459 kJ/mol
# GULP energy per Si atom -5569.953318 kJ/mol
# Density = 2.149550 g / cm^3
# Si number density = 21.544538 Si / 1000 Ang^3
#
#
#
# Elastic Constant Matrix: (Units=GPa)
#
#
# Indices 1 2 3 4 5 6 
#
# 1 63.6420 16.4226 23.0461 -2.3439 18.8811 0.9006
# 2 16.4226 109.9242 19.9816 0.5542 7.8443 0.1951
# 3 23.0461 19.9816 58.1678 19.7243 25.8855 10.9657
# 4 -2.3439 0.5542 19.7243 24.6022 3.7800 8.7524
# 5 18.8811 7.8443 25.8855 3.7800 30.1395 9.8393
# 6 0.9006 0.1951 10.9657 8.7524 9.8393 24.1838
#
#
#
# Elastic Compliance Matrix: (Units=1/GPa)
#
#
# Indices 1 2 3 4 5 6 
#
# 1 0.021709 -0.001253 -0.007814 0.008564 -0.008673 0.003174
# 2 -0.001253 0.010031 -0.004965 0.003248 0.001950 0.000248
# 3 -0.007814 -0.004965 0.046886 -0.035007 -0.031129 0.004406
# 4 0.008564 0.003248 -0.035007 0.073164 0.021051 -0.019515
# 5 -0.008673 0.001950 -0.031129 0.021051 0.069166 -0.021337
# 6 0.003174 0.000248 0.004406 -0.019515 -0.021337 0.054976
#
#
# Mechanical properties :
#
#
# Convention : Reuss Voigt Hill
#
# Bulk Modulus (GPa) = 19.77742 38.95941 29.36842
# Shear Modulus (GPa) = 15.58362 27.27069 21.42716
#
# Velocity S-wave (km/s) = 2.69238 3.56164 3.15707
# Velocity P-wave (km/s) = 4.34338 5.91914 5.19139
#
# Compressibility (1/GPa) = 0.05056270
#
# Stress axis : x y z
#
# Youngs Moduli (GPa) = 46.06310 99.69140 21.32832
#
# Poissons Ratio (x) = 0.12490 0.16665
# Poissons Ratio (y) = 0.05771 0.10590
# Poissons Ratio (z) = 0.35991 0.49501
#
# Static dielectric constant tensor:
#      x y z
#    x 1.793170 -0.008380 -0.011620 
#    y -0.008380 1.893220 -0.022280 
#    z -0.011620 -0.022280 1.797010 
# 
# From -- ./inp_files/504730.got.cif
#   From: 2010.05.17/outbox.cif.g08.bks.cpg/sg2_253_cif.got.tgz:504730.got - 2010.06.03 11:33:40.
