data_PCOD9106524
_publ_section_title
;
Structure prediction by ZEFSAII (Michael W. Deem and Ramdas Pophale) SiO2 
 PCOD9106524
Probable space group: P -1
;
_chemical_formula_sum "Si O2"
_cell_formula_units_Z 16
_cell_length_a 9.982288
_cell_length_b 7.249859
_cell_length_c 15.516380
_cell_angle_alpha 49.815091
_cell_angle_beta 131.784576
_cell_angle_gamma 132.043221
_cell_volume 580.274147
_symmetry_space_group_name_H-M "P -1"
_symmetry_group_IT_number 2
_symmetry_cell_setting 'triclinic'
loop_
_space_group_symop_operation_xyz
x,y,z
-x,-y,-z
loop_
_atom_site_type_symbol
_atom_site_label
_atom_site_fract_x
_atom_site_fract_y
_atom_site_fract_z
Si Si1 0.444211 0.360173 0.608785
Si Si2 0.740485 0.467583 0.855830
Si Si3 0.120392 0.879215 0.645841
Si Si4 0.296720 0.780654 0.437031
Si Si5 0.119202 0.380727 0.719397
Si Si6 0.818299 0.275374 0.105225
Si Si7 0.199843 0.211459 0.977524
Si Si8 0.442001 0.178242 0.234886
O O1 0.500000 0.500000 0.500000
O O2 0.611573 0.413497 0.732378
O O3 0.305024 0.499024 0.542335
O O4 0.335840 0.044614 0.648188
O O5 0.695881 0.688156 0.821011
O O6 0.960546 0.573078 0.882122
O O7 0.694218 0.230341 0.976874
O O8 0.042717 0.572114 0.683428
O O9 0.163972 0.921691 0.754380
O O10 0.000000 0.000000 0.500000
O O11 0.082857 0.769991 0.377198
O O12 0.500000 0.000000 0.500000
O O13 0.340597 0.891436 0.324581
O O14 0.165899 0.199330 0.863625
O O15 0.334992 0.595860 0.716099
O O16 0.767390 0.490854 0.070886
O O17 0.380909 0.167748 0.111074
O O18 0.000000 0.000000 0.000000
#
# Coordination Sequence:
#
# PCOD9106524 Si02
#       8
#     2   2   2   2   2   2   2   2
#     4  12  25  42  70 100 137 182 237 289 350 419
#     4  10  22  45  63  96 136 181 230 284 346 414
#     4  11  22  42  67 103 136 179 234 287 344 417
#     4  12  25  46  67 102 135 184 233 282 358 415
#     4  11  24  43  71 102 140 181 234 288 346 424
#     4   9  22  41  69  93 138 183 229 282 349 418
#     4  10  20  39  72 103 133 178 232 286 350 414
#     4  11  23  43  66 102 140 180 230 287 355 416
#
# _framework density 27.573174000000002
#
# number of rings (size 3 to 8) (size 9 to 14) (size 15 to 20)
#    0.000    1.250    3.750    1.875    1.750    2.000 
#    2.250    0.000    0.000    0.000    0.000    0.000 
#    0.000    0.000    0.000    0.000    0.000    0.000 
#
# Total GULP energy -89378.009603 kJ/mol
# GULP energy per Si atom -5586.125600 kJ/mol
# Density = 2.751042 g / cm^3
# Si number density = 27.573174 Si / 1000 Ang^3
#
#
#
# Elastic Constant Matrix: (Units=GPa)
#
#
# Indices 1 2 3 4 5 6 
#
# 1 55.1157 9.0663 31.4523 -5.9648 -10.1072 24.2601
# 2 9.0663 93.1734 45.0955 -1.0009 -3.4971 25.8877
# 3 31.4523 45.0955 227.8202 11.5001 -20.8103 5.4284
# 4 -5.9648 -1.0009 11.5001 54.6332 4.6847 0.3882
# 5 -10.1072 -3.4971 -20.8103 4.6847 48.7677 -0.3296
# 6 24.2601 25.8877 5.4284 0.3882 -0.3296 48.1641
#
#
#
# Elastic Compliance Matrix: (Units=1/GPa)
#
#
# Indices 1 2 3 4 5 6 
#
# 1 0.027799 0.003767 -0.004050 0.003738 0.003839 -0.015574
# 2 0.003767 0.014554 -0.003226 0.001402 0.000250 -0.009366
# 3 -0.004050 -0.003226 0.005751 -0.001870 0.001584 0.003152
# 4 0.003738 0.001402 -0.001870 0.019304 -0.001795 -0.002594
# 5 0.003839 0.000250 0.001584 -0.001795 0.022153 -0.002080
# 6 -0.015574 -0.009366 0.003152 -0.002594 -0.002080 0.033293
#
#
# Mechanical properties :
#
#
# Convention : Reuss Voigt Hill
#
# Bulk Modulus (GPa) = 24.33919 60.81526 42.57723
# Shear Modulus (GPa) = 34.82664 49.67936 42.25300
#
# Velocity S-wave (km/s) = 3.55781 4.24928 3.91883
# Velocity P-wave (km/s) = 5.07185 6.79552 5.99594
#
# Compressibility (1/GPa) = 0.04108600
#
# Stress axis : x y z
#
# Youngs Moduli (GPa) = 35.97213 68.70899 173.87806
#
# Poissons Ratio (x) = -0.25882 0.70429
# Poissons Ratio (y) = -0.13550 0.56088
# Poissons Ratio (z) = 0.14570 0.22164
#
# Static dielectric constant tensor:
#      x y z
#    x 13.063160 6.828060 13.704100 
#    y 6.828060 6.633440 8.790550 
#    z 13.704100 8.790550 19.506520 
# 
# From -- ./inp_files/559626.got.cif
#   From: 2010.05.17/outbox.cif.g08.bks.cpg/sg2_280_cif.got.tgz:559626.got - 2010.06.03 11:33:40.
