data_PCOD9106657
_publ_section_title
;
Structure prediction by ZEFSAII (Michael W. Deem and Ramdas Pophale) SiO2 
 PCOD9106657
Probable space group: P -1
;
_chemical_formula_sum "Si O2"
_cell_formula_units_Z 14
_cell_length_a 11.320319
_cell_length_b 12.968082
_cell_length_c 9.327532
_cell_angle_alpha 30.502901
_cell_angle_beta 82.109315
_cell_angle_gamma 83.311784
_cell_volume 688.450860
_symmetry_space_group_name_H-M "P -1"
_symmetry_group_IT_number 2
_symmetry_cell_setting 'triclinic'
loop_
_space_group_symop_operation_xyz
x,y,z
-x,-y,-z
loop_
_atom_site_type_symbol
_atom_site_label
_atom_site_fract_x
_atom_site_fract_y
_atom_site_fract_z
Si Si1 0.104839 0.329690 0.708131
Si Si2 0.727145 0.786006 0.926279
Si Si3 0.275600 0.211224 0.560846
Si Si4 0.113807 0.825364 0.638087
Si Si5 0.680655 0.469008 0.074285
Si Si6 0.520082 0.074479 0.575449
Si Si7 0.938005 0.034607 0.230211
O O1 0.192193 0.333439 0.828713
O O2 0.201137 0.297845 0.603986
O O3 0.000000 0.500000 0.500000
O O4 0.026557 0.126049 0.989380
O O5 0.672131 0.629298 0.010625
O O6 0.815029 0.958552 0.638110
O O7 0.613650 0.925694 0.817878
O O8 0.403080 0.098079 0.665279
O O9 0.185674 0.044632 0.710759
O O10 0.300615 0.402678 0.225446
O O11 0.198578 0.654055 0.773614
O O12 0.079179 0.798316 0.841585
O O13 0.002912 0.851378 0.521335
O O14 0.579236 0.298345 0.285027
O O15 0.500000 0.000000 0.500000
#
# Coordination Sequence:
#
# PCOD9106657 Si02
#       7
#     2   2   2   2   2   2   2
#     4  11  26  43  61  94 137 172 216 260 319 390
#     4  10  22  43  65  96 130 166 214 270 317 377
#     4  12  23  39  66  95 127 177 209 259 330 376
#     4   9  19  36  65  94 126 162 217 271 315 372
#     4  11  21  39  70  96 122 167 218 268 324 369
#     4  11  23  43  71  98 128 160 220 277 312 378
#     4  10  20  40  59  93 130 169 214 265 317 378
#
# _framework density 20.335512000000001
#
# number of rings (size 3 to 8) (size 9 to 14) (size 15 to 20)
#    0.000    1.429    2.857    2.571    2.000    1.143 
#    2.571    0.714    0.000    0.000    0.000    0.000 
#    0.000    0.000    0.000    0.000    0.000    0.000 
#
# Total GULP energy -77993.542711 kJ/mol
# GULP energy per Si atom -5570.967336 kJ/mol
# Density = 2.028923 g / cm^3
# Si number density = 20.335512 Si / 1000 Ang^3
#
#
#
# Elastic Constant Matrix: (Units=GPa)
#
#
# Indices 1 2 3 4 5 6 
#
# 1 142.9384 50.5887 41.5836 2.5816 4.4132 -31.5419
# 2 50.5887 89.7595 47.1117 7.3886 1.7365 -22.8942
# 3 41.5836 47.1117 61.7495 -3.3569 1.3297 -4.9112
# 4 2.5816 7.3886 -3.3569 22.5964 -6.4098 2.2021
# 5 4.4132 1.7365 1.3297 -6.4098 29.1032 -1.5576
# 6 -31.5419 -22.8942 -4.9112 2.2021 -1.5576 30.7106
#
#
#
# Elastic Compliance Matrix: (Units=1/GPa)
#
#
# Indices 1 2 3 4 5 6 
#
# 1 0.011647 0.000888 -0.007800 -0.004426 -0.001817 0.011602
# 2 0.000888 0.027994 -0.021176 -0.015176 -0.003146 0.019323
# 3 -0.007800 -0.021176 0.036905 0.016071 0.003289 -0.018881
# 4 -0.004426 -0.015176 0.016071 0.057309 0.012567 -0.016761
# 5 -0.001817 -0.003146 0.003289 0.012567 0.037297 -0.002694
# 6 0.011602 0.019323 -0.018881 -0.016761 -0.002694 0.056930
#
#
# Mechanical properties :
#
#
# Convention : Reuss Voigt Hill
#
# Bulk Modulus (GPa) = 49.09269 63.66837 56.38053
# Shear Modulus (GPa) = 17.17938 26.82628 22.00283
#
# Velocity S-wave (km/s) = 2.90969 3.63600 3.29293
# Velocity P-wave (km/s) = 5.95669 7.00030 6.49948
#
# Compressibility (1/GPa) = 0.02036963
#
# Stress axis : x y z
#
# Youngs Moduli (GPa) = 85.85859 35.72220 27.09678
#
# Poissons Ratio (x) = -0.03174 0.21135
# Poissons Ratio (y) = -0.07628 0.57381
# Poissons Ratio (z) = 0.66969 0.75647
#
# Static dielectric constant tensor:
#      x y z
#    x 1.748750 -0.021960 0.033810 
#    y -0.021960 1.774990 0.006090 
#    z 0.033810 0.006090 1.724570 
# 
# From -- ./inp_files/261229.got.cif
#   From: 2010.05.17/outbox.cif.g08.bks.cpg/sg2_131_cif.got.tgz:261229.got - 2010.06.03 11:33:40.
