data_PCOD9106420
_publ_section_title
;
Structure prediction by ZEFSAII (Michael W. Deem and Ramdas Pophale) SiO2 
 PCOD9106420
Probable space group: P -1
;
_chemical_formula_sum "Si O2"
_cell_formula_units_Z 14
_cell_length_a 15.325932
_cell_length_b 8.071082
_cell_length_c 8.414217
_cell_angle_alpha 119.807567
_cell_angle_beta 131.363773
_cell_angle_gamma 46.150897
_cell_volume 561.860605
_symmetry_space_group_name_H-M "P -1"
_symmetry_group_IT_number 2
_symmetry_cell_setting 'triclinic'
loop_
_space_group_symop_operation_xyz
x,y,z
-x,-y,-z
loop_
_atom_site_type_symbol
_atom_site_label
_atom_site_fract_x
_atom_site_fract_y
_atom_site_fract_z
Si Si1 0.981018 0.304218 0.967512
Si Si2 0.212191 0.114857 0.694978
Si Si3 0.479356 0.704121 0.471546
Si Si4 0.220698 0.154336 0.378251
Si Si5 0.284378 0.286733 0.177196
Si Si6 0.936864 0.147499 0.336159
Si Si7 0.363740 0.599261 0.772016
O O1 0.814453 0.435836 0.824163
O O2 0.047826 0.049207 0.856238
O O3 0.000000 0.500000 0.000000
O O4 0.057125 0.263405 0.205940
O O5 0.256013 0.178377 0.613228
O O6 0.050785 0.212398 0.501117
O O7 0.304599 0.839362 0.717090
O O8 0.229922 0.211205 0.927397
O O9 0.500000 0.500000 0.500000
O O10 0.553406 0.815175 0.698756
O O11 0.570899 0.601237 0.374553
O O12 0.316036 0.880990 0.336869
O O13 0.262370 0.225980 0.299738
O O14 0.773881 0.343031 0.268013
O O15 0.000000 0.000000 0.500000
O O16 0.500000 0.500000 0.000000
#
# Coordination Sequence:
#
# PCOD9106420 Si02
#       7
#     2   2   2   2   2   2   2
#     4  10  21  41  69 100 137 179 230 284 352 417
#     4  11  24  45  70 104 141 183 240 290 349 433
#     4  12  25  47  70 102 141 186 237 292 353 426
#     4  11  24  45  72 103 143 183 235 288 361 417
#     4  11  25  47  72 100 145 189 231 294 359 420
#     4  10  20  39  70 101 138 183 228 291 352 412
#     4  11  22  43  71 102 142 184 233 290 353 419
#
# _framework density 24.917211999999999
#
# number of rings (size 3 to 8) (size 9 to 14) (size 15 to 20)
#    0.000    1.143    1.429    7.286    0.000    2.857 
#    5.143    0.000    3.143    0.000    0.000    0.000 
#    0.000    0.000    0.000    0.000    0.000    0.000 
#
# Total GULP energy -77954.766727 kJ/mol
# GULP energy per Si atom -5568.197623 kJ/mol
# Density = 2.486050 g / cm^3
# Si number density = 24.917212 Si / 1000 Ang^3
#
#
#
# Elastic Constant Matrix: (Units=GPa)
#
#
# Indices 1 2 3 4 5 6 
#
# 1 91.6511 30.1907 71.1905 -10.0864 -7.9341 2.1763
# 2 30.1907 92.5549 28.4066 -24.5209 -1.2009 -9.3780
# 3 71.1905 28.4066 152.8062 -17.0670 -17.6890 17.7391
# 4 -10.0864 -24.5209 -17.0670 51.8740 -10.8321 3.4889
# 5 -7.9341 -1.2009 -17.6890 -10.8321 40.2571 -5.1400
# 6 2.1763 -9.3780 17.7391 3.4889 -5.1400 26.1932
#
#
#
# Elastic Compliance Matrix: (Units=1/GPa)
#
#
# Indices 1 2 3 4 5 6 
#
# 1 0.018358 -0.003363 -0.008404 -0.001003 -0.000051 0.003086
# 2 -0.003363 0.014292 -0.000902 0.005772 0.001630 0.005558
# 3 -0.008404 -0.000902 0.012302 0.003259 0.003619 -0.007680
# 4 -0.001003 0.005772 0.003259 0.024634 0.007804 -0.001807
# 5 -0.000051 0.001630 0.003619 0.007804 0.028923 0.002773
# 6 0.003086 0.005558 -0.007680 -0.001807 0.002773 0.045898
#
#
# Mechanical properties :
#
#
# Convention : Reuss Voigt Hill
#
# Bulk Modulus (GPa) = 50.98396 66.28752 58.63574
# Shear Modulus (GPa) = 28.36366 37.47981 32.92174
#
# Velocity S-wave (km/s) = 3.37755 3.88258 3.63884
# Velocity P-wave (km/s) = 5.97631 6.83813 6.42169
#
# Compressibility (1/GPa) = 0.01961401
#
# Stress axis : x y z
#
# Youngs Moduli (GPa) = 54.47081 69.97127 81.28974
#
# Poissons Ratio (x) = 0.23530 0.68316
# Poissons Ratio (y) = 0.18318 0.07333
# Poissons Ratio (z) = 0.45777 0.06312
#
# Static dielectric constant tensor:
#      x y z
#    x 2.202840 0.016870 0.046080 
#    y 0.016870 1.989180 0.028990 
#    z 0.046080 0.028990 2.045660 
# 
# From -- ./inp_files/327856.got.cif
#   From: 2010.05.17/outbox.cif.g08.bks.cpg/sg2_164_cif.got.tgz:327856.got - 2010.06.03 11:33:40.
