data_PCOD9106137
_publ_section_title
;
Structure prediction by ZEFSAII (Michael W. Deem and Ramdas Pophale) SiO2 
 PCOD9106137
Probable space group: P -1
;
_chemical_formula_sum "Si O2"
_cell_formula_units_Z 15
_cell_length_a 11.286189
_cell_length_b 14.319033
_cell_length_c 16.833233
_cell_angle_alpha 148.503556
_cell_angle_beta 27.828311
_cell_angle_gamma 130.361407
_cell_volume 596.933003
_symmetry_space_group_name_H-M "P -1"
_symmetry_group_IT_number 2
_symmetry_cell_setting 'triclinic'
loop_
_space_group_symop_operation_xyz
x,y,z
-x,-y,-z
loop_
_atom_site_type_symbol
_atom_site_label
_atom_site_fract_x
_atom_site_fract_y
_atom_site_fract_z
Si Si1 0.589008 0.634809 0.488604
Si Si2 0.125342 0.623363 0.373950
Si Si3 0.531644 0.561773 0.291576
Si Si4 0.830891 0.726577 0.120958
Si Si5 0.988657 0.864951 0.276789
Si Si6 0.452015 0.209090 0.826680
Si Si7 0.656969 0.902384 0.755315
Si Si8 0.000000 0.500000 0.500000
O O1 0.500000 0.500000 0.500000
O O2 0.476514 0.648306 0.476009
O O3 0.509096 0.843688 0.730044
O O4 0.923937 0.496014 0.186292
O O5 0.350621 0.699796 0.267338
O O6 0.977000 0.687948 0.592500
O O7 0.894792 0.689786 0.490909
O O8 0.266300 0.382051 0.124239
O O9 0.582791 0.707251 0.304930
O O10 0.291752 0.496252 0.362527
O O11 0.829281 0.362148 0.973937
O O12 0.732990 0.804708 0.147073
O O13 0.949649 0.853947 0.195972
O O14 0.168610 0.975426 0.281330
O O15 0.665404 0.005762 0.593545
O O16 0.500000 0.000000 0.000000
#
# Coordination Sequence:
#
# PCOD9106137 Si02
#       8
#     2   2   2   2   2   2   2   1
#     4  11  22  40  69 100 132 179 226 274 336 411
#     4  10  21  38  64  95 127 179 221 267 338 397
#     4  11  25  43  68 100 138 182 221 280 345 402
#     4  11  21  44  66 100 139 174 223 280 345 404
#     4  10  22  38  67  99 127 172 229 276 331 392
#     4  10  20  39  67  95 129 177 226 270 326 414
#     4  11  21  39  64  98 135 171 227 279 328 398
#     4  12  22  42  66  94 136 176 222 272 338 398
#
# _framework density 25.128446
#
# number of rings (size 3 to 8) (size 9 to 14) (size 15 to 20)
#    0.000    1.333    2.667    5.200    0.000    0.000 
#    0.000    8.667    0.000    4.000    0.000    0.000 
#    0.000    0.000    0.000    0.000    0.000    0.000 
#
# Total GULP energy -83552.265305 kJ/mol
# GULP energy per Si atom -5570.151020 kJ/mol
# Density = 2.507125 g / cm^3
# Si number density = 25.128446 Si / 1000 Ang^3
#
#
#
# Elastic Constant Matrix: (Units=GPa)
#
#
# Indices 1 2 3 4 5 6 
#
# 1 138.0892 28.0381 36.5791 6.8812 9.0753 21.0668
# 2 28.0381 78.8515 3.4942 -11.6618 10.7359 13.6324
# 3 36.5791 3.4942 81.8116 17.2169 14.2545 22.6267
# 4 6.8812 -11.6618 17.2169 29.4385 7.8756 2.7343
# 5 9.0753 10.7359 14.2545 7.8756 29.1281 5.0774
# 6 21.0668 13.6324 22.6267 2.7343 5.0774 29.9365
#
#
#
# Elastic Compliance Matrix: (Units=1/GPa)
#
#
# Indices 1 2 3 4 5 6 
#
# 1 0.009075 -0.002901 -0.002958 -0.001432 0.000564 -0.002794
# 2 -0.002901 0.017166 0.001835 0.009062 -0.007603 -0.006700
# 3 -0.002958 0.001835 0.019125 -0.007318 -0.005100 -0.011676
# 4 -0.001432 0.009062 -0.007318 0.045251 -0.011590 0.000245
# 5 0.000564 -0.007603 -0.005100 -0.011590 0.042452 0.000779
# 6 -0.002794 -0.006700 -0.011676 0.000245 0.000779 0.047092
#
#
# Mechanical properties :
#
#
# Convention : Reuss Voigt Hill
#
# Bulk Modulus (GPa) = 26.79637 48.33055 37.56346
# Shear Modulus (GPa) = 24.91920 33.07669 28.99795
#
# Velocity S-wave (km/s) = 3.15250 3.63203 3.40073
# Velocity P-wave (km/s) = 4.89264 6.07157 5.51371
#
# Compressibility (1/GPa) = 0.03731849
#
# Stress axis : x y z
#
# Youngs Moduli (GPa) = 110.19491 58.25422 52.28712
#
# Poissons Ratio (x) = 0.16901 0.15464
# Poissons Ratio (y) = 0.31969 -0.09594
# Poissons Ratio (z) = 0.32591 -0.10689
#
# Static dielectric constant tensor:
#      x y z
#    x 5.771290 -0.899530 3.382930 
#    y -0.899530 2.291570 -0.861730 
#    z 3.382930 -0.861730 5.135940 
# 
# From -- ./inp_files/251940.got.cif
#   From: 2010.05.17/outbox.cif.g08.bks.cpg/sg2_126_cif.got.tgz:251940.got - 2010.06.03 11:33:40.
