data_PCOD9106100
_publ_section_title
;
Structure prediction by ZEFSAII (Michael W. Deem and Ramdas Pophale) SiO2 
 PCOD9106100
Probable space group: P -1
;
_chemical_formula_sum "Si O2"
_cell_formula_units_Z 16
_cell_length_a 23.896195
_cell_length_b 7.768090
_cell_length_c 9.827544
_cell_angle_alpha 61.152389
_cell_angle_beta 28.708290
_cell_angle_gamma 50.685918
_cell_volume 664.685107
_symmetry_space_group_name_H-M "P -1"
_symmetry_group_IT_number 2
_symmetry_cell_setting 'triclinic'
loop_
_space_group_symop_operation_xyz
x,y,z
-x,-y,-z
loop_
_atom_site_type_symbol
_atom_site_label
_atom_site_fract_x
_atom_site_fract_y
_atom_site_fract_z
Si Si1 0.176369 0.021755 0.884777
Si Si2 0.373185 0.964038 0.278903
Si Si3 0.487358 0.435484 0.275021
Si Si4 0.253104 0.384869 0.916131
Si Si5 0.883396 0.249143 0.106522
Si Si6 0.733275 0.003384 0.794344
Si Si7 0.280686 0.641815 0.015223
Si Si8 0.871351 0.267865 0.422823
O O1 0.285571 0.069193 0.563527
O O2 0.184184 0.836427 0.828299
O O3 0.211364 0.894547 0.002276
O O4 0.022374 0.218935 0.135946
O O5 0.430206 0.693003 0.252086
O O6 0.281573 0.067055 0.299743
O O7 0.500000 0.000000 0.000000
O O8 0.375530 0.365423 0.571043
O O9 0.601599 0.249122 0.005934
O O10 0.568958 0.422692 0.242727
O O11 0.118092 0.549882 0.055216
O O12 0.264815 0.494249 0.990041
O O13 0.265871 0.154261 0.027458
O O14 0.820705 0.360873 0.343854
O O15 0.000000 0.000000 0.000000
O O16 0.861924 0.036282 0.525628
O O17 0.214778 0.616028 0.304484
#
# Coordination Sequence:
#
# PCOD9106100 Si02
#       8
#     2   2   2   2   2   2   2   2
#     4  10  20  39  67  93 131 180 214 270 341 388
#     4  12  24  40  68  99 134 176 224 272 339 404
#     4  11  22  41  65  92 137 180 218 279 333 392
#     4  11  21  40  65  98 137 175 220 270 343 395
#     4   9  18  37  66  91 127 180 213 267 330 389
#     4  11  24  39  66 102 130 174 233 275 318 403
#     4  10  21  36  66  96 127 177 216 270 331 396
#     4  10  20  40  69  94 129 178 224 269 330 397
#
# _framework density 24.071548
#
# number of rings (size 3 to 8) (size 9 to 14) (size 15 to 20)
#    0.000    1.500    3.750    2.250    1.750    1.000 
#    0.000    5.625    2.750    8.250    0.000   10.500 
#    0.000    0.000    0.000    0.000    0.000    0.000 
#
# Total GULP energy -89239.674432 kJ/mol
# GULP energy per Si atom -5577.479652 kJ/mol
# Density = 2.401676 g / cm^3
# Si number density = 24.071548 Si / 1000 Ang^3
#
#
#
# Elastic Constant Matrix: (Units=GPa)
#
#
# Indices 1 2 3 4 5 6 
#
# 1 98.6820 27.8360 12.8455 -8.3142 22.0847 -19.7193
# 2 27.8360 78.9221 22.7260 -14.0316 -1.8752 -23.6928
# 3 12.8455 22.7260 101.8507 -3.5467 7.1951 -0.4415
# 4 -8.3142 -14.0316 -3.5467 25.5692 2.4780 2.9050
# 5 22.0847 -1.8752 7.1951 2.4780 39.0378 -3.4869
# 6 -19.7193 -23.6928 -0.4415 2.9050 -3.4869 32.8448
#
#
#
# Elastic Compliance Matrix: (Units=1/GPa)
#
#
# Indices 1 2 3 4 5 6 
#
# 1 0.014043 -0.002883 -0.000452 0.003073 -0.007726 0.005254
# 2 -0.002883 0.020051 -0.004068 0.007707 0.003964 0.012418
# 3 -0.000452 -0.004068 0.010917 -0.000278 -0.002226 -0.003271
# 4 0.003073 0.007707 -0.000278 0.044324 -0.003857 0.003071
# 5 -0.007726 0.003964 -0.002226 -0.003857 0.030995 0.001823
# 6 0.005254 0.012418 -0.003271 0.003071 0.001823 0.042436
#
#
# Mechanical properties :
#
#
# Convention : Reuss Voigt Hill
#
# Bulk Modulus (GPa) = 33.10792 45.14107 39.12450
# Shear Modulus (GPa) = 26.64653 33.89351 30.27002
#
# Velocity S-wave (km/s) = 3.33073 3.75645 3.54997
# Velocity P-wave (km/s) = 5.34560 6.13254 5.75255
#
# Compressibility (1/GPa) = 0.03020425
#
# Stress axis : x y z
#
# Youngs Moduli (GPa) = 71.20798 49.87220 91.60439
#
# Poissons Ratio (x) = 0.14377 0.04144
# Poissons Ratio (y) = 0.20528 0.37267
# Poissons Ratio (z) = 0.03221 0.20289
#
# Static dielectric constant tensor:
#      x y z
#    x 1.943630 0.003730 -0.017700 
#    y 0.003730 2.033360 0.020680 
#    z -0.017700 0.020680 1.992580 
# 
# From -- ./inp_files/352100.got.cif
#   From: 2010.05.17/outbox.cif.g08.bks.cpg/sg2_177_cif.got.tgz:352100.got - 2010.06.03 11:33:40.
