data_PCOD9106956
_publ_section_title
;
Structure prediction by ZEFSAII (Michael W. Deem and Ramdas Pophale) SiO2 
 PCOD9106956
Probable space group: P -1
;
_chemical_formula_sum "Si O2"
_cell_formula_units_Z 15
_cell_length_a 15.911919
_cell_length_b 15.072213
_cell_length_c 8.210278
_cell_angle_alpha 62.666019
_cell_angle_beta 100.354481
_cell_angle_gamma 152.979070
_cell_volume 653.947431
_symmetry_space_group_name_H-M "P -1"
_symmetry_group_IT_number 2
_symmetry_cell_setting 'triclinic'
loop_
_space_group_symop_operation_xyz
x,y,z
-x,-y,-z
loop_
_atom_site_type_symbol
_atom_site_label
_atom_site_fract_x
_atom_site_fract_y
_atom_site_fract_z
Si Si1 0.142526 0.556430 0.788860
Si Si2 0.279255 0.937170 0.141045
Si Si3 0.237192 0.851804 0.762673
Si Si4 0.519038 0.655960 0.300017
Si Si5 0.496654 0.766645 0.710108
Si Si6 0.870286 0.859707 0.245784
Si Si7 0.318697 0.377842 0.118008
Si Si8 0.500000 0.000000 0.000000
O O1 0.192080 0.725173 0.705450
O O2 0.349559 0.707939 0.711531
O O3 0.977164 0.362691 0.741603
O O4 0.997273 0.367485 0.056507
O O5 0.416469 0.983441 0.131938
O O6 0.320842 0.030478 0.252350
O O7 0.384905 0.132112 0.888171
O O8 0.374979 0.092096 0.534699
O O9 0.361853 0.922506 0.885446
O O10 0.729539 0.809374 0.268407
O O11 0.324346 0.433898 0.554297
O O12 0.393127 0.480921 0.240139
O O13 0.339769 0.503819 0.918099
O O14 0.070859 0.066721 0.270517
O O15 0.000000 0.000000 0.000000
O O16 0.500000 0.500000 0.000000
#
# Coordination Sequence:
#
# PCOD9106956 Si02
#       8
#     2   2   2   2   2   2   2   1
#     4  10  21  41  62  91 127 163 208 258 317 367
#     4  10  22  40  63  94 126 164 213 259 308 384
#     4  10  22  41  63  95 125 166 210 257 310 380
#     4  10  23  43  64  94 128 169 214 260 325 377
#     4  11  23  43  65  90 127 167 212 259 315 377
#     4  11  22  41  69  93 127 169 213 268 318 382
#     4  11  23  44  64  95 131 164 216 270 318 379
#     4  10  20  40  62  88 132 156 202 262 304 366
#
# _framework density 22.937622999999999
#
# number of rings (size 3 to 8) (size 9 to 14) (size 15 to 20)
#    0.000    1.600    2.667    1.600    0.000    2.667 
#   12.000    0.000    0.000    0.000    0.000    0.000 
#    0.000    0.000    0.000    0.000    0.000    0.000 
#
# Total GULP energy -83615.808083 kJ/mol
# GULP energy per Si atom -5574.387206 kJ/mol
# Density = 2.288542 g / cm^3
# Si number density = 22.937623 Si / 1000 Ang^3
#
#
#
# Elastic Constant Matrix: (Units=GPa)
#
#
# Indices 1 2 3 4 5 6 
#
# 1 25.3445 18.8119 7.9246 -17.0175 -10.0090 2.8611
# 2 18.8119 110.8563 8.1379 -14.5043 0.4212 -0.8104
# 3 7.9246 8.1379 112.5661 -9.2152 -9.9692 10.4256
# 4 -17.0175 -14.5043 -9.2152 27.5765 2.2807 -4.5018
# 5 -10.0090 0.4212 -9.9692 2.2807 20.1570 -5.4713
# 6 2.8611 -0.8104 10.4256 -4.5018 -5.4713 28.5175
#
#
#
# Elastic Compliance Matrix: (Units=1/GPa)
#
#
# Indices 1 2 3 4 5 6 
#
# 1 0.100990 -0.010231 0.001640 0.054695 0.046771 0.006585
# 2 -0.010231 0.010784 -0.000611 -0.000320 -0.005446 0.000461
# 3 0.001640 -0.000611 0.009698 0.003167 0.004630 -0.002339
# 4 0.054695 -0.000320 0.003167 0.070443 0.023181 0.008913
# 5 0.046771 -0.005446 0.004630 0.023181 0.075780 0.011658
# 6 0.006585 0.000461 -0.002339 0.008913 0.011658 0.038918
#
#
# Mechanical properties :
#
#
# Convention : Reuss Voigt Hill
#
# Bulk Modulus (GPa) = 9.70234 35.39063 22.54648
# Shear Modulus (GPa) = 13.91314 29.50971 21.71142
#
# Velocity S-wave (km/s) = 2.46552 3.59070 3.07993
# Velocity P-wave (km/s) = 3.51342 5.71432 4.74329
#
# Compressibility (1/GPa) = 0.10306790
#
# Stress axis : x y z
#
# Youngs Moduli (GPa) = 9.90200 92.73096 103.11038
#
# Poissons Ratio (x) = 0.94876 -0.16909
# Poissons Ratio (y) = 0.10131 0.06296
# Poissons Ratio (z) = -0.01624 0.05662
#
# Static dielectric constant tensor:
#      x y z
#    x 1.813250 -0.051770 0.015590 
#    y -0.051770 1.890210 0.048090 
#    z 0.015590 0.048090 1.923190 
# 
# From -- ./inp_files/312819.got.cif
#   From: 2010.05.17/outbox.cif.g08.bks.cpg/sg2_157_cif.got.tgz:312819.got - 2010.06.03 11:33:40.
