data_PCOD9106608
_publ_section_title
;
Structure prediction by ZEFSAII (Michael W. Deem and Ramdas Pophale) SiO2 
 PCOD9106608
Probable space group: P -1
;
_chemical_formula_sum "Si O2"
_cell_formula_units_Z 16
_cell_length_a 20.889957
_cell_length_b 11.243252
_cell_length_c 15.492844
_cell_angle_alpha 155.989841
_cell_angle_beta 157.966125
_cell_angle_gamma 32.400451
_cell_volume 555.395232
_symmetry_space_group_name_H-M "P -1"
_symmetry_group_IT_number 2
_symmetry_cell_setting 'triclinic'
loop_
_space_group_symop_operation_xyz
x,y,z
-x,-y,-z
loop_
_atom_site_type_symbol
_atom_site_label
_atom_site_fract_x
_atom_site_fract_y
_atom_site_fract_z
Si Si1 0.878814 0.906552 0.707084
Si Si2 0.701740 0.956659 0.742528
Si Si3 0.174075 0.801098 0.325365
Si Si4 0.346767 0.466340 0.451863
Si Si5 0.717876 0.417043 0.937862
Si Si6 0.136395 0.225082 0.780602
Si Si7 0.445900 0.084262 0.168898
Si Si8 0.680358 0.465471 0.250294
O O1 0.935118 0.984968 0.732129
O O2 0.724599 0.134038 0.692631
O O3 0.814269 0.577299 0.420767
O O4 0.000000 0.000000 0.000000
O O5 0.727083 0.814686 0.774060
O O6 0.735735 0.684437 0.541649
O O7 0.500000 0.000000 0.500000
O O8 0.764770 0.266647 0.987100
O O9 0.200222 0.690366 0.384425
O O10 0.360313 0.948902 0.637881
O O11 0.129227 0.503007 0.019886
O O12 0.523339 0.534301 0.769952
O O13 0.421709 0.363833 0.385653
O O14 0.855125 0.645980 0.220537
O O15 0.000000 0.000000 0.500000
O O16 0.326495 0.109211 0.953645
O O17 0.349911 0.834993 0.938599
O O18 0.500000 0.500000 0.000000
#
# Coordination Sequence:
#
# PCOD9106608 Si02
#       8
#     2   2   2   2   2   2   2   2
#     4  10  20  31  49  77 110 146 174 226 281 325
#     4   9  19  32  56  82 108 147 177 222 277 332
#     4  10  18  34  54  76 109 145 183 228 276 320
#     4  10  16  34  59  81 102 148 182 221 276 332
#     4   9  16  32  51  75 105 136 182 219 262 321
#     4  10  19  29  52  84 108 138 183 229 275 321
#     4  11  18  32  56  81 109 137 180 244 269 310
#     4  11  20  33  53  84 109 133 185 233 272 318
#
# _framework density 28.808315
#
# number of rings (size 3 to 8) (size 9 to 14) (size 15 to 20)
#    0.000    2.000    5.000    2.250    3.500    0.000 
#    0.000    0.625    0.000    6.000   19.500    0.000 
#    0.000    0.000    0.000    0.000    0.000    0.000 
#
# Total GULP energy -89231.067025 kJ/mol
# GULP energy per Si atom -5576.941689 kJ/mol
# Density = 2.874275 g / cm^3
# Si number density = 28.808315 Si / 1000 Ang^3
#
#
#
# Elastic Constant Matrix: (Units=GPa)
#
#
# Indices 1 2 3 4 5 6 
#
# 1 117.1713 44.8145 48.4014 10.6267 9.1737 48.4922
# 2 44.8145 186.4556 51.9967 -6.7483 15.5986 80.7195
# 3 48.4014 51.9967 143.4073 19.6476 25.9604 34.2377
# 4 10.6267 -6.7483 19.6476 58.4164 18.4203 7.7882
# 5 9.1737 15.5986 25.9604 18.4203 59.3148 9.5201
# 6 48.4922 80.7195 34.2377 7.7882 9.5201 70.7312
#
#
#
# Elastic Compliance Matrix: (Units=1/GPa)
#
#
# Indices 1 2 3 4 5 6 
#
# 1 0.012959 0.001809 -0.002778 -0.000020 0.000289 -0.009641
# 2 0.001809 0.011792 -0.001792 0.004010 -0.001585 -0.014058
# 3 -0.002778 -0.001792 0.009294 -0.002029 -0.002539 0.000016
# 4 -0.000020 0.004010 -0.002029 0.020775 -0.005798 -0.005087
# 5 0.000289 -0.001585 -0.002539 -0.005798 0.020018 0.000784
# 6 -0.009641 -0.014058 0.000016 -0.005087 0.000784 0.037237
#
#
# Mechanical properties :
#
#
# Convention : Reuss Voigt Hill
#
# Bulk Modulus (GPa) = 35.05919 81.93991 58.49955
# Shear Modulus (GPa) = 39.33763 57.81393 48.57578
#
# Velocity S-wave (km/s) = 3.69927 4.48465 4.11076
# Velocity P-wave (km/s) = 5.51746 7.43781 6.54841
#
# Compressibility (1/GPa) = 0.02852319
#
# Stress axis : x y z
#
# Youngs Moduli (GPa) = 77.16487 84.80473 107.59251
#
# Poissons Ratio (x) = -0.15337 0.29884
# Poissons Ratio (y) = -0.13956 0.19282
# Poissons Ratio (z) = 0.21433 0.15198
#
# Static dielectric constant tensor:
#      x y z
#    x 2.381570 -0.130440 0.045090 
#    y -0.130440 2.547980 0.061940 
#    z 0.045090 0.061940 2.230090 
# 
# From -- ./inp_files/579750.got.cif
#   From: 2010.05.17/outbox.cif.g08.bks.cpg/sg2_290_cif.got.tgz:579750.got - 2010.06.03 11:33:40.
