data_PCOD9106966
_publ_section_title
;
Structure prediction by ZEFSAII (Michael W. Deem and Ramdas Pophale) SiO2 
 PCOD9106966
Probable space group: P -1
;
_chemical_formula_sum "Si O2"
_cell_formula_units_Z 16
_cell_length_a 6.399824
_cell_length_b 19.691461
_cell_length_c 10.995108
_cell_angle_alpha 44.345628
_cell_angle_beta 118.449665
_cell_angle_gamma 93.589732
_cell_volume 759.414302
_symmetry_space_group_name_H-M "P -1"
_symmetry_group_IT_number 2
_symmetry_cell_setting 'triclinic'
loop_
_space_group_symop_operation_xyz
x,y,z
-x,-y,-z
loop_
_atom_site_type_symbol
_atom_site_label
_atom_site_fract_x
_atom_site_fract_y
_atom_site_fract_z
Si Si1 0.763307 0.357422 0.362867
Si Si2 0.443667 0.816198 0.449184
Si Si3 0.216681 0.545387 0.019160
Si Si4 0.919629 0.958816 0.409441
Si Si5 0.927409 0.144444 0.041123
Si Si6 0.051756 0.234194 0.208192
Si Si7 0.332839 0.224964 0.691693
Si Si8 0.693723 0.949704 0.943879
O O1 0.721218 0.249225 0.487030
O O2 0.757016 0.401849 0.168448
O O3 0.060491 0.322214 0.539222
O O4 0.511206 0.447647 0.249014
O O5 0.634420 0.804825 0.630191
O O6 0.642280 0.758816 0.464819
O O7 0.282431 0.938214 0.194904
O O8 0.110596 0.638538 0.972784
O O9 0.000000 0.500000 0.000000
O O10 0.005037 0.016993 0.253807
O O11 0.601179 0.010697 0.244354
O O12 0.025459 0.831500 0.625317
O O13 0.000000 0.000000 0.500000
O O14 0.003572 0.195448 0.113042
O O15 0.092047 0.137717 0.975044
O O16 0.610501 0.206795 0.851251
O O17 0.308447 0.113247 0.853424
#
# Coordination Sequence:
#
# PCOD9106966 Si02
#       8
#     2   2   2   2   2   2   2   2
#     4  11  23  38  66  91 116 161 205 263 313 356
#     4  11  22  38  64  93 122 162 211 255 299 361
#     4  11  22  42  63  95 119 151 210 270 309 354
#     4   8  18  34  54  85 125 162 194 246 292 361
#     4  10  22  39  58  89 133 165 202 240 304 382
#     4  10  20  40  62  89 124 160 198 266 306 350
#     4  11  22  41  58  88 132 166 200 254 301 361
#     4  10  22  35  59  93 126 171 203 238 306 372
#
# _framework density 21.068867999999998
#
# number of rings (size 3 to 8) (size 9 to 14) (size 15 to 20)
#    0.000    1.750    2.500    1.125    1.750    7.500 
#    4.500    0.625    0.000    5.250    0.000    0.000 
#    0.000    0.000    0.000    0.000    0.000    0.000 
#
# Total GULP energy -89310.530003 kJ/mol
# GULP energy per Si atom -5581.908125 kJ/mol
# Density = 2.102091 g / cm^3
# Si number density = 21.068868 Si / 1000 Ang^3
#
#
#
# Elastic Constant Matrix: (Units=GPa)
#
#
# Indices 1 2 3 4 5 6 
#
# 1 97.8138 39.6887 36.7676 -3.3579 -3.3458 -2.3518
# 2 39.6887 80.0359 26.8753 -6.5223 6.7682 12.3804
# 3 36.7676 26.8753 73.3481 -2.2869 14.7059 7.4932
# 4 -3.3579 -6.5223 -2.2869 28.5811 -1.1573 1.4203
# 5 -3.3458 6.7682 14.7059 -1.1573 46.0421 -3.7133
# 6 -2.3518 12.3804 7.4932 1.4203 -3.7133 22.7462
#
#
#
# Elastic Compliance Matrix: (Units=1/GPa)
#
#
# Indices 1 2 3 4 5 6 
#
# 1 0.016547 -0.007614 -0.007570 -0.000639 0.005472 0.009282
# 2 -0.007614 0.019078 -0.001089 0.003796 -0.003856 -0.011679
# 3 -0.007570 -0.001089 0.020169 0.000575 -0.007470 -0.008090
# 4 -0.000639 0.003796 0.000575 0.036044 -0.000254 -0.004614
# 5 0.005472 -0.003856 -0.007470 -0.000254 0.025818 0.009356
# 6 0.009282 -0.011679 -0.008090 -0.004614 0.009356 0.055760
#
#
# Mechanical properties :
#
#
# Convention : Reuss Voigt Hill
#
# Bulk Modulus (GPa) = 43.01407 50.87344 46.94376
# Shear Modulus (GPa) = 23.39602 29.33162 26.36382
#
# Velocity S-wave (km/s) = 3.33596 3.73524 3.54123
# Velocity P-wave (km/s) = 5.94125 6.54227 6.24899
#
# Compressibility (1/GPa) = 0.02324821
#
# Stress axis : x y z
#
# Youngs Moduli (GPa) = 60.43434 52.41717 49.58016
#
# Poissons Ratio (x) = 0.39911 0.37532
# Poissons Ratio (y) = 0.46015 0.05399
# Poissons Ratio (z) = 0.45749 0.05707
#
# Static dielectric constant tensor:
#      x y z
#    x 1.799780 0.014330 0.005710 
#    y 0.014330 1.728310 -0.026960 
#    z 0.005710 -0.026960 1.805210 
# 
# From -- ./inp_files/370042.got.cif
#   From: 2010.05.17/outbox.cif.g08.bks.cpg/sg2_186_cif.got.tgz:370042.got - 2010.06.03 11:33:40.
