data_PCOD9106177
_publ_section_title
;
Structure prediction by ZEFSAII (Michael W. Deem and Ramdas Pophale) SiO2 
 PCOD9106177
Probable space group: P -1
;
_chemical_formula_sum "Si O2"
_cell_formula_units_Z 16
_cell_length_a 12.232957
_cell_length_b 12.250328
_cell_length_c 21.084894
_cell_angle_alpha 154.008927
_cell_angle_beta 148.675010
_cell_angle_gamma 34.234853
_cell_volume 695.417140
_symmetry_space_group_name_H-M "P -1"
_symmetry_group_IT_number 2
_symmetry_cell_setting 'triclinic'
loop_
_space_group_symop_operation_xyz
x,y,z
-x,-y,-z
loop_
_atom_site_type_symbol
_atom_site_label
_atom_site_fract_x
_atom_site_fract_y
_atom_site_fract_z
Si Si1 0.785042 0.062202 0.617178
Si Si2 0.436263 0.386827 0.710800
Si Si3 0.112495 0.223629 0.939958
Si Si4 0.788333 0.469224 0.003261
Si Si5 0.457495 0.924722 0.025926
Si Si6 0.645356 0.973964 0.828963
Si Si7 0.810012 0.967845 0.438094
Si Si8 0.892589 0.411692 0.166663
O O1 0.718593 0.798963 0.459901
O O2 0.797761 0.116527 0.576885
O O3 0.015325 0.036388 0.751452
O O4 0.604251 0.283887 0.681674
O O5 0.589584 0.340536 0.825633
O O6 0.341190 0.695720 0.829478
O O7 0.361793 0.147205 0.043896
O O8 0.992324 0.261204 0.968261
O O9 0.299851 0.262826 0.940079
O O10 0.834025 0.522746 0.124982
O O11 0.000000 0.500000 0.000000
O O12 0.404104 0.049457 0.133678
O O13 0.429141 0.968588 0.679856
O O14 0.723292 0.239652 0.004348
O O15 0.860602 0.763337 0.802137
O O16 0.867592 0.665311 0.327799
O O17 0.000000 0.000000 0.500000
#
# Coordination Sequence:
#
# PCOD9106177 Si02
#       8
#     2   2   2   2   2   2   2   2
#     4  10  21  41  62  92 136 174 212 277 333 396
#     4   8  18  38  66  96 122 166 219 280 339 374
#     4  11  24  39  62  90 127 171 218 270 327 402
#     4   9  19  38  64  91 124 160 215 278 322 385
#     4  10  20  39  67  98 119 166 221 279 333 386
#     4  11  23  40  72 101 130 173 230 286 328 400
#     4  12  26  42  65  96 145 185 216 265 348 413
#     4  11  22  41  68 103 129 176 231 281 333 388
#
# _framework density 23.007773
#
# number of rings (size 3 to 8) (size 9 to 14) (size 15 to 20)
#    0.750    1.000    2.500    1.875    1.750    1.500 
#    2.250    0.000    0.000    0.000    0.000    0.000 
#    0.000    0.000    0.000    0.000    0.000    0.000 
#
# Total GULP energy -89149.379375 kJ/mol
# GULP energy per Si atom -5571.836211 kJ/mol
# Density = 2.295541 g / cm^3
# Si number density = 23.007773 Si / 1000 Ang^3
#
#
#
# Elastic Constant Matrix: (Units=GPa)
#
#
# Indices 1 2 3 4 5 6 
#
# 1 99.0602 23.6542 31.0913 -24.1311 -12.1605 -8.2756
# 2 23.6542 83.9444 13.5084 -26.1936 -2.0441 5.1397
# 3 31.0913 13.5084 53.7466 -12.9917 -2.6110 -4.2946
# 4 -24.1311 -26.1936 -12.9917 34.6045 -2.6067 3.8881
# 5 -12.1605 -2.0441 -2.6110 -2.6067 39.3290 -0.5152
# 6 -8.2756 5.1397 -4.2946 3.8881 -0.5152 22.0103
#
#
#
# Elastic Compliance Matrix: (Units=1/GPa)
#
#
# Indices 1 2 3 4 5 6 
#
# 1 0.014891 -0.001049 -0.006089 0.007265 0.004672 0.003481
# 2 -0.001049 0.016659 -0.001077 0.012310 0.001199 -0.006641
# 3 -0.006089 -0.001077 0.023390 0.003496 -0.000129 0.001905
# 4 0.007265 0.012310 0.003496 0.045886 0.006062 -0.007425
# 5 0.004672 0.001199 -0.000129 0.006062 0.027340 0.001021
# 6 0.003481 -0.006641 0.001905 -0.007425 0.001021 0.050000
#
#
# Mechanical properties :
#
#
# Convention : Reuss Voigt Hill
#
# Bulk Modulus (GPa) = 25.96744 41.47321 33.72033
# Shear Modulus (GPa) = 24.10439 30.42193 27.26316
#
# Velocity S-wave (km/s) = 3.24027 3.64021 3.44605
# Velocity P-wave (km/s) = 5.03091 5.97772 5.52463
#
# Compressibility (1/GPa) = 0.03850976
#
# Stress axis : x y z
#
# Youngs Moduli (GPa) = 67.15674 60.02933 42.75335
#
# Poissons Ratio (x) = 0.06295 0.26033
# Poissons Ratio (y) = 0.07042 0.04604
# Poissons Ratio (z) = 0.40892 0.06465
#
# Static dielectric constant tensor:
#      x y z
#    x 2.010170 0.006770 0.050350 
#    y 0.006770 1.916370 0.026100 
#    z 0.050350 0.026100 1.863370 
# 
# From -- ./inp_files/595175.got.cif
#   From: 2010.05.17/outbox.cif.g08.bks.cpg/sg2_298_cif.got.tgz:595175.got - 2010.06.03 11:33:40.
