data_PCOD9106121
_publ_section_title
;
Structure prediction by ZEFSAII (Michael W. Deem and Ramdas Pophale) SiO2 
 PCOD9106121
Probable space group: P -1
;
_chemical_formula_sum "Si O2"
_cell_formula_units_Z 16
_cell_length_a 30.235930
_cell_length_b 12.952360
_cell_length_c 9.031790
_cell_angle_alpha 48.610903
_cell_angle_beta 28.882945
_cell_angle_gamma 27.567555
_cell_volume 677.965066
_symmetry_space_group_name_H-M "P -1"
_symmetry_group_IT_number 2
_symmetry_cell_setting 'triclinic'
loop_
_space_group_symop_operation_xyz
x,y,z
-x,-y,-z
loop_
_atom_site_type_symbol
_atom_site_label
_atom_site_fract_x
_atom_site_fract_y
_atom_site_fract_z
Si Si1 0.017265 0.341642 0.199513
Si Si2 0.636533 0.776965 0.930145
Si Si3 0.321780 0.757507 0.926174
Si Si4 0.377040 0.046242 0.893875
Si Si5 0.684290 0.415759 0.136589
Si Si6 0.160844 0.767585 0.857542
Si Si7 0.703341 0.147415 0.745402
Si Si8 0.055977 0.597515 0.299133
O O1 0.832044 0.507132 0.552360
O O2 0.004040 0.371821 0.389188
O O3 0.000000 0.500000 0.000000
O O4 0.194415 0.028806 0.956614
O O5 0.633675 0.890291 0.964532
O O6 0.592042 0.677833 0.196266
O O7 0.500000 0.000000 0.000000
O O8 0.528318 0.510605 0.540901
O O9 0.275368 0.670720 0.069557
O O10 0.287865 0.824851 0.134043
O O11 0.500000 0.000000 0.500000
O O12 0.188411 0.316172 0.118943
O O13 0.410616 0.841010 0.971500
O O14 0.846827 0.195522 0.978767
O O15 0.308706 0.688871 0.452168
O O16 0.173638 0.586236 0.982220
O O17 0.000000 0.000000 0.000000
O O18 0.897872 0.844834 0.426217
#
# Coordination Sequence:
#
# PCOD9106121 Si02
#       8
#     2   2   2   2   2   2   2   2
#     4  10  20  39  67  94 132 174 226 273 334 411
#     4  11  24  44  67  95 137 176 231 280 346 403
#     4  10  24  41  67 100 137 179 225 278 352 397
#     4  11  22  40  67  95 133 175 219 280 338 398
#     4  11  22  44  67  94 144 179 217 294 334 412
#     4  10  21  42  67  96 131 181 221 276 340 402
#     4  10  22  40  67  97 130 174 228 273 331 417
#     4   9  20  42  62  91 133 169 220 277 335 389
#
# _framework density 23.600037
#
# number of rings (size 3 to 8) (size 9 to 14) (size 15 to 20)
#    0.000    1.750    2.500    1.875    0.000    6.000 
#    2.250    2.500    0.000    0.000    0.000    0.000 
#    0.000    0.000    0.000    0.000    0.000    0.000 
#
# Total GULP energy -89074.011872 kJ/mol
# GULP energy per Si atom -5567.125742 kJ/mol
# Density = 2.354632 g / cm^3
# Si number density = 23.600037 Si / 1000 Ang^3
#
#
#
# Elastic Constant Matrix: (Units=GPa)
#
#
# Indices 1 2 3 4 5 6 
#
# 1 149.5068 59.5124 11.3257 -8.1465 -17.5353 8.4686
# 2 59.5124 96.7846 19.0671 -7.0667 -1.7923 9.7144
# 3 11.3257 19.0671 53.3382 -10.1149 -7.0223 10.6080
# 4 -8.1465 -7.0667 -10.1149 54.4949 -3.2685 -17.0394
# 5 -17.5353 -1.7923 -7.0223 -3.2685 21.9103 -3.3990
# 6 8.4686 9.7144 10.6080 -17.0394 -3.3990 46.4968
#
#
#
# Elastic Compliance Matrix: (Units=1/GPa)
#
#
# Indices 1 2 3 4 5 6 
#
# 1 0.010118 -0.006266 0.001419 0.001564 0.008324 0.000324
# 2 -0.006266 0.015103 -0.004613 -0.000677 -0.005610 -0.001620
# 3 0.001419 -0.004613 0.022311 0.003444 0.008029 -0.002536
# 4 0.001564 -0.000677 0.003444 0.021915 0.006748 0.007595
# 5 0.008324 -0.005610 0.008029 0.006748 0.056106 0.004398
# 6 0.000324 -0.001620 -0.002536 0.007595 0.004398 0.025470
#
#
# Mechanical properties :
#
#
# Convention : Reuss Voigt Hill
#
# Bulk Modulus (GPa) = 34.94948 53.27111 44.11030
# Shear Modulus (GPa) = 27.85835 38.56202 33.21019
#
# Velocity S-wave (km/s) = 3.43948 4.04664 3.75535
# Velocity P-wave (km/s) = 5.53304 6.66747 6.12657
#
# Compressibility (1/GPa) = 0.02861273
#
# Stress axis : x y z
#
# Youngs Moduli (GPa) = 98.83037 66.21207 44.82182
#
# Poissons Ratio (x) = 0.41485 -0.06362
# Poissons Ratio (y) = 0.61922 0.20678
# Poissons Ratio (z) = -0.14027 0.30546
#
# Static dielectric constant tensor:
#      x y z
#    x 1.954240 0.048930 -0.042070 
#    y 0.048930 1.954840 -0.021090 
#    z -0.042070 -0.021090 2.048400 
# 
# From -- ./inp_files/358618.got.cif
#   From: 2010.05.17/outbox.cif.g08.bks.cpg/sg2_180_cif.got.tgz:358618.got - 2010.06.03 11:33:40.
