data_PCOD9106840
_publ_section_title
;
Structure prediction by ZEFSAII (Michael W. Deem and Ramdas Pophale) SiO2 
 PCOD9106840
Probable space group: P -1
;
_chemical_formula_sum "Si O2"
_cell_formula_units_Z 14
_cell_length_a 14.156776
_cell_length_b 20.039056
_cell_length_c 9.071878
_cell_angle_alpha 30.113605
_cell_angle_beta 42.148158
_cell_angle_gamma 32.438965
_cell_volume 691.989265
_symmetry_space_group_name_H-M "P -1"
_symmetry_group_IT_number 2
_symmetry_cell_setting 'triclinic'
loop_
_space_group_symop_operation_xyz
x,y,z
-x,-y,-z
loop_
_atom_site_type_symbol
_atom_site_label
_atom_site_fract_x
_atom_site_fract_y
_atom_site_fract_z
Si Si1 0.491099 0.787333 0.659591
Si Si2 0.419335 0.990870 0.764643
Si Si3 0.248270 0.359758 0.831860
Si Si4 0.152277 0.023620 0.805260
Si Si5 0.487821 0.370376 0.350569
Si Si6 0.052103 0.641731 0.755830
Si Si7 0.376400 0.557013 0.678531
O O1 0.606617 0.855759 0.411237
O O2 0.455695 0.772848 0.557720
O O3 0.306574 0.909269 0.726077
O O4 0.582275 0.608051 0.975108
O O5 0.256110 0.991011 0.901666
O O6 0.500000 0.000000 0.500000
O O7 0.574190 0.822517 0.989496
O O8 0.295223 0.439043 0.501133
O O9 0.183109 0.468694 0.848286
O O10 0.086147 0.357046 0.985960
O O11 0.061659 0.215242 0.505586
O O12 0.000000 0.000000 0.000000
O O13 0.588149 0.346946 0.429892
O O14 0.500000 0.500000 0.000000
O O15 0.175795 0.671644 0.641427
O O16 0.500000 0.500000 0.500000
#
# Coordination Sequence:
#
# PCOD9106840 Si02
#       7
#     2   2   2   2   2   2   2
#     4  10  22  43  60  88 131 166 208 252 320 384
#     4  10  20  40  61  91 123 168 206 252 315 375
#     4  11  22  39  65  89 128 161 216 260 308 377
#     4  11  23  36  63  98 128 154 211 268 312 365
#     4  10  24  42  63  92 126 173 211 253 322 387
#     4  11  22  36  64 101 119 155 220 270 307 361
#     4  11  21  38  68  93 123 168 216 258 310 376
#
# _framework density 20.231528000000001
#
# number of rings (size 3 to 8) (size 9 to 14) (size 15 to 20)
#    0.000    1.429    4.286    2.571    6.000    0.571 
#    0.000    5.000    0.000    0.000    0.000    0.000 
#    0.000    0.000    0.000    0.000    0.000    0.000 
#
# Total GULP energy -78048.890416 kJ/mol
# GULP energy per Si atom -5574.920744 kJ/mol
# Density = 2.018548 g / cm^3
# Si number density = 20.231528 Si / 1000 Ang^3
#
#
#
# Elastic Constant Matrix: (Units=GPa)
#
#
# Indices 1 2 3 4 5 6 
#
# 1 158.5918 58.3829 22.2066 17.9385 -22.4657 10.6677
# 2 58.3829 57.4765 26.1471 5.2820 -6.0899 -6.5905
# 3 22.2066 26.1471 85.5857 12.4873 -12.3825 -7.4544
# 4 17.9385 5.2820 12.4873 37.9070 -8.4184 -9.2000
# 5 -22.4657 -6.0899 -12.3825 -8.4184 34.6045 3.4486
# 6 10.6677 -6.5905 -7.4544 -9.2000 3.4486 34.8655
#
#
#
# Elastic Compliance Matrix: (Units=1/GPa)
#
#
# Indices 1 2 3 4 5 6 
#
# 1 0.013392 -0.014241 0.001873 -0.005626 0.006337 -0.008500
# 2 -0.014241 0.035628 -0.007846 0.005938 -0.005487 0.011524
# 3 0.001873 -0.007846 0.014730 -0.003787 0.004217 -0.000324
# 4 -0.005626 0.005938 -0.003787 0.032629 0.002944 0.010353
# 5 0.006337 -0.005487 0.004217 0.002944 0.034743 -0.004734
# 6 -0.008500 0.011524 -0.000324 0.010353 -0.004734 0.036592
#
#
# Mechanical properties :
#
#
# Convention : Reuss Voigt Hill
#
# Bulk Modulus (GPa) = 42.87897 57.23638 50.05768
# Shear Modulus (GPa) = 23.15735 34.46989 28.81362
#
# Velocity S-wave (km/s) = 3.38689 4.13215 3.77794
# Velocity P-wave (km/s) = 6.04441 7.14971 6.62017
#
# Compressibility (1/GPa) = 0.02332145
#
# Stress axis : x y z
#
# Youngs Moduli (GPa) = 74.67388 28.06790 67.89027
#
# Poissons Ratio (x) = 0.39972 -0.12719
# Poissons Ratio (y) = 1.06345 0.53266
# Poissons Ratio (z) = -0.13989 0.22022
#
# Static dielectric constant tensor:
#      x y z
#    x 1.807330 0.014150 -0.055290 
#    y 0.014150 1.708260 -0.022930 
#    z -0.055290 -0.022930 1.804940 
# 
# From -- ./inp_files/173361.got.cif
#   From: 2010.05.17/outbox.cif.g08.bks.cpg/sg2_87_cif.got.tgz:173361.got - 2010.06.03 11:33:40.
