data_PCOD9106527
_publ_section_title
;
Structure prediction by ZEFSAII (Michael W. Deem and Ramdas Pophale) SiO2 
 PCOD9106527
Probable space group: P -1
;
_chemical_formula_sum "Si O2"
_cell_formula_units_Z 16
_cell_length_a 5.437917
_cell_length_b 23.988375
_cell_length_c 8.870407
_cell_angle_alpha 50.618223
_cell_angle_beta 121.313107
_cell_angle_gamma 131.204058
_cell_volume 662.519475
_symmetry_space_group_name_H-M "P -1"
_symmetry_group_IT_number 2
_symmetry_cell_setting 'triclinic'
loop_
_space_group_symop_operation_xyz
x,y,z
-x,-y,-z
loop_
_atom_site_type_symbol
_atom_site_label
_atom_site_fract_x
_atom_site_fract_y
_atom_site_fract_z
Si Si1 0.107888 0.718080 0.443439
Si Si2 0.292345 0.475282 0.317017
Si Si3 0.178623 0.192845 0.326375
Si Si4 0.109248 0.152261 0.857084
Si Si5 0.900958 0.057407 0.230231
Si Si6 0.059604 0.456853 0.741177
Si Si7 0.181501 0.952016 0.331674
Si Si8 0.836280 0.275258 0.912507
O O1 0.477684 0.762892 0.550678
O O2 0.106600 0.715400 0.265191
O O3 0.896932 0.623445 0.592068
O O4 0.945606 0.773435 0.343777
O O5 0.500000 0.500000 0.500000
O O6 0.560214 0.518911 0.197239
O O7 0.038478 0.508493 0.206191
O O8 0.158179 0.130213 0.296137
O O9 0.888968 0.128571 0.455437
O O10 0.099848 0.259047 0.110703
O O11 0.480459 0.194605 0.963077
O O12 0.050977 0.088010 0.818410
O O13 0.853023 0.103953 0.992097
O O14 0.554727 0.003684 0.299395
O O15 0.053873 0.003995 0.298820
O O16 0.000000 0.500000 0.500000
O O17 0.841562 0.357835 0.829749
#
# Coordination Sequence:
#
# PCOD9106527 Si02
#       8
#     2   2   2   2   2   2   2   2
#     4  12  25  47  74 108 151 194 246 307 368 446
#     4  10  20  39  72 103 141 194 238 289 369 432
#     4  12  28  50  74 112 148 200 248 308 382 444
#     4  12  26  46  78 112 144 200 258 306 376 448
#     4  12  27  49  75 106 150 197 251 316 377 445
#     4  10  20  39  72 103 141 194 238 289 369 432
#     4  12  27  49  75 106 150 197 251 316 377 445
#     4  12  25  47  74 108 151 194 246 307 368 446
#
# _framework density 24.150231000000002
#
# number of rings (size 3 to 8) (size 9 to 14) (size 15 to 20)
#    0.000    0.500    5.000    4.500    0.000    3.000 
#    0.000    1.250    0.000    0.000    0.000    0.000 
#    0.000    0.000    0.000    0.000    0.000    0.000 
#
# Total GULP energy -89646.442067 kJ/mol
# GULP energy per Si atom -5602.902629 kJ/mol
# Density = 2.409526 g / cm^3
# Si number density = 24.150231 Si / 1000 Ang^3
#
#
#
# Elastic Constant Matrix: (Units=GPa)
#
#
# Indices 1 2 3 4 5 6 
#
# 1 121.5811 24.5115 5.3468 -0.4141 -6.9051 -11.1123
# 2 24.5115 110.0381 34.6531 -24.7098 1.0603 -10.9714
# 3 5.3468 34.6531 61.3690 -0.0112 6.3189 -5.0774
# 4 -0.4141 -24.7098 -0.0112 20.4969 -1.8830 4.0836
# 5 -6.9051 1.0603 6.3189 -1.8830 32.5252 -8.4937
# 6 -11.1123 -10.9714 -5.0774 4.0836 -8.4937 42.4630
#
#
#
# Elastic Compliance Matrix: (Units=1/GPa)
#
#
# Indices 1 2 3 4 5 6 
#
# 1 0.009117 -0.002835 0.000776 -0.003527 0.002340 0.002553
# 2 -0.002835 0.017688 -0.009881 0.021257 0.002246 0.001052
# 3 0.000776 -0.009881 0.022310 -0.012414 -0.004401 0.000631
# 4 -0.003527 0.021257 -0.012414 0.075400 0.004481 -0.003270
# 5 0.002340 0.002246 -0.004401 0.004481 0.034127 0.007062
# 6 0.002553 0.001052 0.000631 -0.003270 0.007062 0.026292
#
#
# Mechanical properties :
#
#
# Convention : Reuss Voigt Hill
#
# Bulk Modulus (GPa) = 39.62856 46.89013 43.25935
# Shear Modulus (GPa) = 23.01759 34.32881 28.67320
#
# Velocity S-wave (km/s) = 3.09058 3.77433 3.44944
# Velocity P-wave (km/s) = 5.40189 6.20099 5.81518
#
# Compressibility (1/GPa) = 0.02523433
#
# Stress axis : x y z
#
# Youngs Moduli (GPa) = 109.68935 56.53612 44.82317
#
# Poissons Ratio (x) = 0.16030 -0.03480
# Poissons Ratio (y) = 0.31100 0.44290
# Poissons Ratio (z) = -0.08517 0.55864
#
# Static dielectric constant tensor:
#      x y z
#    x 1.918410 -0.004780 -0.010560 
#    y -0.004780 1.894050 0.018330 
#    z -0.010560 0.018330 1.959660 
# 
# From -- ./inp_files/141283.got.cif
#   From: 2010.05.17/outbox.cif.g08.bks.cpg/sg2_71_cif.got.tgz:141283.got - 2010.06.03 11:33:40.
