data_PCOD9106703
_publ_section_title
;
Structure prediction by ZEFSAII (Michael W. Deem and Ramdas Pophale) SiO2 
 PCOD9106703
Probable space group: P -1
;
_chemical_formula_sum "Si O2"
_cell_formula_units_Z 16
_cell_length_a 11.638777
_cell_length_b 14.595649
_cell_length_c 8.916811
_cell_angle_alpha 41.410228
_cell_angle_beta 133.145840
_cell_angle_gamma 128.826824
_cell_volume 710.301162
_symmetry_space_group_name_H-M "P -1"
_symmetry_group_IT_number 2
_symmetry_cell_setting 'triclinic'
loop_
_space_group_symop_operation_xyz
x,y,z
-x,-y,-z
loop_
_atom_site_type_symbol
_atom_site_label
_atom_site_fract_x
_atom_site_fract_y
_atom_site_fract_z
Si Si1 0.339793 0.874676 0.011397
Si Si2 0.334606 0.867925 0.668660
Si Si3 0.866401 0.784170 0.710299
Si Si4 0.307328 0.131450 0.113507
Si Si5 0.128196 0.635579 0.241969
Si Si6 0.104171 0.030502 0.774661
Si Si7 0.107136 0.624056 0.576048
Si Si8 0.328696 0.398168 0.011866
O O1 0.290679 0.864921 0.806775
O O2 0.227877 0.939087 0.942636
O O3 0.306318 0.713440 0.245743
O O4 0.500000 0.000000 0.000000
O O5 0.518280 0.846227 0.843300
O O6 0.207038 0.743016 0.625716
O O7 0.323061 0.012045 0.396412
O O8 0.862297 0.837593 0.472596
O O9 0.701913 0.691742 0.749550
O O10 0.934554 0.923884 0.705637
O O11 0.000272 0.691114 0.956551
O O12 0.292588 0.275787 0.003998
O O13 0.156824 0.077897 0.931309
O O14 0.101748 0.683564 0.330503
O O15 0.064122 0.464699 0.402584
O O16 0.209711 0.504348 0.788505
O O17 0.500000 0.500000 0.000000
#
# Coordination Sequence:
#
# PCOD9106703 Si02
#       8
#     2   2   2   2   2   2   2   2
#     4  11  21  35  60  94 126 157 201 250 306 358
#     4  11  22  37  63  92 121 158 201 256 296 359
#     4   9  20  38  62  84 121 161 196 250 303 352
#     4  11  23  38  62  93 121 156 207 250 301 358
#     4   9  21  40  62  87 119 166 202 245 301 363
#     4  10  20  40  60  88 123 156 200 253 303 353
#     4  10  21  42  66  87 124 162 203 246 302 364
#     4  11  22  40  61  90 125 161 196 246 306 365
#
# _framework density 22.525656999999999
#
# number of rings (size 3 to 8) (size 9 to 14) (size 15 to 20)
#    0.000    1.750    2.500    2.250    1.750    2.000 
#    0.000   14.375    0.000    0.000    0.000    0.000 
#    0.000    0.000    0.000    0.000    0.000    0.000 
#
# Total GULP energy -89283.054298 kJ/mol
# GULP energy per Si atom -5580.190894 kJ/mol
# Density = 2.247439 g / cm^3
# Si number density = 22.525657 Si / 1000 Ang^3
#
#
#
# Elastic Constant Matrix: (Units=GPa)
#
#
# Indices 1 2 3 4 5 6 
#
# 1 72.2716 40.5782 17.0228 -19.0984 -19.4541 27.1473
# 2 40.5782 135.2661 23.1296 -7.2924 -21.4986 10.0209
# 3 17.0228 23.1296 81.7693 -13.9735 -24.9218 11.2374
# 4 -19.0984 -7.2924 -13.9735 31.8116 1.1310 -10.4002
# 5 -19.4541 -21.4986 -24.9218 1.1310 36.5998 -13.8413
# 6 27.1473 10.0209 11.2374 -10.4002 -13.8413 52.6540
#
#
#
# Elastic Compliance Matrix: (Units=1/GPa)
#
#
# Indices 1 2 3 4 5 6 
#
# 1 0.024318 -0.005170 0.001804 0.011440 0.007888 -0.007606
# 2 -0.005170 0.009384 -0.001185 -0.001039 0.002598 0.001610
# 3 0.001804 -0.001185 0.017106 0.008013 0.011786 0.000326
# 4 0.011440 -0.001039 0.008013 0.042462 0.011086 0.003891
# 5 0.007888 0.002598 0.011786 0.011086 0.043168 0.006461
# 6 -0.007606 0.001610 0.000326 0.003891 0.006461 0.025004
#
#
# Mechanical properties :
#
#
# Convention : Reuss Voigt Hill
#
# Bulk Modulus (GPa) = 23.97737 50.08538 37.03137
# Shear Modulus (GPa) = 27.10836 38.11819 32.61327
#
# Velocity S-wave (km/s) = 3.47283 4.11811 3.80916
# Velocity P-wave (km/s) = 5.17188 6.70037 5.98512
#
# Compressibility (1/GPa) = 0.04170600
#
# Stress axis : x y z
#
# Youngs Moduli (GPa) = 41.12262 106.56467 58.45916
#
# Poissons Ratio (x) = 0.55090 -0.10546
# Poissons Ratio (y) = 0.21259 0.06928
# Poissons Ratio (z) = -0.07418 0.12629
#
# Static dielectric constant tensor:
#      x y z
#    x 1.892390 0.090770 0.019100 
#    y 0.090770 1.907730 -0.013260 
#    z 0.019100 -0.013260 1.902810 
# 
# From -- ./inp_files/271659.got.cif
#   From: 2010.05.17/outbox.cif.g08.bks.cpg/sg2_136_cif.got.tgz:271659.got - 2010.06.03 11:33:40.
