data_PCOD9106643
_publ_section_title
;
Structure prediction by ZEFSAII (Michael W. Deem and Ramdas Pophale) SiO2 
 PCOD9106643
Probable space group: P -1
;
_chemical_formula_sum "Si O2"
_cell_formula_units_Z 14
_cell_length_a 9.038993
_cell_length_b 17.834339
_cell_length_c 10.114855
_cell_angle_alpha 27.328055
_cell_angle_beta 132.044630
_cell_angle_gamma 135.029792
_cell_volume 524.758579
_symmetry_space_group_name_H-M "P -1"
_symmetry_group_IT_number 2
_symmetry_cell_setting 'triclinic'
loop_
_space_group_symop_operation_xyz
x,y,z
-x,-y,-z
loop_
_atom_site_type_symbol
_atom_site_label
_atom_site_fract_x
_atom_site_fract_y
_atom_site_fract_z
Si Si1 0.384254 0.713521 0.363964
Si Si2 0.568275 0.870289 0.971453
Si Si3 0.212086 0.979655 0.496427
Si Si4 0.713778 0.352840 0.316757
Si Si5 0.602914 0.457894 0.802968
Si Si6 0.030981 0.205701 0.615942
Si Si7 0.036785 0.266377 0.027798
O O1 0.444090 0.732657 0.523508
O O2 0.424718 0.543330 0.597508
O O3 0.518013 0.860174 0.113670
O O4 0.145106 0.706049 0.215374
O O5 0.454674 0.991521 0.644072
O O6 0.457778 0.686197 0.120754
O O7 0.810997 0.887505 0.085612
O O8 0.085052 0.849862 0.739348
O O9 0.165870 0.157911 0.204850
O O10 0.112969 0.892943 0.436527
O O11 0.889566 0.260691 0.551615
O O12 0.641899 0.373252 0.094350
O O13 0.819169 0.549312 0.122779
O O14 0.807965 0.615117 0.632618
#
# Coordination Sequence:
#
# PCOD9106643 Si02
#       7
#     2   2   2   2   2   2   2
#     4  10  22  37  57  91 125 156 194 257 304 352
#     4  10  21  39  64  92 120 155 207 249 295 358
#     4  10  20  40  59  89 122 160 201 248 294 360
#     4  12  21  36  64  92 122 157 199 252 310 347
#     4  11  20  37  61  93 122 153 209 251 291 359
#     4  11  20  37  67  90 116 160 207 247 296 354
#     4  10  21  37  58  87 123 158 201 248 299 357
#
# _framework density 26.678936
#
# number of rings (size 3 to 8) (size 9 to 14) (size 15 to 20)
#    0.000    1.429    2.857    5.571    0.000    0.000 
#    2.571    3.571    0.000    1.714    0.000    0.000 
#    0.000    0.000    0.000    0.000    0.000    0.000 
#
# Total GULP energy -78611.197159 kJ/mol
# GULP energy per Si atom -5615.085511 kJ/mol
# Density = 2.661821 g / cm^3
# Si number density = 26.678936 Si / 1000 Ang^3
#
#
#
# Elastic Constant Matrix: (Units=GPa)
#
#
# Indices 1 2 3 4 5 6 
#
# 1 135.5605 56.9256 56.6836 4.5875 16.9015 -15.0507
# 2 56.9256 132.6729 43.2936 -2.9495 5.0835 -21.2590
# 3 56.6836 43.2936 139.8344 -5.7793 31.6731 -12.9646
# 4 4.5875 -2.9495 -5.7793 52.4755 -12.9782 2.4127
# 5 16.9015 5.0835 31.6731 -12.9782 64.6033 0.4106
# 6 -15.0507 -21.2590 -12.9646 2.4127 0.4106 47.1790
#
#
#
# Elastic Compliance Matrix: (Units=1/GPa)
#
#
# Indices 1 2 3 4 5 6 
#
# 1 0.010302 -0.003312 -0.002796 -0.001801 -0.001433 0.001130
# 2 -0.003312 0.009949 -0.001671 0.000788 0.001043 0.002918
# 3 -0.002796 -0.001671 0.009794 0.000215 -0.003902 0.001070
# 4 -0.001801 0.000788 0.000215 0.020431 0.004416 -0.001244
# 5 -0.001433 0.001043 -0.003902 0.004416 0.018582 -0.001447
# 6 0.001130 0.002918 0.001070 -0.001244 -0.001447 0.023241
#
#
# Mechanical properties :
#
#
# Convention : Reuss Voigt Hill
#
# Bulk Modulus (GPa) = 69.02385 80.20816 74.61601
# Shear Modulus (GPa) = 44.37200 49.59588 46.98394
#
# Velocity S-wave (km/s) = 4.08264 4.31628 4.20108
# Velocity P-wave (km/s) = 6.93917 7.41416 7.18060
#
# Compressibility (1/GPa) = 0.01448775
#
# Stress axis : x y z
#
# Youngs Moduli (GPa) = 97.07278 100.51622 102.10592
#
# Poissons Ratio (x) = 0.33289 0.28544
# Poissons Ratio (y) = 0.32149 0.17059
# Poissons Ratio (z) = 0.27137 0.16793
#
# Static dielectric constant tensor:
#      x y z
#    x 2.079580 0.060240 -0.040200 
#    y 0.060240 1.997270 -0.037950 
#    z -0.040200 -0.037950 2.092430 
# 
# From -- ./inp_files/216380.got.cif
#   From: 2010.05.17/outbox.cif.g08.bks.cpg/sg2_109_cif.got.tgz:216380.got - 2010.06.03 11:33:40.
