data_PCOD9106410
_publ_section_title
;
Structure prediction by ZEFSAII (Michael W. Deem and Ramdas Pophale) SiO2 
 PCOD9106410
Probable space group: P -1
;
_chemical_formula_sum "Si O2"
_cell_formula_units_Z 16
_cell_length_a 11.870229
_cell_length_b 7.848587
_cell_length_c 9.070496
_cell_angle_alpha 74.726956
_cell_angle_beta 110.736761
_cell_angle_gamma 89.810132
_cell_volume 758.009921
_symmetry_space_group_name_H-M "P -1"
_symmetry_group_IT_number 2
_symmetry_cell_setting 'triclinic'
loop_
_space_group_symop_operation_xyz
x,y,z
-x,-y,-z
loop_
_atom_site_type_symbol
_atom_site_label
_atom_site_fract_x
_atom_site_fract_y
_atom_site_fract_z
Si Si1 0.212228 0.860350 0.272440
Si Si2 0.353953 0.944525 0.777906
Si Si3 0.627176 0.876540 0.867608
Si Si4 0.785307 0.737594 0.252447
Si Si5 0.559857 0.519650 0.859232
Si Si6 0.983561 0.996132 0.318954
Si Si7 0.311806 0.606978 0.624011
Si Si8 0.211967 0.760510 0.976467
O O1 0.109053 0.966602 0.297948
O O2 0.272828 0.695600 0.431756
O O3 0.307891 0.989177 0.231248
O O4 0.163420 0.793778 0.110393
O O5 0.495380 0.957306 0.843063
O O6 0.320842 0.780147 0.696930
O O7 0.305578 0.894434 0.928235
O O8 0.282954 0.138362 0.678468
O O9 0.587483 0.716073 0.788123
O O10 0.710095 0.775376 0.056947
O O11 0.780955 0.530355 0.333418
O O12 0.910607 0.827232 0.279529
O O13 0.443727 0.491083 0.712081
O O14 0.500000 0.500000 0.000000
O O15 0.691776 0.411776 0.941147
O O16 0.000000 0.000000 0.500000
O O17 0.902718 0.178663 0.193195
#
# Coordination Sequence:
#
# PCOD9106410 Si02
#       8
#     2   2   2   2   2   2   2   2
#     4  12  26  42  65 104 142 174 229 293 339 393
#     4  10  20  39  69  99 135 183 224 267 341 426
#     4  11  21  38  70 100 137 182 223 272 350 409
#     4  11  21  40  74  92 126 190 238 267 345 414
#     4  11  21  40  70 102 144 176 224 274 337 425
#     4  11  26  47  73  92 133 188 242 282 336 414
#     4  11  24  43  67 104 142 174 229 283 338 419
#     4  11  21  42  69  99 135 178 224 290 337 396
#
# _framework density 21.107900999999998
#
# number of rings (size 3 to 8) (size 9 to 14) (size 15 to 20)
#    0.000    1.000    6.250    2.250    1.750    3.000 
#    4.500    0.625    0.000    0.000    0.000    0.000 
#    0.000    0.000    0.000    0.000    0.000    0.000 
#
# Total GULP energy -89100.704266 kJ/mol
# GULP energy per Si atom -5568.794017 kJ/mol
# Density = 2.105986 g / cm^3
# Si number density = 21.107901 Si / 1000 Ang^3
#
#
#
# Elastic Constant Matrix: (Units=GPa)
#
#
# Indices 1 2 3 4 5 6 
#
# 1 101.6185 10.8319 35.3429 -6.5852 -10.3472 -14.9541
# 2 10.8319 64.9886 0.9564 -6.8348 -8.1779 2.9553
# 3 35.3429 0.9564 102.9145 -9.9023 -8.1478 -10.6057
# 4 -6.5852 -6.8348 -9.9023 32.9314 -1.4751 0.2388
# 5 -10.3472 -8.1779 -8.1478 -1.4751 26.5400 -3.7769
# 6 -14.9541 2.9553 -10.6057 0.2388 -3.7769 45.6458
#
#
#
# Elastic Compliance Matrix: (Units=1/GPa)
#
#
# Indices 1 2 3 4 5 6 
#
# 1 0.012180 -0.001532 -0.003373 0.001248 0.003825 0.003616
# 2 -0.001532 0.016679 0.001017 0.003689 0.004923 -0.000957
# 3 -0.003373 0.001017 0.011584 0.003141 0.002978 0.001751
# 4 0.001248 0.003689 0.003141 0.032522 0.004552 0.001106
# 5 0.003825 0.004923 0.002978 0.004552 0.042584 0.005126
# 6 0.003616 -0.000957 0.001751 0.001106 0.005126 0.023979
#
#
# Mechanical properties :
#
#
# Convention : Reuss Voigt Hill
#
# Bulk Modulus (GPa) = 30.61245 40.42044 35.51645
# Shear Modulus (GPa) = 31.60713 35.84947 33.72830
#
# Velocity S-wave (km/s) = 3.87383 4.12562 4.00171
# Velocity P-wave (km/s) = 5.87734 6.47189 6.18177
#
# Compressibility (1/GPa) = 0.03266644
#
# Stress axis : x y z
#
# Youngs Moduli (GPa) = 82.10464 59.95678 86.32528
#
# Poissons Ratio (x) = 0.09187 0.29117
# Poissons Ratio (y) = 0.12580 -0.08781
# Poissons Ratio (z) = 0.27693 -0.06099
#
# Static dielectric constant tensor:
#      x y z
#    x 1.781010 -0.035400 0.028000 
#    y -0.035400 1.913720 0.035410 
#    z 0.028000 0.035410 1.805850 
# 
# From -- ./inp_files/243135.got.cif
#   From: 2010.05.17/outbox.cif.g08.bks.cpg/sg2_122_cif.got.tgz:243135.got - 2010.06.03 11:33:40.
