data_PCOD9106280
_publ_section_title
;
Structure prediction by ZEFSAII (Michael W. Deem and Ramdas Pophale) SiO2 
 PCOD9106280
Probable space group: P -1
;
_chemical_formula_sum "Si O2"
_cell_formula_units_Z 14
_cell_length_a 11.633208
_cell_length_b 6.898803
_cell_length_c 15.969131
_cell_angle_alpha 135.610515
_cell_angle_beta 35.973011
_cell_angle_gamma 118.467132
_cell_volume 510.248435
_symmetry_space_group_name_H-M "P -1"
_symmetry_group_IT_number 2
_symmetry_cell_setting 'triclinic'
loop_
_space_group_symop_operation_xyz
x,y,z
-x,-y,-z
loop_
_atom_site_type_symbol
_atom_site_label
_atom_site_fract_x
_atom_site_fract_y
_atom_site_fract_z
Si Si1 0.094598 0.506809 0.536344
Si Si2 0.630237 0.288831 0.461518
Si Si3 0.250503 0.994740 0.032084
Si Si4 0.853786 0.348705 0.856772
Si Si5 0.346322 0.892343 0.236349
Si Si6 0.029482 0.242477 0.969100
Si Si7 0.683294 0.854975 0.504608
O O1 0.292736 0.635826 0.469622
O O2 0.163275 0.178820 0.423801
O O3 0.000000 0.500000 0.500000
O O4 0.921767 0.718175 0.757398
O O5 0.648324 0.575593 0.489574
O O6 0.426058 0.194011 0.532486
O O7 0.798164 0.025049 0.244301
O O8 0.245757 0.793578 0.053485
O O9 0.181050 0.843816 0.944788
O O10 0.466714 0.043875 0.903578
O O11 0.083118 0.163633 0.653551
O O12 0.725900 0.345190 0.847503
O O13 0.899250 0.641517 0.952103
O O14 0.395127 0.881187 0.303186
O O15 0.000000 0.500000 0.000000
#
# Coordination Sequence:
#
# PCOD9106280 Si02
#       7
#     2   2   2   2   2   2   2
#     4  10  20  39  68  96 122 175 227 273 327 394
#     4   9  21  43  65  94 131 185 219 265 339 412
#     4  10  22  43  65  95 131 177 225 276 337 395
#     4  11  22  40  64 100 133 169 222 288 330 383
#     4  11  23  43  68  92 138 179 221 275 337 405
#     4   9  21  41  64  98 132 167 223 285 330 389
#     4  10  23  42  67  95 135 181 223 264 335 409
#
# _framework density 27.437614
#
# number of rings (size 3 to 8) (size 9 to 14) (size 15 to 20)
#    0.000    2.000    1.429    0.857    6.000    0.571 
#   12.857    2.857    0.000    0.000    0.000    0.000 
#    0.000    0.000    0.000    0.000    0.000    0.000 
#
# Total GULP energy -78433.884149 kJ/mol
# GULP energy per Si atom -5602.420296 kJ/mol
# Density = 2.737516 g / cm^3
# Si number density = 27.437614 Si / 1000 Ang^3
#
#
#
# Elastic Constant Matrix: (Units=GPa)
#
#
# Indices 1 2 3 4 5 6 
#
# 1 186.9544 99.7241 45.7447 -14.1339 18.0534 66.8730
# 2 99.7241 105.6345 16.2531 -2.8998 21.0556 32.1413
# 3 45.7447 16.2531 71.9552 0.7759 23.6966 18.4044
# 4 -14.1339 -2.8998 0.7759 50.4385 7.4379 -1.8464
# 5 18.0534 21.0556 23.6966 7.4379 35.9244 11.3274
# 6 66.8730 32.1413 18.4044 -1.8464 11.3274 79.2611
#
#
#
# Elastic Compliance Matrix: (Units=1/GPa)
#
#
# Indices 1 2 3 4 5 6 
#
# 1 0.016885 -0.013588 -0.007856 0.002824 0.006529 -0.007779
# 2 -0.013588 0.022848 0.006703 -0.000813 -0.011533 0.002272
# 3 -0.007856 0.006703 0.022019 0.000062 -0.014807 0.000915
# 4 0.002824 -0.000813 0.000062 0.021295 -0.005128 -0.000838
# 5 0.006529 -0.011533 -0.014807 -0.005128 0.043311 -0.003703
# 6 -0.007779 0.002272 0.000915 -0.000838 -0.003703 0.018555
#
#
# Mechanical properties :
#
#
# Convention : Reuss Voigt Hill
#
# Bulk Modulus (GPa) = 30.98809 76.44308 53.71559
# Shear Modulus (GPa) = 27.00470 46.64629 36.82549
#
# Velocity S-wave (km/s) = 3.14063 4.12768 3.66752
# Velocity P-wave (km/s) = 4.94671 7.11605 6.12814
#
# Compressibility (1/GPa) = 0.03227046
#
# Stress axis : x y z
#
# Youngs Moduli (GPa) = 59.22500 43.76663 45.41438
#
# Poissons Ratio (x) = 0.59472 0.35678
# Poissons Ratio (y) = 0.80477 -0.30443
# Poissons Ratio (z) = 0.46528 -0.29338
#
# Static dielectric constant tensor:
#      x y z
#    x 2.295870 -0.036540 0.003140 
#    y -0.036540 2.135200 0.058120 
#    z 0.003140 0.058120 2.097280 
# 
# From -- ./inp_files/567016.got.cif
#   From: 2010.05.17/outbox.cif.g08.bks.cpg/sg2_284_cif.got.tgz:567016.got - 2010.06.03 11:33:40.
