data_PCOD9106891
_publ_section_title
;
Structure prediction by ZEFSAII (Michael W. Deem and Ramdas Pophale) SiO2 
 PCOD9106891
Probable space group: P -1
;
_chemical_formula_sum "Si O2"
_cell_formula_units_Z 14
_cell_length_a 16.226542
_cell_length_b 7.932462
_cell_length_c 11.779763
_cell_angle_alpha 86.842017
_cell_angle_beta 135.348190
_cell_angle_gamma 126.927066
_cell_volume 637.943968
_symmetry_space_group_name_H-M "P -1"
_symmetry_group_IT_number 2
_symmetry_cell_setting 'triclinic'
loop_
_space_group_symop_operation_xyz
x,y,z
-x,-y,-z
loop_
_atom_site_type_symbol
_atom_site_label
_atom_site_fract_x
_atom_site_fract_y
_atom_site_fract_z
Si Si1 0.862462 0.687364 0.157833
Si Si2 0.424911 0.744425 0.289953
Si Si3 0.070822 0.400847 0.116888
Si Si4 0.485823 0.873257 0.813240
Si Si5 0.806969 0.975313 0.697065
Si Si6 0.836461 0.694927 0.590709
Si Si7 0.784438 0.300068 0.259327
O O1 0.797906 0.499523 0.205985
O O2 0.024909 0.773223 0.237666
O O3 0.683606 0.497747 0.901883
O O4 0.979023 0.991622 0.291464
O O5 0.278479 0.605660 0.254591
O O6 0.458796 0.961355 0.251658
O O7 0.624151 0.886988 0.517461
O O8 0.090777 0.388205 0.269647
O O9 0.000000 0.500000 0.000000
O O10 0.909917 0.090243 0.915601
O O11 0.342031 0.554740 0.655873
O O12 0.355922 0.849794 0.764304
O O13 0.678282 0.061697 0.069831
O O14 0.761139 0.737123 0.613162
O O15 0.000000 0.500000 0.500000
#
# Coordination Sequence:
#
# PCOD9106891 Si02
#       7
#     2   2   2   2   2   2   2
#     4   8  20  38  59  87 120 154 194 245 300 347
#     4  10  20  40  62  84 121 164 199 238 296 355
#     4  11  23  39  60  89 123 163 202 240 288 358
#     4  10  22  38  61  90 118 150 206 246 290 363
#     4   9  20  38  60  85 125 156 197 245 291 347
#     4  10  22  41  57  91 126 151 202 250 296 347
#     4  10  20  40  65  84 116 160 197 244 303 355
#
# _framework density 21.945499000000002
#
# number of rings (size 3 to 8) (size 9 to 14) (size 15 to 20)
#    0.857    1.429    0.000    2.143    0.000    5.714 
#    5.143    0.714    0.000    0.000    0.000    0.000 
#    0.000    0.000    0.000    0.000    0.000    0.000 
#
# Total GULP energy -78130.421857 kJ/mol
# GULP energy per Si atom -5580.744418 kJ/mol
# Density = 2.189555 g / cm^3
# Si number density = 21.945499 Si / 1000 Ang^3
#
#
#
# Elastic Constant Matrix: (Units=GPa)
#
#
# Indices 1 2 3 4 5 6 
#
# 1 22.4195 -1.7685 18.4588 1.0264 2.2482 0.6325
# 2 -1.7685 77.4648 12.6305 15.1339 -16.5184 10.1566
# 3 18.4588 12.6305 138.7814 25.7513 -1.9631 1.6739
# 4 1.0264 15.1339 25.7513 34.6696 -10.2570 -6.1707
# 5 2.2482 -16.5184 -1.9631 -10.2570 37.2478 11.0233
# 6 0.6325 10.1566 1.6739 -6.1707 11.0233 29.7669
#
#
#
# Elastic Compliance Matrix: (Units=1/GPa)
#
#
# Indices 1 2 3 4 5 6 
#
# 1 0.050929 0.001317 -0.007460 0.002865 -0.002180 0.000289
# 2 0.001317 0.017658 -0.000263 -0.006793 0.009064 -0.010803
# 3 -0.007460 -0.000263 0.009577 -0.007260 -0.000707 -0.001533
# 4 0.002865 -0.006793 -0.007260 0.040168 0.004762 0.009229
# 5 -0.002180 0.009064 -0.000707 0.004762 0.036916 -0.015690
# 6 0.000289 -0.010803 -0.001533 0.009229 -0.015690 0.045084
#
#
# Mechanical properties :
#
#
# Convention : Reuss Voigt Hill
#
# Bulk Modulus (GPa) = 15.30175 33.03412 24.16793
# Shear Modulus (GPa) = 21.28302 34.29321 27.78811
#
# Velocity S-wave (km/s) = 3.11756 3.95733 3.56228
# Velocity P-wave (km/s) = 4.46617 5.99717 5.28738
#
# Compressibility (1/GPa) = 0.06535202
#
# Stress axis : x y z
#
# Youngs Moduli (GPa) = 19.63525 56.63017 104.41332
#
# Poissons Ratio (x) = -0.07455 0.77888
# Poissons Ratio (y) = -0.02585 0.02749
# Poissons Ratio (z) = 0.14647 0.01491
#
# Static dielectric constant tensor:
#      x y z
#    x 1.814560 -0.042630 -0.041710 
#    y -0.042630 1.828470 0.034460 
#    z -0.041710 0.034460 1.815610 
# 
# From -- ./inp_files/462156.got.cif
#   From: 2010.05.17/outbox.cif.g08.bks.cpg/sg2_232_cif.got.tgz:462156.got - 2010.06.03 11:33:40.
