data_PCOD9106621
_publ_section_title
;
Structure prediction by ZEFSAII (Michael W. Deem and Ramdas Pophale) SiO2 
 PCOD9106621
Probable space group: P -1
;
_chemical_formula_sum "Si O2"
_cell_formula_units_Z 16
_cell_length_a 11.979803
_cell_length_b 7.445504
_cell_length_c 13.630775
_cell_angle_alpha 77.644109
_cell_angle_beta 64.304622
_cell_angle_gamma 35.208925
_cell_volume 608.204658
_symmetry_space_group_name_H-M "P -1"
_symmetry_group_IT_number 2
_symmetry_cell_setting 'triclinic'
loop_
_space_group_symop_operation_xyz
x,y,z
-x,-y,-z
loop_
_atom_site_type_symbol
_atom_site_label
_atom_site_fract_x
_atom_site_fract_y
_atom_site_fract_z
Si Si1 0.459555 0.548259 0.305200
Si Si2 0.601418 0.595155 0.838976
Si Si3 0.833316 0.806656 0.228861
Si Si4 0.823968 0.688495 0.460858
Si Si5 0.287402 0.205783 0.118063
Si Si6 0.355715 0.455196 0.532102
Si Si7 0.280204 0.441747 0.770483
Si Si8 0.804172 0.029023 0.938121
O O1 0.336779 0.583854 0.263855
O O2 0.367295 0.620083 0.440339
O O3 0.518320 0.688746 0.247744
O O4 0.690213 0.158578 0.260292
O O5 0.669799 0.721785 0.810398
O O6 0.719789 0.334698 0.910031
O O7 0.344730 0.871040 0.929637
O O8 0.909435 0.640327 0.326479
O O9 0.696147 0.800790 0.240299
O O10 0.060325 0.558995 0.117848
O O11 0.758333 0.556320 0.491807
O O12 0.000000 0.500000 0.500000
O O13 0.595083 0.078209 0.509477
O O14 0.249540 0.036723 0.127913
O O15 0.500000 0.000000 0.000000
O O16 0.237095 0.600617 0.664646
O O17 0.063283 0.715382 0.885729
#
# Coordination Sequence:
#
# PCOD9106621 Si02
#       8
#     2   2   2   2   2   2   2   2
#     4  11  22  36  59  85 116 151 188 242 289 339
#     4  10  21  36  58  87 112 149 196 236 286 346
#     4   9  20  37  58  81 111 153 189 232 289 347
#     4   9  18  35  61  84 113 160 193 234 293 344
#     4   9  18  36  59  80 111 147 185 243 284 333
#     4   9  20  38  55  87 123 148 197 243 286 349
#     4  10  20  40  59  78 120 156 183 239 295 336
#     4   9  20  40  59  79 116 154 191 236 286 347
#
# _framework density 26.306934999999999
#
# number of rings (size 3 to 8) (size 9 to 14) (size 15 to 20)
#    0.000    2.500    0.000    1.875    1.750    1.500 
#    6.750    6.250    0.000    0.000    0.000    0.000 
#    0.000    0.000    0.000    0.000    0.000    0.000 
#
# Total GULP energy -89406.050768 kJ/mol
# GULP energy per Si atom -5587.878173 kJ/mol
# Density = 2.624706 g / cm^3
# Si number density = 26.306935 Si / 1000 Ang^3
#
#
#
# Elastic Constant Matrix: (Units=GPa)
#
#
# Indices 1 2 3 4 5 6 
#
# 1 188.1044 42.5811 25.6119 -16.8795 2.8061 10.1472
# 2 42.5811 41.1826 15.8392 -13.4778 -5.1811 4.2948
# 3 25.6119 15.8392 94.9344 -9.9207 -7.8760 2.5719
# 4 -16.8795 -13.4778 -9.9207 25.9147 -5.4145 2.8984
# 5 2.8061 -5.1811 -7.8760 -5.4145 40.4945 -3.2323
# 6 10.1472 4.2948 2.5719 2.8984 -3.2323 47.5366
#
#
#
# Elastic Compliance Matrix: (Units=1/GPa)
#
#
# Indices 1 2 3 4 5 6 
#
# 1 0.007130 -0.006998 -0.000809 0.000478 -0.001561 -0.000981
# 2 -0.006998 0.038946 -0.002224 0.016593 0.007060 -0.002436
# 3 -0.000809 -0.002224 0.011684 0.003338 0.002467 -0.000294
# 4 0.000478 0.016593 0.003338 0.051217 0.009246 -0.004276
# 5 -0.001561 0.007060 0.002467 0.009246 0.027491 0.000868
# 6 -0.000981 -0.002436 -0.000294 -0.004276 0.000868 0.021802
#
#
# Mechanical properties :
#
#
# Convention : Reuss Voigt Hill
#
# Bulk Modulus (GPa) = 26.52712 54.69841 40.61277
# Shear Modulus (GPa) = 26.19197 38.80179 32.49688
#
# Velocity S-wave (km/s) = 3.15878 3.84469 3.51849
# Velocity P-wave (km/s) = 4.83833 6.36761 5.65490
#
# Compressibility (1/GPa) = 0.03769726
#
# Stress axis : x y z
#
# Youngs Moduli (GPa) = 140.25955 25.67663 85.58480
#
# Poissons Ratio (x) = 0.17969 0.06922
# Poissons Ratio (y) = 0.98157 0.19036
# Poissons Ratio (z) = 0.11345 0.05711
#
# Static dielectric constant tensor:
#      x y z
#    x 2.060590 -0.054080 0.021960 
#    y -0.054080 2.045980 -0.014270 
#    z 0.021960 -0.014270 2.138340 
# 
# From -- ./inp_files/515646.got.cif
#   From: 2010.05.17/outbox.cif.g08.bks.cpg/sg2_258_cif.got.tgz:515646.got - 2010.06.03 11:33:40.
