data_PCOD9106484
_publ_section_title
;
Structure prediction by ZEFSAII (Michael W. Deem and Ramdas Pophale) SiO2 
 PCOD9106484
Probable space group: P -1
;
_chemical_formula_sum "Si O2"
_cell_formula_units_Z 16
_cell_length_a 16.316598
_cell_length_b 8.781640
_cell_length_c 30.671508
_cell_angle_alpha 33.888752
_cell_angle_beta 161.918866
_cell_angle_gamma 136.444635
_cell_volume 705.876825
_symmetry_space_group_name_H-M "P -1"
_symmetry_group_IT_number 2
_symmetry_cell_setting 'triclinic'
loop_
_space_group_symop_operation_xyz
x,y,z
-x,-y,-z
loop_
_atom_site_type_symbol
_atom_site_label
_atom_site_fract_x
_atom_site_fract_y
_atom_site_fract_z
Si Si1 0.652320 0.352595 0.765353
Si Si2 0.803140 0.661680 0.992642
Si Si3 0.823772 0.619288 0.426003
Si Si4 0.660429 0.144403 0.163297
Si Si5 0.132202 0.250721 0.824323
Si Si6 0.191391 0.653094 0.680802
Si Si7 0.613218 0.181990 0.547727
Si Si8 0.894450 0.657120 0.689968
O O1 0.442078 0.461459 0.674104
O O2 0.482480 0.503458 0.599868
O O3 0.723601 0.007312 0.879065
O O4 0.942562 0.414537 0.896166
O O5 0.519582 0.607243 0.850514
O O6 0.940162 0.495487 0.146133
O O7 0.000000 0.500000 0.500000
O O8 0.048452 0.532605 0.599029
O O9 0.694631 0.971629 0.266640
O O10 0.967838 0.106041 0.309599
O O11 0.500000 0.500000 0.000000
O O12 0.448035 0.055416 0.046504
O O13 0.945799 0.084620 0.748019
O O14 0.962660 0.427002 0.739315
O O15 0.161705 0.489015 0.748759
O O16 0.000000 0.000000 0.500000
O O17 0.432957 0.212215 0.493229
O O18 0.500000 0.000000 0.500000
#
# Coordination Sequence:
#
# PCOD9106484 Si02
#       8
#     2   2   2   2   2   2   2   2
#     4  10  21  41  65  88 133 171 217 265 337 385
#     4  10  20  39  70  98 125 170 221 283 319 398
#     4  12  26  43  65  98 144 175 211 282 342 401
#     4  10  21  40  67  98 128 171 222 274 325 394
#     4  11  21  39  67  97 124 166 227 276 312 390
#     4  12  21  39  68 100 129 170 232 269 335 398
#     4  11  24  41  60  91 134 173 213 265 329 404
#     4  10  21  37  67  98 128 160 216 274 334 376
#
# _framework density 22.666843
#
# number of rings (size 3 to 8) (size 9 to 14) (size 15 to 20)
#    0.000    1.250    3.750    3.375    1.750    0.000 
#    4.500    5.625    0.000    0.000    0.000    0.000 
#    0.000    0.000    0.000    0.000    0.000    0.000 
#
# Total GULP energy -89398.053416 kJ/mol
# GULP energy per Si atom -5587.378339 kJ/mol
# Density = 2.261525 g / cm^3
# Si number density = 22.666843 Si / 1000 Ang^3
#
#
#
# Elastic Constant Matrix: (Units=GPa)
#
#
# Indices 1 2 3 4 5 6 
#
# 1 153.9855 32.3564 36.1547 14.3121 21.2661 29.1183
# 2 32.3564 70.2487 34.2627 28.7494 13.1609 19.4106
# 3 36.1547 34.2627 100.6670 29.2719 6.5145 18.3614
# 4 14.3121 28.7494 29.2719 41.9476 7.3401 6.6549
# 5 21.2661 13.1609 6.5145 7.3401 44.9184 5.5934
# 6 29.1183 19.4106 18.3614 6.6549 5.5934 40.0509
#
#
#
# Elastic Compliance Matrix: (Units=1/GPa)
#
#
# Indices 1 2 3 4 5 6 
#
# 1 0.008356 -0.001555 -0.001674 0.000550 -0.002818 -0.004252
# 2 -0.001555 0.023625 -0.002474 -0.012349 -0.002973 -0.006718
# 3 -0.001674 -0.002474 0.013928 -0.007170 0.001033 -0.002922
# 4 0.000550 -0.012349 -0.007170 0.036995 -0.002022 0.003007
# 5 -0.002818 -0.002973 0.001033 -0.002022 0.024660 -0.000092
# 6 -0.004252 -0.006718 -0.002922 0.003007 -0.000092 0.032168
#
#
# Mechanical properties :
#
#
# Convention : Reuss Voigt Hill
#
# Bulk Modulus (GPa) = 28.98268 58.93875 43.96071
# Shear Modulus (GPa) = 30.74305 40.19186 35.46745
#
# Velocity S-wave (km/s) = 3.68679 4.21545 3.95996
# Velocity P-wave (km/s) = 5.56214 7.05351 6.35175
#
# Compressibility (1/GPa) = 0.03450337
#
# Stress axis : x y z
#
# Youngs Moduli (GPa) = 119.67555 42.32826 71.79819
#
# Poissons Ratio (x) = 0.06581 0.12019
# Poissons Ratio (y) = 0.18605 0.17763
# Poissons Ratio (z) = 0.20034 0.10472
#
# Static dielectric constant tensor:
#      x y z
#    x 1.858800 -0.034990 0.063520 
#    y -0.034990 1.917170 -0.034570 
#    z 0.063520 -0.034570 1.882690 
# 
# From -- ./inp_files/328971.got.cif
#   From: 2010.05.17/outbox.cif.g08.bks.cpg/sg2_165_cif.got.tgz:328971.got - 2010.06.03 11:33:40.
