data_PCOD9106607
_publ_section_title
;
Structure prediction by ZEFSAII (Michael W. Deem and Ramdas Pophale) SiO2 
 PCOD9106607
Probable space group: P -1
;
_chemical_formula_sum "Si O2"
_cell_formula_units_Z 12
_cell_length_a 6.481722
_cell_length_b 7.281788
_cell_length_c 14.321240
_cell_angle_alpha 84.282970
_cell_angle_beta 83.768749
_cell_angle_gamma 45.883580
_cell_volume 482.135258
_symmetry_space_group_name_H-M "P -1"
_symmetry_group_IT_number 2
_symmetry_cell_setting 'triclinic'
loop_
_space_group_symop_operation_xyz
x,y,z
-x,-y,-z
loop_
_atom_site_type_symbol
_atom_site_label
_atom_site_fract_x
_atom_site_fract_y
_atom_site_fract_z
Si Si1 0.099780 0.435103 0.695958
Si Si2 0.817970 0.034700 0.091805
Si Si3 0.671360 0.196914 0.595568
Si Si4 0.827947 0.058608 0.291592
Si Si5 0.872118 0.542864 0.900050
Si Si6 0.325632 0.379328 0.431860
O O1 0.415506 0.327847 0.676247
O O2 0.123780 0.194456 0.699718
O O3 0.952736 0.587312 0.793229
O O4 0.940439 0.573653 0.596898
O O5 0.862194 0.111782 0.183075
O O6 0.972144 0.745740 0.112315
O O7 0.474243 0.238319 0.083177
O O8 0.000000 0.000000 0.000000
O O9 0.544198 0.176063 0.511367
O O10 0.733914 0.370251 0.554728
O O11 0.961844 0.968170 0.645907
O O12 0.508313 0.280184 0.332261
O O13 0.000000 0.500000 0.000000
#
# Coordination Sequence:
#
# PCOD9106607 Si02
#       6
#     2   2   2   2   2   2
#     4  10  22  39  59  88 125 160 205 259 316 365
#     4  11  24  43  67  93 128 167 207 264 322 371
#     4  10  22  36  62  89 118 166 206 254 313 376
#     4  10  22  39  59  87 126 156 208 260 308 376
#     4  11  24  43  65  95 129 162 214 262 313 385
#     4  10  20  40  58  88 124 156 210 260 304 376
#
# _framework density 24.889281
#
# number of rings (size 3 to 8) (size 9 to 14) (size 15 to 20)
#    0.000    1.667    1.667    2.000    2.333    3.333 
#    0.000    0.000    0.000    0.000    0.000    0.000 
#    0.000    0.000    0.000    0.000    0.000    0.000 
#
# Total GULP energy -66942.302555 kJ/mol
# GULP energy per Si atom -5578.525213 kJ/mol
# Density = 2.483263 g / cm^3
# Si number density = 24.889281 Si / 1000 Ang^3
#
#
#
# Elastic Constant Matrix: (Units=GPa)
#
#
# Indices 1 2 3 4 5 6 
#
# 1 102.0470 41.8854 30.6174 -5.3309 15.8232 -15.0906
# 2 41.8854 104.5543 12.0229 -7.4416 16.0218 -23.8828
# 3 30.6174 12.0229 137.7338 -6.1645 17.6642 -0.7562
# 4 -5.3309 -7.4416 -6.1645 42.3585 -18.9823 1.7952
# 5 15.8232 16.0218 17.6642 -18.9823 60.5928 4.6281
# 6 -15.0906 -23.8828 -0.7562 1.7952 4.6281 37.8258
#
#
#
# Elastic Compliance Matrix: (Units=1/GPa)
#
#
# Indices 1 2 3 4 5 6 
#
# 1 0.012800 -0.003947 -0.002249 -0.000423 -0.001992 0.002833
# 2 -0.003947 0.013232 0.000155 0.000206 -0.002994 0.007140
# 3 -0.002249 0.000155 0.007969 0.000165 -0.001691 -0.000441
# 4 -0.000423 0.000206 0.000165 0.027693 0.008869 -0.002435
# 5 -0.001992 -0.002994 -0.001691 0.008869 0.021528 -0.005774
# 6 0.002833 0.007140 -0.000441 -0.002435 -0.005774 0.032888
#
#
# Mechanical properties :
#
#
# Convention : Reuss Voigt Hill
#
# Bulk Modulus (GPa) = 45.62224 57.04296 51.33260
# Shear Modulus (GPa) = 36.90095 45.47604 41.18850
#
# Velocity S-wave (km/s) = 3.85464 4.27914 4.07242
# Velocity P-wave (km/s) = 6.17906 6.88354 6.54079
#
# Compressibility (1/GPa) = 0.02191913
#
# Stress axis : x y z
#
# Youngs Moduli (GPa) = 78.12582 75.57399 125.49225
#
# Poissons Ratio (x) = 0.29827 0.28219
# Poissons Ratio (y) = 0.30834 -0.01941
# Poissons Ratio (z) = 0.17568 -0.01169
#
# Static dielectric constant tensor:
#      x y z
#    x 1.987270 0.052300 -0.061160 
#    y 0.052300 1.966660 -0.058590 
#    z -0.061160 -0.058590 2.143390 
# 
# From -- ./inp_files/3428.got.cif
#   From: 2010.05.17/outbox.cif.g08.bks.cpg/sg2_2_cif.got.tgz:3428.got - 2010.06.03 11:33:40.
