data_PCOD9106118
_publ_section_title
;
Structure prediction by ZEFSAII (Michael W. Deem and Ramdas Pophale) SiO2 
 PCOD9106118
Probable space group: P -1
;
_chemical_formula_sum "Si O2"
_cell_formula_units_Z 16
_cell_length_a 9.558719
_cell_length_b 12.073265
_cell_length_c 9.619778
_cell_angle_alpha 91.374181
_cell_angle_beta 98.914000
_cell_angle_gamma 135.075677
_cell_volume 760.147781
_symmetry_space_group_name_H-M "P -1"
_symmetry_group_IT_number 2
_symmetry_cell_setting 'triclinic'
loop_
_space_group_symop_operation_xyz
x,y,z
-x,-y,-z
loop_
_atom_site_type_symbol
_atom_site_label
_atom_site_fract_x
_atom_site_fract_y
_atom_site_fract_z
Si Si1 0.144049 0.358824 0.851391
Si Si2 0.211471 0.563087 0.084830
Si Si3 0.305820 0.836343 0.766442
Si Si4 0.218471 0.198150 0.688974
Si Si5 0.816593 0.457649 0.390623
Si Si6 0.707850 0.154535 0.905542
Si Si7 0.326624 0.507440 0.359695
Si Si8 0.000208 0.155684 0.380883
O O1 0.211225 0.273529 0.823669
O O2 0.125946 0.416450 0.707214
O O3 0.924402 0.239233 0.884677
O O4 0.277653 0.507013 0.984243
O O5 0.350658 0.749202 0.122100
O O6 0.185846 0.495492 0.229078
O O7 0.000000 0.500000 0.000000
O O8 0.279286 0.694089 0.719976
O O9 0.153190 0.827035 0.655172
O O10 0.541663 0.996168 0.787483
O O11 0.281077 0.851973 0.926462
O O12 0.446768 0.345831 0.664275
O O13 0.065811 0.160599 0.546679
O O14 0.127590 0.023758 0.698614
O O15 0.683614 0.441573 0.489390
O O16 0.000000 0.500000 0.500000
O O17 0.213048 0.323328 0.349272
#
# Coordination Sequence:
#
# PCOD9106118 Si02
#       8
#     2   2   2   2   2   2   2   2
#     4  11  22  41  64  93 132 173 220 266 323 396
#     4  10  20  39  67  94 129 169 207 274 338 381
#     4  11  22  41  65 103 131 165 217 279 347 386
#     4  11  26  44  62  93 132 185 224 260 323 397
#     4  12  22  38  68  99 124 165 220 273 335 388
#     4  10  22  39  66 100 135 165 210 280 345 390
#     4  12  24  43  68  95 132 177 220 269 331 392
#     4  11  23  42  65  90 134 173 220 274 323 387
#
# _framework density 21.048539000000002
#
# number of rings (size 3 to 8) (size 9 to 14) (size 15 to 20)
#    0.000    1.000    3.750    4.125    0.000    2.500 
#    0.000    5.000    0.000    0.000    0.000    0.000 
#    0.000    0.000    0.000    0.000    0.000    0.000 
#
# Total GULP energy -89225.748140 kJ/mol
# GULP energy per Si atom -5576.609259 kJ/mol
# Density = 2.100063 g / cm^3
# Si number density = 21.048539 Si / 1000 Ang^3
#
#
#
# Elastic Constant Matrix: (Units=GPa)
#
#
# Indices 1 2 3 4 5 6 
#
# 1 52.7093 39.7181 7.2614 5.2742 -14.5746 5.5383
# 2 39.7181 122.5500 -4.6044 18.1943 -10.0063 -7.6513
# 3 7.2614 -4.6044 53.0655 -2.4472 1.8147 5.9217
# 4 5.2742 18.1943 -2.4472 32.3436 -7.9021 2.4738
# 5 -14.5746 -10.0063 1.8147 -7.9021 40.4942 -5.6292
# 6 5.5383 -7.6513 5.9217 2.4738 -5.6292 29.4465
#
#
#
# Elastic Compliance Matrix: (Units=1/GPa)
#
#
# Indices 1 2 3 4 5 6 
#
# 1 0.029625 -0.009895 -0.004397 0.002847 0.008144 -0.005941
# 2 -0.009895 0.012551 0.001632 -0.005954 -0.000986 0.005106
# 3 -0.004397 0.001632 0.020085 0.000999 -0.002346 -0.003320
# 4 0.002847 -0.005954 0.000999 0.035634 0.005885 -0.004152
# 5 0.008144 -0.000986 -0.002346 0.005885 0.029159 0.003764
# 6 -0.005941 0.005106 -0.003320 -0.004152 0.003764 0.038140
#
#
# Mechanical properties :
#
#
# Convention : Reuss Voigt Hill
#
# Bulk Modulus (GPa) = 27.06987 34.78614 30.92800
# Shear Modulus (GPa) = 24.65147 32.85352 28.75249
#
# Velocity S-wave (km/s) = 3.42595 3.95504 3.69997
# Velocity P-wave (km/s) = 5.34211 6.11710 5.74270
#
# Compressibility (1/GPa) = 0.03694144
#
# Stress axis : x y z
#
# Youngs Moduli (GPa) = 33.75473 79.67727 49.78903
#
# Poissons Ratio (x) = 0.78844 0.21891
# Poissons Ratio (y) = 0.33402 -0.08128
# Poissons Ratio (z) = 0.14841 -0.13007
#
# Static dielectric constant tensor:
#      x y z
#    x 1.765250 0.021150 0.017560 
#    y 0.021150 1.877360 0.017640 
#    z 0.017560 0.017640 1.759020 
# 
# From -- ./inp_files/187707.got.cif
#   From: 2010.05.17/outbox.cif.g08.bks.cpg/sg2_94_cif.got.tgz:187707.got - 2010.06.03 11:33:40.
