data_PCOD9106828
_publ_section_title
;
Structure prediction by ZEFSAII (Michael W. Deem and Ramdas Pophale) SiO2 
 PCOD9106828
Probable space group: P -1
;
_chemical_formula_sum "Si O2"
_cell_formula_units_Z 16
_cell_length_a 19.691519
_cell_length_b 8.575463
_cell_length_c 20.767029
_cell_angle_alpha 40.974755
_cell_angle_beta 159.665415
_cell_angle_gamma 125.312448
_cell_volume 656.492579
_symmetry_space_group_name_H-M "P -1"
_symmetry_group_IT_number 2
_symmetry_cell_setting 'triclinic'
loop_
_space_group_symop_operation_xyz
x,y,z
-x,-y,-z
loop_
_atom_site_type_symbol
_atom_site_label
_atom_site_fract_x
_atom_site_fract_y
_atom_site_fract_z
Si Si1 0.192797 0.370335 0.153623
Si Si2 0.063061 0.701297 0.614505
Si Si3 0.260136 0.846287 0.083891
Si Si4 0.566793 0.821266 0.814023
Si Si5 0.854874 0.935287 0.228422
Si Si6 0.249600 0.857442 0.416909
Si Si7 0.665630 0.738494 0.331705
Si Si8 0.043120 0.583822 0.814422
O O1 0.324698 0.028610 0.386999
O O2 0.332968 0.523149 0.236830
O O3 0.061165 0.472703 0.936557
O O4 0.000000 0.500000 0.000000
O O5 0.853600 0.678089 0.463095
O O6 0.314409 0.430619 0.948223
O O7 0.046822 0.703216 0.522079
O O8 0.000000 0.000000 0.500000
O O9 0.155443 0.045416 0.864125
O O10 0.449058 0.896867 0.265018
O O11 0.032458 0.983247 0.885136
O O12 0.768198 0.678798 0.981655
O O13 0.333622 0.872764 0.558759
O O14 0.873319 0.202214 0.178335
O O15 0.600683 0.996931 0.001447
O O16 0.355058 0.530855 0.595457
O O17 0.787331 0.749552 0.501393
#
# Coordination Sequence:
#
# PCOD9106828 Si02
#       8
#     2   2   2   2   2   2   2   2
#     4   9  22  40  63  88 126 164 198 252 312 355
#     4  11  20  40  65  90 123 160 204 253 302 361
#     4  10  23  43  58  91 130 157 198 263 305 350
#     4  11  22  39  63  89 124 159 210 247 298 364
#     4  11  22  39  64  92 124 160 204 251 309 358
#     4  11  21  42  63  88 124 164 204 251 302 362
#     4  11  21  38  67  91 119 162 207 252 297 361
#     4  10  20  40  61  90 123 158 205 252 291 362
#
# _framework density 24.371945
#
# number of rings (size 3 to 8) (size 9 to 14) (size 15 to 20)
#    0.000    1.500    6.250    0.375    0.000    5.000 
#    0.000    0.625    0.000    0.000    0.000    0.000 
#    0.000    0.000    0.000    0.000    0.000    0.000 
#
# Total GULP energy -89407.266231 kJ/mol
# GULP energy per Si atom -5587.954139 kJ/mol
# Density = 2.431647 g / cm^3
# Si number density = 24.371945 Si / 1000 Ang^3
#
#
#
# Elastic Constant Matrix: (Units=GPa)
#
#
# Indices 1 2 3 4 5 6 
#
# 1 72.9981 -3.5516 -8.7868 -2.1917 -14.0871 10.4394
# 2 -3.5516 113.1663 20.3200 19.9065 2.5363 -0.7179
# 3 -8.7868 20.3200 72.5976 16.1040 -12.6868 8.4410
# 4 -2.1917 19.9065 16.1040 36.5099 -2.8455 -9.8427
# 5 -14.0871 2.5363 -12.6868 -2.8455 36.1109 -1.4703
# 6 10.4394 -0.7179 8.4410 -9.8427 -1.4703 28.6375
#
#
#
# Elastic Compliance Matrix: (Units=1/GPa)
#
#
# Indices 1 2 3 4 5 6 
#
# 1 0.016886 -0.000115 0.004991 -0.002718 0.007802 -0.008163
# 2 -0.000115 0.010108 -0.001931 -0.005076 -0.001873 -0.000976
# 3 0.004991 -0.001931 0.019620 -0.009532 0.007796 -0.010527
# 4 -0.002718 -0.005076 -0.009532 0.038751 -0.000308 0.016976
# 5 0.007802 -0.001873 0.007796 -0.000308 0.033437 -0.003578
# 6 -0.008163 -0.000976 -0.010527 0.016976 -0.003578 0.046624
#
#
# Mechanical properties :
#
#
# Convention : Reuss Voigt Hill
#
# Bulk Modulus (GPa) = 19.04578 30.52504 24.78541
# Shear Modulus (GPa) = 28.24267 36.97035 32.60651
#
# Velocity S-wave (km/s) = 3.40784 3.89899 3.66166
# Velocity P-wave (km/s) = 4.82867 5.72900 5.29799
#
# Compressibility (1/GPa) = 0.05250506
#
# Stress axis : x y z
#
# Youngs Moduli (GPa) = 59.22163 98.92842 50.96832
#
# Poissons Ratio (x) = 0.01136 -0.25441
# Poissons Ratio (y) = 0.00680 0.09842
# Poissons Ratio (z) = -0.29560 0.19104
#
# Static dielectric constant tensor:
#      x y z
#    x 1.973410 -0.042410 -0.016490 
#    y -0.042410 1.991000 -0.063440 
#    z -0.016490 -0.063440 1.928620 
# 
# From -- ./inp_files/207544.got.cif
#   From: 2010.05.17/outbox.cif.g08.bks.cpg/sg2_104_cif.got.tgz:207544.got - 2010.06.03 11:33:40.
