data_PCOD9106185
_publ_section_title
;
Structure prediction by ZEFSAII (Michael W. Deem and Ramdas Pophale) SiO2 
 PCOD9106185
Probable space group: P -1
;
_chemical_formula_sum "Si O2"
_cell_formula_units_Z 16
_cell_length_a 18.397788
_cell_length_b 20.236221
_cell_length_c 11.298304
_cell_angle_alpha 38.643074
_cell_angle_beta 21.117364
_cell_angle_gamma 27.239682
_cell_volume 663.179779
_symmetry_space_group_name_H-M "P -1"
_symmetry_group_IT_number 2
_symmetry_cell_setting 'triclinic'
loop_
_space_group_symop_operation_xyz
x,y,z
-x,-y,-z
loop_
_atom_site_type_symbol
_atom_site_label
_atom_site_fract_x
_atom_site_fract_y
_atom_site_fract_z
Si Si1 0.325762 0.853121 0.739689
Si Si2 0.818694 0.815748 0.086294
Si Si3 0.130807 0.981057 0.197907
Si Si4 0.314626 0.356107 0.163216
Si Si5 0.389256 0.403800 0.483081
Si Si6 0.161737 0.481609 0.969567
Si Si7 0.817093 0.900680 0.702781
Si Si8 0.375696 0.631162 0.140407
O O1 0.499057 0.886505 0.483037
O O2 0.450410 0.765412 0.548377
O O3 0.408498 0.720513 0.881195
O O4 0.000000 0.000000 0.000000
O O5 0.830302 0.857821 0.877476
O O6 0.029023 0.636490 0.014499
O O7 0.896085 0.882456 0.962418
O O8 0.951029 0.969497 0.402092
O O9 0.472562 0.824191 0.886527
O O10 0.000000 0.000000 0.500000
O O11 0.000000 0.500000 0.500000
O O12 0.289689 0.371134 0.039378
O O13 0.510389 0.373544 0.898515
O O14 0.363002 0.433381 0.620949
O O15 0.513933 0.464140 0.149756
O O16 0.087261 0.492750 0.752148
O O17 0.033701 0.748313 0.509974
O O18 0.500000 0.000000 0.000000
#
# Coordination Sequence:
#
# PCOD9106185 Si02
#       8
#     2   2   2   2   2   2   2   2
#     4  11  24  41  66 104 141 181 236 299 354 413
#     4  10  20  43  65  92 139 176 232 288 343 418
#     4   9  22  43  64 101 136 181 234 281 353 428
#     4  11  24  44  68 100 143 188 226 283 363 423
#     4  10  22  43  66  99 133 180 236 287 343 418
#     4  10  22  43  69  99 134 179 237 289 343 413
#     4  10  20  39  67  98 133 175 230 288 347 420
#     4  11  23  44  68 102 139 179 237 289 352 429
#
# _framework density 24.126187999999999
#
# number of rings (size 3 to 8) (size 9 to 14) (size 15 to 20)
#    0.000    1.750    1.250    2.625    0.000    4.500 
#    6.750    5.625    0.000    1.500    0.000    0.000 
#    0.000    0.000    0.000    0.000    0.000    0.000 
#
# Total GULP energy -89285.094240 kJ/mol
# GULP energy per Si atom -5580.318390 kJ/mol
# Density = 2.407128 g / cm^3
# Si number density = 24.126188 Si / 1000 Ang^3
#
#
#
# Elastic Constant Matrix: (Units=GPa)
#
#
# Indices 1 2 3 4 5 6 
#
# 1 66.4496 35.4163 12.9621 -10.0587 1.3327 -3.4784
# 2 35.4163 73.6288 42.6729 -13.4376 -23.9496 19.8030
# 3 12.9621 42.6729 91.3548 2.5940 -7.2003 1.9130
# 4 -10.0587 -13.4376 2.5940 40.7458 1.5578 -5.1672
# 5 1.3327 -23.9496 -7.2003 1.5578 27.6246 -11.5716
# 6 -3.4784 19.8030 1.9130 -5.1672 -11.5716 43.5064
#
#
#
# Elastic Compliance Matrix: (Units=1/GPa)
#
#
# Indices 1 2 3 4 5 6 
#
# 1 0.028217 -0.025474 0.006283 -0.000033 -0.018144 0.008745
# 2 -0.025474 0.054585 -0.018943 0.009594 0.036731 -0.015140
# 3 0.006283 -0.018943 0.018180 -0.004827 -0.009530 0.005217
# 4 -0.000033 0.009594 -0.004827 0.027872 0.005779 0.000690
# 5 -0.018144 0.036731 -0.009530 0.005779 0.066355 0.000584
# 6 0.008745 -0.015140 0.005217 0.000690 0.000584 0.030584
#
#
# Mechanical properties :
#
#
# Convention : Reuss Voigt Hill
#
# Bulk Modulus (GPa) = 40.46237 45.94841 43.20539
# Shear Modulus (GPa) = 16.11353 31.73417 23.92385
#
# Velocity S-wave (km/s) = 2.58715 3.63070 3.15241
# Velocity P-wave (km/s) = 5.07267 6.05494 5.58544
#
# Compressibility (1/GPa) = 0.02471432
#
# Stress axis : x y z
#
# Youngs Moduli (GPa) = 35.43925 18.32018 55.00550
#
# Poissons Ratio (x) = 0.46669 -0.34562
# Poissons Ratio (y) = 0.90279 1.04197
# Poissons Ratio (z) = -0.22268 0.34704
#
# Static dielectric constant tensor:
#      x y z
#    x 1.966500 0.058170 0.128120 
#    y 0.058170 2.054970 0.143390 
#    z 0.128120 0.143390 2.229700 
# 
# From -- ./inp_files/467079.got.cif
#   From: 2010.05.17/outbox.cif.g08.bks.cpg/sg2_234_cif.got.tgz:467079.got - 2010.06.03 11:33:40.
