data_PCOD9106767
_publ_section_title
;
Structure prediction by ZEFSAII (Michael W. Deem and Ramdas Pophale) SiO2 
 PCOD9106767
Probable space group: P -1
;
_chemical_formula_sum "Si O2"
_cell_formula_units_Z 16
_cell_length_a 20.701892
_cell_length_b 18.608718
_cell_length_c 8.085982
_cell_angle_alpha 47.885914
_cell_angle_beta 126.093210
_cell_angle_gamma 161.730170
_cell_volume 708.997394
_symmetry_space_group_name_H-M "P -1"
_symmetry_group_IT_number 2
_symmetry_cell_setting 'triclinic'
loop_
_space_group_symop_operation_xyz
x,y,z
-x,-y,-z
loop_
_atom_site_type_symbol
_atom_site_label
_atom_site_fract_x
_atom_site_fract_y
_atom_site_fract_z
Si Si1 0.054901 0.711653 0.703294
Si Si2 0.111252 0.092306 0.196796
Si Si3 0.878953 0.688273 0.695781
Si Si4 0.145340 0.941659 0.022658
Si Si5 0.685008 0.165689 0.907222
Si Si6 0.468180 0.153267 0.076178
Si Si7 0.267872 0.467941 0.837113
Si Si8 0.627011 0.782904 0.747456
O O1 0.190377 0.783746 0.896290
O O2 0.941387 0.661847 0.728475
O O3 0.226559 0.963738 0.472499
O O4 0.868861 0.450742 0.724392
O O5 0.294994 0.220901 0.233529
O O6 0.210334 0.300967 0.096404
O O7 0.940880 0.849628 0.429934
O O8 0.000000 0.000000 0.000000
O O9 0.637418 0.401301 0.833098
O O10 0.040663 0.871685 0.811916
O O11 0.952974 0.726050 0.196296
O O12 0.326692 0.189457 0.031149
O O13 0.248638 0.961109 0.074591
O O14 0.578050 0.001416 0.835992
O O15 0.500000 0.000000 0.000000
O O16 0.582369 0.290570 0.212811
O O17 0.393511 0.565863 0.719646
#
# Coordination Sequence:
#
# PCOD9106767 Si02
#       8
#     2   2   2   2   2   2   2   2
#     4  10  22  37  64  96 120 153 202 256 301 363
#     4  11  22  41  61  92 125 160 207 256 293 351
#     4  10  21  39  63  89 124 161 202 248 303 361
#     4  10  20  40  61  84 125 163 197 248 299 358
#     4  11  21  38  66  93 121 154 204 249 305 366
#     4  10  21  38  62  91 119 160 198 249 306 359
#     4  10  22  39  60  85 125 164 203 245 299 356
#     4  10  22  41  62  89 125 163 200 252 306 348
#
# _framework density 22.567079
#
# number of rings (size 3 to 8) (size 9 to 14) (size 15 to 20)
#    0.000    1.750    3.750    0.375    0.000    4.000 
#    2.250    4.375    0.000    5.250    0.000    0.000 
#    0.000    0.000    0.000    0.000    0.000    0.000 
#
# Total GULP energy -89166.381507 kJ/mol
# GULP energy per Si atom -5572.898844 kJ/mol
# Density = 2.251571 g / cm^3
# Si number density = 22.567079 Si / 1000 Ang^3
#
#
#
# Elastic Constant Matrix: (Units=GPa)
#
#
# Indices 1 2 3 4 5 6 
#
# 1 128.5192 21.3874 12.2190 -27.3008 -3.9215 18.7626
# 2 21.3874 87.0440 14.3196 -17.2381 2.8758 -1.2597
# 3 12.2190 14.3196 65.4570 -10.4204 7.9484 6.8313
# 4 -27.3008 -17.2381 -10.4204 25.2735 1.3717 -5.8215
# 5 -3.9215 2.8758 7.9484 1.3717 21.9524 -14.8082
# 6 18.7626 -1.2597 6.8313 -5.8215 -14.8082 54.4179
#
#
#
# Elastic Compliance Matrix: (Units=1/GPa)
#
#
# Indices 1 2 3 4 5 6 
#
# 1 0.010435 -0.000557 0.000177 0.010379 -0.000585 -0.002682
# 2 -0.000557 0.013593 -0.001562 0.008386 -0.000930 0.001347
# 3 0.000177 -0.001562 0.018194 0.006149 -0.009674 -0.004356
# 4 0.010379 0.008386 0.006149 0.059505 -0.004530 0.000976
# 5 -0.000585 -0.000930 -0.009674 -0.004530 0.061205 0.017565
# 6 -0.002682 0.001347 -0.004356 0.000976 0.017565 0.024763
#
#
# Mechanical properties :
#
#
# Convention : Reuss Voigt Hill
#
# Bulk Modulus (GPa) = 26.08379 41.87468 33.97924
# Shear Modulus (GPa) = 24.46668 35.86838 30.16753
#
# Velocity S-wave (km/s) = 3.29625 3.99107 3.66019
# Velocity P-wave (km/s) = 5.10593 6.31143 5.74041
#
# Compressibility (1/GPa) = 0.03833799
#
# Stress axis : x y z
#
# Youngs Moduli (GPa) = 95.82806 73.56530 54.96306
#
# Poissons Ratio (x) = 0.04099 -0.00973
# Poissons Ratio (y) = 0.05339 0.08587
# Poissons Ratio (z) = -0.01697 0.11493
#
# Static dielectric constant tensor:
#      x y z
#    x 1.880450 0.039540 -0.037910 
#    y 0.039540 1.925040 0.013400 
#    z -0.037910 0.013400 1.869680 
# 
# From -- ./inp_files/348347.got.cif
#   From: 2010.05.17/outbox.cif.g08.bks.cpg/sg2_175_cif.got.tgz:348347.got - 2010.06.03 11:33:40.
