data_PCOD9106308
_publ_section_title
;
Structure prediction by ZEFSAII (Michael W. Deem and Ramdas Pophale) SiO2 
 PCOD9106308
Probable space group: P -1
;
_chemical_formula_sum "Si O2"
_cell_formula_units_Z 14
_cell_length_a 21.877084
_cell_length_b 12.529340
_cell_length_c 8.247721
_cell_angle_alpha 57.055989
_cell_angle_beta 139.328385
_cell_angle_gamma 153.444804
_cell_volume 584.158599
_symmetry_space_group_name_H-M "P -1"
_symmetry_group_IT_number 2
_symmetry_cell_setting 'triclinic'
loop_
_space_group_symop_operation_xyz
x,y,z
-x,-y,-z
loop_
_atom_site_type_symbol
_atom_site_label
_atom_site_fract_x
_atom_site_fract_y
_atom_site_fract_z
Si Si1 0.219766 0.544980 0.260457
Si Si2 0.781718 0.706858 0.730069
Si Si3 0.452436 0.358192 0.869920
Si Si4 0.910585 0.218563 0.429341
Si Si5 0.455094 0.938654 0.712446
Si Si6 0.126755 0.731573 0.328362
Si Si7 0.305051 0.533631 0.930988
O O1 0.208074 0.383915 0.319927
O O2 0.346272 0.732036 0.517883
O O3 0.330813 0.756225 0.164419
O O4 0.998511 0.336287 0.995183
O O5 0.662656 0.688468 0.450003
O O6 0.664829 0.495114 0.812080
O O7 0.000000 0.000000 0.000000
O O8 0.291015 0.058093 0.836581
O O9 0.500000 0.500000 0.000000
O O10 0.640800 0.511575 0.048975
O O11 0.861192 0.174882 0.557359
O O12 0.001873 0.457494 0.351922
O O13 0.080408 0.316941 0.657786
O O14 0.324775 0.907989 0.509304
O O15 0.439709 0.818131 0.926282
#
# Coordination Sequence:
#
# PCOD9106308 Si02
#       7
#     2   2   2   2   2   2   2
#     4  11  22  43  64 100 140 168 222 279 337 396
#     4  12  25  47  69  98 139 183 228 273 324 408
#     4  12  26  45  68 100 136 178 226 277 334 395
#     4  10  22  41  68 101 132 170 227 278 327 403
#     4  10  24  40  69 102 132 172 218 285 342 389
#     4  10  20  39  68  98 130 174 217 275 337 397
#     4  11  23  46  70  96 130 180 228 275 332 393
#
# _framework density 23.966092
#
# number of rings (size 3 to 8) (size 9 to 14) (size 15 to 20)
#    0.000    1.143    2.857    2.571    2.000    2.286 
#    7.714    0.000    0.000    0.000    0.000    0.000 
#    0.000    0.000    0.000    0.000    0.000    0.000 
#
# Total GULP energy -78418.910729 kJ/mol
# GULP energy per Si atom -5601.350766 kJ/mol
# Density = 2.391154 g / cm^3
# Si number density = 23.966092 Si / 1000 Ang^3
#
#
#
# Elastic Constant Matrix: (Units=GPa)
#
#
# Indices 1 2 3 4 5 6 
#
# 1 158.1550 33.5387 55.7475 18.5235 32.0428 -32.5316
# 2 33.5387 76.5476 16.2201 4.1184 -6.9034 -9.4003
# 3 55.7475 16.2201 81.0348 1.1473 30.9083 -7.5195
# 4 18.5235 4.1184 1.1473 35.4570 -10.9583 -10.4116
# 5 32.0428 -6.9034 30.9083 -10.9583 47.5167 2.4656
# 6 -32.5316 -9.4003 -7.5195 -10.4116 2.4656 39.4619
#
#
#
# Elastic Compliance Matrix: (Units=1/GPa)
#
#
# Indices 1 2 3 4 5 6 
#
# 1 0.012541 -0.004199 -0.003774 -0.006366 -0.008468 0.007469
# 2 -0.004199 0.016224 -0.003508 0.002942 0.008149 0.000002
# 3 -0.003774 -0.003508 0.020023 -0.001758 -0.011401 0.000117
# 4 -0.006366 0.002942 -0.001758 0.036770 0.014139 0.003936
# 5 -0.008468 0.008149 -0.011401 0.014139 0.038923 -0.005913
# 6 0.007469 0.000002 0.000117 0.003936 -0.005913 0.032929
#
#
# Mechanical properties :
#
#
# Convention : Reuss Voigt Hill
#
# Bulk Modulus (GPa) = 38.72233 58.52777 48.62505
# Shear Modulus (GPa) = 26.45768 38.50253 32.48011
#
# Velocity S-wave (km/s) = 3.32620 4.01252 3.68537
# Velocity P-wave (km/s) = 5.56270 6.77799 6.20019
#
# Compressibility (1/GPa) = 0.02582489
#
# Stress axis : x y z
#
# Youngs Moduli (GPa) = 79.73707 61.63773 49.94204
#
# Poissons Ratio (x) = 0.25882 0.18849
# Poissons Ratio (y) = 0.33482 0.17522
# Poissons Ratio (z) = 0.30094 0.21625
#
# Static dielectric constant tensor:
#      x y z
#    x 1.967630 0.014310 -0.019360 
#    y 0.014310 1.915370 -0.012850 
#    z -0.019360 -0.012850 1.909280 
# 
# From -- ./inp_files/283336.got.cif
#   From: 2010.05.17/outbox.cif.g08.bks.cpg/sg2_142_cif.got.tgz:283336.got - 2010.06.03 11:33:40.
