data_PCOD9106221
_publ_section_title
;
Structure prediction by ZEFSAII (Michael W. Deem and Ramdas Pophale) SiO2 
 PCOD9106221
Probable space group: P -1
;
_chemical_formula_sum "Si O2"
_cell_formula_units_Z 16
_cell_length_a 9.925071
_cell_length_b 7.940983
_cell_length_c 9.420633
_cell_angle_alpha 80.238244
_cell_angle_beta 95.718230
_cell_angle_gamma 130.317590
_cell_volume 557.875909
_symmetry_space_group_name_H-M "P -1"
_symmetry_group_IT_number 2
_symmetry_cell_setting 'triclinic'
loop_
_space_group_symop_operation_xyz
x,y,z
-x,-y,-z
loop_
_atom_site_type_symbol
_atom_site_label
_atom_site_fract_x
_atom_site_fract_y
_atom_site_fract_z
Si Si1 0.419147 0.610160 0.539291
Si Si2 0.207416 0.671879 0.922608
Si Si3 0.107071 0.356429 0.190165
Si Si4 0.698599 0.794447 0.106086
Si Si5 0.919895 0.716337 0.256148
Si Si6 0.429023 0.042886 0.705131
Si Si7 0.083388 0.745448 0.523183
Si Si8 0.614259 0.723824 0.813148
O O1 0.500000 0.500000 0.500000
O O2 0.234841 0.423306 0.621613
O O3 0.551701 0.767205 0.658481
O O4 0.412033 0.754219 0.400705
O O5 0.109916 0.459630 0.834189
O O6 0.394239 0.866590 0.841636
O O7 0.080240 0.736518 0.892663
O O8 0.220827 0.600959 0.089479
O O9 0.041402 0.292618 0.354766
O O10 0.238956 0.305004 0.191401
O O11 0.887963 0.867052 0.150912
O O12 0.569991 0.523030 0.128255
O O13 0.624453 0.838014 0.222860
O O14 0.684198 0.870572 0.941660
O O15 0.085404 0.848607 0.359628
O O16 0.272290 0.883002 0.598027
O O17 0.000000 0.500000 0.500000
#
# Coordination Sequence:
#
# PCOD9106221 Si02
#       8
#     2   2   2   2   2   2   2   2
#     4  11  22  41  67  97 132 170 213 269 326 380
#     4  10  22  41  63  90 130 168 215 263 322 381
#     4  10  20  39  68  87 122 176 213 255 326 388
#     4  10  22  39  65  92 129 167 218 265 320 380
#     4  11  20  42  67  90 131 178 206 271 333 373
#     4  11  23  44  61 100 132 168 224 266 315 396
#     4  11  23  42  64  94 132 171 214 267 327 384
#     4  10  20  40  67  93 125 174 212 259 330 382
#
# _framework density 28.680215
#
# number of rings (size 3 to 8) (size 9 to 14) (size 15 to 20)
#    0.000    1.500    6.250    0.750    0.000    1.000 
#    4.500    3.125    0.000    0.000    0.000    0.000 
#    0.000    0.000    0.000    0.000    0.000    0.000 
#
# Total GULP energy -89494.920358 kJ/mol
# GULP energy per Si atom -5593.432522 kJ/mol
# Density = 2.861494 g / cm^3
# Si number density = 28.680215 Si / 1000 Ang^3
#
#
#
# Elastic Constant Matrix: (Units=GPa)
#
#
# Indices 1 2 3 4 5 6 
#
# 1 102.0958 -6.1685 12.0089 -3.8857 12.0471 -0.9816
# 2 -6.1685 50.9112 12.7721 -11.9418 -0.4832 8.5625
# 3 12.0089 12.7721 133.8745 -12.1644 12.5672 -16.4692
# 4 -3.8857 -11.9418 -12.1644 54.6947 2.5289 0.1202
# 5 12.0471 -0.4832 12.5672 2.5289 56.8732 -4.6785
# 6 -0.9816 8.5625 -16.4692 0.1202 -4.6785 40.7917
#
#
#
# Elastic Compliance Matrix: (Units=1/GPa)
#
#
# Indices 1 2 3 4 5 6 
#
# 1 0.010287 0.001817 -0.000899 0.001025 -0.002071 -0.000737
# 2 0.001817 0.022536 -0.002587 0.004501 -0.000297 -0.005779
# 3 -0.000899 -0.002587 0.008521 0.001326 -0.001462 0.003790
# 4 0.001025 0.004501 0.001326 0.019700 -0.001397 -0.000603
# 5 -0.002071 -0.000297 -0.001462 -0.001397 0.018532 0.001552
# 6 -0.000737 -0.005779 0.003790 -0.000603 0.001552 0.027420
#
#
# Mechanical properties :
#
#
# Convention : Reuss Voigt Hill
#
# Bulk Modulus (GPa) = 26.31276 36.01180 31.16228
# Shear Modulus (GPa) = 40.64968 48.35651 44.50310
#
# Velocity S-wave (km/s) = 3.76884 4.11062 3.94344
# Velocity P-wave (km/s) = 5.30409 5.92564 5.62346
#
# Compressibility (1/GPa) = 0.03800438
#
# Stress axis : x y z
#
# Youngs Moduli (GPa) = 97.21435 44.37371 117.35608
#
# Poissons Ratio (x) = -0.08061 0.10553
# Poissons Ratio (y) = -0.17661 0.30360
# Poissons Ratio (z) = 0.08742 0.11480
#
# Static dielectric constant tensor:
#      x y z
#    x 2.367650 -0.019180 0.092890 
#    y -0.019180 2.425060 -0.034850 
#    z 0.092890 -0.034850 2.306920 
# 
# From -- ./inp_files/244070.got.cif
#   From: 2010.05.17/outbox.cif.g08.bks.cpg/sg2_123_cif.got.tgz:244070.got - 2010.06.03 11:33:40.
