data_PCOD9106565
_publ_section_title
;
Structure prediction by ZEFSAII (Michael W. Deem and Ramdas Pophale) SiO2 
 PCOD9106565
Probable space group: P -1
;
_chemical_formula_sum "Si O2"
_cell_formula_units_Z 14
_cell_length_a 5.518554
_cell_length_b 15.776290
_cell_length_c 9.020955
_cell_angle_alpha 121.725079
_cell_angle_beta 121.794359
_cell_angle_gamma 78.890443
_cell_volume 563.912121
_symmetry_space_group_name_H-M "P -1"
_symmetry_group_IT_number 2
_symmetry_cell_setting 'triclinic'
loop_
_space_group_symop_operation_xyz
x,y,z
-x,-y,-z
loop_
_atom_site_type_symbol
_atom_site_label
_atom_site_fract_x
_atom_site_fract_y
_atom_site_fract_z
Si Si1 0.310842 0.254375 0.114997
Si Si2 0.992740 0.731148 0.272055
Si Si3 0.617643 0.400716 0.577306
Si Si4 0.819456 0.925581 0.524829
Si Si5 0.380365 0.053886 0.818812
Si Si6 0.742574 0.560572 0.233950
Si Si7 0.775808 0.901433 0.818306
O O1 0.498228 0.347615 0.338727
O O2 0.162398 0.191497 0.147875
O O3 0.113612 0.284896 0.945572
O O4 0.475569 0.165013 0.013436
O O5 0.990107 0.845148 0.420016
O O6 0.780013 0.668705 0.263475
O O7 0.284134 0.686682 0.364552
O O8 0.377762 0.443940 0.641085
O O9 0.926848 0.466166 0.703318
O O10 0.575865 0.942083 0.341571
O O11 0.744108 0.878431 0.614947
O O12 0.039954 0.025575 0.708555
O O13 0.499006 0.954105 0.823878
O O14 0.500000 0.500000 0.000000
O O15 0.000000 0.000000 0.000000
#
# Coordination Sequence:
#
# PCOD9106565 Si02
#       7
#     2   2   2   2   2   2   2
#     4  11  22  42  59  95 128 173 225 268 325 381
#     4   9  23  40  65  92 132 169 219 269 326 387
#     4  10  23  43  71  98 134 168 210 268 324 392
#     4  10  20  40  54  83 116 170 215 270 315 366
#     4  10  22  37  56  78 123 164 223 264 311 373
#     4  10  22  47  75 100 131 169 208 262 336 402
#     4  12  23  33  56  83 121 172 222 273 317 366
#
# _framework density 24.826564999999999
#
# number of rings (size 3 to 8) (size 9 to 14) (size 15 to 20)
#    0.857    0.857    1.429    3.000    2.000    0.000 
#   10.286    1.429    0.000    0.000    0.000    0.000 
#    0.000    0.000    0.000    0.000    0.000    0.000 
#
# Total GULP energy -78051.746006 kJ/mol
# GULP energy per Si atom -5575.124715 kJ/mol
# Density = 2.477006 g / cm^3
# Si number density = 24.826565 Si / 1000 Ang^3
#
#
#
# Elastic Constant Matrix: (Units=GPa)
#
#
# Indices 1 2 3 4 5 6 
#
# 1 110.1692 14.8328 43.8417 -2.0250 -8.7597 20.7158
# 2 14.8328 63.1263 5.5609 -22.4419 -1.5658 7.1028
# 3 43.8417 5.5609 144.6915 -13.2399 -15.7584 17.8672
# 4 -2.0250 -22.4419 -13.2399 46.3710 15.5950 3.6032
# 5 -8.7597 -1.5658 -15.7584 15.5950 41.5495 -3.1976
# 6 20.7158 7.1028 17.8672 3.6032 -3.1976 21.4653
#
#
#
# Elastic Compliance Matrix: (Units=1/GPa)
#
#
# Indices 1 2 3 4 5 6 
#
# 1 0.012004 -0.001899 -0.002449 -0.000821 0.001176 -0.008605
# 2 -0.001899 0.021839 0.001637 0.013282 -0.004687 -0.009684
# 3 -0.002449 0.001637 0.008734 0.003227 0.001199 -0.005811
# 4 -0.000821 0.013282 0.003227 0.034095 -0.012311 -0.013846
# 5 0.001176 -0.004687 0.001199 -0.012311 0.029669 0.005904
# 6 -0.008605 -0.009684 -0.005811 -0.013846 0.005904 0.066136
#
#
# Mechanical properties :
#
#
# Convention : Reuss Voigt Hill
#
# Bulk Modulus (GPa) = 26.91504 49.60639 38.26072
# Shear Modulus (GPa) = 26.27658 38.79392 32.53525
#
# Velocity S-wave (km/s) = 3.25684 3.95726 3.62401
# Velocity P-wave (km/s) = 5.00075 6.39566 5.74073
#
# Compressibility (1/GPa) = 0.03715395
#
# Stress axis : x y z
#
# Youngs Moduli (GPa) = 83.30898 45.79037 114.49758
#
# Poissons Ratio (x) = 0.08697 0.28035
# Poissons Ratio (y) = 0.15823 -0.18742
# Poissons Ratio (z) = 0.20399 -0.07495
#
# Static dielectric constant tensor:
#      x y z
#    x 3.465710 -0.940740 0.911630 
#    y -0.940740 2.648860 -0.653680 
#    z 0.911630 -0.653680 2.628850 
# 
# From -- ./inp_files/141651.got.cif
#   From: 2010.05.17/outbox.cif.g08.bks.cpg/sg2_71_cif.got.tgz:141651.got - 2010.06.03 11:33:40.
