data_PCOD9106312
_publ_section_title
;
Structure prediction by ZEFSAII (Michael W. Deem and Ramdas Pophale) SiO2 
 PCOD9106312
Probable space group: P -1
;
_chemical_formula_sum "Si O2"
_cell_formula_units_Z 16
_cell_length_a 16.520141
_cell_length_b 11.358699
_cell_length_c 19.849601
_cell_angle_alpha 140.841036
_cell_angle_beta 19.087877
_cell_angle_gamma 147.282056
_cell_volume 654.265575
_symmetry_space_group_name_H-M "P -1"
_symmetry_group_IT_number 2
_symmetry_cell_setting 'triclinic'
loop_
_space_group_symop_operation_xyz
x,y,z
-x,-y,-z
loop_
_atom_site_type_symbol
_atom_site_label
_atom_site_fract_x
_atom_site_fract_y
_atom_site_fract_z
Si Si1 0.843077 0.608480 0.604488
Si Si2 0.594385 0.716338 0.389948
Si Si3 0.812976 0.479307 0.203439
Si Si4 0.951740 0.694628 0.412650
Si Si5 0.600459 0.795949 0.964888
Si Si6 0.819981 0.074870 0.047798
Si Si7 0.841003 0.120832 0.802295
Si Si8 0.369166 0.850826 0.398203
O O1 0.836463 0.711442 0.583996
O O2 0.626353 0.598592 0.828451
O O3 0.754263 0.360036 0.551131
O O4 0.159320 0.748255 0.452058
O O5 0.631292 0.584510 0.365116
O O6 0.274312 0.551845 0.541872
O O7 0.648705 0.950804 0.469963
O O8 0.838052 0.764556 0.163292
O O9 0.677667 0.226278 0.217136
O O10 0.024204 0.635739 0.165391
O O11 0.000000 0.500000 0.000000
O O12 0.981397 0.842424 0.390150
O O13 0.275768 0.744168 0.190194
O O14 0.827480 0.984434 0.817898
O O15 0.711720 0.893599 0.993902
O O16 0.698352 0.954558 0.160191
O O17 0.500000 0.000000 0.000000
#
# Coordination Sequence:
#
# PCOD9106312 Si02
#       8
#     2   2   2   2   2   2   2   2
#     4  11  25  44  68  99 129 174 233 275 327 393
#     4  11  24  44  66 102 136 172 216 278 330 402
#     4  10  20  39  68  98 132 172 216 263 325 402
#     4  11  26  43  65 100 139 174 217 276 339 391
#     4  11  22  45  66  98 135 173 222 273 324 399
#     4  11  22  42  72  97 130 175 221 273 330 389
#     4  10  21  39  65  98 136 174 208 269 331 395
#     4  11  24  43  72  98 125 175 233 276 326 396
#
# _framework density 24.454899999999999
#
# number of rings (size 3 to 8) (size 9 to 14) (size 15 to 20)
#    0.000    1.250    5.000    0.750    0.000   10.500 
#    0.000    1.250    0.000    0.000    0.000    0.000 
#    0.000    0.000    0.000    0.000    0.000    0.000 
#
# Total GULP energy -89374.352701 kJ/mol
# GULP energy per Si atom -5585.897044 kJ/mol
# Density = 2.439924 g / cm^3
# Si number density = 24.454900 Si / 1000 Ang^3
#
#
#
# Elastic Constant Matrix: (Units=GPa)
#
#
# Indices 1 2 3 4 5 6 
#
# 1 63.0963 24.1179 12.9171 -4.6999 15.0565 11.2306
# 2 24.1179 128.4046 26.9882 -1.5915 8.4610 1.6755
# 3 12.9171 26.9882 84.0327 -12.0716 11.4660 6.5010
# 4 -4.6999 -1.5915 -12.0716 39.4459 8.7571 3.9837
# 5 15.0565 8.4610 11.4660 8.7571 26.0667 -2.8640
# 6 11.2306 1.6755 6.5010 3.9837 -2.8640 28.3430
#
#
#
# Elastic Compliance Matrix: (Units=1/GPa)
#
#
# Indices 1 2 3 4 5 6 
#
# 1 0.023950 -0.003487 0.002117 0.008636 -0.017940 -0.012796
# 2 -0.003487 0.008925 -0.002789 -0.001305 0.000978 0.001776
# 3 0.002117 -0.002789 0.015528 0.007868 -0.010494 -0.006402
# 4 0.008636 -0.001305 0.007868 0.034621 -0.020990 -0.012136
# 5 -0.017940 0.000978 -0.010494 -0.020990 0.062129 0.018686
# 6 -0.012796 0.001776 -0.006402 -0.012136 0.018686 0.045310
#
#
# Mechanical properties :
#
#
# Convention : Reuss Voigt Hill
#
# Bulk Modulus (GPa) = 24.94686 44.84222 34.89454
# Shear Modulus (GPa) = 23.56896 32.87181 28.22039
#
# Velocity S-wave (km/s) = 3.10784 3.67028 3.40071
# Velocity P-wave (km/s) = 4.80640 6.02809 5.45158
#
# Compressibility (1/GPa) = 0.04008520
#
# Stress axis : x y z
#
# Youngs Moduli (GPa) = 41.75309 112.04164 64.40055
#
# Poissons Ratio (x) = 0.39072 -0.13633
# Poissons Ratio (y) = 0.14561 0.17959
# Poissons Ratio (z) = -0.08839 0.31245
#
# Static dielectric constant tensor:
#      x y z
#    x 1.964350 -0.043060 0.010380 
#    y -0.043060 2.011360 0.054800 
#    z 0.010380 0.054800 1.961200 
# 
# From -- ./inp_files/600082.got.cif
#   From: 2010.05.17/outbox.cif.g08.bks.cpg/sg2_301_cif.got.tgz:600082.got - 2010.06.03 11:33:40.
