data_PCOD9106732
_publ_section_title
;
Structure prediction by ZEFSAII (Michael W. Deem and Ramdas Pophale) SiO2 
 PCOD9106732
Probable space group: P -1
;
_chemical_formula_sum "Si O2"
_cell_formula_units_Z 14
_cell_length_a 9.087504
_cell_length_b 11.046311
_cell_length_c 5.385938
_cell_angle_alpha 87.356841
_cell_angle_beta 111.450523
_cell_angle_gamma 89.922279
_cell_volume 502.577421
_symmetry_space_group_name_H-M "P -1"
_symmetry_group_IT_number 2
_symmetry_cell_setting 'triclinic'
loop_
_space_group_symop_operation_xyz
x,y,z
-x,-y,-z
loop_
_atom_site_type_symbol
_atom_site_label
_atom_site_fract_x
_atom_site_fract_y
_atom_site_fract_z
Si Si1 0.161445 0.469104 0.228579
Si Si2 0.832304 0.317566 0.479261
Si Si3 0.341289 0.065278 0.778932
Si Si4 0.574955 0.186529 0.631123
Si Si5 0.867249 0.779893 0.993963
Si Si6 0.547081 0.433210 0.790449
Si Si7 0.127204 0.878970 0.863943
O O1 0.173987 0.536364 0.496663
O O2 0.196286 0.327557 0.212916
O O3 0.269385 0.551025 0.117921
O O4 0.000000 0.500000 0.000000
O O5 0.660606 0.260879 0.455858
O O6 0.872338 0.252151 0.254940
O O7 0.981895 0.272951 0.747647
O O8 0.417031 0.106676 0.557058
O O9 0.194326 0.972974 0.694119
O O10 0.265306 0.167347 0.906095
O O11 0.500000 0.000000 0.000000
O O12 0.514902 0.293216 0.769186
O O13 0.729998 0.121625 0.849491
O O14 0.953882 0.883880 0.877885
O O15 0.500000 0.500000 0.500000
O O16 0.500000 0.500000 0.000000
#
# Coordination Sequence:
#
# PCOD9106732 Si02
#       7
#     2   2   2   2   2   2   2
#     4   9  20  42  65  97 131 178 223 283 346 422
#     4   9  20  38  62  93 125 164 226 271 351 402
#     4  10  21  40  64  89 126 178 225 277 337 409
#     4   9  21  40  62  86 132 173 219 277 338 412
#     4  10  20  40  60  91 130 168 224 275 343 403
#     4  11  24  42  67 101 141 184 231 291 357 426
#     4  10  21  38  65  92 126 175 218 286 331 409
#
# _framework density 27.856406
#
# number of rings (size 3 to 8) (size 9 to 14) (size 15 to 20)
#    0.000    2.286    0.000    2.143    4.000    1.714 
#    7.714    0.000    0.000    0.000    0.000    0.000 
#    0.000    0.000    0.000    0.000    0.000    0.000 
#
# Total GULP energy -78150.774403 kJ/mol
# GULP energy per Si atom -5582.198172 kJ/mol
# Density = 2.779300 g / cm^3
# Si number density = 27.856406 Si / 1000 Ang^3
#
#
#
# Elastic Constant Matrix: (Units=GPa)
#
#
# Indices 1 2 3 4 5 6 
#
# 1 184.9911 49.5349 35.4256 8.6108 -20.0737 14.3537
# 2 49.5349 121.8838 29.1998 26.8640 -9.1464 -2.3157
# 3 35.4256 29.1998 81.2522 9.5764 -1.4627 -7.3278
# 4 8.6108 26.8640 9.5764 39.4453 -12.9116 -0.8893
# 5 -20.0737 -9.1464 -1.4627 -12.9116 36.6752 4.3899
# 6 14.3537 -2.3157 -7.3278 -0.8893 4.3899 53.7497
#
#
#
# Elastic Compliance Matrix: (Units=1/GPa)
#
#
# Indices 1 2 3 4 5 6 
#
# 1 0.007143 -0.002463 -0.002641 0.002089 0.004247 -0.002686
# 2 -0.002463 0.011154 -0.002064 -0.006927 -0.001188 0.000839
# 3 -0.002641 -0.002064 0.014683 -0.002350 -0.002535 0.002786
# 4 0.002089 -0.006927 -0.002350 0.033893 0.011440 -0.001550
# 5 0.004247 -0.001188 -0.002535 0.011440 0.033711 -0.004095
# 6 -0.002686 0.000839 0.002786 -0.001550 -0.004095 0.020047
#
#
# Mechanical properties :
#
#
# Convention : Reuss Voigt Hill
#
# Bulk Modulus (GPa) = 53.63649 68.49418 61.06533
# Shear Modulus (GPa) = 35.41543 44.23850 39.82696
#
# Velocity S-wave (km/s) = 3.56948 3.98941 3.78527
# Velocity P-wave (km/s) = 6.02367 6.77216 6.40886
#
# Compressibility (1/GPa) = 0.01864403
#
# Stress axis : x y z
#
# Youngs Moduli (GPa) = 139.99765 89.65758 68.10542
#
# Poissons Ratio (x) = 0.22082 0.17988
# Poissons Ratio (y) = 0.34481 0.14055
# Poissons Ratio (z) = 0.36976 0.18502
#
# Static dielectric constant tensor:
#      x y z
#    x 2.112330 0.109370 0.159090 
#    y 0.109370 2.385680 0.124620 
#    z 0.159090 0.124620 2.397360 
# 
# From -- ./inp_files/28478.got.cif
#   From: 2010.05.17/outbox.cif.g08.bks.cpg/sg2_15_cif.got.tgz:28478.got - 2010.06.03 11:33:40.
