data_PCOD9106927
_publ_section_title
;
Structure prediction by ZEFSAII (Michael W. Deem and Ramdas Pophale) SiO2 
 PCOD9106927
Probable space group: P -1
;
_chemical_formula_sum "Si O2"
_cell_formula_units_Z 14
_cell_length_a 9.207789
_cell_length_b 8.450875
_cell_length_c 19.510166
_cell_angle_alpha 76.716032
_cell_angle_beta 156.246170
_cell_angle_gamma 102.512594
_cell_volume 595.087035
_symmetry_space_group_name_H-M "P -1"
_symmetry_group_IT_number 2
_symmetry_cell_setting 'triclinic'
loop_
_space_group_symop_operation_xyz
x,y,z
-x,-y,-z
loop_
_atom_site_type_symbol
_atom_site_label
_atom_site_fract_x
_atom_site_fract_y
_atom_site_fract_z
Si Si1 0.454315 0.412988 0.917113
Si Si2 0.733198 0.089596 0.035355
Si Si3 0.514488 0.935982 0.366557
Si Si4 0.496943 0.525402 0.218016
Si Si5 0.256070 0.721930 0.542985
Si Si6 0.629023 0.319835 0.558501
Si Si7 0.298733 0.859256 0.132806
O O1 0.488555 0.518463 0.851902
O O2 0.060836 0.325509 0.756293
O O3 0.500000 0.500000 0.000000
O O4 0.748073 0.275135 0.047643
O O5 0.119763 0.010981 0.202265
O O6 0.544427 0.089337 0.878959
O O7 0.500000 0.000000 0.000000
O O8 0.775589 0.091360 0.467698
O O9 0.564417 0.803667 0.460439
O O10 0.501831 0.860620 0.292940
O O11 0.209471 0.666188 0.099052
O O12 0.874929 0.626740 0.382191
O O13 0.486052 0.624461 0.708152
O O14 0.424961 0.721184 0.540160
O O15 0.500000 0.500000 0.500000
O O16 0.000000 0.000000 0.000000
#
# Coordination Sequence:
#
# PCOD9106927 Si02
#       7
#     2   2   2   2   2   2   2
#     4  10  22  40  63  93 118 168 214 250 315 375
#     4  10  20  40  62  87 129 166 201 262 314 370
#     4  11  22  39  64  96 123 164 212 259 313 376
#     4   9  20  43  63  87 131 164 204 266 312 369
#     4  10  22  39  63  90 123 168 212 253 316 372
#     4  11  23  40  62  89 132 163 205 263 312 372
#     4   9  20  38  60  90 124 160 204 256 318 364
#
# _framework density 23.525969
#
# number of rings (size 3 to 8) (size 9 to 14) (size 15 to 20)
#    0.000    2.000    1.429    1.286    2.000    1.714 
#    2.571    3.571    0.000    0.000    0.000    0.000 
#    0.000    0.000    0.000    0.000    0.000    0.000 
#
# Total GULP energy -78234.915265 kJ/mol
# GULP energy per Si atom -5588.208233 kJ/mol
# Density = 2.347242 g / cm^3
# Si number density = 23.525969 Si / 1000 Ang^3
#
#
#
# Elastic Constant Matrix: (Units=GPa)
#
#
# Indices 1 2 3 4 5 6 
#
# 1 179.5465 71.5481 52.2890 6.2777 -50.2402 -0.5832
# 2 71.5481 112.4672 23.0583 -18.0881 -38.7730 -0.2357
# 3 52.2890 23.0583 73.0258 -3.6232 -19.1931 4.6905
# 4 6.2777 -18.0881 -3.6232 36.3893 -5.0204 -7.2891
# 5 -50.2402 -38.7730 -19.1931 -5.0204 58.6014 1.4588
# 6 -0.5832 -0.2357 4.6905 -7.2891 1.4588 56.2177
#
#
#
# Elastic Compliance Matrix: (Units=1/GPa)
#
#
# Indices 1 2 3 4 5 6 
#
# 1 0.010065 -0.004888 -0.004968 -0.004217 0.003410 -0.000137
# 2 -0.004888 0.016075 0.000849 0.010177 0.007569 0.001069
# 3 -0.004968 0.000849 0.017861 0.003157 0.002453 -0.001192
# 4 -0.004217 0.010177 0.003157 0.035387 0.007080 0.004140
# 5 0.003410 0.007569 0.002453 0.007080 0.026404 0.000095
# 6 -0.000137 0.001069 -0.001192 0.004140 0.000095 0.018425
#
#
# Mechanical properties :
#
#
# Convention : Reuss Voigt Hill
#
# Bulk Modulus (GPa) = 38.47785 73.20337 55.84061
# Shear Modulus (GPa) = 33.13629 44.78461 38.96045
#
# Velocity S-wave (km/s) = 3.75707 4.36779 4.07389
# Velocity P-wave (km/s) = 5.93395 7.52465 6.77614
#
# Compressibility (1/GPa) = 0.02598898
#
# Stress axis : x y z
#
# Youngs Moduli (GPa) = 99.35048 62.20836 55.98882
#
# Poissons Ratio (x) = 0.30405 0.27815
# Poissons Ratio (y) = 0.48558 -0.04756
# Poissons Ratio (z) = 0.49357 -0.05285
#
# Static dielectric constant tensor:
#      x y z
#    x 1.896130 0.020400 0.080960 
#    y 0.020400 1.914400 0.010520 
#    z 0.080960 0.010520 2.031850 
# 
# From -- ./inp_files/557282.got.cif
#   From: 2010.05.17/outbox.cif.g08.bks.cpg/sg2_279_cif.got.tgz:557282.got - 2010.06.03 11:33:40.
