data_PCOD9106867
_publ_section_title
;
Structure prediction by ZEFSAII (Michael W. Deem and Ramdas Pophale) SiO2 
 PCOD9106867
Probable space group: P -1
;
_chemical_formula_sum "Si O2"
_cell_formula_units_Z 15
_cell_length_a 5.934494
_cell_length_b 18.595773
_cell_length_c 4.906883
_cell_angle_alpha 73.698735
_cell_angle_beta 88.491343
_cell_angle_gamma 83.280867
_cell_volume 516.155604
_symmetry_space_group_name_H-M "P -1"
_symmetry_group_IT_number 2
_symmetry_cell_setting 'triclinic'
loop_
_space_group_symop_operation_xyz
x,y,z
-x,-y,-z
loop_
_atom_site_type_symbol
_atom_site_label
_atom_site_fract_x
_atom_site_fract_y
_atom_site_fract_z
Si Si1 0.882758 0.782406 0.716896
Si Si2 0.291384 0.052235 0.088140
Si Si3 0.493798 0.186272 0.777692
Si Si4 0.649411 0.555398 0.765474
Si Si5 0.248100 0.680944 0.454753
Si Si6 0.911004 0.081329 0.596696
Si Si7 0.000000 0.500000 0.500000
Si Si8 0.859465 0.639912 0.135466
O O1 0.693875 0.794119 0.474392
O O2 0.093585 0.725632 0.643254
O O3 0.992419 0.860525 0.681279
O O4 0.800165 0.731278 0.017723
O O5 0.193471 0.997722 0.374316
O O6 0.399066 0.129803 0.061633
O O7 0.099658 0.067838 0.843980
O O8 0.500000 0.000000 0.000000
O O9 0.621013 0.258148 0.770862
O O10 0.697589 0.132403 0.681911
O O11 0.428075 0.614949 0.619425
O O12 0.871746 0.487343 0.788015
O O13 0.500000 0.500000 0.000000
O O14 0.782893 0.614822 0.873373
O O15 0.085174 0.641732 0.303685
O O16 0.775622 0.569154 0.395399
#
# Coordination Sequence:
#
# PCOD9106867 Si02
#       8
#     2   2   2   2   2   2   1   2
#     4  10  20  40  61  96 138 180 242 292 355 435
#     4   8  13  25  51  90 132 177 234 285 346 425
#     4   9  17  34  57  90 136 180 232 294 352 421
#     4  12  27  51  77 105 145 187 234 304 370 432
#     4  11  24  42  68  97 136 185 234 293 363 429
#     4   8  15  27  54  91 130 182 234 284 354 420
#     4  12  28  50  76 110 142 182 248 296 360 452
#     4  12  25  45  72 101 139 183 237 295 360 441
#
# _framework density 29.060998999999999
#
# number of rings (size 3 to 8) (size 9 to 14) (size 15 to 20)
#    0.000    1.867    1.333    2.800    0.000    3.200 
#    0.000    0.667    0.000    0.800    0.000   84.000 
#    0.000    0.000    0.000    0.000    0.000    0.267 
#
# Total GULP energy -83546.162036 kJ/mol
# GULP energy per Si atom -5569.744136 kJ/mol
# Density = 2.899486 g / cm^3
# Si number density = 29.060999 Si / 1000 Ang^3
#
#
#
# Elastic Constant Matrix: (Units=GPa)
#
#
# Indices 1 2 3 4 5 6 
#
# 1 169.3062 -6.5496 45.3469 3.9226 21.5961 -10.5144
# 2 -6.5496 144.7761 40.7725 -23.1214 22.9315 22.0046
# 3 45.3469 40.7725 123.5834 -19.3162 23.0419 -4.7524
# 4 3.9226 -23.1214 -19.3162 62.2263 -1.3428 5.6028
# 5 21.5961 22.9315 23.0419 -1.3428 57.1651 -11.1503
# 6 -10.5144 22.0046 -4.7524 5.6028 -11.1503 33.1888
#
#
#
# Elastic Compliance Matrix: (Units=1/GPa)
#
#
# Indices 1 2 3 4 5 6 
#
# 1 0.006977 0.001139 -0.002706 -0.000950 -0.001910 0.000586
# 2 0.001139 0.010615 -0.002695 0.003776 -0.005368 -0.009504
# 3 -0.002706 -0.002695 0.010747 0.002335 -0.001893 0.001438
# 4 -0.000950 0.003776 0.002335 0.018792 -0.002949 -0.006633
# 5 -0.001910 -0.005368 -0.001893 -0.002949 0.023203 0.010976
# 6 0.000586 -0.009504 0.001438 -0.006633 0.010976 0.041631
#
#
# Mechanical properties :
#
#
# Convention : Reuss Voigt Hill
#
# Bulk Modulus (GPa) = 50.46192 66.31169 58.38681
# Shear Modulus (GPa) = 39.34111 54.38909 46.86510
#
# Velocity S-wave (km/s) = 3.68332 4.33083 4.02013
# Velocity P-wave (km/s) = 5.95743 6.91923 6.45627
#
# Compressibility (1/GPa) = 0.01981692
#
# Stress axis : x y z
#
# Youngs Moduli (GPa) = 143.31971 94.20268 93.04970
#
# Poissons Ratio (x) = -0.10734 0.25179
# Poissons Ratio (y) = -0.16330 0.25075
# Poissons Ratio (z) = 0.38782 0.25386
#
# Static dielectric constant tensor:
#      x y z
#    x 3.453550 0.727100 -1.036150 
#    y 0.727100 3.395900 -1.054070 
#    z -1.036150 -1.054070 3.202170 
# 
# From -- ./inp_files/42122.got.cif
#   From: 2010.05.17/outbox.cif.g08.bks.cpg/sg2_22_cif.got.tgz:42122.got - 2010.06.03 11:33:40.
