data_PCOD9106758
_publ_section_title
;
Structure prediction by ZEFSAII (Michael W. Deem and Ramdas Pophale) SiO2 
 PCOD9106758
Probable space group: P -1
;
_chemical_formula_sum "Si O2"
_cell_formula_units_Z 16
_cell_length_a 5.395663
_cell_length_b 13.305248
_cell_length_c 10.578933
_cell_angle_alpha 73.802174
_cell_angle_beta 113.552017
_cell_angle_gamma 109.755824
_cell_volume 646.048113
_symmetry_space_group_name_H-M "P -1"
_symmetry_group_IT_number 2
_symmetry_cell_setting 'triclinic'
loop_
_space_group_symop_operation_xyz
x,y,z
-x,-y,-z
loop_
_atom_site_type_symbol
_atom_site_label
_atom_site_fract_x
_atom_site_fract_y
_atom_site_fract_z
Si Si1 0.215540 0.416236 0.332354
Si Si2 0.789025 0.569177 0.389287
Si Si3 0.611906 0.081427 0.379641
Si Si4 0.896174 0.794207 0.987222
Si Si5 0.851240 0.815782 0.690817
Si Si6 0.035111 0.578801 0.100047
Si Si7 0.371162 0.247423 0.821672
Si Si8 0.453297 0.942764 0.147031
O O1 0.510668 0.484408 0.313881
O O2 0.278118 0.391355 0.497878
O O3 0.119664 0.304169 0.282240
O O4 0.008019 0.494061 0.240051
O O5 0.844859 0.679901 0.280977
O O6 0.000000 0.500000 0.500000
O O7 0.470371 0.177540 0.361575
O O8 0.941198 0.117139 0.397284
O O9 0.500000 0.000000 0.500000
O O10 0.482235 0.021305 0.244726
O O11 0.952192 0.846647 0.843471
O O12 0.634401 0.795933 0.020394
O O13 0.853008 0.664227 0.013911
O O14 0.145606 0.861317 0.102337
O O15 0.332737 0.664477 0.155439
O O16 0.000000 0.500000 0.000000
O O17 0.351868 0.141836 0.770272
O O18 0.500000 0.000000 0.000000
#
# Coordination Sequence:
#
# PCOD9106758 Si02
#       8
#     2   2   2   2   2   2   2   2
#     4  10  23  41  67  99 145 185 238 294 361 437
#     4  10  22  43  66  97 142 193 240 288 365 437
#     4  12  30  51  75 106 147 190 247 305 374 428
#     4  11  23  41  71 103 140 186 242 291 363 436
#     4  12  27  47  75 109 141 190 243 302 369 437
#     4  10  20  40  61 102 144 180 230 293 362 431
#     4  10  24  39  68 103 135 188 242 292 363 438
#     4  11  24  46  72  99 141 185 242 307 363 431
#
# _framework density 24.765958000000001
#
# number of rings (size 3 to 8) (size 9 to 14) (size 15 to 20)
#    0.000    1.250    2.500    1.875    7.000    3.500 
#    0.000    0.000    0.000    0.000    0.000    0.000 
#    0.000    0.000    0.000    0.000    0.000    0.000 
#
# Total GULP energy -89154.262832 kJ/mol
# GULP energy per Si atom -5572.141427 kJ/mol
# Density = 2.470959 g / cm^3
# Si number density = 24.765958 Si / 1000 Ang^3
#
#
#
# Elastic Constant Matrix: (Units=GPa)
#
#
# Indices 1 2 3 4 5 6 
#
# 1 77.7469 19.4000 16.6672 -18.9245 -22.0110 -17.0742
# 2 19.4000 91.6780 12.4600 -18.0794 -8.4341 -16.4892
# 3 16.6672 12.4600 93.3073 -21.8743 -33.2454 7.8145
# 4 -18.9245 -18.0794 -21.8743 34.1241 0.3141 7.4080
# 5 -22.0110 -8.4341 -33.2454 0.3141 41.5202 -12.8864
# 6 -17.0742 -16.4892 7.8145 7.4080 -12.8864 23.9057
#
#
#
# Elastic Compliance Matrix: (Units=1/GPa)
#
#
# Indices 1 2 3 4 5 6 
#
# 1 0.033221 0.005966 0.006992 0.017027 0.036733 0.040082
# 2 0.005966 0.015862 0.002334 0.008880 0.014187 0.019335
# 3 0.006992 0.002334 0.020523 0.016546 0.022654 0.006979
# 4 0.017027 0.008880 0.016546 0.051262 0.027330 0.011725
# 5 0.036733 0.014187 0.022654 0.027330 0.084816 0.065867
# 6 0.040082 0.019335 0.006979 0.011725 0.065867 0.113386
#
#
# Mechanical properties :
#
#
# Convention : Reuss Voigt Hill
#
# Bulk Modulus (GPa) = 9.98107 39.97631 24.97869
# Shear Modulus (GPa) = 15.53357 34.19032 24.86194
#
# Velocity S-wave (km/s) = 2.50714 3.71959 3.17184
# Velocity P-wave (km/s) = 3.52419 5.88420 4.84993
#
# Compressibility (1/GPa) = 0.10018971
#
# Stress axis : x y z
#
# Youngs Moduli (GPa) = 30.10112 63.04311 48.72620
#
# Poissons Ratio (x) = -0.37612 -0.34070
# Poissons Ratio (y) = -0.17959 -0.11371
# Poissons Ratio (z) = -0.21047 -0.14711
#
# Static dielectric constant tensor:
#      x y z
#    x 2.146220 -0.064000 0.036940 
#    y -0.064000 1.960960 -0.059030 
#    z 0.036940 -0.059030 2.109840 
# 
# From -- ./inp_files/364144.got.cif
#   From: 2010.05.17/outbox.cif.g08.bks.cpg/sg2_183_cif.got.tgz:364144.got - 2010.06.03 11:33:40.
