data_PCOD9106215
_publ_section_title
;
Structure prediction by ZEFSAII (Michael W. Deem and Ramdas Pophale) SiO2 
 PCOD9106215
Probable space group: P -1
;
_chemical_formula_sum "Si O2"
_cell_formula_units_Z 15
_cell_length_a 13.793574
_cell_length_b 11.319787
_cell_length_c 8.510004
_cell_angle_alpha 40.645506
_cell_angle_beta 132.966473
_cell_angle_gamma 130.382099
_cell_volume 609.056773
_symmetry_space_group_name_H-M "P -1"
_symmetry_group_IT_number 2
_symmetry_cell_setting 'triclinic'
loop_
_space_group_symop_operation_xyz
x,y,z
-x,-y,-z
loop_
_atom_site_type_symbol
_atom_site_label
_atom_site_fract_x
_atom_site_fract_y
_atom_site_fract_z
Si Si1 0.321541 0.388127 0.047615
Si Si2 0.564423 0.580899 0.318820
Si Si3 0.858609 0.381455 0.544543
Si Si4 0.654998 0.997521 0.610505
Si Si5 0.182678 0.766058 0.021125
Si Si6 0.475723 0.011167 0.141608
Si Si7 0.000000 0.000000 0.500000
Si Si8 0.814592 0.590310 0.780593
O O1 0.479989 0.457480 0.209643
O O2 0.245147 0.382954 0.139227
O O3 0.305729 0.195602 0.130304
O O4 0.257290 0.517303 0.736063
O O5 0.500000 0.500000 0.500000
O O6 0.719078 0.591065 0.520494
O O7 0.545776 0.785490 0.055738
O O8 0.786207 0.168187 0.622398
O O9 0.891277 0.356981 0.787384
O O10 0.000000 0.500000 0.500000
O O11 0.500000 0.000000 0.500000
O O12 0.617317 0.998901 0.385776
O O13 0.339041 0.842666 0.188759
O O14 0.169468 0.621170 0.007057
O O15 0.151022 0.961871 0.739017
O O16 0.500000 0.000000 0.000000
O O17 0.937726 0.775796 0.700200
#
# Coordination Sequence:
#
# PCOD9106215 Si02
#       8
#     2   2   2   2   2   2   1   2
#     4  11  25  47  78 105 146 195 250 310 379 446
#     4  10  20  39  68 108 141 180 234 305 370 431
#     4  12  29  51  73 107 156 209 254 304 379 457
#     4  12  27  48  76 112 150 195 251 310 381 452
#     4  12  27  47  74 108 151 196 254 315 378 452
#     4  12  22  44  76 111 148 185 249 321 376 443
#     4  12  26  44  70 106 148 190 246 310 382 442
#     4  11  24  45  72 110 145 190 253 313 378 440
#
# _framework density 24.628245
#
# number of rings (size 3 to 8) (size 9 to 14) (size 15 to 20)
#    0.000    0.533    4.000    5.200    0.000    4.267 
#    0.000    0.000    0.000    0.000    0.000    0.000 
#    0.000    0.000    0.000    0.000    0.000    0.000 
#
# Total GULP energy -83542.949508 kJ/mol
# GULP energy per Si atom -5569.529967 kJ/mol
# Density = 2.457219 g / cm^3
# Si number density = 24.628245 Si / 1000 Ang^3
#
#
#
# Elastic Constant Matrix: (Units=GPa)
#
#
# Indices 1 2 3 4 5 6 
#
# 1 74.1267 33.8217 12.4594 -9.0480 -10.7035 -1.6996
# 2 33.8217 141.9437 27.6689 -31.0463 -0.3046 3.2352
# 3 12.4594 27.6689 133.2974 -12.3635 17.6842 -18.8381
# 4 -9.0480 -31.0463 -12.3635 52.2020 -5.7019 5.8127
# 5 -10.7035 -0.3046 17.6842 -5.7019 33.6660 -7.9946
# 6 -1.6996 3.2352 -18.8381 5.8127 -7.9946 31.3512
#
#
#
# Elastic Compliance Matrix: (Units=1/GPa)
#
#
# Indices 1 2 3 4 5 6 
#
# 1 0.016393 -0.003471 -0.001310 0.000960 0.006491 0.001937
# 2 -0.003471 0.009318 -0.001572 0.004895 -0.000082 -0.003023
# 3 -0.001310 -0.001572 0.009145 0.000047 -0.004153 0.004518
# 4 0.000960 0.004895 0.000047 0.023036 0.003312 -0.003851
# 5 0.006491 -0.000082 -0.004153 0.003312 0.036039 0.006441
# 6 0.001937 -0.003023 0.004518 -0.003851 0.006441 0.037385
#
#
# Mechanical properties :
#
#
# Convention : Reuss Voigt Hill
#
# Bulk Modulus (GPa) = 45.14739 55.25200 50.19969
# Shear Modulus (GPa) = 33.02404 41.80503 37.41453
#
# Velocity S-wave (km/s) = 3.66580 4.12447 3.90188
# Velocity P-wave (km/s) = 6.02402 6.72048 6.38176
#
# Compressibility (1/GPa) = 0.02214968
#
# Stress axis : x y z
#
# Youngs Moduli (GPa) = 61.00082 107.31953 109.35289
#
# Poissons Ratio (x) = 0.37250 0.14328
# Poissons Ratio (y) = 0.21173 0.17190
# Poissons Ratio (z) = 0.07992 0.16870
#
# Static dielectric constant tensor:
#      x y z
#    x 2.115550 0.009320 0.021740 
#    y 0.009320 2.184660 0.213280 
#    z 0.021740 0.213280 2.140740 
# 
# From -- ./inp_files/306372.got.cif
#   From: 2010.05.17/outbox.cif.g08.bks.cpg/sg2_154_cif.got.tgz:306372.got - 2010.06.03 11:33:40.
