data_PCOD9106207
_publ_section_title
;
Structure prediction by ZEFSAII (Michael W. Deem and Ramdas Pophale) SiO2 
 PCOD9106207
Probable space group: P -1
;
_chemical_formula_sum "Si O2"
_cell_formula_units_Z 16
_cell_length_a 11.659100
_cell_length_b 7.966918
_cell_length_c 9.151929
_cell_angle_alpha 49.747483
_cell_angle_beta 93.853946
_cell_angle_gamma 100.827734
_cell_volume 635.579765
_symmetry_space_group_name_H-M "P -1"
_symmetry_group_IT_number 2
_symmetry_cell_setting 'triclinic'
loop_
_space_group_symop_operation_xyz
x,y,z
-x,-y,-z
loop_
_atom_site_type_symbol
_atom_site_label
_atom_site_fract_x
_atom_site_fract_y
_atom_site_fract_z
Si Si1 0.901766 0.210471 0.007519
Si Si2 0.390694 0.412744 0.640129
Si Si3 0.951371 0.671262 0.587638
Si Si4 0.849162 0.869268 0.944039
Si Si5 0.309562 0.954106 0.737131
Si Si6 0.254108 0.186819 0.344777
Si Si7 0.171219 0.539672 0.601918
Si Si8 0.448971 0.611527 0.068867
O O1 0.938572 0.462014 0.815605
O O2 0.841907 0.071087 0.940471
O O3 0.814645 0.192377 0.144808
O O4 0.015596 0.105577 0.110397
O O5 0.500000 0.500000 0.500000
O O6 0.308072 0.595742 0.545552
O O7 0.317882 0.191826 0.683720
O O8 0.446475 0.344082 0.831934
O O9 0.868800 0.818870 0.575628
O O10 0.892151 0.584541 0.476838
O O11 0.090833 0.717450 0.539712
O O12 0.768498 0.850894 0.806957
O O13 0.829548 0.643714 0.166406
O O14 0.405109 0.828450 0.883902
O O15 0.317235 0.012397 0.534680
O O16 0.338478 0.433183 0.224948
O O17 0.500000 0.500000 0.000000
#
# Coordination Sequence:
#
# PCOD9106207 Si02
#       8
#     2   2   2   2   2   2   2   2
#     4  10  21  41  69 103 137 188 232 279 353 437
#     4  12  23  47  75 102 137 194 247 285 344 423
#     4  10  20  40  71 104 145 174 233 284 355 432
#     4  10  22  41  67 103 148 178 228 289 354 429
#     4  12  25  48  74 100 141 192 240 290 358 420
#     4  12  24  47  70 107 145 184 231 297 360 420
#     4  10  20  39  68 102 135 188 222 286 348 414
#     4  12  28  49  70 103 143 186 244 302 351 410
#
# _framework density 25.173866
#
# number of rings (size 3 to 8) (size 9 to 14) (size 15 to 20)
#    0.000    1.000    5.000    1.125    0.000    3.000 
#    6.750    0.000    0.000    0.000    0.000    0.000 
#    0.000    0.000    0.000    0.000    0.000    0.000 
#
# Total GULP energy -89633.605134 kJ/mol
# GULP energy per Si atom -5602.100321 kJ/mol
# Density = 2.511657 g / cm^3
# Si number density = 25.173866 Si / 1000 Ang^3
#
#
#
# Elastic Constant Matrix: (Units=GPa)
#
#
# Indices 1 2 3 4 5 6 
#
# 1 115.9698 5.4697 15.2626 -18.7682 2.5733 -21.1267
# 2 5.4697 66.1486 15.5790 4.2860 12.1508 -6.4953
# 3 15.2626 15.5790 122.3023 4.1703 23.2897 0.5989
# 4 -18.7682 4.2860 4.1703 24.2974 -1.7327 4.7072
# 5 2.5733 12.1508 23.2897 -1.7327 38.1026 1.4393
# 6 -21.1267 -6.4953 0.5989 4.7072 1.4393 34.9206
#
#
#
# Elastic Compliance Matrix: (Units=1/GPa)
#
#
# Indices 1 2 3 4 5 6 
#
# 1 0.011177 -0.000606 -0.001743 0.008007 0.000658 0.005573
# 2 -0.000606 0.016973 -0.000983 -0.004356 -0.005105 0.003605
# 3 -0.001743 -0.000983 0.009696 -0.003091 -0.005607 -0.000756
# 4 0.008007 -0.004356 -0.003091 0.049547 0.005096 -0.002802
# 5 0.000658 -0.005105 -0.005607 0.005096 0.031580 -0.002444
# 6 0.005573 0.003605 -0.000756 -0.002802 -0.002444 0.033170
#
#
# Mechanical properties :
#
#
# Convention : Reuss Voigt Hill
#
# Bulk Modulus (GPa) = 32.07049 41.89370 36.98209
# Shear Modulus (GPa) = 29.55042 37.33809 33.44425
#
# Velocity S-wave (km/s) = 3.42987 3.85542 3.64886
# Velocity P-wave (km/s) = 5.33410 6.04127 5.69866
#
# Compressibility (1/GPa) = 0.03118132
#
# Stress axis : x y z
#
# Youngs Moduli (GPa) = 89.46566 58.91670 103.13378
#
# Poissons Ratio (x) = 0.03571 0.17978
# Poissons Ratio (y) = 0.05422 0.10143
# Poissons Ratio (z) = 0.15596 0.05794
#
# Static dielectric constant tensor:
#      x y z
#    x 2.056770 0.026800 -0.008340 
#    y 0.026800 2.007430 -0.020230 
#    z -0.008340 -0.020230 2.038000 
# 
# From -- ./inp_files/242169.got.cif
#   From: 2010.05.17/outbox.cif.g08.bks.cpg/sg2_122_cif.got.tgz:242169.got - 2010.06.03 11:33:40.
