data_PCOD9106920
_publ_section_title
;
Structure prediction by ZEFSAII (Michael W. Deem and Ramdas Pophale) SiO2 
 PCOD9106920
Probable space group: P -1
;
_chemical_formula_sum "Si O2"
_cell_formula_units_Z 16
_cell_length_a 9.003856
_cell_length_b 5.158258
_cell_length_c 16.733417
_cell_angle_alpha 109.017795
_cell_angle_beta 106.251118
_cell_angle_gamma 83.779255
_cell_volume 705.266814
_symmetry_space_group_name_H-M "P -1"
_symmetry_group_IT_number 2
_symmetry_cell_setting 'triclinic'
loop_
_space_group_symop_operation_xyz
x,y,z
-x,-y,-z
loop_
_atom_site_type_symbol
_atom_site_label
_atom_site_fract_x
_atom_site_fract_y
_atom_site_fract_z
Si Si1 0.955996 0.682401 0.894622
Si Si2 0.363344 0.849257 0.868078
Si Si3 0.322955 0.951871 0.446169
Si Si4 0.940750 0.191316 0.254256
Si Si5 0.118085 0.498212 0.443443
Si Si6 0.276831 0.460820 0.959750
Si Si7 0.213353 0.799682 0.251489
Si Si8 0.687448 0.030663 0.883152
O O1 0.031504 0.782947 0.833764
O O2 0.823956 0.481497 0.824100
O O3 0.848787 0.925751 0.938534
O O4 0.090393 0.504151 0.938827
O O5 0.325629 0.143916 0.934145
O O6 0.538448 0.864322 0.867620
O O7 0.662479 0.340637 0.942267
O O8 0.243492 0.830796 0.773738
O O9 0.218542 0.769380 0.471626
O O10 0.316451 0.793076 0.344457
O O11 0.500000 0.000000 0.500000
O O12 0.237485 0.244226 0.448729
O O13 0.015241 0.428737 0.342266
O O14 0.045596 0.926319 0.265198
O O15 0.000000 0.500000 0.500000
O O16 0.335031 0.603888 0.901079
O O17 0.285337 0.975261 0.208393
#
# Coordination Sequence:
#
# PCOD9106920 Si02
#       8
#     2   2   2   2   2   2   2   2
#     4  10  20  40  62  87 122 169 211 252 309 369
#     4  11  24  41  61  89 127 169 208 263 319 367
#     4  11  24  45  68  98 133 169 209 266 329 381
#     4   9  20  41  62  88 123 172 208 248 313 382
#     4  11  23  42  70  98 131 168 215 263 317 394
#     4  11  24  42  62  87 127 171 211 257 320 375
#     4  10  21  40  65  85 128 165 208 253 313 378
#     4  11  25  37  61  96 123 163 214 272 307 370
#
# _framework density 22.686451999999999
#
# number of rings (size 3 to 8) (size 9 to 14) (size 15 to 20)
#    0.000    1.500    2.500    1.875    3.500    1.500 
#    2.250    0.000    0.000    0.000    0.000    0.000 
#    0.000    0.000    0.000    0.000    0.000    0.000 
#
# Total GULP energy -89420.785558 kJ/mol
# GULP energy per Si atom -5588.799097 kJ/mol
# Density = 2.263482 g / cm^3
# Si number density = 22.686452 Si / 1000 Ang^3
#
#
#
# Elastic Constant Matrix: (Units=GPa)
#
#
# Indices 1 2 3 4 5 6 
#
# 1 144.9411 27.9326 43.9512 -13.1542 28.4464 5.4379
# 2 27.9326 77.8480 -3.1075 -5.1231 5.0796 11.6830
# 3 43.9512 -3.1075 52.0521 -8.6522 22.2952 10.8886
# 4 -13.1542 -5.1231 -8.6522 24.9089 3.1194 -0.8597
# 5 28.4464 5.0796 22.2952 3.1194 35.2676 -0.6162
# 6 5.4379 11.6830 10.8886 -0.8597 -0.6162 36.2282
#
#
#
# Elastic Compliance Matrix: (Units=1/GPa)
#
#
# Indices 1 2 3 4 5 6 
#
# 1 0.010975 -0.004198 -0.008118 0.002601 -0.003308 0.002152
# 2 -0.004198 0.016492 0.009155 0.004766 -0.005328 -0.007417
# 3 -0.008118 0.009155 0.041715 0.014430 -0.022668 -0.014315
# 4 0.002601 0.004766 0.014430 0.049377 -0.016368 -0.005371
# 5 -0.003308 -0.005328 -0.022668 -0.016368 0.047733 0.009451
# 6 0.002152 -0.007417 -0.014315 -0.005371 0.009451 0.034007
#
#
# Mechanical properties :
#
#
# Convention : Reuss Voigt Hill
#
# Bulk Modulus (GPa) = 15.90842 45.82154 30.86498
# Shear Modulus (GPa) = 21.97085 33.01862 27.49474
#
# Velocity S-wave (km/s) = 3.11538 3.81915 3.48508
# Velocity P-wave (km/s) = 4.46859 6.29996 5.46159
#
# Compressibility (1/GPa) = 0.06285979
#
# Stress axis : x y z
#
# Youngs Moduli (GPa) = 91.12001 60.63652 23.97193
#
# Poissons Ratio (x) = 0.25454 0.19461
# Poissons Ratio (y) = 0.38250 -0.21947
# Poissons Ratio (z) = 0.73974 -0.55514
#
# Static dielectric constant tensor:
#      x y z
#    x 1.893680 0.008160 0.000060 
#    y 0.008160 1.910160 -0.010120 
#    z 0.000060 -0.010120 1.876310 
# 
# From -- ./inp_files/552962.got.cif
#   From: 2010.05.17/outbox.cif.g08.bks.cpg/sg2_277_cif.got.tgz:552962.got - 2010.06.03 11:33:40.
