data_PCOD9106269
_publ_section_title
;
Structure prediction by ZEFSAII (Michael W. Deem and Ramdas Pophale) SiO2 
 PCOD9106269
Probable space group: P -1
;
_chemical_formula_sum "Si O2"
_cell_formula_units_Z 14
_cell_length_a 25.366252
_cell_length_b 7.802313
_cell_length_c 7.088022
_cell_angle_alpha 38.598127
_cell_angle_beta 130.191581
_cell_angle_gamma 142.910961
_cell_volume 526.874462
_symmetry_space_group_name_H-M "P -1"
_symmetry_group_IT_number 2
_symmetry_cell_setting 'triclinic'
loop_
_space_group_symop_operation_xyz
x,y,z
-x,-y,-z
loop_
_atom_site_type_symbol
_atom_site_label
_atom_site_fract_x
_atom_site_fract_y
_atom_site_fract_z
Si Si1 0.135171 0.229983 0.492719
Si Si2 0.102021 0.705312 0.125309
Si Si3 0.493476 0.862892 0.891976
Si Si4 0.972022 0.712886 0.343195
Si Si5 0.669549 0.998712 0.272394
Si Si6 0.731446 0.555160 0.669303
Si Si7 0.615566 0.928804 0.646538
O O1 0.152923 0.595654 0.220777
O O2 0.180372 0.176507 0.473346
O O3 0.033835 0.974557 0.425258
O O4 0.147184 0.099505 0.828841
O O5 0.107922 0.600173 0.441028
O O6 0.000000 0.500000 0.000000
O O7 0.470184 0.082024 0.537905
O O8 0.582574 0.909231 0.043990
O O9 0.414928 0.451566 0.042546
O O10 0.500000 0.000000 0.000000
O O11 0.000000 0.500000 0.500000
O O12 0.000000 0.000000 0.000000
O O13 0.687060 0.727008 0.489584
O O14 0.652192 0.993713 0.460144
O O15 0.742133 0.376520 0.024085
O O16 0.681017 0.252811 0.652691
#
# Coordination Sequence:
#
# PCOD9106269 Si02
#       7
#     2   2   2   2   2   2   2
#     4  11  23  43  61  90 133 166 213 255 329 390
#     4  10  20  40  67  87 120 169 201 262 315 371
#     4  10  20  39  68  95 125 168 219 287 321 372
#     4  11  21  38  65  98 122 151 215 271 308 369
#     4  11  23  42  64  93 131 168 220 274 328 373
#     4  12  26  42  64  93 136 178 211 266 323 413
#     4  11  23  42  65  94 129 170 225 265 335 390
#
# _framework density 26.571793
#
# number of rings (size 3 to 8) (size 9 to 14) (size 15 to 20)
#    0.000    1.143    0.000   10.286    0.000    3.429 
#    7.714    0.000    0.000    0.000    0.000    0.000 
#    0.000    0.000    0.000    0.000    0.000    0.000 
#
# Total GULP energy -78136.747979 kJ/mol
# GULP energy per Si atom -5581.196284 kJ/mol
# Density = 2.651131 g / cm^3
# Si number density = 26.571793 Si / 1000 Ang^3
#
#
#
# Elastic Constant Matrix: (Units=GPa)
#
#
# Indices 1 2 3 4 5 6 
#
# 1 187.9011 23.6138 67.1332 -0.2770 15.1768 -25.1555
# 2 23.6138 69.8089 18.9231 4.9478 12.6404 -22.2293
# 3 67.1332 18.9231 222.5464 -15.5413 4.6367 -16.0450
# 4 -0.2770 4.9478 -15.5413 27.9749 -8.6427 5.5717
# 5 15.1768 12.6404 4.6367 -8.6427 65.4370 -10.0853
# 6 -25.1555 -22.2293 -16.0450 5.5717 -10.0853 25.2115
#
#
#
# Elastic Compliance Matrix: (Units=1/GPa)
#
#
# Indices 1 2 3 4 5 6 
#
# 1 0.006818 0.000554 -0.001808 -0.002583 -0.000924 0.006342
# 2 0.000554 0.022025 -0.001176 -0.009333 -0.002400 0.020326
# 3 -0.001808 -0.001176 0.005368 0.003374 0.000730 0.000122
# 4 -0.002583 -0.009333 0.003374 0.044175 0.005497 -0.016223
# 5 -0.000924 -0.002400 0.000730 0.005497 0.017105 0.003055
# 6 0.006342 0.020326 0.000122 -0.016223 0.003055 0.068799
#
#
# Mechanical properties :
#
#
# Convention : Reuss Voigt Hill
#
# Bulk Modulus (GPa) = 34.07119 77.73297 55.90208
# Shear Modulus (GPa) = 27.94336 48.43044 38.18690
#
# Velocity S-wave (km/s) = 3.24638 4.27385 3.79505
# Velocity P-wave (km/s) = 5.18673 7.32611 6.34721
#
# Compressibility (1/GPa) = 0.02935031
#
# Stress axis : x y z
#
# Youngs Moduli (GPa) = 146.66880 45.40342 186.29106
#
# Poissons Ratio (x) = -0.02513 0.33676
# Poissons Ratio (y) = -0.08118 0.21909
# Poissons Ratio (z) = 0.26514 0.05340
#
# Static dielectric constant tensor:
#      x y z
#    x 2.216820 0.165490 -0.128840 
#    y 0.165490 2.281940 -0.055060 
#    z -0.128840 -0.055060 2.147800 
# 
# From -- ./inp_files/50258.got.cif
#   From: 2010.05.17/outbox.cif.g08.bks.cpg/sg2_26_cif.got.tgz:50258.got - 2010.06.03 11:33:40.
