data_PCOD9106544
_publ_section_title
;
Structure prediction by ZEFSAII (Michael W. Deem and Ramdas Pophale) SiO2 
 PCOD9106544
Probable space group: P -1
;
_chemical_formula_sum "Si O2"
_cell_formula_units_Z 12
_cell_length_a 10.926518
_cell_length_b 6.854009
_cell_length_c 13.321409
_cell_angle_alpha 86.833082
_cell_angle_beta 148.600828
_cell_angle_gamma 96.583008
_cell_volume 514.591326
_symmetry_space_group_name_H-M "P -1"
_symmetry_group_IT_number 2
_symmetry_cell_setting 'triclinic'
loop_
_space_group_symop_operation_xyz
x,y,z
-x,-y,-z
loop_
_atom_site_type_symbol
_atom_site_label
_atom_site_fract_x
_atom_site_fract_y
_atom_site_fract_z
Si Si1 0.002798 0.783450 0.236125
Si Si2 0.520313 0.261479 0.741263
Si Si3 0.181413 0.880409 0.573513
Si Si4 0.974279 0.848721 0.893187
Si Si5 0.510017 0.238854 0.506205
Si Si6 0.484086 0.571943 0.872979
O O1 0.048251 0.780436 0.386432
O O2 0.223621 0.692720 0.344293
O O3 0.013597 0.010070 0.200178
O O4 0.747306 0.678661 0.030031
O O5 0.467495 0.303259 0.587640
O O6 0.428959 0.400701 0.756915
O O7 0.398518 0.038630 0.682716
O O8 0.803040 0.268351 0.948069
O O9 0.293137 0.722956 0.723482
O O10 0.000000 0.000000 0.500000
O O11 0.715288 0.724451 0.718658
O O12 0.000000 0.000000 0.000000
O O13 0.500000 0.000000 0.500000
O O14 0.500000 0.500000 0.000000
#
# Coordination Sequence:
#
# PCOD9106544 Si02
#       6
#     2   2   2   2   2   2
#     4  11  23  44  72 103 144 183 240 290 351 431
#     4  12  24  45  75 103 145 187 231 300 358 421
#     4  12  27  48  76  98 139 200 244 292 361 420
#     4  11  19  39  76 105 142 181 233 279 359 431
#     4  10  20  39  73 112 135 184 231 289 355 432
#     4  12  31  48  68 108 146 186 251 300 347 420
#
# _framework density 23.319476999999999
#
# number of rings (size 3 to 8) (size 9 to 14) (size 15 to 20)
#    0.000    0.667    8.333    1.000    2.333    6.000 
#    0.000    1.667    0.000    0.000    0.000    0.000 
#    0.000    0.000    0.000    0.000    0.000    0.000 
#
# Total GULP energy -67199.259085 kJ/mol
# GULP energy per Si atom -5599.938257 kJ/mol
# Density = 2.326640 g / cm^3
# Si number density = 23.319477 Si / 1000 Ang^3
#
#
#
# Elastic Constant Matrix: (Units=GPa)
#
#
# Indices 1 2 3 4 5 6 
#
# 1 117.2888 15.7150 33.7630 -20.0316 -20.4181 -24.9295
# 2 15.7150 69.2037 24.6664 -9.2887 -6.4913 -18.4010
# 3 33.7630 24.6664 142.2194 -20.8394 -3.5787 -10.6221
# 4 -20.0316 -9.2887 -20.8394 30.1094 -2.6760 6.6699
# 5 -20.4181 -6.4913 -3.5787 -2.6760 45.8976 2.8897
# 6 -24.9295 -18.4010 -10.6221 6.6699 2.8897 29.1308
#
#
#
# Elastic Compliance Matrix: (Units=1/GPa)
#
#
# Indices 1 2 3 4 5 6 
#
# 1 0.012805 0.001496 -0.001532 0.006347 0.005571 0.009339
# 2 0.001496 0.018530 -0.002239 0.002898 0.002572 0.011250
# 3 -0.001532 -0.002239 0.008350 0.004205 -0.000062 -0.000637
# 4 0.006347 0.002898 0.004205 0.042104 0.006107 -0.001450
# 5 0.005571 0.002572 -0.000062 0.006107 0.024823 0.002509
# 6 0.009339 0.011250 -0.000637 -0.001450 0.002509 0.049277
#
#
# Mechanical properties :
#
#
# Convention : Reuss Voigt Hill
#
# Bulk Modulus (GPa) = 28.46148 53.00008 40.73078
# Shear Modulus (GPa) = 29.04418 37.99872 33.52145
#
# Velocity S-wave (km/s) = 3.53298 4.04107 3.79553
# Velocity P-wave (km/s) = 5.37346 6.67464 6.05908
#
# Compressibility (1/GPa) = 0.03513521
#
# Stress axis : x y z
#
# Youngs Moduli (GPa) = 78.09331 53.96619 119.75376
#
# Poissons Ratio (x) = -0.08072 0.18343
# Poissons Ratio (y) = -0.11680 0.26817
# Poissons Ratio (z) = 0.11961 0.12085
#
# Static dielectric constant tensor:
#      x y z
#    x 1.870030 0.036520 0.008390 
#    y 0.036520 1.923190 0.022030 
#    z 0.008390 0.022030 1.877800 
# 
# From -- ./inp_files/480892.got.cif
#   From: 2010.05.17/outbox.cif.g08.bks.cpg/sg2_241_cif.got.tgz:480892.got - 2010.06.03 11:33:40.
