data_PCOD9106875
_publ_section_title
;
Structure prediction by ZEFSAII (Michael W. Deem and Ramdas Pophale) SiO2 
 PCOD9106875
Probable space group: P -1
;
_chemical_formula_sum "Si O2"
_cell_formula_units_Z 14
_cell_length_a 11.766898
_cell_length_b 8.373660
_cell_length_c 5.443886
_cell_angle_alpha 70.210889
_cell_angle_beta 83.125002
_cell_angle_gamma 85.916557
_cell_volume 500.820685
_symmetry_space_group_name_H-M "P -1"
_symmetry_group_IT_number 2
_symmetry_cell_setting 'triclinic'
loop_
_space_group_symop_operation_xyz
x,y,z
-x,-y,-z
loop_
_atom_site_type_symbol
_atom_site_label
_atom_site_fract_x
_atom_site_fract_y
_atom_site_fract_z
Si Si1 0.244326 0.177554 0.827230
Si Si2 0.880625 0.177484 0.390303
Si Si3 0.784796 0.512060 0.034729
Si Si4 0.355772 0.958693 0.533413
Si Si5 0.066244 0.342568 0.448393
Si Si6 0.000000 0.000000 0.000000
Si Si7 0.500000 0.000000 0.000000
Si Si8 0.582547 0.340160 0.004917
O O1 0.281919 0.324634 0.921789
O O2 0.184433 0.286063 0.568666
O O3 0.349789 0.062885 0.746595
O O4 0.136741 0.066995 0.987574
O O5 0.826488 0.366973 0.288973
O O6 0.776606 0.053880 0.502397
O O7 0.980932 0.182144 0.569594
O O8 0.944583 0.138437 0.140522
O O9 0.709422 0.416908 0.901833
O O10 0.897496 0.595900 0.857585
O O11 0.398791 0.772246 0.694870
O O12 0.424660 0.037711 0.257124
O O13 0.000000 0.500000 0.500000
O O14 0.452756 0.797350 0.112650
O O15 0.500000 0.500000 0.000000
#
# Coordination Sequence:
#
# PCOD9106875 Si02
#       8
#     2   2   2   2   2   1   1   2
#     4  11  24  43  72 108 153 201 252 306 380 465
#     4  10  21  44  68 108 151 199 244 304 370 458
#     4  11  24  46  71 106 152 194 248 318 377 455
#     4  10  27  50  77 112 154 201 258 322 392 458
#     4  12  23  37  72 111 153 197 249 289 373 471
#     4  10  20  40  62 100 150 200 238 290 372 438
#     4  12  28  56  78 110 152 198 260 334 396 458
#     4  11  29  52  82 111 140 202 264 328 395 456
#
# _framework density 27.954117
#
# number of rings (size 3 to 8) (size 9 to 14) (size 15 to 20)
#    0.000    1.143    2.857    1.714    6.000    2.857 
#    2.571    0.000    0.000    0.000    0.000    0.000 
#    0.000    0.000    0.000    0.000    0.000    0.000 
#
# Total GULP energy -78040.098156 kJ/mol
# GULP energy per Si atom -5574.292725 kJ/mol
# Density = 2.789049 g / cm^3
# Si number density = 27.954117 Si / 1000 Ang^3
#
#
#
# Elastic Constant Matrix: (Units=GPa)
#
#
# Indices 1 2 3 4 5 6 
#
# 1 143.9075 62.9318 22.2947 12.5303 -24.8059 20.6099
# 2 62.9318 216.3896 31.8881 13.9839 2.5957 1.0557
# 3 22.2947 31.8881 88.9155 2.5839 -27.3963 -1.8039
# 4 12.5303 13.9839 2.5839 35.4940 -2.7996 5.5778
# 5 -24.8059 2.5957 -27.3963 -2.7996 48.4956 -4.2916
# 6 20.6099 1.0557 -1.8039 5.5778 -4.2916 83.2990
#
#
#
# Elastic Compliance Matrix: (Units=1/GPa)
#
#
# Indices 1 2 3 4 5 6 
#
# 1 0.009326 -0.002668 0.000071 -0.001574 0.004692 -0.001925
# 2 -0.002668 0.005871 -0.002317 -0.001517 -0.003033 0.000481
# 3 0.000071 -0.002317 0.014699 0.000375 0.008552 0.000746
# 4 -0.001574 -0.001517 0.000375 0.029621 0.001064 -0.001512
# 5 0.004692 -0.003033 0.008552 0.001064 0.028114 0.000440
# 6 -0.001925 0.000481 0.000746 -0.001512 0.000440 0.012615
#
#
# Mechanical properties :
#
#
# Convention : Reuss Voigt Hill
#
# Bulk Modulus (GPa) = 49.83248 75.93797 62.88523
# Shear Modulus (GPa) = 42.82130 55.59759 49.20944
#
# Velocity S-wave (km/s) = 3.91812 4.46453 4.20022
# Velocity P-wave (km/s) = 6.19146 7.33487 6.78728
#
# Compressibility (1/GPa) = 0.02006723
#
# Stress axis : x y z
#
# Youngs Moduli (GPa) = 107.22547 170.33645 68.03175
#
# Poissons Ratio (x) = 0.45444 -0.00481
# Poissons Ratio (y) = 0.28607 0.15764
# Poissons Ratio (z) = -0.00758 0.39469
#
# Static dielectric constant tensor:
#      x y z
#    x 2.098400 0.064580 -0.129650 
#    y 0.064580 2.060070 0.180050 
#    z -0.129650 0.180050 1.481370 
# 
# From -- ./inp_files/60323.got.cif
#   From: 2010.05.17/outbox.cif.g08.bks.cpg/sg2_31_cif.got.tgz:60323.got - 2010.06.03 11:33:40.
