data_PCOD9106919
_publ_section_title
;
Structure prediction by ZEFSAII (Michael W. Deem and Ramdas Pophale) SiO2 
 PCOD9106919
Probable space group: P -1
;
_chemical_formula_sum "Si O2"
_cell_formula_units_Z 12
_cell_length_a 15.047694
_cell_length_b 7.978418
_cell_length_c 18.392036
_cell_angle_alpha 143.803851
_cell_angle_beta 159.522404
_cell_angle_gamma 41.603230
_cell_volume 455.825940
_symmetry_space_group_name_H-M "P -1"
_symmetry_group_IT_number 2
_symmetry_cell_setting 'triclinic'
loop_
_space_group_symop_operation_xyz
x,y,z
-x,-y,-z
loop_
_atom_site_type_symbol
_atom_site_label
_atom_site_fract_x
_atom_site_fract_y
_atom_site_fract_z
Si Si1 0.558706 0.824796 0.638874
Si Si2 0.415195 0.378541 0.568898
Si Si3 0.684323 0.631449 0.982894
Si Si4 0.862281 0.226067 0.102083
Si Si5 0.890965 0.237422 0.370686
Si Si6 0.366020 0.022435 0.698889
O O1 0.500000 0.500000 0.500000
O O2 0.546275 0.816216 0.540202
O O3 0.817676 0.947328 0.918083
O O4 0.369256 0.004348 0.605900
O O5 0.657051 0.418892 0.820190
O O6 0.374774 0.704495 0.624240
O O7 0.149221 0.269582 0.362426
O O8 0.798652 0.479840 0.087020
O O9 0.389731 0.695055 0.793808
O O10 0.835996 0.923231 0.184954
O O11 0.639154 0.184446 0.976678
O O12 0.000000 0.500000 0.500000
O O13 0.113310 0.179218 0.579699
#
# Coordination Sequence:
#
# PCOD9106919 Si02
#       6
#     2   2   2   2   2   2
#     4   8  18  37  62  87 121 161 187 235 304 347
#     4  11  21  40  61  93 120 149 207 240 284 368
#     4  11  25  37  65  92 111 160 205 242 296 346
#     4  10  20  40  62  87 122 159 188 243 304 338
#     4  11  21  44  61  81 127 156 193 255 298 345
#     4   9  20  38  63  83 120 162 188 238 305 343
#
# _framework density 26.325838000000001
#
# number of rings (size 3 to 8) (size 9 to 14) (size 15 to 20)
#    1.000    1.000    3.333    0.500    0.000    2.667 
#    0.000    2.500    0.000    0.000    0.000    0.000 
#    0.000    0.000    0.000    0.000    0.000    0.000 
#
# Total GULP energy -67048.827703 kJ/mol
# GULP energy per Si atom -5587.402309 kJ/mol
# Density = 2.626592 g / cm^3
# Si number density = 26.325838 Si / 1000 Ang^3
#
#
#
# Elastic Constant Matrix: (Units=GPa)
#
#
# Indices 1 2 3 4 5 6 
#
# 1 51.6614 10.5462 43.7014 2.8050 8.5402 3.9021
# 2 10.5462 120.9987 46.0475 17.8718 10.2441 8.8491
# 3 43.7014 46.0475 200.3705 32.8679 14.8931 9.3306
# 4 2.8050 17.8718 32.8679 55.1658 -3.3463 9.8169
# 5 8.5402 10.2441 14.8931 -3.3463 50.3704 2.3821
# 6 3.9021 8.8491 9.3306 9.8169 2.3821 24.5191
#
#
#
# Elastic Compliance Matrix: (Units=1/GPa)
#
#
# Indices 1 2 3 4 5 6 
#
# 1 0.024369 -0.000034 -0.005400 0.002299 -0.002257 -0.002513
# 2 -0.000034 0.009431 -0.001667 -0.001811 -0.001450 -0.001898
# 3 -0.005400 -0.001667 0.007213 -0.003599 -0.001130 0.000267
# 4 0.002299 -0.001811 -0.003599 0.022256 0.002877 -0.007533
# 5 -0.002257 -0.001450 -0.001130 0.002877 0.021145 -0.001894
# 6 -0.002513 -0.001898 0.000267 -0.007533 -0.001894 0.044968
#
#
# Mechanical properties :
#
#
# Convention : Reuss Voigt Hill
#
# Bulk Modulus (GPa) = 37.29524 63.73564 50.51544
# Shear Modulus (GPa) = 32.78220 44.19345 38.48782
#
# Velocity S-wave (km/s) = 3.53264 4.10165 3.82773
# Velocity P-wave (km/s) = 5.55310 6.83332 6.22620
#
# Compressibility (1/GPa) = 0.02681308
#
# Stress axis : x y z
#
# Youngs Moduli (GPa) = 41.03503 106.03535 138.62964
#
# Poissons Ratio (x) = 0.00359 0.74855
# Poissons Ratio (y) = 0.00139 0.23106
# Poissons Ratio (z) = 0.22158 0.17673
#
# Static dielectric constant tensor:
#      x y z
#    x 2.166900 -0.038800 -0.037620 
#    y -0.038800 2.040050 0.008870 
#    z -0.037620 0.008870 2.050340 
# 
# From -- ./inp_files/479806.got.cif
#   From: 2010.05.17/outbox.cif.g08.bks.cpg/sg2_240_cif.got.tgz:479806.got - 2010.06.03 11:33:40.
