data_PCOD9106448
_publ_section_title
;
Structure prediction by ZEFSAII (Michael W. Deem and Ramdas Pophale) SiO2 
 PCOD9106448
Probable space group: P -1
;
_chemical_formula_sum "Si O2"
_cell_formula_units_Z 12
_cell_length_a 15.511063
_cell_length_b 8.936370
_cell_length_c 12.011960
_cell_angle_alpha 31.941030
_cell_angle_beta 143.490770
_cell_angle_gamma 126.923951
_cell_volume 506.284671
_symmetry_space_group_name_H-M "P -1"
_symmetry_group_IT_number 2
_symmetry_cell_setting 'triclinic'
loop_
_space_group_symop_operation_xyz
x,y,z
-x,-y,-z
loop_
_atom_site_type_symbol
_atom_site_label
_atom_site_fract_x
_atom_site_fract_y
_atom_site_fract_z
Si Si1 0.165271 0.012057 0.690191
Si Si2 0.932743 0.497260 0.555607
Si Si3 0.475633 0.843485 0.395755
Si Si4 0.392083 0.246295 0.657339
Si Si5 0.669757 0.506620 0.154809
Si Si6 0.760703 0.560991 0.981147
O O1 0.148710 0.185669 0.678082
O O2 0.230717 0.200772 0.549916
O O3 0.246191 0.668749 0.980733
O O4 0.000000 0.000000 0.500000
O O5 0.789967 0.367573 0.462771
O O6 0.000000 0.500000 0.500000
O O7 0.076689 0.379218 0.861788
O O8 0.407300 0.564105 0.508411
O O9 0.548459 0.828975 0.357629
O O10 0.615514 0.818979 0.640275
O O11 0.350459 0.143326 0.093915
O O12 0.500000 0.000000 0.000000
O O13 0.500000 0.500000 0.000000
O O14 0.729017 0.394992 0.165012
#
# Coordination Sequence:
#
# PCOD9106448 Si02
#       6
#     2   2   2   2   2   2
#     4  10  20  39  70  91 133 178 216 271 343 395
#     4   9  21  40  66  92 132 180 214 275 344 394
#     4  11  24  39  70 105 133 176 236 273 333 407
#     4  11  22  40  69  98 140 176 222 281 339 397
#     4  11  23  40  68  98 135 181 224 280 338 393
#     4  10  21  41  64  96 136 173 224 277 330 406
#
# _framework density 23.702082000000001
#
# number of rings (size 3 to 8) (size 9 to 14) (size 15 to 20)
#    0.000    1.667    1.667    2.500    4.667    0.000 
#    0.000    4.167   18.333    0.000    0.000    0.000 
#    0.000    0.000    0.000    0.000    0.000    0.000 
#
# Total GULP energy -66924.466523 kJ/mol
# GULP energy per Si atom -5577.038877 kJ/mol
# Density = 2.364813 g / cm^3
# Si number density = 23.702082 Si / 1000 Ang^3
#
#
#
# Elastic Constant Matrix: (Units=GPa)
#
#
# Indices 1 2 3 4 5 6 
#
# 1 92.6625 43.7235 13.4059 -1.5396 7.5939 2.3032
# 2 43.7235 104.3750 34.1109 20.4853 -5.9224 11.9175
# 3 13.4059 34.1109 73.0060 8.4875 -1.0034 -0.9282
# 4 -1.5396 20.4853 8.4875 51.2068 -3.3502 8.2011
# 5 7.5939 -5.9224 -1.0034 -3.3502 28.9771 2.2181
# 6 2.3032 11.9175 -0.9282 8.2011 2.2181 58.7528
#
#
#
# Elastic Compliance Matrix: (Units=1/GPa)
#
#
# Indices 1 2 3 4 5 6 
#
# 1 0.014532 -0.007077 0.000254 0.002794 -0.004974 0.000668
# 2 -0.007077 0.015858 -0.005505 -0.004947 0.004525 -0.002507
# 3 0.000254 -0.005505 0.016323 -0.000792 -0.000833 0.001506
# 4 0.002794 -0.004947 -0.000792 0.022146 0.000962 -0.002246
# 5 -0.004974 0.004525 -0.000833 0.000962 0.036994 -0.002267
# 6 0.000668 -0.002507 0.001506 -0.002246 -0.002267 0.017926
#
#
# Mechanical properties :
#
#
# Convention : Reuss Voigt Hill
#
# Bulk Modulus (GPa) = 45.33794 50.28047 47.80920
# Shear Modulus (GPa) = 32.09507 39.70756 35.90131
#
# Velocity S-wave (km/s) = 3.68381 4.09746 3.89612
# Velocity P-wave (km/s) = 6.10440 6.60644 6.36038
#
# Compressibility (1/GPa) = 0.02205658
#
# Stress axis : x y z
#
# Youngs Moduli (GPa) = 68.81318 63.05801 61.26491
#
# Poissons Ratio (x) = 0.44628 -0.01554
# Poissons Ratio (y) = 0.48701 0.33723
# Poissons Ratio (z) = -0.01745 0.34710
#
# Static dielectric constant tensor:
#      x y z
#    x 2.330520 -0.180630 0.048750 
#    y -0.180630 2.083060 -0.014720 
#    z 0.048750 -0.014720 1.934870 
# 
# From -- ./inp_files/28067.got.cif
#   From: 2010.05.17/outbox.cif.g08.bks.cpg/sg2_15_cif.got.tgz:28067.got - 2010.06.03 11:33:40.
