data_PCOD9106815
_publ_section_title
;
Structure prediction by ZEFSAII (Michael W. Deem and Ramdas Pophale) SiO2 
 PCOD9106815
Probable space group: P -1
;
_chemical_formula_sum "Si O2"
_cell_formula_units_Z 16
_cell_length_a 14.385856
_cell_length_b 10.403741
_cell_length_c 10.805038
_cell_angle_alpha 107.679097
_cell_angle_beta 150.166425
_cell_angle_gamma 83.186753
_cell_volume 729.864348
_symmetry_space_group_name_H-M "P -1"
_symmetry_group_IT_number 2
_symmetry_cell_setting 'triclinic'
loop_
_space_group_symop_operation_xyz
x,y,z
-x,-y,-z
loop_
_atom_site_type_symbol
_atom_site_label
_atom_site_fract_x
_atom_site_fract_y
_atom_site_fract_z
Si Si1 0.861327 0.668298 0.340770
Si Si2 0.001841 0.961512 0.693573
Si Si3 0.388309 0.246080 0.504074
Si Si4 0.961292 0.524462 0.663894
Si Si5 0.929387 0.183805 0.019452
Si Si6 0.462376 0.567983 0.739724
Si Si7 0.613425 0.815991 0.801321
Si Si8 0.642710 0.993933 0.428858
O O1 0.905652 0.597330 0.497717
O O2 0.972528 0.834959 0.525512
O O3 0.930982 0.586842 0.286663
O O4 0.628413 0.638323 0.052960
O O5 0.086123 0.905573 0.898495
O O6 0.788940 0.971417 0.487033
O O7 0.156049 0.112023 0.886624
O O8 0.472173 0.411397 0.676706
O O9 0.422160 0.205046 0.392364
O O10 0.152728 0.208098 0.239833
O O11 0.457533 0.152540 0.657616
O O12 0.757585 0.449137 0.475559
O O13 0.087371 0.660252 0.927860
O O14 0.782134 0.095692 0.722185
O O15 0.522453 0.668137 0.720226
O O16 0.510609 0.928293 0.766062
#
# Coordination Sequence:
#
# PCOD9106815 Si02
#       8
#     2   2   2   2   2   2   2   2
#     4  10  22  41  67  83 117 167 203 251 293 355
#     4  10  21  39  60  90 118 154 211 247 295 351
#     4  10  20  40  61  89 124 160 204 248 295 359
#     4   9  21  40  63  93 115 156 213 247 292 361
#     4   9  17  37  64  89 120 152 204 262 287 342
#     4  11  25  40  59  91 131 157 193 251 310 358
#     4  12  24  37  59  94 126 161 196 245 308 367
#     4  11  21  37  66  92 118 161 203 254 294 346
#
# _framework density 21.921883000000001
#
# number of rings (size 3 to 8) (size 9 to 14) (size 15 to 20)
#    0.000    1.750    2.500    2.625    1.750    4.500 
#    0.000    2.500    0.000    0.000    0.000    0.000 
#    0.000    0.000    0.000    0.000    0.000    0.000 
#
# Total GULP energy -89517.466041 kJ/mol
# GULP energy per Si atom -5594.841628 kJ/mol
# Density = 2.187199 g / cm^3
# Si number density = 21.921883 Si / 1000 Ang^3
#
#
#
# Elastic Constant Matrix: (Units=GPa)
#
#
# Indices 1 2 3 4 5 6 
#
# 1 398.1602 369.2844 -5.3928 66.0409 27.5763 159.7361
# 2 369.2844 418.8902 3.1630 76.5309 22.7583 170.4675
# 3 -5.3928 3.1630 44.6302 14.9198 9.4786 -8.1358
# 4 66.0409 76.5309 14.9198 41.4630 6.6584 26.5901
# 5 27.5763 22.7583 9.4786 6.6584 17.8667 17.4695
# 6 159.7361 170.4675 -8.1358 26.5901 17.4695 120.0805
#
#
#
# Elastic Compliance Matrix: (Units=1/GPa)
#
#
# Indices 1 2 3 4 5 6 
#
# 1 0.015344 -0.012656 0.004980 -0.001042 -0.009304 -0.000523
# 2 -0.012656 0.017963 -0.004016 -0.007581 0.010149 -0.008735
# 3 0.004980 -0.004016 0.034478 -0.014291 -0.023330 0.007971
# 4 -0.001042 -0.007581 -0.014291 0.043893 0.001237 0.001280
# 5 -0.009304 0.010149 -0.023330 0.001237 0.085243 -0.016287
# 6 -0.000523 -0.008735 0.007971 0.001280 -0.016287 0.024051
#
#
# Mechanical properties :
#
#
# Convention : Reuss Voigt Hill
#
# Bulk Modulus (GPa) = 22.52137 177.30997 99.91567
# Shear Modulus (GPa) = 19.29333 68.85713 44.07523
#
# Velocity S-wave (km/s) = 2.96986 5.61056 4.48879
# Velocity P-wave (km/s) = 4.69636 11.09186 8.51720
#
# Compressibility (1/GPa) = 0.04440226
#
# Stress axis : x y z
#
# Youngs Moduli (GPa) = 65.17083 55.66992 29.00370
#
# Poissons Ratio (x) = 0.70455 -0.14444
# Poissons Ratio (y) = 0.82479 0.11648
# Poissons Ratio (z) = -0.32456 0.22357
#
# Static dielectric constant tensor:
#      x y z
#    x 1.801060 -0.006070 0.006500 
#    y -0.006070 1.797250 -0.004290 
#    z 0.006500 -0.004290 1.782110 
# 
# From -- ./inp_files/447962.got.cif
#   From: 2010.05.17/outbox.cif.g08.bks.cpg/sg2_224_cif.got.tgz:447962.got - 2010.06.03 11:33:40.
