data_PCOD9106035
_publ_section_title
;
Structure prediction by ZEFSAII (Michael W. Deem and Ramdas Pophale) SiO2 
 PCOD9106035
Probable space group: P -1
;
_chemical_formula_sum "Si O2"
_cell_formula_units_Z 14
_cell_length_a 9.774239
_cell_length_b 9.870201
_cell_length_c 8.510165
_cell_angle_alpha 136.535143
_cell_angle_beta 85.205032
_cell_angle_gamma 86.103257
_cell_volume 552.805374
_symmetry_space_group_name_H-M "P -1"
_symmetry_group_IT_number 2
_symmetry_cell_setting 'triclinic'
loop_
_space_group_symop_operation_xyz
x,y,z
-x,-y,-z
loop_
_atom_site_type_symbol
_atom_site_label
_atom_site_fract_x
_atom_site_fract_y
_atom_site_fract_z
Si Si1 0.789919 0.610710 0.340141
Si Si2 0.442879 0.232297 0.031461
Si Si3 0.845068 0.811268 0.806214
Si Si4 0.710263 0.239612 0.208404
Si Si5 0.689980 0.919921 0.368564
Si Si6 0.071169 0.392513 0.072484
Si Si7 0.694290 0.349244 0.668492
O O1 0.861161 0.735410 0.564393
O O2 0.726464 0.444751 0.297233
O O3 0.681635 0.769553 0.385775
O O4 0.914889 0.491531 0.120039
O O5 0.305319 0.229985 0.149361
O O6 0.575971 0.181595 0.086059
O O7 0.428770 0.456567 0.150575
O O8 0.422980 0.095715 0.769058
O O9 0.950228 0.684297 0.810908
O O10 0.832580 0.048465 0.013212
O O11 0.696793 0.277564 0.427033
O O12 0.689087 0.150419 0.601078
O O13 0.839415 0.808892 0.184875
O O14 0.170762 0.556102 0.221817
#
# Coordination Sequence:
#
# PCOD9106035 Si02
#       7
#     2   2   2   2   2   2   2
#     4  12  25  38  60  93 125 151 197 255 294 338
#     4  10  22  40  65  88 118 156 207 237 287 374
#     4  10  22  37  62  93 116 152 209 243 285 356
#     4  12  22  38  66  90 118 160 197 244 300 343
#     4  10  23  42  61  88 121 160 195 242 303 352
#     4  10  22  42  61  88 121 156 204 240 288 370
#     4  10  20  39  67  84 114 164 199 237 298 349
#
# _framework density 25.325369999999999
#
# number of rings (size 3 to 8) (size 9 to 14) (size 15 to 20)
#    0.000    1.714    5.714    1.714    0.000    5.143 
#    0.000    1.429    0.000    0.000    0.000    0.000 
#    0.000    0.000    0.000    0.000    0.000    0.000 
#
# Total GULP energy -78358.485834 kJ/mol
# GULP energy per Si atom -5597.034702 kJ/mol
# Density = 2.526773 g / cm^3
# Si number density = 25.325370 Si / 1000 Ang^3
#
#
#
# Elastic Constant Matrix: (Units=GPa)
#
#
# Indices 1 2 3 4 5 6 
#
# 1 76.1576 32.4670 4.1736 19.0822 4.0532 -22.3645
# 2 32.4670 118.7976 43.1892 36.6186 7.1501 -0.1504
# 3 4.1736 43.1892 85.9697 36.8051 9.9580 -6.2193
# 4 19.0822 36.6186 36.8051 28.3002 9.1545 3.7128
# 5 4.0532 7.1501 9.9580 9.1545 28.6425 -0.3591
# 6 -22.3645 -0.1504 -6.2193 3.7128 -0.3591 39.9389
#
#
#
# Elastic Compliance Matrix: (Units=1/GPa)
#
#
# Indices 1 2 3 4 5 6 
#
# 1 0.040231 0.000569 0.032363 -0.077105 0.007994 0.034809
# 2 0.000569 0.014558 0.003083 -0.024662 0.003135 0.003175
# 3 0.032363 0.003083 0.055253 -0.105599 0.009651 0.036641
# 4 -0.077105 -0.024662 -0.105599 0.279734 -0.036705 -0.086048
# 5 0.007994 0.003135 0.009651 -0.036705 0.041498 0.009776
# 6 0.034809 0.003175 0.036641 -0.086048 0.009776 0.058335
#
#
# Mechanical properties :
#
#
# Convention : Reuss Voigt Hill
#
# Bulk Modulus (GPa) = 5.49226 48.95384 27.22305
# Shear Modulus (GPa) = 10.45438 32.78267 21.61852
#
# Velocity S-wave (km/s) = 2.03396 3.60176 2.92487
# Velocity P-wave (km/s) = 2.77297 6.05548 4.70947
#
# Compressibility (1/GPa) = 0.18207457
#
# Stress axis : x y z
#
# Youngs Moduli (GPa) = 24.85670 68.68898 18.09842
#
# Poissons Ratio (x) = -0.03912 -0.58572
# Poissons Ratio (y) = -0.01416 -0.05581
# Poissons Ratio (z) = -0.80444 -0.21180
#
# Static dielectric constant tensor:
#      x y z
#    x 1.993860 0.008710 -0.027650 
#    y 0.008710 2.107700 -0.083420 
#    z -0.027650 -0.083420 1.989200 
# 
# From -- ./inp_files/201305.got.cif
#   From: 2010.05.17/outbox.cif.g08.bks.cpg/sg2_101_cif.got.tgz:201305.got - 2010.06.03 11:33:40.
