data_PCOD9106799
_publ_section_title
;
Structure prediction by ZEFSAII (Michael W. Deem and Ramdas Pophale) SiO2 
 PCOD9106799
Probable space group: P -1
;
_chemical_formula_sum "Si O2"
_cell_formula_units_Z 16
_cell_length_a 5.898241
_cell_length_b 11.319566
_cell_length_c 12.622157
_cell_angle_alpha 111.950426
_cell_angle_beta 112.865512
_cell_angle_gamma 61.408485
_cell_volume 663.179018
_symmetry_space_group_name_H-M "P -1"
_symmetry_group_IT_number 2
_symmetry_cell_setting 'triclinic'
loop_
_space_group_symop_operation_xyz
x,y,z
-x,-y,-z
loop_
_atom_site_type_symbol
_atom_site_label
_atom_site_fract_x
_atom_site_fract_y
_atom_site_fract_z
Si Si1 0.362688 0.393254 0.941430
Si Si2 0.130862 0.774866 0.675808
Si Si3 0.082903 0.449574 0.357922
Si Si4 0.406529 0.718187 0.491011
Si Si5 0.546344 0.904697 0.874392
Si Si6 0.549030 0.977141 0.661141
Si Si7 0.796011 0.625493 0.867917
Si Si8 0.419987 0.275393 0.689635
O O1 0.478316 0.294572 0.829183
O O2 0.053583 0.489037 0.895332
O O3 0.500000 0.500000 0.000000
O O4 0.379718 0.340376 0.046275
O O5 0.062579 0.658506 0.688165
O O6 0.215427 0.718610 0.552712
O O7 0.335972 0.830923 0.789416
O O8 0.858462 0.910185 0.663702
O O9 0.856419 0.599123 0.347313
O O10 0.306653 0.406499 0.474852
O O11 0.267990 0.414601 0.273918
O O12 0.367528 0.716901 0.357081
O O13 0.437126 0.863194 0.567620
O O14 0.822860 0.771045 0.898237
O O15 0.540337 0.981998 0.789326
O O16 0.500000 0.000000 0.000000
O O17 0.405064 0.126131 0.633477
#
# Coordination Sequence:
#
# PCOD9106799 Si02
#       8
#     2   2   2   2   2   2   2   2
#     4  10  24  39  60  90 129 163 198 258 316 363
#     4  10  21  40  62  89 127 164 208 253 315 372
#     4  10  21  41  66  93 121 164 208 260 319 368
#     4  10  21  42  66  89 123 168 210 256 314 370
#     4  11  22  37  66  89 119 168 216 253 304 372
#     4  10  22  42  58  94 126 162 207 257 317 366
#     4  10  20  40  61  88 120 163 205 248 316 366
#     4  11  23  39  64  94 126 163 210 258 314 375
#
# _framework density 24.126214000000001
#
# number of rings (size 3 to 8) (size 9 to 14) (size 15 to 20)
#    0.000    1.750    3.750    1.500    3.500    2.500 
#    0.000   13.750    0.000    0.000    0.000    0.000 
#    0.000    0.000    0.000    0.000    0.000    0.000 
#
# Total GULP energy -89262.253284 kJ/mol
# GULP energy per Si atom -5578.890830 kJ/mol
# Density = 2.407130 g / cm^3
# Si number density = 24.126214 Si / 1000 Ang^3
#
#
#
# Elastic Constant Matrix: (Units=GPa)
#
#
# Indices 1 2 3 4 5 6 
#
# 1 74.4788 19.9825 55.3880 4.1947 -23.0293 14.3251
# 2 19.9825 151.6768 26.1408 -1.8958 -18.4754 13.3004
# 3 55.3880 26.1408 171.2612 -8.0861 -58.2075 9.7238
# 4 4.1947 -1.8958 -8.0861 33.1261 8.3552 -8.3508
# 5 -23.0293 -18.4754 -58.2075 8.3552 37.4447 3.5864
# 6 14.3251 13.3004 9.7238 -8.3508 3.5864 24.1367
#
#
#
# Elastic Compliance Matrix: (Units=1/GPa)
#
#
# Indices 1 2 3 4 5 6 
#
# 1 0.025269 0.001139 -0.000820 -0.014303 0.020247 -0.023251
# 2 0.001139 0.007916 0.001776 -0.003624 0.008975 -0.008341
# 3 -0.000820 0.001776 0.015426 -0.006048 0.026928 -0.012801
# 4 -0.014303 -0.003624 -0.006048 0.047536 -0.033888 0.034404
# 5 0.020247 0.008975 0.026928 -0.033888 0.098192 -0.054125
# 6 -0.023251 -0.008341 -0.012801 0.034404 -0.054125 0.084929
#
#
# Mechanical properties :
#
#
# Convention : Reuss Voigt Hill
#
# Bulk Modulus (GPa) = 18.93886 66.71548 42.82717
# Shear Modulus (GPa) = 17.08361 38.66852 27.87607
#
# Velocity S-wave (km/s) = 2.66389 4.00779 3.40284
# Velocity P-wave (km/s) = 4.16277 7.00923 5.76446
#
# Compressibility (1/GPa) = 0.05280149
#
# Stress axis : x y z
#
# Youngs Moduli (GPa) = 39.57434 126.32411 64.82354
#
# Poissons Ratio (x) = -0.14383 0.05315
# Poissons Ratio (y) = -0.04506 -0.11514
# Poissons Ratio (z) = 0.03245 -0.22439
#
# Static dielectric constant tensor:
#      x y z
#    x 1.974520 -0.061320 0.043580 
#    y -0.061320 2.542100 -1.228900 
#    z 0.043580 -1.228900 4.439190 
# 
# From -- ./inp_files/364821.got.cif
#   From: 2010.05.17/outbox.cif.g08.bks.cpg/sg2_183_cif.got.tgz:364821.got - 2010.06.03 11:33:40.
