data_PCOD9106189
_publ_section_title
;
Structure prediction by ZEFSAII (Michael W. Deem and Ramdas Pophale) SiO2 
 PCOD9106189
Probable space group: P -1
;
_chemical_formula_sum "Si O2"
_cell_formula_units_Z 14
_cell_length_a 11.607927
_cell_length_b 11.078443
_cell_length_c 14.766359
_cell_angle_alpha 147.131732
_cell_angle_beta 145.928450
_cell_angle_gamma 45.057350
_cell_volume 576.994473
_symmetry_space_group_name_H-M "P -1"
_symmetry_group_IT_number 2
_symmetry_cell_setting 'triclinic'
loop_
_space_group_symop_operation_xyz
x,y,z
-x,-y,-z
loop_
_atom_site_type_symbol
_atom_site_label
_atom_site_fract_x
_atom_site_fract_y
_atom_site_fract_z
Si Si1 0.658321 0.176846 0.174556
Si Si2 0.452934 0.615712 0.401218
Si Si3 0.812983 0.596451 0.761071
Si Si4 0.860815 0.188807 0.982695
Si Si5 0.021482 0.163046 0.533067
Si Si6 0.209610 0.547660 0.717875
Si Si7 0.392333 0.092953 0.608277
O O1 0.577541 0.422023 0.307973
O O2 0.878923 0.109385 0.319804
O O3 0.688408 0.236931 0.126327
O O4 0.500000 0.000000 0.000000
O O5 0.614421 0.688348 0.631557
O O6 0.270967 0.490392 0.254243
O O7 0.369385 0.825861 0.421927
O O8 0.910396 0.384953 0.638625
O O9 0.006359 0.752352 0.981901
O O10 0.833383 0.382608 0.162630
O O11 0.635883 0.107483 0.770372
O O12 0.000000 0.000000 0.000000
O O13 0.258005 0.153259 0.649150
O O14 0.000000 0.000000 0.500000
O O15 0.322930 0.304826 0.635069
O O16 0.000000 0.500000 0.500000
#
# Coordination Sequence:
#
# PCOD9106189 Si02
#       7
#     2   2   2   2   2   2   2
#     4  11  27  46  69 100 142 187 233 287 358 422
#     4  10  22  42  67 101 134 187 227 291 353 408
#     4  10  20  39  67  98 138 168 233 288 343 396
#     4  12  26  42  71 108 136 182 247 296 339 420
#     4  11  22  41  72 101 135 179 229 288 352 417
#     4  12  26  48  70 100 151 189 225 291 366 418
#     4  12  24  43  74 103 139 185 241 289 352 422
#
# _framework density 24.263663999999999
#
# number of rings (size 3 to 8) (size 9 to 14) (size 15 to 20)
#    0.000    0.857    5.714    1.286    4.000    0.571 
#    0.000    0.714    0.000    0.000    0.000    0.000 
#    0.000    0.000    0.000    0.000    0.000    0.000 
#
# Total GULP energy -78121.350108 kJ/mol
# GULP energy per Si atom -5580.096436 kJ/mol
# Density = 2.420844 g / cm^3
# Si number density = 24.263664 Si / 1000 Ang^3
#
#
#
# Elastic Constant Matrix: (Units=GPa)
#
#
# Indices 1 2 3 4 5 6 
#
# 1 115.0436 32.7007 25.4296 -0.9928 44.2600 9.5862
# 2 32.7007 177.5112 38.4286 14.2680 24.3541 9.5207
# 3 25.4296 38.4286 46.1263 -0.3766 36.0804 12.3211
# 4 -0.9928 14.2680 -0.3766 33.2339 -12.0292 10.8150
# 5 44.2600 24.3541 36.0804 -12.0292 47.8036 10.2097
# 6 9.5862 9.5207 12.3211 10.8150 10.2097 43.7283
#
#
#
# Elastic Compliance Matrix: (Units=1/GPa)
#
#
# Indices 1 2 3 4 5 6 
#
# 1 0.016149 -0.001418 0.011896 -0.008574 -0.025693 0.001536
# 2 -0.001418 0.007357 -0.007350 -0.002798 0.002204 0.000958
# 3 0.011896 -0.007350 0.075344 -0.020241 -0.068990 -0.001123
# 4 -0.008574 -0.002798 -0.020241 0.049655 0.040004 -0.013429
# 5 -0.025693 0.002204 -0.068990 0.040004 0.107967 -0.010510
# 6 0.001536 0.000958 -0.001123 -0.013429 -0.010510 0.028415
#
#
# Mechanical properties :
#
#
# Convention : Reuss Voigt Hill
#
# Bulk Modulus (GPa) = 9.51426 59.08874 34.30150
# Shear Modulus (GPa) = 15.94046 41.09466 28.51756
#
# Velocity S-wave (km/s) = 2.56592 4.11989 3.43201
# Velocity P-wave (km/s) = 3.56487 6.85835 5.46559
#
# Compressibility (1/GPa) = 0.10510544
#
# Stress axis : x y z
#
# Youngs Moduli (GPa) = 61.92394 135.92390 13.27243
#
# Poissons Ratio (x) = 0.19280 -0.15789
# Poissons Ratio (y) = 0.08783 0.09755
# Poissons Ratio (z) = -0.73665 0.99902
#
# Static dielectric constant tensor:
#      x y z
#    x 1.959360 0.050170 0.017370 
#    y 0.050170 1.964270 0.124470 
#    z 0.017370 0.124470 2.124970 
# 
# From -- ./inp_files/158019.got.cif
#   From: 2010.05.17/outbox.cif.g08.bks.cpg/sg2_80_cif.got.tgz:158019.got - 2010.06.03 11:33:40.
