data_PCOD9106110
_publ_section_title
;
Structure prediction by ZEFSAII (Michael W. Deem and Ramdas Pophale) SiO2 
 PCOD9106110
Probable space group: P -1
;
_chemical_formula_sum "Si O2"
_cell_formula_units_Z 14
_cell_length_a 15.208690
_cell_length_b 8.550479
_cell_length_c 15.133179
_cell_angle_alpha 39.809177
_cell_angle_beta 143.025777
_cell_angle_gamma 119.698131
_cell_volume 721.168007
_symmetry_space_group_name_H-M "P -1"
_symmetry_group_IT_number 2
_symmetry_cell_setting 'triclinic'
loop_
_space_group_symop_operation_xyz
x,y,z
-x,-y,-z
loop_
_atom_site_type_symbol
_atom_site_label
_atom_site_fract_x
_atom_site_fract_y
_atom_site_fract_z
Si Si1 0.466502 0.043903 0.813787
Si Si2 0.148077 0.018155 0.500090
Si Si3 0.291818 0.996663 0.434850
Si Si4 0.154036 0.070670 0.103356
Si Si5 0.459102 0.785502 0.380267
Si Si6 0.842106 0.389089 0.175702
Si Si7 0.504723 0.412272 0.836138
O O1 0.285983 0.096159 0.625131
O O2 0.548896 0.036096 0.789747
O O3 0.487934 0.270128 0.793795
O O4 0.524139 0.776253 0.028967
O O5 0.188930 0.007763 0.434526
O O6 0.983264 0.211350 0.308960
O O7 0.154591 0.747951 0.667635
O O8 0.192072 0.099873 0.223674
O O9 0.409155 0.159384 0.477637
O O10 0.606859 0.299477 0.370696
O O11 0.300647 0.858285 0.273154
O O12 0.140256 0.331993 0.927640
O O13 0.000000 0.000000 0.000000
O O14 0.500000 0.500000 0.500000
O O15 0.678958 0.411945 0.990120
#
# Coordination Sequence:
#
# PCOD9106110 Si02
#       7
#     2   2   2   2   2   2   2
#     4   9  21  37  67  95 122 162 207 261 302 372
#     4   9  22  42  66  91 124 164 203 260 307 368
#     4  11  24  42  66  92 122 167 209 263 307 370
#     4  12  28  42  61  92 129 168 206 261 311 372
#     4  11  24  41  65  90 127 166 211 255 313 370
#     4  10  22  41  65  89 128 163 206 248 318 363
#     4  10  20  39  67  94 124 157 214 255 311 363
#
# _framework density 19.412953000000002
#
# number of rings (size 3 to 8) (size 9 to 14) (size 15 to 20)
#    0.000    1.714    1.429    1.286   10.000    3.429 
#    0.000    0.714    0.000    0.000    0.000    0.000 
#    0.000    0.000    0.000    0.000    0.000    0.000 
#
# Total GULP energy -78251.084139 kJ/mol
# GULP energy per Si atom -5589.363153 kJ/mol
# Density = 1.936877 g / cm^3
# Si number density = 19.412953 Si / 1000 Ang^3
#
#
#
# Elastic Constant Matrix: (Units=GPa)
#
#
# Indices 1 2 3 4 5 6 
#
# 1 114.2397 35.4797 27.7020 15.9889 5.5850 14.8209
# 2 35.4797 120.4026 24.5522 -1.7481 -1.9476 15.7959
# 3 27.7020 24.5522 44.8153 -0.1522 0.3536 6.9197
# 4 15.9889 -1.7481 -0.1522 29.9479 -6.3355 -2.5059
# 5 5.5850 -1.9476 0.3536 -6.3355 15.3952 3.8750
# 6 14.8209 15.7959 6.9197 -2.5059 3.8750 23.1805
#
#
#
# Elastic Compliance Matrix: (Units=1/GPa)
#
#
# Indices 1 2 3 4 5 6 
#
# 1 0.013238 -0.002267 -0.006169 -0.009228 -0.007533 -0.004816
# 2 -0.002267 0.010481 -0.003577 0.002322 0.004475 -0.005122
# 3 -0.006169 -0.003577 0.028420 0.003725 0.003229 -0.002239
# 4 -0.009228 0.002322 0.003725 0.043115 0.020167 0.004495
# 5 -0.007533 0.004475 0.003229 0.020167 0.079055 -0.010233
# 6 -0.004816 -0.005122 -0.002239 0.004495 -0.010233 0.052574
#
#
# Mechanical properties :
#
#
# Convention : Reuss Voigt Hill
#
# Bulk Modulus (GPa) = 35.57210 50.54726 43.05968
# Shear Modulus (GPa) = 19.21002 26.48630 22.84816
#
# Velocity S-wave (km/s) = 3.14912 3.69773 3.43440
# Velocity P-wave (km/s) = 5.62017 6.65773 6.16083
#
# Compressibility (1/GPa) = 0.02811192
#
# Stress axis : x y z
#
# Youngs Moduli (GPa) = 75.53895 95.41056 35.18648
#
# Poissons Ratio (x) = 0.21629 0.21708
# Poissons Ratio (y) = 0.17124 0.12587
# Poissons Ratio (z) = 0.46603 0.34132
#
# Static dielectric constant tensor:
#      x y z
#    x 1.672110 0.007980 -0.028940 
#    y 0.007980 1.656800 -0.014400 
#    z -0.028940 -0.014400 1.673620 
# 
# From -- ./inp_files/527174.got.cif
#   From: 2010.05.17/outbox.cif.g08.bks.cpg/sg2_264_cif.got.tgz:527174.got - 2010.06.03 11:33:40.
