data_PCOD9106263
_publ_section_title
;
Structure prediction by ZEFSAII (Michael W. Deem and Ramdas Pophale) SiO2 
 PCOD9106263
Probable space group: P -1
;
_chemical_formula_sum "Si O2"
_cell_formula_units_Z 16
_cell_length_a 10.414940
_cell_length_b 16.740999
_cell_length_c 9.754060
_cell_angle_alpha 54.795877
_cell_angle_beta 77.110475
_cell_angle_gamma 122.079949
_cell_volume 759.101722
_symmetry_space_group_name_H-M "P -1"
_symmetry_group_IT_number 2
_symmetry_cell_setting 'triclinic'
loop_
_space_group_symop_operation_xyz
x,y,z
-x,-y,-z
loop_
_atom_site_type_symbol
_atom_site_label
_atom_site_fract_x
_atom_site_fract_y
_atom_site_fract_z
Si Si1 0.944868 0.711758 0.051922
Si Si2 0.332438 0.090392 0.579652
Si Si3 0.099632 0.499414 0.354021
Si Si4 0.679593 0.659939 0.948278
Si Si5 0.768174 0.634996 0.460708
Si Si6 0.915064 0.850538 0.435226
Si Si7 0.622129 0.856243 0.794292
Si Si8 0.850031 0.435769 0.233619
O O1 0.891785 0.740338 0.898813
O O2 0.771610 0.632050 0.298741
O O3 0.918026 0.582988 0.138812
O O4 0.193993 0.910023 0.845072
O O5 0.169548 0.088588 0.617560
O O6 0.388332 0.104651 0.392647
O O7 0.574930 0.263562 0.429279
O O8 0.126916 0.404042 0.480949
O O9 0.000000 0.500000 0.500000
O O10 0.931396 0.408412 0.354478
O O11 0.360391 0.701114 0.066506
O O12 0.470846 0.500520 0.259980
O O13 0.732382 0.681123 0.751257
O O14 0.675027 0.773613 0.844455
O O15 0.920289 0.813379 0.316882
O O16 0.165499 0.984631 0.314252
O O17 0.000000 0.500000 0.000000
#
# Coordination Sequence:
#
# PCOD9106263 Si02
#       8
#     2   2   2   2   2   2   2   2
#     4  12  24  44  66 102 139 172 227 284 339 398
#     4  11  23  44  71 103 138 170 226 289 330 400
#     4  11  24  48  64  90 138 178 226 274 335 400
#     4  10  20  39  68  94 136 173 218 278 337 401
#     4  11  25  39  66 100 134 181 219 277 345 400
#     4  11  21  42  69 105 130 173 226 275 350 399
#     4  10  20  42  71  94 134 174 216 286 337 386
#     4  12  27  45  70  98 132 187 232 276 332 400
#
# _framework density 21.077542999999999
#
# number of rings (size 3 to 8) (size 9 to 14) (size 15 to 20)
#    0.000    1.000    5.000    2.250    1.750    2.000 
#    2.250    1.250    0.000    0.000    0.000    0.000 
#    0.000    0.000    0.000    0.000    0.000    0.000 
#
# Total GULP energy -89167.021567 kJ/mol
# GULP energy per Si atom -5572.938848 kJ/mol
# Density = 2.102957 g / cm^3
# Si number density = 21.077543 Si / 1000 Ang^3
#
#
#
# Elastic Constant Matrix: (Units=GPa)
#
#
# Indices 1 2 3 4 5 6 
#
# 1 63.8632 20.2661 -2.6202 -11.5430 0.9279 1.4376
# 2 20.2661 159.1230 100.0732 27.8318 -40.5070 31.5151
# 3 -2.6202 100.0732 167.5305 20.5088 -58.9672 51.1859
# 4 -11.5430 27.8318 20.5088 47.5164 -9.8560 11.0140
# 5 0.9279 -40.5070 -58.9672 -9.8560 54.2575 -22.7079
# 6 1.4376 31.5151 51.1859 11.0140 -22.7079 69.5632
#
#
#
# Elastic Compliance Matrix: (Units=1/GPa)
#
#
# Indices 1 2 3 4 5 6 
#
# 1 0.018616 -0.005128 0.002783 0.006526 -0.000480 -0.001300
# 2 -0.005128 0.012125 -0.006292 -0.005449 0.001571 0.000618
# 3 0.002783 -0.006292 0.014288 0.001202 0.008907 -0.005003
# 4 0.006526 -0.005449 0.001202 0.026036 0.000854 -0.002394
# 5 -0.000480 0.001571 0.008907 0.000854 0.030524 0.002573
# 6 -0.001300 0.000618 -0.005003 -0.002394 0.002573 0.019022
#
#
# Mechanical properties :
#
#
# Convention : Reuss Voigt Hill
#
# Bulk Modulus (GPa) = 36.02836 69.55052 52.78944
# Shear Modulus (GPa) = 33.98243 52.45392 43.21818
#
# Velocity S-wave (km/s) = 4.01965 4.99402 4.53309
# Velocity P-wave (km/s) = 6.21883 8.14387 7.24557
#
# Compressibility (1/GPa) = 0.02775591
#
# Stress axis : x y z
#
# Youngs Moduli (GPa) = 53.71841 82.47362 69.99065
#
# Poissons Ratio (x) = 0.42289 -0.19481
# Poissons Ratio (y) = 0.27544 0.44038
# Poissons Ratio (z) = -0.14952 0.51892
#
# Static dielectric constant tensor:
#      x y z
#    x 1.713600 -0.010320 -0.013320 
#    y -0.010320 1.817330 -0.061120 
#    z -0.013320 -0.061120 1.824500 
# 
# From -- ./inp_files/277585.got.cif
#   From: 2010.05.17/outbox.cif.g08.bks.cpg/sg2_139_cif.got.tgz:277585.got - 2010.06.03 11:33:40.
