data_PCOD9106438
_publ_section_title
;
Structure prediction by ZEFSAII (Michael W. Deem and Ramdas Pophale) SiO2 
 PCOD9106438
Probable space group: P -1
;
_chemical_formula_sum "Si O2"
_cell_formula_units_Z 14
_cell_length_a 8.282759
_cell_length_b 12.559719
_cell_length_c 15.650603
_cell_angle_alpha 26.943445
_cell_angle_beta 49.720120
_cell_angle_gamma 55.112683
_cell_volume 562.756551
_symmetry_space_group_name_H-M "P -1"
_symmetry_group_IT_number 2
_symmetry_cell_setting 'triclinic'
loop_
_space_group_symop_operation_xyz
x,y,z
-x,-y,-z
loop_
_atom_site_type_symbol
_atom_site_label
_atom_site_fract_x
_atom_site_fract_y
_atom_site_fract_z
Si Si1 0.802828 0.718509 0.137530
Si Si2 0.730191 0.957102 0.489699
Si Si3 0.725284 0.401623 0.897745
Si Si4 0.725654 0.631601 0.409705
Si Si5 0.217922 0.751198 0.198573
Si Si6 0.597838 0.970762 0.703790
Si Si7 0.900040 0.734224 0.906399
O O1 0.720188 0.575122 0.350710
O O2 0.055628 0.707859 0.069995
O O3 0.776864 0.668740 0.082263
O O4 0.729902 0.980263 0.994512
O O5 0.760567 0.679643 0.688148
O O6 0.728506 0.058851 0.513775
O O7 0.500000 0.000000 0.500000
O O8 0.904114 0.081726 0.281492
O O9 0.682782 0.339420 0.857908
O O10 0.541856 0.259610 0.111104
O O11 0.706623 0.401358 0.638635
O O12 0.963989 0.724874 0.286374
O O13 0.560296 0.829838 0.351882
O O14 0.752056 0.872729 0.792764
O O15 0.000000 0.500000 0.000000
#
# Coordination Sequence:
#
# PCOD9106438 Si02
#       7
#     2   2   2   2   2   2   2
#     4  11  22  43  70 100 139 182 234 279 340 417
#     4  12  26  44  74 103 131 186 242 282 342 416
#     4  11  21  42  74 105 134 179 233 290 337 408
#     4  10  21  38  70 106 136 181 224 292 343 402
#     4  10  20  39  70 107 141 171 233 289 338 402
#     4  12  23  45  68 103 148 175 229 289 349 407
#     4  12  29  48  66  96 146 187 226 292 349 408
#
# _framework density 24.877541999999998
#
# number of rings (size 3 to 8) (size 9 to 14) (size 15 to 20)
#    0.000    0.857    2.857    5.143    6.000    0.571 
#    0.000    0.714    0.000    0.000    0.000    0.000 
#    0.000    0.000    0.000    0.000    0.000    0.000 
#
# Total GULP energy -78444.449880 kJ/mol
# GULP energy per Si atom -5603.174991 kJ/mol
# Density = 2.482092 g / cm^3
# Si number density = 24.877542 Si / 1000 Ang^3
#
#
#
# Elastic Constant Matrix: (Units=GPa)
#
#
# Indices 1 2 3 4 5 6 
#
# 1 106.8352 20.2915 32.2712 13.5115 30.9058 -8.7485
# 2 20.2915 125.4647 44.9867 17.8338 24.0305 13.8668
# 3 32.2712 44.9867 121.7258 8.0201 19.0639 -2.8551
# 4 13.5115 17.8338 8.0201 37.6726 11.4653 8.0663
# 5 30.9058 24.0305 19.0639 11.4653 58.7997 11.7468
# 6 -8.7485 13.8668 -2.8551 8.0663 11.7468 31.9393
#
#
#
# Elastic Compliance Matrix: (Units=1/GPa)
#
#
# Indices 1 2 3 4 5 6 
#
# 1 0.012953 -0.000416 -0.001831 -0.003489 -0.006748 0.006928
# 2 -0.000416 0.010350 -0.003357 -0.002758 -0.001667 -0.003598
# 3 -0.001831 -0.003357 0.010227 -0.000002 -0.001462 0.002408
# 4 -0.003489 -0.002758 -0.000002 0.031119 -0.001710 -0.006988
# 5 -0.006748 -0.001667 -0.001462 -0.001710 0.023968 -0.009639
# 6 0.006928 -0.003598 0.002408 -0.006988 -0.009639 0.040294
#
#
# Mechanical properties :
#
#
# Convention : Reuss Voigt Hill
#
# Bulk Modulus (GPa) = 44.79651 61.01384 52.90518
# Shear Modulus (GPa) = 33.88483 42.78074 38.33279
#
# Velocity S-wave (km/s) = 3.69462 4.15137 3.92964
# Velocity P-wave (km/s) = 6.02048 6.89619 6.47316
#
# Compressibility (1/GPa) = 0.02232317
#
# Stress axis : x y z
#
# Youngs Moduli (GPa) = 77.20207 96.61781 97.78260
#
# Poissons Ratio (x) = 0.04015 0.17906
# Poissons Ratio (y) = 0.03208 0.32821
# Poissons Ratio (z) = 0.14137 0.32431
#
# Static dielectric constant tensor:
#      x y z
#    x 1.992200 0.019570 -0.022880 
#    y 0.019570 1.960510 0.023900 
#    z -0.022880 0.023900 1.931380 
# 
# From -- ./inp_files/498673.got.cif
#   From: 2010.05.17/outbox.cif.g08.bks.cpg/sg2_250_cif.got.tgz:498673.got - 2010.06.03 11:33:40.
