data_PCOD9106202
_publ_section_title
;
Structure prediction by ZEFSAII (Michael W. Deem and Ramdas Pophale) SiO2 
 PCOD9106202
Probable space group: P -1
;
_chemical_formula_sum "Si O2"
_cell_formula_units_Z 16
_cell_length_a 17.352303
_cell_length_b 12.132469
_cell_length_c 12.054779
_cell_angle_alpha 144.040428
_cell_angle_beta 31.827699
_cell_angle_gamma 130.177970
_cell_volume 778.456143
_symmetry_space_group_name_H-M "P -1"
_symmetry_group_IT_number 2
_symmetry_cell_setting 'triclinic'
loop_
_space_group_symop_operation_xyz
x,y,z
-x,-y,-z
loop_
_atom_site_type_symbol
_atom_site_label
_atom_site_fract_x
_atom_site_fract_y
_atom_site_fract_z
Si Si1 0.172995 0.942021 0.738200
Si Si2 0.644750 0.723437 0.252005
Si Si3 0.307093 0.907636 0.792414
Si Si4 0.673089 0.519012 0.280412
Si Si5 0.698940 0.438762 0.757629
Si Si6 0.156136 0.879996 0.177344
Si Si7 0.602608 0.696892 0.915030
Si Si8 0.373477 0.153725 0.228341
O O1 0.243133 0.908398 0.748070
O O2 0.185514 0.739017 0.497967
O O3 0.268933 0.094423 0.692774
O O4 0.000000 0.000000 0.000000
O O5 0.467406 0.781592 0.507624
O O6 0.681117 0.585578 0.198818
O O7 0.694788 0.611286 0.987650
O O8 0.189508 0.857941 0.986915
O O9 0.344858 0.116196 0.946911
O O10 0.500000 0.500000 0.500000
O O11 0.698303 0.695133 0.471459
O O12 0.784603 0.327810 0.013546
O O13 0.713463 0.519400 0.681536
O O14 0.548865 0.344961 0.879094
O O15 0.264915 0.020789 0.202795
O O16 0.000000 0.000000 0.500000
O O17 0.579560 0.726532 0.836680
O O18 0.500000 0.000000 0.000000
#
# Coordination Sequence:
#
# PCOD9106202 Si02
#       8
#     2   2   2   2   2   2   2   2
#     4  12  28  45  64 101 143 179 221 289 353 404
#     4  12  24  44  73 101 135 178 239 283 328 420
#     4  11  21  46  71  94 138 179 232 283 339 413
#     4  12  23  42  73 105 135 182 236 286 341 407
#     4  11  23  38  70  97 128 172 230 275 336 392
#     4  11  27  46  68 103 143 185 226 290 354 410
#     4  10  20  39  68 101 122 170 229 284 320 396
#     4  11  23  41  69 100 137 175 235 284 335 405
#
# _framework density 20.553502000000002
#
# number of rings (size 3 to 8) (size 9 to 14) (size 15 to 20)
#    0.000    0.750    5.000    3.375    1.750    3.000 
#    4.500    0.000    0.000    0.000    0.000    0.000 
#    0.000    0.000    0.000    0.000    0.000    0.000 
#
# Total GULP energy -89300.675031 kJ/mol
# GULP energy per Si atom -5581.292189 kJ/mol
# Density = 2.050672 g / cm^3
# Si number density = 20.553502 Si / 1000 Ang^3
#
#
#
# Elastic Constant Matrix: (Units=GPa)
#
#
# Indices 1 2 3 4 5 6 
#
# 1 67.1316 35.6556 17.7739 -2.5753 6.9900 -28.5122
# 2 35.6556 87.0241 38.7124 20.1169 -6.2494 -39.0732
# 3 17.7739 38.7124 116.0390 16.9557 -18.7958 -19.0767
# 4 -2.5753 20.1169 16.9557 33.7678 -0.6393 5.6073
# 5 6.9900 -6.2494 -18.7958 -0.6393 25.9561 5.3469
# 6 -28.5122 -39.0732 -19.0767 5.6073 5.3469 38.2019
#
#
#
# Elastic Compliance Matrix: (Units=1/GPa)
#
#
# Indices 1 2 3 4 5 6 
#
# 1 0.025581 -0.004481 -0.002576 0.003260 -0.012745 0.014529
# 2 -0.004481 0.038393 -0.001268 -0.029118 0.000685 0.039469
# 3 -0.002576 -0.001268 0.012049 -0.005739 0.008466 0.002455
# 4 0.003260 -0.029118 -0.005739 0.056364 -0.002808 -0.038095
# 5 -0.012745 0.000685 0.008466 -0.002808 0.050501 -0.011241
# 6 0.014529 0.039469 0.002455 -0.038095 -0.011241 0.085781
#
#
# Mechanical properties :
#
#
# Convention : Reuss Voigt Hill
#
# Bulk Modulus (GPa) = 16.84243 50.49762 33.67003
# Shear Modulus (GPa) = 16.38769 31.45533 23.92151
#
# Velocity S-wave (km/s) = 2.82675 3.91629 3.41525
# Velocity P-wave (km/s) = 4.34353 6.71357 5.65412
#
# Compressibility (1/GPa) = 0.05937386
#
# Stress axis : x y z
#
# Youngs Moduli (GPa) = 39.09203 26.04672 82.99634
#
# Poissons Ratio (x) = 0.11671 0.21378
# Poissons Ratio (y) = 0.17516 0.10521
# Poissons Ratio (z) = 0.10069 0.03302
#
# Static dielectric constant tensor:
#      x y z
#    x 1.795040 -0.043680 0.010800 
#    y -0.043680 1.755200 0.015710 
#    z 0.010800 0.015710 1.800740 
# 
# From -- ./inp_files/464873.got.cif
#   From: 2010.05.17/outbox.cif.g08.bks.cpg/sg2_233_cif.got.tgz:464873.got - 2010.06.03 11:33:40.
