data_PCOD9106372
_publ_section_title
;
Structure prediction by ZEFSAII (Michael W. Deem and Ramdas Pophale) SiO2 
 PCOD9106372
Probable space group: P -1
;
_chemical_formula_sum "Si O2"
_cell_formula_units_Z 12
_cell_length_a 8.046382
_cell_length_b 10.334259
_cell_length_c 14.068238
_cell_angle_alpha 27.295264
_cell_angle_beta 112.330608
_cell_angle_gamma 116.066361
_cell_volume 481.729814
_symmetry_space_group_name_H-M "P -1"
_symmetry_group_IT_number 2
_symmetry_cell_setting 'triclinic'
loop_
_space_group_symop_operation_xyz
x,y,z
-x,-y,-z
loop_
_atom_site_type_symbol
_atom_site_label
_atom_site_fract_x
_atom_site_fract_y
_atom_site_fract_z
Si Si1 0.236945 0.733963 0.973182
Si Si2 0.176298 0.167511 0.991477
Si Si3 0.053091 0.124935 0.275497
Si Si4 0.224267 0.793298 0.669366
Si Si5 0.455983 0.904619 0.328522
Si Si6 0.507135 0.668003 0.203200
O O1 0.080724 0.916614 0.818412
O O2 0.410937 0.951989 0.822186
O O3 0.175725 0.450903 0.078706
O O4 0.295238 0.571946 0.182775
O O5 0.261134 0.964509 0.214701
O O6 0.161318 0.451190 0.861128
O O7 0.336696 0.308898 0.857713
O O8 0.000000 0.000000 0.000000
O O9 0.904220 0.120849 0.331529
O O10 0.180166 0.926801 0.471824
O O11 0.434302 0.921985 0.669209
O O12 0.456387 0.568088 0.561596
O O13 0.500000 0.000000 0.000000
#
# Coordination Sequence:
#
# PCOD9106372 Si02
#       6
#     2   2   2   2   2   2
#     4   9  19  37  61  98 123 159 213 256 310 372
#     4  11  27  43  62  96 132 167 210 262 321 378
#     4   9  18  35  66  98 126 162 209 261 315 365
#     4  10  20  39  69  94 131 166 210 264 312 376
#     4  10  22  44  65  92 123 170 215 259 318 373
#     4  11  25  43  67  90 128 170 212 259 321 380
#
# _framework density 24.910229000000001
#
# number of rings (size 3 to 8) (size 9 to 14) (size 15 to 20)
#    0.000    2.000    1.667    0.500    2.333    5.333 
#    9.000    0.000    0.000    0.000    0.000    0.000 
#    0.000    0.000    0.000    0.000    0.000    0.000 
#
# Total GULP energy -66849.398426 kJ/mol
# GULP energy per Si atom -5570.783202 kJ/mol
# Density = 2.485353 g / cm^3
# Si number density = 24.910229 Si / 1000 Ang^3
#
#
#
# Elastic Constant Matrix: (Units=GPa)
#
#
# Indices 1 2 3 4 5 6 
#
# 1 75.5024 29.5386 31.1300 11.6999 -0.6379 9.9478
# 2 29.5386 117.8273 65.5563 21.0606 31.5042 45.3599
# 3 31.1300 65.5563 200.5814 47.0027 13.0574 30.7994
# 4 11.6999 21.0606 47.0027 54.0852 9.2208 10.9425
# 5 -0.6379 31.5042 13.0574 9.2208 31.7817 10.5092
# 6 9.9478 45.3599 30.7994 10.9425 10.5092 34.2386
#
#
#
# Elastic Compliance Matrix: (Units=1/GPa)
#
#
# Indices 1 2 3 4 5 6 
#
# 1 0.015888 -0.005745 -0.000922 -0.001962 0.006110 0.002575
# 2 -0.005745 0.024863 -0.002853 0.001696 -0.016039 -0.024323
# 3 -0.000922 -0.002853 0.007369 -0.005090 0.001752 -0.001492
# 4 -0.001962 0.001696 -0.005090 0.024270 -0.005638 -0.003124
# 5 0.006110 -0.016039 0.001752 -0.005638 0.046620 0.005389
# 6 0.002575 -0.024323 -0.001492 -0.003124 0.005389 0.061368
#
#
# Mechanical properties :
#
#
# Convention : Reuss Voigt Hill
#
# Bulk Modulus (GPa) = 34.38580 71.81788 53.10184
# Shear Modulus (GPa) = 23.91065 41.86684 32.88875
#
# Velocity S-wave (km/s) = 3.10154 4.10409 3.63752
# Velocity P-wave (km/s) = 5.16333 7.16599 6.24545
#
# Compressibility (1/GPa) = 0.02908177
#
# Stress axis : x y z
#
# Youngs Moduli (GPa) = 62.93893 40.21994 135.70465
#
# Poissons Ratio (x) = 0.23104 0.12510
# Poissons Ratio (y) = 0.36155 0.38718
# Poissons Ratio (z) = 0.05802 0.11475
#
# Static dielectric constant tensor:
#      x y z
#    x 1.966250 -0.106310 0.047410 
#    y -0.106310 2.093190 0.079470 
#    z 0.047410 0.079470 1.952300 
# 
# From -- ./inp_files/383225.got.cif
#   From: 2010.05.17/outbox.cif.g08.bks.cpg/sg2_192_cif.got.tgz:383225.got - 2010.06.03 11:33:40.
