data_PCOD9106474
_publ_section_title
;
Structure prediction by ZEFSAII (Michael W. Deem and Ramdas Pophale) SiO2 
 PCOD9106474
Probable space group: P -1
;
_chemical_formula_sum "Si O2"
_cell_formula_units_Z 14
_cell_length_a 10.384352
_cell_length_b 11.966877
_cell_length_c 10.389455
_cell_angle_alpha 71.057682
_cell_angle_beta 136.933563
_cell_angle_gamma 132.917254
_cell_volume 605.838850
_symmetry_space_group_name_H-M "P -1"
_symmetry_group_IT_number 2
_symmetry_cell_setting 'triclinic'
loop_
_space_group_symop_operation_xyz
x,y,z
-x,-y,-z
loop_
_atom_site_type_symbol
_atom_site_label
_atom_site_fract_x
_atom_site_fract_y
_atom_site_fract_z
Si Si1 0.558539 0.948766 0.434403
Si Si2 0.934108 0.722213 0.378525
Si Si3 0.549656 0.469049 0.741742
Si Si4 0.779332 0.380918 0.778489
Si Si5 0.832454 0.475278 0.194244
Si Si6 0.304330 0.168987 0.009672
Si Si7 0.813171 0.822119 0.783705
O O1 0.309436 0.793190 0.235066
O O2 0.678346 0.875522 0.596470
O O3 0.500000 0.000000 0.500000
O O4 0.770670 0.111022 0.447485
O O5 0.743179 0.629844 0.393509
O O6 0.913256 0.596658 0.322857
O O7 0.814807 0.777844 0.184652
O O8 0.558816 0.367771 0.683750
O O9 0.697393 0.492761 0.973261
O O10 0.000000 0.500000 0.000000
O O11 0.703960 0.647791 0.734411
O O12 0.912500 0.468774 0.706633
O O13 0.606185 0.291805 0.147482
O O14 0.263440 0.193109 0.116852
O O15 0.120608 0.976119 0.932599
#
# Coordination Sequence:
#
# PCOD9106474 Si02
#       7
#     2   2   2   2   2   2   2
#     4  11  23  38  56  85 114 147 192 238 281 327
#     4  10  17  33  62  82 115 143 192 231 267 336
#     4  10  19  35  57  88 112 151 187 222 285 336
#     4  10  23  37  59  80 117 151 184 231 289 337
#     4  10  16  34  58  85 115 150 187 225 270 338
#     4   9  17  30  55  91 112 144 189 230 273 325
#     4  10  19  31  57  85 116 146 186 237 273 332
#
# _framework density 23.108456
#
# number of rings (size 3 to 8) (size 9 to 14) (size 15 to 20)
#    0.000    2.000    4.286    0.857    0.000    1.143 
#    0.000    3.571    0.000    3.429    0.000    0.000 
#    0.000    0.000    0.000    0.000    0.000    0.000 
#
# Total GULP energy -78226.082742 kJ/mol
# GULP energy per Si atom -5587.577339 kJ/mol
# Density = 2.305586 g / cm^3
# Si number density = 23.108456 Si / 1000 Ang^3
#
#
#
# Elastic Constant Matrix: (Units=GPa)
#
#
# Indices 1 2 3 4 5 6 
#
# 1 157.9843 54.7023 34.5169 43.3712 22.9637 -7.4904
# 2 54.7023 132.5226 48.4308 27.4312 2.0753 0.2511
# 3 34.5169 48.4308 71.3072 33.0820 1.1615 4.9139
# 4 43.3712 27.4312 33.0820 52.7647 6.5800 0.2910
# 5 22.9637 2.0753 1.1615 6.5800 21.6336 17.6042
# 6 -7.4904 0.2511 4.9139 0.2910 17.6042 34.4450
#
#
#
# Elastic Compliance Matrix: (Units=1/GPa)
#
#
# Indices 1 2 3 4 5 6 
#
# 1 0.014432 -0.003377 -0.003338 -0.004611 -0.028088 0.018034
# 2 -0.003377 0.010954 -0.005766 0.000112 0.004800 -0.002446
# 3 -0.003338 -0.005766 0.026053 -0.012665 0.017196 -0.013082
# 4 -0.004611 0.000112 -0.012665 0.031555 -0.007654 0.004449
# 5 -0.028088 0.004800 0.017196 -0.007654 0.143682 -0.081965
# 6 0.018034 -0.002446 -0.013082 0.004449 -0.081965 0.076690
#
#
# Mechanical properties :
#
#
# Convention : Reuss Voigt Hill
#
# Bulk Modulus (GPa) = 37.77082 70.79046 54.28064
# Shear Modulus (GPa) = 14.82999 36.71295 25.77147
#
# Velocity S-wave (km/s) = 2.53604 3.99020 3.34314
# Velocity P-wave (km/s) = 4.99558 7.20621 6.20021
#
# Compressibility (1/GPa) = 0.02647547
#
# Stress axis : x y z
#
# Youngs Moduli (GPa) = 69.29047 91.29499 38.38282
#
# Poissons Ratio (x) = 0.30831 0.12814
# Poissons Ratio (y) = 0.23400 0.22132
# Poissons Ratio (z) = 0.23132 0.52642
#
# Static dielectric constant tensor:
#      x y z
#    x 1.825840 0.014530 0.052000 
#    y 0.014530 1.858070 -0.016720 
#    z 0.052000 -0.016720 2.065150 
# 
# From -- ./inp_files/419411.got.cif
#   From: 2010.05.17/outbox.cif.g08.bks.cpg/sg2_210_cif.got.tgz:419411.got - 2010.06.03 11:33:40.
