data_PCOD9106388
_publ_section_title
;
Structure prediction by ZEFSAII (Michael W. Deem and Ramdas Pophale) SiO2 
 PCOD9106388
Probable space group: P -1
;
_chemical_formula_sum "Si O2"
_cell_formula_units_Z 12
_cell_length_a 9.292074
_cell_length_b 14.041614
_cell_length_c 11.716432
_cell_angle_alpha 148.516227
_cell_angle_beta 89.974098
_cell_angle_gamma 69.344097
_cell_volume 588.194447
_symmetry_space_group_name_H-M "P -1"
_symmetry_group_IT_number 2
_symmetry_cell_setting 'triclinic'
loop_
_space_group_symop_operation_xyz
x,y,z
-x,-y,-z
loop_
_atom_site_type_symbol
_atom_site_label
_atom_site_fract_x
_atom_site_fract_y
_atom_site_fract_z
Si Si1 0.997240 0.160023 0.257751
Si Si2 0.331329 0.793878 0.328343
Si Si3 0.551778 0.540428 0.665244
Si Si4 0.610788 0.628256 0.340403
Si Si5 0.919242 0.065511 0.724461
Si Si6 0.647528 0.919479 0.815327
O O1 0.775455 0.405745 0.524422
O O2 0.139164 0.202558 0.267067
O O3 0.062316 0.017686 0.232216
O O4 0.000000 0.000000 0.000000
O O5 0.459068 0.815456 0.431810
O O6 0.224571 0.936522 0.355424
O O7 0.500000 0.500000 0.000000
O O8 0.138989 0.887319 0.491984
O O9 0.500000 0.500000 0.500000
O O10 0.502127 0.431205 0.647360
O O11 0.434853 0.824192 0.976115
O O12 0.656888 0.750769 0.551882
O O13 0.808485 0.357235 0.021026
O O14 0.500000 0.000000 0.000000
#
# Coordination Sequence:
#
# PCOD9106388 Si02
#       6
#     2   2   2   2   2   2
#     4  12  23  40  66  94 132 175 209 265 328 384
#     4   9  20  38  70  98 122 172 218 264 322 387
#     4  12  22  42  62  89 135 173 210 267 319 384
#     4  11  21  41  66  94 131 168 217 268 319 379
#     4  10  20  39  69  96 128 170 218 260 327 386
#     4  12  26  40  62  99 133 174 221 261 324 389
#
# _framework density 20.401415
#
# number of rings (size 3 to 8) (size 9 to 14) (size 15 to 20)
#    0.000    1.000    6.667    0.000    0.000    2.000 
#    0.000    0.833    0.000    6.000    0.000    0.000 
#    0.000    0.000    0.000    0.000    0.000    0.000 
#
# Total GULP energy -66939.950020 kJ/mol
# GULP energy per Si atom -5578.329168 kJ/mol
# Density = 2.035498 g / cm^3
# Si number density = 20.401415 Si / 1000 Ang^3
#
#
#
# Elastic Constant Matrix: (Units=GPa)
#
#
# Indices 1 2 3 4 5 6 
#
# 1 138.3225 30.8788 62.8485 -3.5073 -15.2513 -25.5689
# 2 30.8788 104.6651 15.1200 -16.4798 -7.3331 -23.9461
# 3 62.8485 15.1200 108.7748 -3.0978 -21.8057 -10.5599
# 4 -3.5073 -16.4798 -3.0978 34.1107 -8.3966 -2.5953
# 5 -15.2513 -7.3331 -21.8057 -8.3966 44.9901 2.8819
# 6 -25.5689 -23.9461 -10.5599 -2.5953 2.8819 30.2656
#
#
#
# Elastic Compliance Matrix: (Units=1/GPa)
#
#
# Indices 1 2 3 4 5 6 
#
# 1 0.011347 -0.000696 -0.005586 0.001053 0.000767 0.007104
# 2 -0.000696 0.013654 0.000381 0.008117 0.003000 0.010759
# 3 -0.005586 0.000381 0.013441 0.002077 0.005073 -0.000033
# 4 0.001053 0.008117 0.002077 0.036495 0.008836 0.010324
# 5 0.000767 0.003000 0.005073 0.008836 0.026892 0.002989
# 6 0.007104 0.010759 -0.000033 0.010324 0.002989 0.048144
#
#
# Mechanical properties :
#
#
# Convention : Reuss Voigt Hill
#
# Bulk Modulus (GPa) = 37.53713 63.27300 50.40507
# Shear Modulus (GPa) = 29.29872 38.06761 33.68316
#
# Velocity S-wave (km/s) = 3.79372 4.32433 4.06768
# Velocity P-wave (km/s) = 6.13424 7.48428 6.84264
#
# Compressibility (1/GPa) = 0.02664029
#
# Stress axis : x y z
#
# Youngs Moduli (GPa) = 88.12535 73.23757 74.40052
#
# Poissons Ratio (x) = 0.05097 0.41562
# Poissons Ratio (y) = 0.06134 -0.02836
# Poissons Ratio (z) = 0.49229 -0.02792
#
# Static dielectric constant tensor:
#      x y z
#    x 1.762280 -0.022610 -0.058550 
#    y -0.022610 1.686400 -0.004900 
#    z -0.058550 -0.004900 1.784670 
# 
# From -- ./inp_files/264711.got.cif
#   From: 2010.05.17/outbox.cif.g08.bks.cpg/sg2_133_cif.got.tgz:264711.got - 2010.06.03 11:33:40.
