data_PCOD9106303
_publ_section_title
;
Structure prediction by ZEFSAII (Michael W. Deem and Ramdas Pophale) SiO2 
 PCOD9106303
Probable space group: P -1
;
_chemical_formula_sum "Si O2"
_cell_formula_units_Z 16
_cell_length_a 9.167414
_cell_length_b 10.782495
_cell_length_c 11.965514
_cell_angle_alpha 134.727437
_cell_angle_beta 115.942069
_cell_angle_gamma 54.800338
_cell_volume 685.624997
_symmetry_space_group_name_H-M "P -1"
_symmetry_group_IT_number 2
_symmetry_cell_setting 'triclinic'
loop_
_space_group_symop_operation_xyz
x,y,z
-x,-y,-z
loop_
_atom_site_type_symbol
_atom_site_label
_atom_site_fract_x
_atom_site_fract_y
_atom_site_fract_z
Si Si1 0.460142 0.281003 0.141867
Si Si2 0.690438 0.383429 0.430683
Si Si3 0.958540 0.812036 0.875003
Si Si4 0.226420 0.431487 0.600289
Si Si5 0.058152 0.481407 0.135921
Si Si6 0.937831 0.809792 0.479894
Si Si7 0.579635 0.115381 0.522034
Si Si8 0.448195 0.031562 0.192650
O O1 0.633973 0.310412 0.252684
O O2 0.264466 0.452510 0.193482
O O3 0.464255 0.145271 0.161367
O O4 0.475327 0.185184 0.965736
O O5 0.500000 0.500000 0.500000
O O6 0.767014 0.532421 0.506994
O O7 0.859604 0.222928 0.446714
O O8 0.103914 0.630733 0.743849
O O9 0.948960 0.706716 0.923859
O O10 0.760661 0.895422 0.810048
O O11 0.000000 0.000000 0.000000
O O12 0.141628 0.283815 0.510886
O O13 0.438641 0.331701 0.638656
O O14 0.946448 0.675075 0.291110
O O15 0.000000 0.500000 0.000000
O O16 0.791434 0.028289 0.556741
O O17 0.547703 0.068806 0.354472
O O18 0.500000 0.000000 0.500000
#
# Coordination Sequence:
#
# PCOD9106303 Si02
#       8
#     2   2   2   2   2   2   2   2
#     4  10  21  38  63  95 127 176 220 289 338 407
#     4  12  22  38  66  99 131 169 234 285 346 412
#     4  10  22  40  67 103 130 179 237 285 341 419
#     4  10  23  39  67  92 131 178 228 283 340 410
#     4  10  20  39  68  97 140 183 225 282 357 412
#     4  10  22  40  64  98 134 181 227 286 348 413
#     4  10  22  39  63  94 130 179 223 276 345 407
#     4  10  21  39  63  91 132 172 233 277 340 413
#
# _framework density 23.336371
#
# number of rings (size 3 to 8) (size 9 to 14) (size 15 to 20)
#    0.000    1.750    1.250    2.625    7.000    0.000 
#    0.000    6.250    2.750    9.000    0.000    0.000 
#    0.000    0.000    0.000    0.000    0.000    0.000 
#
# Total GULP energy -89257.740971 kJ/mol
# GULP energy per Si atom -5578.608811 kJ/mol
# Density = 2.328326 g / cm^3
# Si number density = 23.336371 Si / 1000 Ang^3
#
#
#
# Elastic Constant Matrix: (Units=GPa)
#
#
# Indices 1 2 3 4 5 6 
#
# 1 115.1014 55.5988 39.4919 -7.6216 -6.6737 -29.3385
# 2 55.5988 131.1759 20.6324 3.9715 -2.3297 -45.7677
# 3 39.4919 20.6324 62.4975 -0.6605 -7.7296 -7.3671
# 4 -7.6216 3.9715 -0.6605 42.4675 -1.6447 -3.4158
# 5 -6.6737 -2.3297 -7.7296 -1.6447 39.8301 -1.5554
# 6 -29.3385 -45.7677 -7.3671 -3.4158 -1.5554 45.2142
#
#
#
# Elastic Compliance Matrix: (Units=1/GPa)
#
#
# Indices 1 2 3 4 5 6 
#
# 1 0.014295 -0.003214 -0.007192 0.003211 0.001145 0.005133
# 2 -0.003214 0.012935 -0.000923 -0.000916 0.000423 0.010803
# 3 -0.007192 -0.000923 0.020915 -0.000950 0.002676 -0.002173
# 4 0.003211 -0.000916 -0.000950 0.024483 0.001424 0.002901
# 5 0.001145 0.000423 0.002676 0.001424 0.026003 0.002609
# 6 0.005133 0.010803 -0.002173 0.002901 0.002609 0.036338
#
#
# Mechanical properties :
#
#
# Convention : Reuss Voigt Hill
#
# Bulk Modulus (GPa) = 39.23518 60.02455 49.62987
# Shear Modulus (GPa) = 30.09826 38.37247 34.23537
#
# Velocity S-wave (km/s) = 3.59522 4.05942 3.83435
# Velocity P-wave (km/s) = 5.83811 6.91008 6.39659
#
# Compressibility (1/GPa) = 0.02548733
#
# Stress axis : x y z
#
# Youngs Moduli (GPa) = 69.95330 77.30783 47.81370
#
# Poissons Ratio (x) = 0.24846 0.34385
# Poissons Ratio (y) = 0.22482 0.04415
# Poissons Ratio (z) = 0.50307 0.07139
#
# Static dielectric constant tensor:
#      x y z
#    x 1.967890 0.052430 -0.029330 
#    y 0.052430 1.972090 0.036870 
#    z -0.029330 0.036870 1.680920 
# 
# From -- ./inp_files/393184.got.cif
#   From: 2010.05.17/outbox.cif.g08.bks.cpg/sg2_197_cif.got.tgz:393184.got - 2010.06.03 11:33:40.
