data_PCOD9106985
_publ_section_title
;
Structure prediction by ZEFSAII (Michael W. Deem and Ramdas Pophale) SiO2 
 PCOD9106985
Probable space group: P -1
;
_chemical_formula_sum "Si O2"
_cell_formula_units_Z 14
_cell_length_a 8.224155
_cell_length_b 13.980999
_cell_length_c 10.266986
_cell_angle_alpha 34.031215
_cell_angle_beta 44.979489
_cell_angle_gamma 54.189562
_cell_volume 466.995251
_symmetry_space_group_name_H-M "P -1"
_symmetry_group_IT_number 2
_symmetry_cell_setting 'triclinic'
loop_
_space_group_symop_operation_xyz
x,y,z
-x,-y,-z
loop_
_atom_site_type_symbol
_atom_site_label
_atom_site_fract_x
_atom_site_fract_y
_atom_site_fract_z
Si Si1 0.866009 0.751201 0.879674
Si Si2 0.687365 0.661079 0.803496
Si Si3 0.984734 0.128388 0.745872
Si Si4 0.000000 0.500000 0.500000
Si Si5 0.500000 0.500000 0.500000
Si Si6 0.803647 0.191981 0.144381
Si Si7 0.484504 0.365911 0.402413
Si Si8 0.509560 0.015668 0.129579
O O1 0.840495 0.686006 0.819812
O O2 0.097745 0.759406 0.822417
O O3 0.737000 0.931642 0.740541
O O4 0.686166 0.648883 0.187962
O O5 0.872876 0.693207 0.544359
O O6 0.469752 0.787618 0.758686
O O7 0.582365 0.475139 0.102961
O O8 0.095647 0.999991 0.720642
O O9 0.000000 0.000000 0.000000
O O10 0.712588 0.153392 0.877058
O O11 0.260408 0.478417 0.436093
O O12 0.081417 0.674126 0.172478
O O13 0.615096 0.383225 0.444514
O O14 0.430312 0.167774 0.636298
O O15 0.500000 0.000000 0.000000
#
# Coordination Sequence:
#
# PCOD9106985 Si02
#       8
#     2   2   2   1   1   2   2   2
#     4  11  22  42  74 104 140 187 235 294 356 419
#     4  10  26  45  70 105 141 179 244 297 342 433
#     4  12  25  46  69 100 141 184 235 296 364 418
#     4  10  16  36  62  98 130 182 228 278 328 426
#     4  10  16  34  62 104 128 180 234 270 338 424
#     4  11  21  42  71 102 139 181 237 286 355 419
#     4  10  20  37  68  95 146 179 235 287 347 418
#     4  12  21  43  69 101 143 186 232 285 358 427
#
# _framework density 29.978891999999998
#
# number of rings (size 3 to 8) (size 9 to 14) (size 15 to 20)
#    0.000    1.143    5.714    1.286    0.000    0.571 
#    2.571    1.429    3.143    0.000    0.000    0.000 
#    0.000    0.000    0.000    0.000    0.000    0.000 
#
# Total GULP energy -77950.366720 kJ/mol
# GULP energy per Si atom -5567.883337 kJ/mol
# Density = 2.991066 g / cm^3
# Si number density = 29.978892 Si / 1000 Ang^3
#
#
#
# Elastic Constant Matrix: (Units=GPa)
#
#
# Indices 1 2 3 4 5 6 
#
# 1 136.5865 29.0285 45.3451 10.3509 10.9115 -22.7275
# 2 29.0285 87.9191 18.6063 -15.1629 -17.1282 -31.2661
# 3 45.3451 18.6063 282.3031 -1.5492 3.7763 -10.6846
# 4 10.3509 -15.1629 -1.5492 52.7076 2.0558 -0.4468
# 5 10.9115 -17.1282 3.7763 2.0558 57.8467 14.3366
# 6 -22.7275 -31.2661 -10.6846 -0.4468 14.3366 63.7575
#
#
#
# Elastic Compliance Matrix: (Units=1/GPa)
#
#
# Indices 1 2 3 4 5 6 
#
# 1 0.009154 -0.003002 -0.001161 -0.002559 -0.003008 0.002255
# 2 -0.003002 0.016193 -0.000379 0.005143 0.003714 0.006008
# 3 -0.001161 -0.000379 0.003760 0.000236 -0.000164 0.000069
# 4 -0.002559 0.005143 0.000236 0.020942 0.000848 0.001605
# 5 -0.003008 0.003714 -0.000164 0.000848 0.019861 -0.003739
# 6 0.002255 0.006008 0.000069 0.001605 -0.003739 0.020298
#
#
# Mechanical properties :
#
#
# Convention : Reuss Voigt Hill
#
# Bulk Modulus (GPa) = 49.94493 76.97429 63.45961
# Shear Modulus (GPa) = 47.18464 62.45095 54.81779
#
# Velocity S-wave (km/s) = 3.97158 4.56912 4.28079
# Velocity P-wave (km/s) = 6.14227 7.31900 6.75630
#
# Compressibility (1/GPa) = 0.02002205
#
# Stress axis : x y z
#
# Youngs Moduli (GPa) = 109.23842 61.75656 265.96702
#
# Poissons Ratio (x) = 0.18541 0.30879
# Poissons Ratio (y) = 0.32796 0.10082
# Poissons Ratio (z) = 0.12683 0.02341
#
# Static dielectric constant tensor:
#      x y z
#    x 2.890420 0.015930 -0.453610 
#    y 0.015930 2.711840 0.849460 
#    z -0.453610 0.849460 2.706010 
# 
# From -- ./inp_files/402594.got.cif
#   From: 2010.05.17/outbox.cif.g08.bks.cpg/sg2_202_cif.got.tgz:402594.got - 2010.06.03 11:33:40.
