data_PCOD9106325
_publ_section_title
;
Structure prediction by ZEFSAII (Michael W. Deem and Ramdas Pophale) SiO2 
 PCOD9106325
Probable space group: P -1
;
_chemical_formula_sum "Si O2"
_cell_formula_units_Z 16
_cell_length_a 26.362423
_cell_length_b 9.092510
_cell_length_c 5.173766
_cell_angle_alpha 68.784038
_cell_angle_beta 110.860483
_cell_angle_gamma 60.654771
_cell_volume 760.208015
_symmetry_space_group_name_H-M "P -1"
_symmetry_group_IT_number 2
_symmetry_cell_setting 'triclinic'
loop_
_space_group_symop_operation_xyz
x,y,z
-x,-y,-z
loop_
_atom_site_type_symbol
_atom_site_label
_atom_site_fract_x
_atom_site_fract_y
_atom_site_fract_z
Si Si1 0.875682 0.651907 0.254538
Si Si2 0.501494 0.685102 0.376766
Si Si3 0.755169 0.633041 0.884885
Si Si4 0.915941 0.744588 0.757276
Si Si5 0.998520 0.856133 0.276293
Si Si6 0.655978 0.817263 0.093580
Si Si7 0.448102 0.245171 0.108879
Si Si8 0.109707 0.858995 0.698754
O O1 0.864875 0.776153 0.412747
O O2 0.957481 0.388337 0.582518
O O3 0.810216 0.657987 0.075907
O O4 0.884377 0.744649 0.965873
O O5 0.500000 0.500000 0.500000
O O6 0.560948 0.619392 0.750630
O O7 0.517841 0.733951 0.094864
O O8 0.417689 0.918484 0.170293
O O9 0.717676 0.740466 0.469557
O O10 0.690443 0.747782 0.913072
O O11 0.807642 0.369534 0.099013
O O12 0.915582 0.934786 0.638122
O O13 0.000000 0.500000 0.000000
O O14 0.059959 0.798466 0.638260
O O15 0.913802 0.025871 0.136279
O O16 0.000000 0.000000 0.000000
O O17 0.625331 0.702054 0.155951
O O18 0.500000 0.000000 0.500000
#
# Coordination Sequence:
#
# PCOD9106325 Si02
#       8
#     2   2   2   2   2   2   2   2
#     4  11  25  40  61  87 123 160 205 258 329 370
#     4  11  22  40  69 106 133 161 210 268 307 357
#     4  11  25  42  61  88 127 175 207 248 311 392
#     4  12  23  41  61  89 115 153 201 277 328 362
#     4  10  21  37  62  84 113 150 211 268 303 357
#     4  11  22  43  66  90 129 171 211 247 310 375
#     4  10  20  39  68  99 130 166 215 260 298 357
#     4  10  24  37  59  88 115 155 211 258 306 368
#
# _framework density 21.046872
#
# number of rings (size 3 to 8) (size 9 to 14) (size 15 to 20)
#    0.000    1.250    1.250    6.000    8.750    0.000 
#    0.000    7.500    0.000    0.000    0.000    0.000 
#    0.000    0.000    0.000    0.000    0.000    0.000 
#
# Total GULP energy -89201.479856 kJ/mol
# GULP energy per Si atom -5575.092491 kJ/mol
# Density = 2.099897 g / cm^3
# Si number density = 21.046872 Si / 1000 Ang^3
#
#
#
# Elastic Constant Matrix: (Units=GPa)
#
#
# Indices 1 2 3 4 5 6 
#
# 1 91.6090 38.9855 20.8234 -5.7717 -27.9867 4.1738
# 2 38.9855 116.8789 34.1192 10.4048 -11.8134 21.0551
# 3 20.8234 34.1192 57.9141 11.0152 -12.7479 0.4833
# 4 -5.7717 10.4048 11.0152 37.7149 1.3470 -1.9720
# 5 -27.9867 -11.8134 -12.7479 1.3470 39.5739 12.1882
# 6 4.1738 21.0551 0.4833 -1.9720 12.1882 41.9054
#
#
#
# Elastic Compliance Matrix: (Units=1/GPa)
#
#
# Indices 1 2 3 4 5 6 
#
# 1 0.016564 -0.003666 -0.002123 0.003644 0.010646 -0.002708
# 2 -0.003666 0.012994 -0.005323 -0.003007 0.001754 -0.006754
# 3 -0.002123 -0.005323 0.023174 -0.005717 0.004224 0.001121
# 4 0.003644 -0.003007 -0.005717 0.029820 -0.002178 0.003251
# 5 0.010646 0.001754 0.004224 -0.002178 0.038884 -0.013403
# 6 -0.002708 -0.006754 0.001121 0.003251 -0.013403 0.031565
#
#
# Mechanical properties :
#
#
# Convention : Reuss Voigt Hill
#
# Bulk Modulus (GPa) = 32.77774 50.47311 41.62543
# Shear Modulus (GPa) = 26.96963 35.33709 31.15336
#
# Velocity S-wave (km/s) = 3.58356 4.10197 3.85150
# Velocity P-wave (km/s) = 5.72102 6.81676 6.29278
#
# Compressibility (1/GPa) = 0.03050851
#
# Stress axis : x y z
#
# Youngs Moduli (GPa) = 60.37207 76.95785 43.15181
#
# Poissons Ratio (x) = 0.28210 0.09163
# Poissons Ratio (y) = 0.22130 0.22969
# Poissons Ratio (z) = 0.12819 0.40963
#
# Static dielectric constant tensor:
#      x y z
#    x 1.810610 0.029790 0.044630 
#    y 0.029790 1.822150 0.091120 
#    z 0.044630 0.091120 1.905730 
# 
# From -- ./inp_files/122405.got.cif
#   From: 2010.05.17/outbox.cif.g08.bks.cpg/sg2_62_cif.got.tgz:122405.got - 2010.06.03 11:33:40.
