data_PCOD9106512
_publ_section_title
;
Structure prediction by ZEFSAII (Michael W. Deem and Ramdas Pophale) SiO2 
 PCOD9106512
Probable space group: P -1
;
_chemical_formula_sum "Si O2"
_cell_formula_units_Z 16
_cell_length_a 12.324315
_cell_length_b 9.542566
_cell_length_c 15.091464
_cell_angle_alpha 135.284873
_cell_angle_beta 29.209454
_cell_angle_gamma 128.209836
_cell_volume 609.385313
_symmetry_space_group_name_H-M "P -1"
_symmetry_group_IT_number 2
_symmetry_cell_setting 'triclinic'
loop_
_space_group_symop_operation_xyz
x,y,z
-x,-y,-z
loop_
_atom_site_type_symbol
_atom_site_label
_atom_site_fract_x
_atom_site_fract_y
_atom_site_fract_z
Si Si1 0.989340 0.599671 0.702154
Si Si2 0.015207 0.821663 0.530704
Si Si3 0.451628 0.805758 0.502711
Si Si4 0.280930 0.431643 0.676180
Si Si5 0.689203 0.108821 0.971939
Si Si6 0.685903 0.896140 0.632713
Si Si7 0.237379 0.097145 0.901327
Si Si8 0.845175 0.527206 0.968854
O O1 0.972416 0.412675 0.565608
O O2 0.235478 0.692171 0.569878
O O3 0.948071 0.500923 0.784057
O O4 0.811570 0.781801 0.918741
O O5 0.843563 0.860380 0.589516
O O6 0.905156 0.962752 0.748138
O O7 0.255538 0.889743 0.354128
O O8 0.706195 0.725450 0.129989
O O9 0.500000 0.000000 0.500000
O O10 0.395941 0.910919 0.685766
O O11 0.500000 0.500000 0.500000
O O12 0.219590 0.246411 0.574733
O O13 0.066362 0.571478 0.889235
O O14 0.356013 0.351595 0.681953
O O15 0.737796 0.323303 0.988734
O O16 0.562375 0.138053 0.169168
O O17 0.500000 0.000000 0.000000
O O18 0.000000 0.000000 0.000000
#
# Coordination Sequence:
#
# PCOD9106512 Si02
#       8
#     2   2   2   2   2   2   2   2
#     4   9  17  35  61  81 114 162 203 243 313 358
#     4  10  16  34  58  87 125 156 198 265 306 361
#     4  11  23  38  58  90 123 164 205 253 315 380
#     4  12  20  38  63  89 126 163 203 263 313 361
#     4  10  20  30  54  97 128 152 199 256 314 367
#     4  10  19  32  55  86 127 160 191 251 325 350
#     4   8  17  36  54  77 116 156 201 237 299 376
#     4  10  18  35  59  88 120 153 210 250 303 358
#
# _framework density 26.255966000000001
#
# number of rings (size 3 to 8) (size 9 to 14) (size 15 to 20)
#    0.750    1.250    3.750    1.500    0.000    3.000 
#    0.000    6.250    0.000    1.500    0.000    0.000 
#    0.000    0.000    0.000    0.000    0.000    0.000 
#
# Total GULP energy -89241.083194 kJ/mol
# GULP energy per Si atom -5577.567700 kJ/mol
# Density = 2.619621 g / cm^3
# Si number density = 26.255966 Si / 1000 Ang^3
#
#
#
# Elastic Constant Matrix: (Units=GPa)
#
#
# Indices 1 2 3 4 5 6 
#
# 1 39.4819 6.9989 -4.6719 -14.9583 1.3558 -21.7285
# 2 6.9989 180.7869 50.4095 -20.2265 6.2285 -13.9359
# 3 -4.6719 50.4095 99.6259 -4.3911 -12.9549 -11.5459
# 4 -14.9583 -20.2265 -4.3911 51.5400 -9.6178 -3.6266
# 5 1.3558 6.2285 -12.9549 -9.6178 40.7792 -5.0690
# 6 -21.7285 -13.9359 -11.5459 -3.6266 -5.0690 28.4536
#
#
#
# Elastic Compliance Matrix: (Units=1/GPa)
#
#
# Indices 1 2 3 4 5 6 
#
# 1 0.083699 0.001557 0.016623 0.035767 0.020597 0.079652
# 2 0.001557 0.006957 -0.003018 0.003006 -0.000918 0.003591
# 3 0.016623 -0.003018 0.016349 0.008279 0.009618 0.020619
# 4 0.035767 0.003006 0.008279 0.037183 0.014661 0.039496
# 5 0.020597 -0.000918 0.009618 0.014661 0.033857 0.027082
# 6 0.079652 0.003591 0.020619 0.039496 0.027082 0.115956
#
#
# Mechanical properties :
#
#
# Convention : Reuss Voigt Hill
#
# Bulk Modulus (GPa) = 7.28176 47.26307 27.27241
# Shear Modulus (GPa) = 16.15746 41.96510 29.06128
#
# Velocity S-wave (km/s) = 2.48338 4.00222 3.33054
# Velocity P-wave (km/s) = 3.31697 6.27670 5.01993
#
# Compressibility (1/GPa) = 0.13732938
#
# Stress axis : x y z
#
# Youngs Moduli (GPa) = 11.94760 143.73074 61.16470
#
# Poissons Ratio (x) = -0.22372 -1.01676
# Poissons Ratio (y) = -0.01860 0.18460
# Poissons Ratio (z) = -0.19861 0.43378
#
# Static dielectric constant tensor:
#      x y z
#    x 2.058630 0.024680 0.010600 
#    y 0.024680 2.077750 0.013900 
#    z 0.010600 0.013900 2.123220 
# 
# From -- ./inp_files/601575.got.cif
#   From: 2010.05.17/outbox.cif.g08.bks.cpg/sg2_301_cif.got.tgz:601575.got - 2010.06.03 11:33:40.
