data_PCOD9106408
_publ_section_title
;
Structure prediction by ZEFSAII (Michael W. Deem and Ramdas Pophale) SiO2 
 PCOD9106408
Probable space group: P -1
;
_chemical_formula_sum "Si O2"
_cell_formula_units_Z 16
_cell_length_a 11.035399
_cell_length_b 12.457321
_cell_length_c 5.139975
_cell_angle_alpha 63.519380
_cell_angle_beta 81.133841
_cell_angle_gamma 77.960566
_cell_volume 617.046247
_symmetry_space_group_name_H-M "P -1"
_symmetry_group_IT_number 2
_symmetry_cell_setting 'triclinic'
loop_
_space_group_symop_operation_xyz
x,y,z
-x,-y,-z
loop_
_atom_site_type_symbol
_atom_site_label
_atom_site_fract_x
_atom_site_fract_y
_atom_site_fract_z
Si Si1 0.297207 0.937839 0.679329
Si Si2 0.063419 0.361433 0.103412
Si Si3 0.012579 0.797139 0.331798
Si Si4 0.820697 0.308054 0.990451
Si Si5 0.520265 0.777015 0.546702
Si Si6 0.391269 0.555805 0.784030
Si Si7 0.663541 0.678474 0.133204
Si Si8 0.840441 0.987556 0.841787
O O1 0.242026 0.811322 0.835616
O O2 0.432606 0.896880 0.551840
O O3 0.268211 0.981972 0.936045
O O4 0.217846 0.028258 0.403233
O O5 0.085849 0.283311 0.441380
O O6 0.189043 0.343354 0.921813
O O7 0.949287 0.300174 0.104940
O O8 0.000000 0.500000 0.000000
O O9 0.936808 0.878983 0.043796
O O10 0.130225 0.695614 0.315778
O O11 0.080764 0.900719 0.330250
O O12 0.729995 0.419386 0.019639
O O13 0.427121 0.686703 0.563249
O O14 0.597288 0.725041 0.832819
O O15 0.613390 0.770219 0.280754
O O16 0.500000 0.500000 0.000000
O O17 0.373397 0.457604 0.677759
#
# Coordination Sequence:
#
# PCOD9106408 Si02
#       8
#     2   2   2   2   2   2   2   2
#     4  10  20  39  69  99 125 156 211 278 331 366
#     4  12  25  40  60  90 138 175 213 253 313 399
#     4  10  24  38  63  93 133 167 212 265 322 383
#     4  10  21  39  60  93 129 169 210 260 324 379
#     4  10  22  39  63  89 124 161 217 268 311 368
#     4   9  19  38  59  87 122 164 217 265 308 365
#     4  11  23  39  59  88 124 176 211 254 312 374
#     4  10  21  39  69  99 126 161 212 275 327 372
#
# _framework density 25.929984999999999
#
# number of rings (size 3 to 8) (size 9 to 14) (size 15 to 20)
#    0.000    1.750    2.500    1.125    3.500    5.000 
#    0.000    0.000    0.000    4.500    0.000    0.000 
#    0.000    0.000    0.000    0.000    0.000    0.000 
#
# Total GULP energy -89391.475943 kJ/mol
# GULP energy per Si atom -5586.967246 kJ/mol
# Density = 2.587097 g / cm^3
# Si number density = 25.929985 Si / 1000 Ang^3
#
#
#
# Elastic Constant Matrix: (Units=GPa)
#
#
# Indices 1 2 3 4 5 6 
#
# 1 69.1344 17.7465 34.3144 12.1543 -16.8416 -17.2697
# 2 17.7465 90.3255 47.9776 17.2456 -25.3017 -6.9722
# 3 34.3144 47.9776 110.5926 15.4795 -11.9036 2.5554
# 4 12.1543 17.2456 15.4795 33.2726 -10.5866 -11.8327
# 5 -16.8416 -25.3017 -11.9036 -10.5866 35.1844 8.5394
# 6 -17.2697 -6.9722 2.5554 -11.8327 8.5394 41.4064
#
#
#
# Elastic Compliance Matrix: (Units=1/GPa)
#
#
# Indices 1 2 3 4 5 6 
#
# 1 0.021164 0.002263 -0.006867 -0.000543 0.007339 0.007964
# 2 0.002263 0.017920 -0.006961 -0.003095 0.010351 0.001372
# 3 -0.006867 -0.006961 0.014462 -0.003497 -0.003172 -0.005274
# 4 -0.000543 -0.003095 -0.003497 0.038611 0.005684 0.009330
# 5 0.007339 0.010351 -0.003172 0.005684 0.040431 -0.001714
# 6 0.007964 0.001372 -0.005274 0.009330 -0.001714 0.031048
#
#
# Mechanical properties :
#
#
# Convention : Reuss Voigt Hill
#
# Bulk Modulus (GPa) = 32.87498 52.23661 42.55579
# Shear Modulus (GPa) = 25.39294 33.30696 29.34995
#
# Velocity S-wave (km/s) = 3.13275 3.58787 3.36801
# Velocity P-wave (km/s) = 5.07852 6.11169 5.61891
#
# Compressibility (1/GPa) = 0.03041827
#
# Stress axis : x y z
#
# Youngs Moduli (GPa) = 47.24917 55.80377 69.14453
#
# Poissons Ratio (x) = -0.12630 0.47480
# Poissons Ratio (y) = -0.10694 0.48129
# Poissons Ratio (z) = 0.32445 0.38843
#
# Static dielectric constant tensor:
#      x y z
#    x 1.907490 -0.053100 -0.391590 
#    y -0.053100 2.005020 -0.169500 
#    z -0.391590 -0.169500 1.220170 
# 
# From -- ./inp_files/77099.got.cif
#   From: 2010.05.17/outbox.cif.g08.bks.cpg/sg2_39_cif.got.tgz:77099.got - 2010.06.03 11:33:40.
