data_PCOD9106496
_publ_section_title
;
Structure prediction by ZEFSAII (Michael W. Deem and Ramdas Pophale) SiO2 
 PCOD9106496
Probable space group: P -1
;
_chemical_formula_sum "Si O2"
_cell_formula_units_Z 14
_cell_length_a 7.644238
_cell_length_b 17.683439
_cell_length_c 19.944458
_cell_angle_alpha 160.867978
_cell_angle_beta 39.538038
_cell_angle_gamma 132.554100
_cell_volume 544.524686
_symmetry_space_group_name_H-M "P -1"
_symmetry_group_IT_number 2
_symmetry_cell_setting 'triclinic'
loop_
_space_group_symop_operation_xyz
x,y,z
-x,-y,-z
loop_
_atom_site_type_symbol
_atom_site_label
_atom_site_fract_x
_atom_site_fract_y
_atom_site_fract_z
Si Si1 0.364347 0.821618 0.081741
Si Si2 0.321816 0.573178 0.422834
Si Si3 0.478972 0.827487 0.468522
Si Si4 0.308847 0.269494 0.288421
Si Si5 0.098762 0.735357 0.219079
Si Si6 0.867430 0.657258 0.011833
Si Si7 0.929335 0.668953 0.444135
O O1 0.329097 0.738601 0.097379
O O2 0.283023 0.104195 0.338434
O O3 0.647053 0.664781 0.832478
O O4 0.123652 0.746355 0.044703
O O5 0.477036 0.734959 0.468285
O O6 0.418830 0.461693 0.373012
O O7 0.997932 0.721591 0.646165
O O8 0.799453 0.719888 0.259497
O O9 0.222150 0.744138 0.439402
O O10 0.391475 0.111285 0.724237
O O11 0.228927 0.351777 0.456760
O O12 0.500000 0.000000 0.000000
O O13 0.186851 0.547564 0.095261
O O14 0.000000 0.000000 0.500000
O O15 0.971628 0.547603 0.817241
#
# Coordination Sequence:
#
# PCOD9106496 Si02
#       7
#     2   2   2   2   2   2   2
#     4  11  22  43  67  94 138 176 220 278 327 393
#     4  10  21  40  69  97 131 175 220 271 339 393
#     4  10  25  44  67  96 142 176 223 273 335 390
#     4  10  20  39  71 101 126 173 225 273 337 397
#     4  12  25  44  68 100 134 182 226 270 332 399
#     4  11  24  45  64  96 138 176 227 272 325 399
#     4  10  22  44  69  99 135 178 222 279 334 392
#
# _framework density 25.710498000000001
#
# number of rings (size 3 to 8) (size 9 to 14) (size 15 to 20)
#    0.000    1.429    4.286    0.429    0.000    5.143 
#    2.571    1.429    0.000    0.000    0.000    0.000 
#    0.000    0.000    0.000    0.000    0.000    0.000 
#
# Total GULP energy -78433.601663 kJ/mol
# GULP energy per Si atom -5602.400119 kJ/mol
# Density = 2.565198 g / cm^3
# Si number density = 25.710498 Si / 1000 Ang^3
#
#
#
# Elastic Constant Matrix: (Units=GPa)
#
#
# Indices 1 2 3 4 5 6 
#
# 1 83.1971 24.6474 48.5199 -9.1176 -3.8377 -14.0122
# 2 24.6474 117.5257 55.8503 -12.9856 -12.9163 -28.3724
# 3 48.5199 55.8503 187.4049 -2.7587 -40.1483 -23.8034
# 4 -9.1176 -12.9856 -2.7587 53.4164 -8.1748 0.3603
# 5 -3.8377 -12.9163 -40.1483 -8.1748 55.3227 -2.3498
# 6 -14.0122 -28.3724 -23.8034 0.3603 -2.3498 40.2162
#
#
#
# Elastic Compliance Matrix: (Units=1/GPa)
#
#
# Indices 1 2 3 4 5 6 
#
# 1 0.014896 -0.000769 -0.003580 0.001947 -0.001353 0.002432
# 2 -0.000769 0.011839 -0.001964 0.002906 0.002012 0.007013
# 3 -0.003580 -0.001964 0.008364 0.000167 0.005500 0.002637
# 4 0.001947 0.002906 0.000167 0.020371 0.004068 0.002883
# 5 -0.001353 0.002012 0.005500 0.004068 0.023279 0.005527
# 6 0.002432 0.007013 0.002637 0.002883 0.005527 0.032519
#
#
# Mechanical properties :
#
#
# Convention : Reuss Voigt Hill
#
# Bulk Modulus (GPa) = 44.49968 71.79588 58.14778
# Shear Modulus (GPa) = 38.05627 47.06509 42.56068
#
# Velocity S-wave (km/s) = 3.85149 4.28317 4.07305
# Velocity P-wave (km/s) = 6.09296 7.24196 6.69217
#
# Compressibility (1/GPa) = 0.02247207
#
# Stress axis : x y z
#
# Youngs Moduli (GPa) = 67.13336 84.46698 119.56218
#
# Poissons Ratio (x) = 0.06497 0.42798
# Poissons Ratio (y) = 0.05164 0.23487
# Poissons Ratio (z) = 0.24031 0.16593
#
# Static dielectric constant tensor:
#      x y z
#    x 2.112210 0.066940 0.009320 
#    y 0.066940 2.050690 0.016430 
#    z 0.009320 0.016430 2.002130 
# 
# From -- ./inp_files/504756.got.cif
#   From: 2010.05.17/outbox.cif.g08.bks.cpg/sg2_253_cif.got.tgz:504756.got - 2010.06.03 11:33:40.
