data_PCOD9106817
_publ_section_title
;
Structure prediction by ZEFSAII (Michael W. Deem and Ramdas Pophale) SiO2 
 PCOD9106817
Probable space group: P -1
;
_chemical_formula_sum "Si O2"
_cell_formula_units_Z 16
_cell_length_a 7.821955
_cell_length_b 10.352036
_cell_length_c 15.493614
_cell_angle_alpha 116.137362
_cell_angle_beta 95.389186
_cell_angle_gamma 43.317668
_cell_volume 718.480523
_symmetry_space_group_name_H-M "P -1"
_symmetry_group_IT_number 2
_symmetry_cell_setting 'triclinic'
loop_
_space_group_symop_operation_xyz
x,y,z
-x,-y,-z
loop_
_atom_site_type_symbol
_atom_site_label
_atom_site_fract_x
_atom_site_fract_y
_atom_site_fract_z
Si Si1 0.749009 0.761888 0.546015
Si Si2 0.327292 0.941984 0.048044
Si Si3 0.417113 0.706068 0.241217
Si Si4 0.581313 0.896013 0.221424
Si Si5 0.494044 0.660220 0.431716
Si Si6 0.188674 0.709819 0.978604
Si Si7 0.859993 0.472604 0.924325
Si Si8 0.922795 0.176734 0.400822
O O1 0.582459 0.770276 0.475684
O O2 0.000000 0.500000 0.500000
O O3 0.870453 0.839802 0.552789
O O4 0.580659 0.891581 0.663662
O O5 0.429174 0.966918 0.143184
O O6 0.196875 0.872990 0.050221
O O7 0.599774 0.718838 0.945976
O O8 0.095296 0.152160 0.037948
O O9 0.569665 0.749984 0.226615
O O10 0.438210 0.664884 0.331477
O O11 0.576761 0.478425 0.133399
O O12 0.104331 0.950016 0.287359
O O13 0.892206 0.739154 0.182986
O O14 0.725789 0.401112 0.399305
O O15 0.248741 0.788714 0.522938
O O16 0.226841 0.592113 0.030851
O O17 0.000000 0.500000 0.000000
#
# Coordination Sequence:
#
# PCOD9106817 Si02
#       8
#     2   2   2   2   2   2   2   2
#     4   9  20  39  62  92 117 162 199 248 306 366
#     4  10  23  41  59  87 127 160 207 259 294 380
#     4  11  22  36  63  91 117 165 198 249 308 369
#     4  10  22  40  62  90 123 160 203 248 321 353
#     4  10  21  40  63  86 129 159 203 254 309 361
#     4  11  23  39  63  91 120 167 208 244 320 358
#     4  10  20  40  61  89 125 157 203 262 301 370
#     4   9  21  40  60  89 122 160 206 256 299 367
#
# _framework density 22.269217999999999
#
# number of rings (size 3 to 8) (size 9 to 14) (size 15 to 20)
#    0.000    2.000    2.500    0.750    5.250    5.000 
#    2.250    5.000    0.000    0.000    0.000    0.000 
#    0.000    0.000    0.000    0.000    0.000    0.000 
#
# Total GULP energy -89298.383674 kJ/mol
# GULP energy per Si atom -5581.148980 kJ/mol
# Density = 2.221853 g / cm^3
# Si number density = 22.269218 Si / 1000 Ang^3
#
#
#
# Elastic Constant Matrix: (Units=GPa)
#
#
# Indices 1 2 3 4 5 6 
#
# 1 50.6613 4.7150 1.5505 4.6898 -3.2278 -8.5422
# 2 4.7150 116.5354 44.3433 15.0483 0.0794 -28.4482
# 3 1.5505 44.3433 94.0088 29.8994 -8.4007 -18.7574
# 4 4.6898 15.0483 29.8994 31.8618 -0.3815 -8.6971
# 5 -3.2278 0.0794 -8.4007 -0.3815 29.9768 5.5370
# 6 -8.5422 -28.4482 -18.7574 -8.6971 5.5370 29.0401
#
#
#
# Elastic Compliance Matrix: (Units=1/GPa)
#
#
# Indices 1 2 3 4 5 6 
#
# 1 0.021165 0.000445 0.001967 -0.003342 0.001561 0.006634
# 2 0.000445 0.012740 -0.004504 0.001002 -0.003195 0.010612
# 3 0.001967 -0.004504 0.018323 -0.014549 0.004665 0.002755
# 4 -0.003342 0.001002 -0.014549 0.046486 -0.004855 0.005449
# 5 0.001561 -0.003195 0.004665 -0.004855 0.036264 -0.008026
# 6 0.006634 0.010612 0.002755 0.005449 -0.008026 0.051724
#
#
# Mechanical properties :
#
#
# Convention : Reuss Voigt Hill
#
# Bulk Modulus (GPa) = 20.81399 40.26925 30.54162
# Shear Modulus (GPa) = 24.16633 32.21550 28.19091
#
# Velocity S-wave (km/s) = 3.29780 3.80760 3.56183
# Velocity P-wave (km/s) = 4.88543 6.11985 5.53715
#
# Compressibility (1/GPa) = 0.04804460
#
# Stress axis : x y z
#
# Youngs Moduli (GPa) = 47.24855 78.49283 54.57598
#
# Poissons Ratio (x) = -0.03493 -0.10735
# Poissons Ratio (y) = -0.02103 0.24579
# Poissons Ratio (z) = -0.09294 0.35350
#
# Static dielectric constant tensor:
#      x y z
#    x 1.918350 -0.031240 0.031820 
#    y -0.031240 1.854820 0.035490 
#    z 0.031820 0.035490 1.838180 
# 
# From -- ./inp_files/500567.got.cif
#   From: 2010.05.17/outbox.cif.g08.bks.cpg/sg2_251_cif.got.tgz:500567.got - 2010.06.03 11:33:40.
