data_PCOD9106646
_publ_section_title
;
Structure prediction by ZEFSAII (Michael W. Deem and Ramdas Pophale) SiO2 
 PCOD9106646
Probable space group: P -1
;
_chemical_formula_sum "Si O2"
_cell_formula_units_Z 14
_cell_length_a 12.799798
_cell_length_b 17.635940
_cell_length_c 8.828919
_cell_angle_alpha 139.921664
_cell_angle_beta 118.273339
_cell_angle_gamma 33.158593
_cell_volume 618.021827
_symmetry_space_group_name_H-M "P -1"
_symmetry_group_IT_number 2
_symmetry_cell_setting 'triclinic'
loop_
_space_group_symop_operation_xyz
x,y,z
-x,-y,-z
loop_
_atom_site_type_symbol
_atom_site_label
_atom_site_fract_x
_atom_site_fract_y
_atom_site_fract_z
Si Si1 0.438671 0.151459 0.408191
Si Si2 0.870955 0.222979 0.303813
Si Si3 0.453141 0.654713 0.536630
Si Si4 0.752597 0.211130 0.709876
Si Si5 0.698900 0.974737 0.999870
Si Si6 0.173498 0.075999 0.509144
Si Si7 0.872376 0.367422 0.040468
O O1 0.562127 0.066497 0.201643
O O2 0.618669 0.015886 0.456685
O O3 0.263066 0.400577 0.687351
O O4 0.331132 0.113048 0.260928
O O5 0.702962 0.414975 0.361612
O O6 0.703167 0.316700 0.461070
O O7 0.037739 0.178833 0.419455
O O8 0.000000 0.000000 0.000000
O O9 0.379586 0.730063 0.430157
O O10 0.393332 0.829160 0.837520
O O11 0.743031 0.128145 0.714401
O O12 0.003500 0.249995 0.792179
O O13 0.000000 0.000000 0.500000
O O14 0.944461 0.788326 0.941001
O O15 0.723688 0.374071 0.957643
#
# Coordination Sequence:
#
# PCOD9106646 Si02
#       7
#     2   2   2   2   2   2   2
#     4  10  21  32  60  85 116 149 188 230 281 336
#     4  11  25  38  58  85 115 154 189 229 289 346
#     4  11  21  40  58  81 122 149 179 243 287 327
#     4  10  16  34  59  85 110 143 178 241 292 326
#     4  10  20  38  52  88 119 147 186 234 278 336
#     4  10  20  38  53  86 118 141 192 239 279 334
#     4  10  18  32  57  82 114 147 183 232 287 328
#
# _framework density 22.652922
#
# number of rings (size 3 to 8) (size 9 to 14) (size 15 to 20)
#    0.000    1.714    7.143    0.429    2.000    2.857 
#    0.000    0.714    0.000    1.714    0.000    0.000 
#    0.000    0.000    0.000    0.000    0.000    0.000 
#
# Total GULP energy -78260.338866 kJ/mol
# GULP energy per Si atom -5590.024205 kJ/mol
# Density = 2.260136 g / cm^3
# Si number density = 22.652922 Si / 1000 Ang^3
#
#
#
# Elastic Constant Matrix: (Units=GPa)
#
#
# Indices 1 2 3 4 5 6 
#
# 1 33.5130 5.4063 14.4394 -5.3777 10.6395 -12.8902
# 2 5.4063 163.6671 65.8010 -6.4291 18.1395 -11.7222
# 3 14.4394 65.8010 154.7646 1.6797 25.7184 -23.3677
# 4 -5.3777 -6.4291 1.6797 35.9213 -12.3648 10.1926
# 5 10.6395 18.1395 25.7184 -12.3648 39.1347 -7.5909
# 6 -12.8902 -11.7222 -23.3677 10.1926 -7.5909 18.8108
#
#
#
# Elastic Compliance Matrix: (Units=1/GPa)
#
#
# Indices 1 2 3 4 5 6 
#
# 1 0.043091 0.000834 0.002014 -0.005673 -0.009013 0.031987
# 2 0.000834 0.007505 -0.002993 0.001026 -0.001329 0.000438
# 3 0.002014 -0.002993 0.010673 -0.006651 -0.005532 0.014145
# 4 -0.005673 0.001026 -0.006651 0.039749 0.012570 -0.027976
# 5 -0.009013 -0.001329 -0.005532 0.012570 0.034949 -0.006585
# 6 0.031987 0.000438 0.014145 -0.027976 -0.006585 0.105427
#
#
# Mechanical properties :
#
#
# Convention : Reuss Voigt Hill
#
# Bulk Modulus (GPa) = 16.39885 58.13755 37.26820
# Shear Modulus (GPa) = 19.08324 36.52656 27.80490
#
# Velocity S-wave (km/s) = 2.90559 4.01988 3.50727
# Velocity P-wave (km/s) = 4.30250 6.87504 5.73488
#
# Compressibility (1/GPa) = 0.06097987
#
# Stress axis : x y z
#
# Youngs Moduli (GPa) = 23.20654 133.25193 93.69247
#
# Poissons Ratio (x) = -0.11113 -0.18870
# Poissons Ratio (y) = -0.01935 0.28038
# Poissons Ratio (z) = -0.04674 0.39877
#
# Static dielectric constant tensor:
#      x y z
#    x 1.888860 0.015980 -0.024690 
#    y 0.015980 1.843150 0.010410 
#    z -0.024690 0.010410 1.877730 
# 
# From -- ./inp_files/467394.got.cif
#   From: 2010.05.17/outbox.cif.g08.bks.cpg/sg2_234_cif.got.tgz:467394.got - 2010.06.03 11:33:40.
