data_PCOD9106054
_publ_section_title
;
Structure prediction by ZEFSAII (Michael W. Deem and Ramdas Pophale) SiO2 
 PCOD9106054
Probable space group: P -1
;
_chemical_formula_sum "Si O2"
_cell_formula_units_Z 16
_cell_length_a 10.964619
_cell_length_b 14.258155
_cell_length_c 19.876513
_cell_angle_alpha 34.345987
_cell_angle_beta 32.619915
_cell_angle_gamma 28.597233
_cell_volume 755.787670
_symmetry_space_group_name_H-M "P -1"
_symmetry_group_IT_number 2
_symmetry_cell_setting 'triclinic'
loop_
_space_group_symop_operation_xyz
x,y,z
-x,-y,-z
loop_
_atom_site_type_symbol
_atom_site_label
_atom_site_fract_x
_atom_site_fract_y
_atom_site_fract_z
Si Si1 0.550334 0.767247 0.372396
Si Si2 0.955940 0.366587 0.687803
Si Si3 0.250022 0.713140 0.655320
Si Si4 0.430820 0.199891 0.451670
Si Si5 0.739384 0.093950 0.966762
Si Si6 0.847215 0.685013 0.152602
Si Si7 0.729092 0.786051 0.784653
Si Si8 0.293575 0.354943 0.907564
O O1 0.386447 0.694945 0.530142
O O2 0.589236 0.752385 0.282883
O O3 0.865524 0.637368 0.331514
O O4 0.392755 0.008376 0.323516
O O5 0.685790 0.601772 0.659733
O O6 0.889330 0.203980 0.828015
O O7 0.172880 0.281637 0.574715
O O8 0.308654 0.841848 0.600764
O O9 0.393593 0.494387 0.755519
O O10 0.936621 0.788125 0.740337
O O11 0.500000 0.000000 0.500000
O O12 0.533154 0.171893 0.951501
O O13 0.530866 0.181414 0.075332
O O14 0.921538 0.845264 0.035157
O O15 0.767612 0.705928 0.098676
O O16 0.086686 0.441410 0.197825
O O17 0.000000 0.500000 0.000000
#
# Coordination Sequence:
#
# PCOD9106054 Si02
#       8
#     2   2   2   2   2   2   2   2
#     4  10  23  42  60  88 128 166 209 245 304 370
#     4  10  23  41  61  88 128 164 203 256 301 365
#     4  10  20  39  67  89 124 162 198 263 310 354
#     4  10  22  41  62  91 120 166 211 249 306 361
#     4  11  21  40  63  91 125 158 205 257 310 362
#     4  10  23  38  62  92 120 165 207 246 311 369
#     4  10  22  40  61  91 126 160 200 258 306 361
#     4  11  20  38  64  92 128 155 199 265 313 356
#
# _framework density 21.169967
#
# number of rings (size 3 to 8) (size 9 to 14) (size 15 to 20)
#    0.000    1.750    3.750    0.750    0.000    8.000 
#    4.500    1.250    0.000    0.000    0.000    0.000 
#    0.000    0.000    0.000    0.000    0.000    0.000 
#
# Total GULP energy -89259.726702 kJ/mol
# GULP energy per Si atom -5578.732919 kJ/mol
# Density = 2.112178 g / cm^3
# Si number density = 21.169967 Si / 1000 Ang^3
#
#
#
# Elastic Constant Matrix: (Units=GPa)
#
#
# Indices 1 2 3 4 5 6 
#
# 1 29.9517 9.4498 3.0136 5.9202 0.7725 6.3761
# 2 9.4498 87.2205 27.5937 -20.7410 6.1181 15.4278
# 3 3.0136 27.5937 123.3721 -15.8027 0.9250 11.1634
# 4 5.9202 -20.7410 -15.8027 23.2584 -2.0180 0.3574
# 5 0.7725 6.1181 0.9250 -2.0180 36.3122 -3.7507
# 6 6.3761 15.4278 11.1634 0.3574 -3.7507 32.3826
#
#
#
# Elastic Compliance Matrix: (Units=1/GPa)
#
#
# Indices 1 2 3 4 5 6 
#
# 1 0.040205 -0.007428 -0.001233 -0.017720 -0.000956 -0.003867
# 2 -0.007428 0.018192 -0.000981 0.017328 -0.002680 -0.007368
# 3 -0.001233 -0.000981 0.009333 0.005821 0.000012 -0.002570
# 4 -0.017720 0.017328 0.005821 0.067051 0.000262 -0.007483
# 5 -0.000956 -0.002680 0.000012 0.000262 0.028517 0.004761
# 6 -0.003867 -0.007368 -0.002570 -0.007483 0.004761 0.036673
#
#
# Mechanical properties :
#
#
# Convention : Reuss Voigt Hill
#
# Bulk Modulus (GPa) = 20.64188 35.62871 28.13530
# Shear Modulus (GPa) = 21.23994 31.75646 26.49820
#
# Velocity S-wave (km/s) = 3.17094 3.87728 3.54176
# Velocity P-wave (km/s) = 4.81437 6.07542 5.48128
#
# Compressibility (1/GPa) = 0.04844521
#
# Stress axis : x y z
#
# Youngs Moduli (GPa) = 24.87234 54.96812 107.14459
#
# Poissons Ratio (x) = 0.40833 0.13213
# Poissons Ratio (y) = 0.18476 0.10512
# Poissons Ratio (z) = 0.03067 0.05393
#
# Static dielectric constant tensor:
#      x y z
#    x 1.809880 -0.025500 0.027780 
#    y -0.025500 1.761470 -0.027250 
#    z 0.027780 -0.027250 1.764470 
# 
# From -- ./inp_files/471061.got.cif
#   From: 2010.05.17/outbox.cif.g08.bks.cpg/sg2_236_cif.got.tgz:471061.got - 2010.06.03 11:33:40.
