data_PCOD9106610
_publ_section_title
;
Structure prediction by ZEFSAII (Michael W. Deem and Ramdas Pophale) SiO2 
 PCOD9106610
Probable space group: P -1
;
_chemical_formula_sum "Si O2"
_cell_formula_units_Z 16
_cell_length_a 8.609486
_cell_length_b 14.031303
_cell_length_c 9.192072
_cell_angle_alpha 137.768935
_cell_angle_beta 66.371614
_cell_angle_gamma 104.591483
_cell_volume 681.954544
_symmetry_space_group_name_H-M "P -1"
_symmetry_group_IT_number 2
_symmetry_cell_setting 'triclinic'
loop_
_space_group_symop_operation_xyz
x,y,z
-x,-y,-z
loop_
_atom_site_type_symbol
_atom_site_label
_atom_site_fract_x
_atom_site_fract_y
_atom_site_fract_z
Si Si1 0.904239 0.170174 0.665628
Si Si2 0.718769 0.048999 0.109311
Si Si3 0.609528 0.637010 0.859229
Si Si4 0.600650 0.099059 0.882745
Si Si5 0.992858 0.186992 0.329274
Si Si6 0.869146 0.706203 0.063178
Si Si7 0.849729 0.516981 0.394635
Si Si8 0.719900 0.484357 0.090267
O O1 0.971958 0.129915 0.436384
O O2 0.745439 0.093754 0.701184
O O3 0.833051 0.335890 0.863222
O O4 0.049892 0.172675 0.736576
O O5 0.681409 0.085514 0.996757
O O6 0.820260 0.164779 0.283905
O O7 0.538602 0.016234 0.208489
O O8 0.848679 0.907802 0.905770
O O9 0.499907 0.746725 0.921499
O O10 0.719294 0.729665 0.029948
O O11 0.731838 0.533676 0.598319
O O12 0.474657 0.549023 0.896179
O O13 0.036510 0.348815 0.495803
O O14 0.026994 0.624749 0.826269
O O15 0.794931 0.598135 0.085434
O O16 0.741089 0.529346 0.301008
#
# Coordination Sequence:
#
# PCOD9106610 Si02
#       8
#     2   2   2   2   2   2   2   2
#     4  10  21  39  65  90 121 157 194 248 299 361
#     4  10  24  43  66  85 116 156 206 260 297 349
#     4  11  23  37  61  91 128 160 196 241 296 358
#     4  10  23  44  60  88 123 154 200 257 301 344
#     4  11  21  41  68  88 113 160 205 248 302 349
#     4  11  21  38  62  93 126 159 196 235 293 370
#     4  11  20  39  60  92 122 159 201 240 293 357
#     4  10  20  40  58  90 129 158 192 240 296 363
#
# _framework density 23.461974999999999
#
# number of rings (size 3 to 8) (size 9 to 14) (size 15 to 20)
#    0.000    1.500    3.750    1.875    1.750    1.000 
#    4.500    5.000    0.000    0.000    0.000    0.000 
#    0.000    0.000    0.000    0.000    0.000    0.000 
#
# Total GULP energy -89598.159108 kJ/mol
# GULP energy per Si atom -5599.884944 kJ/mol
# Density = 2.340857 g / cm^3
# Si number density = 23.461975 Si / 1000 Ang^3
#
#
#
# Elastic Constant Matrix: (Units=GPa)
#
#
# Indices 1 2 3 4 5 6 
#
# 1 129.7960 34.4526 36.7628 -3.9781 23.5822 21.3029
# 2 34.4526 80.1319 2.6621 -12.5930 -10.0528 19.2687
# 3 36.7628 2.6621 37.2019 -11.8616 2.0642 11.0128
# 4 -3.9781 -12.5930 -11.8616 17.4296 0.4662 -5.8585
# 5 23.5822 -10.0528 2.0642 0.4662 27.1674 -2.5302
# 6 21.3029 19.2687 11.0128 -5.8585 -2.5302 38.3912
#
#
#
# Elastic Compliance Matrix: (Units=1/GPa)
#
#
# Indices 1 2 3 4 5 6 
#
# 1 0.024255 -0.015974 -0.028931 -0.025952 -0.024575 -0.002722
# 2 -0.015974 0.027261 0.023861 0.029800 0.021096 -0.005725
# 3 -0.028931 0.023861 0.072285 0.057032 0.026896 -0.006182
# 4 -0.025952 0.029800 0.057032 0.111712 0.027485 0.001942
# 5 -0.024575 0.021096 0.026896 0.027485 0.063780 0.003731
# 6 -0.002722 -0.005725 -0.006182 0.001942 0.003731 0.032747
#
#
# Mechanical properties :
#
#
# Convention : Reuss Voigt Hill
#
# Bulk Modulus (GPa) = 12.23804 43.87608 28.05706
# Shear Modulus (GPa) = 12.45744 28.14778 20.30261
#
# Velocity S-wave (km/s) = 2.30676 3.46745 2.94486
# Velocity P-wave (km/s) = 3.51032 5.89682 4.85257
#
# Compressibility (1/GPa) = 0.08171242
#
# Stress axis : x y z
#
# Youngs Moduli (GPa) = 41.22816 36.68186 13.83421
#
# Poissons Ratio (x) = 0.58597 0.40024
# Poissons Ratio (y) = 0.65859 -0.33010
# Poissons Ratio (z) = 1.19278 -0.87527
#
# Static dielectric constant tensor:
#      x y z
#    x 1.880320 -0.005460 0.016070 
#    y -0.005460 1.882230 0.007630 
#    z 0.016070 0.007630 1.848280 
# 
# From -- ./inp_files/208194.got.cif
#   From: 2010.05.17/outbox.cif.g08.bks.cpg/sg2_105_cif.got.tgz:208194.got - 2010.06.03 11:33:40.
