data_PCOD9106058
_publ_section_title
;
Structure prediction by ZEFSAII (Michael W. Deem and Ramdas Pophale) SiO2 
 PCOD9106058
Probable space group: P -1
;
_chemical_formula_sum "Si O2"
_cell_formula_units_Z 12
_cell_length_a 11.171532
_cell_length_b 5.246575
_cell_length_c 9.395922
_cell_angle_alpha 80.932111
_cell_angle_beta 111.877903
_cell_angle_gamma 76.910078
_cell_volume 479.601914
_symmetry_space_group_name_H-M "P -1"
_symmetry_group_IT_number 2
_symmetry_cell_setting 'triclinic'
loop_
_space_group_symop_operation_xyz
x,y,z
-x,-y,-z
loop_
_atom_site_type_symbol
_atom_site_label
_atom_site_fract_x
_atom_site_fract_y
_atom_site_fract_z
Si Si1 0.815633 0.877924 0.525130
Si Si2 0.444961 0.253758 0.610898
Si Si3 0.633005 0.525849 0.136200
Si Si4 0.713131 0.263325 0.680381
Si Si5 0.810934 0.924427 0.203556
Si Si6 0.052490 0.609079 0.151744
O O1 0.655789 0.923429 0.416355
O O2 0.874819 0.830325 0.397832
O O3 0.886892 0.629561 0.683385
O O4 0.803577 0.138305 0.593651
O O5 0.410556 0.434353 0.721290
O O6 0.605863 0.109991 0.688099
O O7 0.387283 0.443485 0.432546
O O8 0.699128 0.772365 0.124428
O O9 0.745840 0.245283 0.170087
O O10 0.500000 0.500000 0.000000
O O11 0.820596 0.287196 0.839660
O O12 0.929670 0.833781 0.150818
O O13 0.000000 0.500000 0.000000
#
# Coordination Sequence:
#
# PCOD9106058 Si02
#       6
#     2   2   2   2   2   2
#     4  10  21  42  68  98 128 182 229 282 331 408
#     4   9  20  38  62 101 125 170 225 279 333 399
#     4  11  24  43  70 101 135 179 223 286 343 399
#     4  10  20  39  67  89 135 170 224 274 339 400
#     4  11  25  46  70  99 138 178 235 275 337 419
#     4  11  27  42  62 100 137 181 226 277 348 402
#
# _framework density 25.02075
#
# number of rings (size 3 to 8) (size 9 to 14) (size 15 to 20)
#    0.000    1.667    1.667    1.500    4.667    2.667 
#    0.000    0.000    0.000    0.000    0.000    0.000 
#    0.000    0.000    0.000    0.000    0.000    0.000 
#
# Total GULP energy -67041.049522 kJ/mol
# GULP energy per Si atom -5586.754127 kJ/mol
# Density = 2.496380 g / cm^3
# Si number density = 25.020750 Si / 1000 Ang^3
#
#
#
# Elastic Constant Matrix: (Units=GPa)
#
#
# Indices 1 2 3 4 5 6 
#
# 1 98.4554 26.6617 47.0155 19.4447 21.9752 -25.7787
# 2 26.6617 104.9531 35.2117 33.3082 6.7133 -10.1894
# 3 47.0155 35.2117 127.5293 31.2642 26.4154 -5.4868
# 4 19.4447 33.3082 31.2642 39.2004 10.2310 -2.9107
# 5 21.9752 6.7133 26.4154 10.2310 31.7731 9.5176
# 6 -25.7787 -10.1894 -5.4868 -2.9107 9.5176 34.7617
#
#
#
# Elastic Compliance Matrix: (Units=1/GPa)
#
#
# Indices 1 2 3 4 5 6 
#
# 1 0.020990 -0.000963 -0.002650 -0.001465 -0.017489 0.019531
# 2 -0.000963 0.013512 -0.001056 -0.010421 0.001507 0.001794
# 3 -0.002650 -0.001056 0.011781 -0.005501 -0.006214 0.000825
# 4 -0.001465 -0.010421 -0.005501 0.040860 -0.005330 -0.000128
# 5 -0.017489 0.001507 -0.006214 -0.005330 0.059167 -0.030155
# 6 0.019531 0.001794 0.000825 -0.000128 -0.030155 0.052153
#
#
# Mechanical properties :
#
#
# Convention : Reuss Voigt Hill
#
# Bulk Modulus (GPa) = 27.06763 60.96842 44.01802
# Shear Modulus (GPa) = 22.71517 35.95030 29.33274
#
# Velocity S-wave (km/s) = 3.01633 3.79465 3.42765
# Velocity P-wave (km/s) = 4.79297 6.60449 5.77026
#
# Compressibility (1/GPa) = 0.03694449
#
# Stress axis : x y z
#
# Youngs Moduli (GPa) = 47.64158 74.00741 84.88042
#
# Poissons Ratio (x) = 0.07129 0.22496
# Poissons Ratio (y) = 0.04589 0.08962
# Poissons Ratio (z) = 0.12627 0.07814
#
# Static dielectric constant tensor:
#      x y z
#    x 2.113080 0.063240 -0.016210 
#    y 0.063240 1.973430 -0.011310 
#    z -0.016210 -0.011310 2.004600 
# 
# From -- ./inp_files/22461.got.cif
#   From: 2010.05.17/outbox.cif.g08.bks.cpg/sg2_12_cif.got.tgz:22461.got - 2010.06.03 11:33:40.
