data_PCOD9106184
_publ_section_title
;
Structure prediction by ZEFSAII (Michael W. Deem and Ramdas Pophale) SiO2 
 PCOD9106184
Probable space group: P -1
;
_chemical_formula_sum "Si O2"
_cell_formula_units_Z 16
_cell_length_a 9.751191
_cell_length_b 10.042674
_cell_length_c 14.830296
_cell_angle_alpha 133.248098
_cell_angle_beta 97.479081
_cell_angle_gamma 112.669881
_cell_volume 790.563456
_symmetry_space_group_name_H-M "P -1"
_symmetry_group_IT_number 2
_symmetry_cell_setting 'triclinic'
loop_
_space_group_symop_operation_xyz
x,y,z
-x,-y,-z
loop_
_atom_site_type_symbol
_atom_site_label
_atom_site_fract_x
_atom_site_fract_y
_atom_site_fract_z
Si Si1 0.056801 0.848911 0.247044
Si Si2 0.354318 0.009353 0.038608
Si Si3 0.829718 0.769414 0.433236
Si Si4 0.616333 0.214337 0.533049
Si Si5 0.375562 0.947669 0.211855
Si Si6 0.023257 0.459562 0.724791
Si Si7 0.575575 0.521812 0.786855
Si Si8 0.339462 0.494562 0.016048
O O1 0.179996 0.847924 0.185991
O O2 0.017848 0.679192 0.248700
O O3 0.166531 0.118587 0.420793
O O4 0.860952 0.740075 0.142043
O O5 0.410423 0.073134 0.177888
O O6 0.354419 0.211403 0.091371
O O7 0.154409 0.743764 0.888121
O O8 0.500000 0.000000 0.000000
O O9 0.865377 0.585065 0.349822
O O10 0.644696 0.653395 0.310588
O O11 0.000000 0.000000 0.500000
O O12 0.618073 0.425985 0.663085
O O13 0.825532 0.329107 0.605399
O O14 0.500000 0.000000 0.500000
O O15 0.518590 0.106137 0.378439
O O16 0.369839 0.725719 0.090394
O O17 0.651899 0.494130 0.869996
O O18 0.500000 0.500000 0.000000
#
# Coordination Sequence:
#
# PCOD9106184 Si02
#       8
#     2   2   2   2   2   2   2   2
#     4  11  22  41  69 104 131 173 236 282 342 392
#     4  12  27  48  67  96 144 193 220 266 353 427
#     4  10  20  39  67  98 131 177 221 274 338 398
#     4  12  23  43  71 107 133 166 232 297 336 380
#     4  12  25  44  71  97 140 179 225 289 338 406
#     4  11  22  42  70  98 140 181 217 281 345 401
#     4  12  24  44  67  96 143 176 226 278 336 406
#     4  12  24  38  67 105 134 171 234 287 327 394
#
# _framework density 20.23873
#
# number of rings (size 3 to 8) (size 9 to 14) (size 15 to 20)
#    0.000    0.500    6.250    3.375    3.500    1.000 
#    0.000    0.625    0.000    0.000    0.000    0.000 
#    0.000    0.000    0.000    0.000    0.000    0.000 
#
# Total GULP energy -89472.267490 kJ/mol
# GULP energy per Si atom -5592.016718 kJ/mol
# Density = 2.019267 g / cm^3
# Si number density = 20.238730 Si / 1000 Ang^3
#
#
#
# Elastic Constant Matrix: (Units=GPa)
#
#
# Indices 1 2 3 4 5 6 
#
# 1 94.1337 -0.7096 7.7059 -2.2629 9.2742 0.0737
# 2 -0.7096 19.5494 1.2266 -0.1613 11.0733 3.6872
# 3 7.7059 1.2266 84.3904 -1.1762 19.6035 -1.1438
# 4 -2.2629 -0.1613 -1.1762 24.0547 -10.2487 -5.6174
# 5 9.2742 11.0733 19.6035 -10.2487 50.6094 -3.7616
# 6 0.0737 3.6872 -1.1438 -5.6174 -3.7616 23.2729
#
#
#
# Elastic Compliance Matrix: (Units=1/GPa)
#
#
# Indices 1 2 3 4 5 6 
#
# 1 0.010902 0.001872 -0.000501 -0.000144 -0.002299 -0.000762
# 2 0.001872 0.064743 0.002949 -0.011080 -0.019075 -0.015876
# 3 -0.000501 0.002949 0.013258 -0.002380 -0.006275 -0.001403
# 4 -0.000144 -0.011080 -0.002380 0.051647 0.015061 0.016539
# 5 -0.002299 -0.019075 -0.006275 0.015061 0.030676 0.011314
# 6 -0.000762 -0.015876 -0.001403 0.016539 0.011314 0.051238
#
#
# Mechanical properties :
#
#
# Convention : Reuss Voigt Hill
#
# Bulk Modulus (GPa) = 10.25182 23.83550 17.04366
# Shear Modulus (GPa) = 20.29740 32.24410 26.27075
#
# Velocity S-wave (km/s) = 3.17029 3.99581 3.60675
# Velocity P-wave (km/s) = 4.29854 5.75251 5.07784
#
# Compressibility (1/GPa) = 0.09754365
#
# Stress axis : x y z
#
# Youngs Moduli (GPa) = 91.72669 15.44575 75.42556
#
# Poissons Ratio (x) = -0.02891 0.03779
# Poissons Ratio (y) = -0.17171 -0.22246
# Poissons Ratio (z) = 0.04595 -0.04556
#
# Static dielectric constant tensor:
#      x y z
#    x 1.723640 0.017320 -0.026670 
#    y 0.017320 1.695580 -0.000130 
#    z -0.026670 -0.000130 1.748660 
# 
# From -- ./inp_files/207012.got.cif
#   From: 2010.05.17/outbox.cif.g08.bks.cpg/sg2_104_cif.got.tgz:207012.got - 2010.06.03 11:33:40.
