data_PCOD9106415
_publ_section_title
;
Structure prediction by ZEFSAII (Michael W. Deem and Ramdas Pophale) SiO2 
 PCOD9106415
Probable space group: P -1
;
_chemical_formula_sum "Si O2"
_cell_formula_units_Z 14
_cell_length_a 9.173801
_cell_length_b 9.179252
_cell_length_c 12.288219
_cell_angle_alpha 128.842824
_cell_angle_beta 107.455893
_cell_angle_gamma 52.668432
_cell_volume 635.426445
_symmetry_space_group_name_H-M "P -1"
_symmetry_group_IT_number 2
_symmetry_cell_setting 'triclinic'
loop_
_space_group_symop_operation_xyz
x,y,z
-x,-y,-z
loop_
_atom_site_type_symbol
_atom_site_label
_atom_site_fract_x
_atom_site_fract_y
_atom_site_fract_z
Si Si1 0.992144 0.112543 0.663696
Si Si2 0.597048 0.253556 0.628083
Si Si3 0.729410 0.330989 0.357426
Si Si4 0.123724 0.405908 0.876434
Si Si5 0.050933 0.758588 0.859941
Si Si6 0.165945 0.367629 0.388009
Si Si7 0.450108 0.072595 0.674164
O O1 0.784003 0.205560 0.700460
O O2 0.018845 0.313024 0.744984
O O3 0.000000 0.000000 0.500000
O O4 0.159546 0.923837 0.689932
O O5 0.484177 0.485490 0.640463
O O6 0.462380 0.248513 0.684318
O O7 0.640246 0.042255 0.462719
O O8 0.829950 0.300635 0.250626
O O9 0.767356 0.464026 0.519814
O O10 0.129414 0.598749 0.907461
O O11 0.337520 0.191451 0.814663
O O12 0.000000 0.500000 0.000000
O O13 0.896262 0.715969 0.765540
O O14 0.000000 0.000000 0.000000
O O15 0.000000 0.500000 0.500000
O O16 0.340152 0.135623 0.364299
#
# Coordination Sequence:
#
# PCOD9106415 Si02
#       7
#     2   2   2   2   2   2   2
#     4  12  24  42  68 102 140 172 217 285 353 388
#     4  10  20  39  70 101 128 174 231 278 328 403
#     4  10  21  40  69  98 129 171 227 272 332 403
#     4  12  26  45  62  98 144 180 213 282 349 395
#     4  11  22  43  67  93 126 179 231 273 323 407
#     4   9  19  36  67 100 124 159 220 288 326 373
#     4  10  20  40  68 100 133 172 230 277 326 404
#
# _framework density 22.032447000000001
#
# number of rings (size 3 to 8) (size 9 to 14) (size 15 to 20)
#    0.000    1.429    2.857    3.429    2.000    0.571 
#    5.143    2.143    0.000    0.000    0.000    0.000 
#    0.000    0.000    0.000    0.000    0.000    0.000 
#
# Total GULP energy -77952.811944 kJ/mol
# GULP energy per Si atom -5568.057996 kJ/mol
# Density = 2.198230 g / cm^3
# Si number density = 22.032447 Si / 1000 Ang^3
#
#
#
# Elastic Constant Matrix: (Units=GPa)
#
#
# Indices 1 2 3 4 5 6 
#
# 1 83.5977 52.5514 31.1770 16.1698 -18.9494 -0.4968
# 2 52.5514 131.5245 28.6088 27.0137 -2.7590 6.3374
# 3 31.1770 28.6088 112.5209 16.5463 -17.3801 -3.1716
# 4 16.1698 27.0137 16.5463 25.1430 8.8216 -1.1476
# 5 -18.9494 -2.7590 -17.3801 8.8216 39.6176 0.2288
# 6 -0.4968 6.3374 -3.1716 -1.1476 0.2288 30.4463
#
#
#
# Elastic Compliance Matrix: (Units=1/GPa)
#
#
# Indices 1 2 3 4 5 6 
#
# 1 0.020418 -0.005632 -0.000932 -0.010378 0.011270 0.000933
# 2 -0.005632 0.011942 -0.000171 -0.009282 0.000146 -0.002946
# 3 -0.000932 -0.000171 0.011584 -0.009136 0.006653 0.000833
# 4 -0.010378 -0.009282 -0.009136 0.071574 -0.025577 0.003701
# 5 0.011270 0.000146 0.006653 -0.025577 0.039258 -0.000412
# 6 0.000933 -0.002946 0.000833 0.003701 -0.000412 0.033703
#
#
# Mechanical properties :
#
#
# Convention : Reuss Voigt Hill
#
# Bulk Modulus (GPa) = 32.81687 61.36861 47.09274
# Shear Modulus (GPa) = 23.57295 33.39509 28.48402
#
# Velocity S-wave (km/s) = 3.27451 3.89745 3.59948
# Velocity P-wave (km/s) = 5.40589 6.94030 6.22059
#
# Compressibility (1/GPa) = 0.03047213
#
# Stress axis : x y z
#
# Youngs Moduli (GPa) = 48.97689 83.73640 86.32825
#
# Poissons Ratio (x) = 0.47163 0.08047
# Poissons Ratio (y) = 0.27585 0.01479
# Poissons Ratio (z) = 0.04565 0.01435
#
# Static dielectric constant tensor:
#      x y z
#    x 1.883650 -0.069200 -0.026560 
#    y -0.069200 1.655440 0.006270 
#    z -0.026560 0.006270 1.817850 
# 
# From -- ./inp_files/383572.got.cif
#   From: 2010.05.17/outbox.cif.g08.bks.cpg/sg2_192_cif.got.tgz:383572.got - 2010.06.03 11:33:40.
