data_PCOD9106112
_publ_section_title
;
Structure prediction by ZEFSAII (Michael W. Deem and Ramdas Pophale) SiO2 
 PCOD9106112
Probable space group: P -1
;
_chemical_formula_sum "Si O2"
_cell_formula_units_Z 15
_cell_length_a 5.115351
_cell_length_b 10.239038
_cell_length_c 15.390158
_cell_angle_alpha 117.214317
_cell_angle_beta 56.351575
_cell_angle_gamma 122.155346
_cell_volume 552.801276
_symmetry_space_group_name_H-M "P -1"
_symmetry_group_IT_number 2
_symmetry_cell_setting 'triclinic'
loop_
_space_group_symop_operation_xyz
x,y,z
-x,-y,-z
loop_
_atom_site_type_symbol
_atom_site_label
_atom_site_fract_x
_atom_site_fract_y
_atom_site_fract_z
Si Si1 0.292938 0.868869 0.777151
Si Si2 0.049950 0.005413 0.594771
Si Si3 0.817164 0.821982 0.067972
Si Si4 0.752501 0.318803 0.975670
Si Si5 0.118371 0.732786 0.591376
Si Si6 0.500000 0.500000 0.500000
Si Si7 0.613067 0.439240 0.302093
Si Si8 0.730883 0.705063 0.238594
O O1 0.054247 0.800291 0.716411
O O2 0.295325 0.711599 0.776332
O O3 0.189832 0.003182 0.881453
O O4 0.673324 0.948753 0.691451
O O5 0.259426 0.169557 0.653434
O O6 0.207554 0.878508 0.556005
O O7 0.000000 0.000000 0.500000
O O8 0.630791 0.717198 0.987732
O O9 0.646487 0.745126 0.169595
O O10 0.116290 0.723914 0.152882
O O11 0.825368 0.199326 0.991930
O O12 0.000000 0.500000 0.000000
O O13 0.378968 0.650882 0.536277
O O14 0.743706 0.614640 0.590728
O O15 0.816801 0.548446 0.376489
O O16 0.568471 0.530022 0.254383
#
# Coordination Sequence:
#
# PCOD9106112 Si02
#       8
#     2   2   2   2   2   1   2   2
#     4  10  20  40  58  85 119 169 204 252 313 378
#     4  11  23  38  61  86 125 165 220 265 313 374
#     4  10  20  39  67  94 125 160 210 256 323 380
#     4  10  21  40  70  99 125 159 207 266 327 386
#     4  10  21  39  55  80 114 174 212 259 315 373
#     4  10  22  38  52  76 118 164 220 254 312 362
#     4  10  23  37  58  84 122 163 210 262 317 371
#     4  10  23  38  64  96 124 163 211 272 312 373
#
# _framework density 27.134520999999999
#
# number of rings (size 3 to 8) (size 9 to 14) (size 15 to 20)
#    0.800    1.067    2.667    0.800    7.467    3.733 
#    0.000    0.000    0.000    1.600    0.000    0.000 
#    0.000    0.000    0.000    0.000    0.000    0.000 
#
# Total GULP energy -83662.577389 kJ/mol
# GULP energy per Si atom -5577.505159 kJ/mol
# Density = 2.707276 g / cm^3
# Si number density = 27.134521 Si / 1000 Ang^3
#
#
#
# Elastic Constant Matrix: (Units=GPa)
#
#
# Indices 1 2 3 4 5 6 
#
# 1 159.8338 61.2805 30.0103 8.3173 21.0352 -36.1499
# 2 61.2805 163.3188 45.3247 20.8736 13.3317 -36.2839
# 3 30.0103 45.3247 133.3036 12.7488 8.8783 -14.3941
# 4 8.3173 20.8736 12.7488 35.9217 7.8724 0.8843
# 5 21.0352 13.3317 8.8783 7.8724 35.3807 5.4484
# 6 -36.1499 -36.2839 -14.3941 0.8843 5.4484 44.9464
#
#
#
# Elastic Compliance Matrix: (Units=1/GPa)
#
#
# Indices 1 2 3 4 5 6 
#
# 1 0.009184 -0.001283 -0.000484 -0.000086 -0.005901 0.006913
# 2 -0.001283 0.009137 -0.001604 -0.004087 -0.002322 0.006192
# 3 -0.000484 -0.001604 0.008526 -0.001785 -0.001037 0.001208
# 4 -0.000086 -0.004087 -0.001785 0.031940 -0.004448 -0.004029
# 5 -0.005901 -0.002322 -0.001037 -0.004448 0.035619 -0.011182
# 6 0.006913 0.006192 0.001208 -0.004029 -0.011182 0.034629
#
#
# Mechanical properties :
#
#
# Convention : Reuss Voigt Hill
#
# Bulk Modulus (GPa) = 49.73723 81.07635 65.40679
# Shear Modulus (GPa) = 35.09325 44.57248 39.83286
#
# Velocity S-wave (km/s) = 3.60016 4.05736 3.83558
# Velocity P-wave (km/s) = 5.97086 7.20374 6.61608
#
# Compressibility (1/GPa) = 0.02010566
#
# Stress axis : x y z
#
# Youngs Moduli (GPa) = 108.88765 109.44333 117.28933
#
# Poissons Ratio (x) = 0.14046 0.05671
# Poissons Ratio (y) = 0.13974 0.18810
# Poissons Ratio (z) = 0.05265 0.17551
#
# Static dielectric constant tensor:
#      x y z
#    x 2.337950 0.230600 -0.018020 
#    y 0.230600 2.273860 -0.111200 
#    z -0.018020 -0.111200 2.274880 
# 
# From -- ./inp_files/547367.got.cif
#   From: 2010.05.17/outbox.cif.g08.bks.cpg/sg2_274_cif.got.tgz:547367.got - 2010.06.03 11:33:40.
