data_PCOD9106164
_publ_section_title
;
Structure prediction by ZEFSAII (Michael W. Deem and Ramdas Pophale) SiO2 
 PCOD9106164
Probable space group: P -1
;
_chemical_formula_sum "Si O2"
_cell_formula_units_Z 14
_cell_length_a 5.648187
_cell_length_b 14.304564
_cell_length_c 7.179987
_cell_angle_alpha 57.288637
_cell_angle_beta 85.598198
_cell_angle_gamma 85.239123
_cell_volume 486.067117
_symmetry_space_group_name_H-M "P -1"
_symmetry_group_IT_number 2
_symmetry_cell_setting 'triclinic'
loop_
_space_group_symop_operation_xyz
x,y,z
-x,-y,-z
loop_
_atom_site_type_symbol
_atom_site_label
_atom_site_fract_x
_atom_site_fract_y
_atom_site_fract_z
Si Si1 0.238867 0.552577 0.520027
Si Si2 0.308540 0.749400 0.047455
Si Si3 0.330929 0.412655 0.981291
Si Si4 0.496588 0.053352 0.647450
Si Si5 0.194583 0.226093 0.930326
Si Si6 0.996323 0.060037 0.635947
Si Si7 0.760765 0.732696 0.549302
O O1 0.500000 0.500000 0.500000
O O2 0.255440 0.678611 0.313460
O O3 0.262529 0.530181 0.764849
O O4 0.000000 0.500000 0.500000
O O5 0.408109 0.647620 0.016045
O O6 0.541494 0.822290 0.977577
O O7 0.061265 0.820394 0.962723
O O8 0.176503 0.334195 0.945819
O O9 0.262707 0.384965 0.224781
O O10 0.741740 0.035659 0.757808
O O11 0.466973 0.186972 0.469026
O O12 0.236849 0.034473 0.764381
O O13 0.500000 0.000000 0.500000
O O14 0.224236 0.264153 0.675985
O O15 0.028681 0.193014 0.464659
O O16 0.000000 0.000000 0.500000
#
# Coordination Sequence:
#
# PCOD9106164 Si02
#       7
#     2   2   2   2   2   2   2
#     4  10  16  34  57  71 102 150 176 210 265 316
#     4   9  19  37  53  73 110 146 175 213 269 319
#     4   9  21  35  57  81 104 140 183 221 262 306
#     4   8  16  31  50  76 101 135 172 206 258 317
#     4  10  21  35  52  80 112 136 174 222 274 304
#     4   8  16  30  51  76 101 135 172 206 260 317
#     4  10  21  34  58  84 106 136 181 223 262 314
#
# _framework density 28.802606999999998
#
# number of rings (size 3 to 8) (size 9 to 14) (size 15 to 20)
#    1.714    1.143    1.429    0.000    2.000    1.143 
#    0.000    1.429    0.000    1.714    0.000    0.000 
#    0.000    0.000    0.000    0.000    0.000    0.000 
#
# Total GULP energy -78013.090065 kJ/mol
# GULP energy per Si atom -5572.363576 kJ/mol
# Density = 2.873705 g / cm^3
# Si number density = 28.802607 Si / 1000 Ang^3
#
#
#
# Elastic Constant Matrix: (Units=GPa)
#
#
# Indices 1 2 3 4 5 6 
#
# 1 317.0998 34.8418 41.7446 -7.2707 35.2195 4.1317
# 2 34.8418 49.1780 39.5279 -5.8941 0.0825 11.4720
# 3 41.7446 39.5279 159.5515 18.2948 -2.6789 7.5931
# 4 -7.2707 -5.8941 18.2948 28.1334 1.2447 -2.2176
# 5 35.2195 0.0825 -2.6789 1.2447 17.9847 -9.1107
# 6 4.1317 11.4720 7.5931 -2.2176 -9.1107 55.7107
#
#
#
# Elastic Compliance Matrix: (Units=1/GPa)
#
#
# Indices 1 2 3 4 5 6 
#
# 1 0.004696 -0.001895 -0.001076 0.001857 -0.010187 -0.001403
# 2 -0.001895 0.030619 -0.008123 0.010868 -0.000801 -0.004756
# 3 -0.001076 -0.008123 0.009552 -0.008326 0.004584 0.000869
# 4 0.001857 0.010868 -0.008326 0.044020 -0.008410 -0.000864
# 5 -0.010187 -0.000801 0.004584 -0.008410 0.083737 0.013655
# 6 -0.001403 -0.004756 0.000869 -0.000864 0.013655 0.021114
#
#
# Mechanical properties :
#
#
# Convention : Reuss Voigt Hill
#
# Bulk Modulus (GPa) = 44.09505 84.22865 64.16185
# Shear Modulus (GPa) = 22.37276 47.68009 35.02642
#
# Velocity S-wave (km/s) = 2.79007 4.07309 3.49102
# Velocity P-wave (km/s) = 5.07168 7.17126 6.21083
#
# Compressibility (1/GPa) = 0.02267828
#
# Stress axis : x y z
#
# Youngs Moduli (GPa) = 212.95984 32.65899 104.69044
#
# Poissons Ratio (x) = 0.06188 0.11268
# Poissons Ratio (y) = 0.40351 0.85044
# Poissons Ratio (z) = 0.22921 0.26530
#
# Static dielectric constant tensor:
#      x y z
#    x 2.352170 -0.029020 0.032050 
#    y -0.029020 2.265050 -0.070420 
#    z 0.032050 -0.070420 2.219290 
# 
# From -- ./inp_files/139818.got.cif
#   From: 2010.05.17/outbox.cif.g08.bks.cpg/sg2_70_cif.got.tgz:139818.got - 2010.06.03 11:33:40.
