data_PCOD9106463
_publ_section_title
;
Structure prediction by ZEFSAII (Michael W. Deem and Ramdas Pophale) SiO2 
 PCOD9106463
Probable space group: P -1
;
_chemical_formula_sum "Si O2"
_cell_formula_units_Z 16
_cell_length_a 12.538266
_cell_length_b 15.111115
_cell_length_c 10.047361
_cell_angle_alpha 75.139890
_cell_angle_beta 55.927039
_cell_angle_gamma 30.487234
_cell_volume 674.070420
_symmetry_space_group_name_H-M "P -1"
_symmetry_group_IT_number 2
_symmetry_cell_setting 'triclinic'
loop_
_space_group_symop_operation_xyz
x,y,z
-x,-y,-z
loop_
_atom_site_type_symbol
_atom_site_label
_atom_site_fract_x
_atom_site_fract_y
_atom_site_fract_z
Si Si1 0.346394 0.875323 0.638548
Si Si2 0.748863 0.808829 0.745682
Si Si3 0.783211 0.244485 0.545684
Si Si4 0.684398 0.294102 0.907379
Si Si5 0.324764 0.345219 0.082393
Si Si6 0.344041 0.469423 0.557952
Si Si7 0.427740 0.868893 0.268284
Si Si8 0.258506 0.225255 0.528666
O O1 0.459432 0.700246 0.628349
O O2 0.551535 0.804955 0.613158
O O3 0.420551 0.861600 0.437689
O O4 0.006918 0.095646 0.820066
O O5 0.589790 0.813065 0.872694
O O6 0.591118 0.007972 0.792284
O O7 0.860456 0.736122 0.542724
O O8 0.028645 0.624417 0.717831
O O9 0.735888 0.271465 0.723246
O O10 0.548499 0.335769 0.594809
O O11 0.724138 0.384055 0.484304
O O12 0.125913 0.014711 0.369766
O O13 0.500000 0.500000 0.000000
O O14 0.530549 0.292946 0.021351
O O15 0.004645 0.579732 0.265776
O O16 0.337299 0.325824 0.920031
O O17 0.500000 0.000000 0.500000
#
# Coordination Sequence:
#
# PCOD9106463 Si02
#       8
#     2   2   2   2   2   2   2   2
#     4  11  22  43  69  94 134 180 227 265 349 389
#     4  11  24  44  69  96 143 175 222 280 347 399
#     4   9  21  42  67  94 139 177 225 268 346 391
#     4  11  25  44  68  98 140 179 225 285 331 400
#     4  12  25  42  70 105 132 175 234 276 336 399
#     4  10  20  39  70  95 123 185 223 270 329 409
#     4  10  22  43  70 100 137 178 222 286 326 404
#     4  12  25  46  68  97 133 185 220 273 343 414
#
# _framework density 23.736391999999999
#
# number of rings (size 3 to 8) (size 9 to 14) (size 15 to 20)
#    0.000    1.250    2.500    3.000    3.500    2.500 
#    2.250   10.000    0.000    0.000    0.000    0.000 
#    0.000    0.000    0.000    0.000    0.000    0.000 
#
# Total GULP energy -89359.501494 kJ/mol
# GULP energy per Si atom -5584.968843 kJ/mol
# Density = 2.368237 g / cm^3
# Si number density = 23.736392 Si / 1000 Ang^3
#
#
#
# Elastic Constant Matrix: (Units=GPa)
#
#
# Indices 1 2 3 4 5 6 
#
# 1 126.7676 13.2565 59.5875 15.9633 3.0689 4.1888
# 2 13.2565 59.1387 26.8299 10.1344 9.5078 -1.4667
# 3 59.5875 26.8299 97.2362 20.9320 -1.5188 13.0859
# 4 15.9633 10.1344 20.9320 36.5641 8.4674 -2.0945
# 5 3.0689 9.5078 -1.5188 8.4674 33.9396 11.3536
# 6 4.1888 -1.4667 13.0859 -2.0945 11.3536 28.0887
#
#
#
# Elastic Compliance Matrix: (Units=1/GPa)
#
#
# Indices 1 2 3 4 5 6 
#
# 1 0.011403 0.001578 -0.007893 -0.000041 -0.002895 0.003227
# 2 0.001578 0.022158 -0.008669 0.000973 -0.010019 0.009083
# 3 -0.007893 -0.008669 0.021923 -0.010269 0.011697 -0.014983
# 4 -0.000041 0.000973 -0.010269 0.037103 -0.014489 0.013464
# 5 -0.002895 -0.010019 0.011697 -0.014489 0.044966 -0.024797
# 6 0.003227 0.009083 -0.014983 0.013464 -0.024797 0.053602
#
#
# Mechanical properties :
#
#
# Convention : Reuss Voigt Hill
#
# Bulk Modulus (GPa) = 39.19447 53.61006 46.40226
# Shear Modulus (GPa) = 21.77429 31.94972 26.86201
#
# Velocity S-wave (km/s) = 3.03204 3.67280 3.36770
# Velocity P-wave (km/s) = 5.36712 6.37343 5.89180
#
# Compressibility (1/GPa) = 0.02551380
#
# Stress axis : x y z
#
# Youngs Moduli (GPa) = 87.70005 45.13035 45.61402
#
# Poissons Ratio (x) = -0.07120 0.36005
# Poissons Ratio (y) = -0.13836 0.39543
# Poissons Ratio (z) = 0.69226 0.39124
#
# Static dielectric constant tensor:
#      x y z
#    x 1.985910 0.045340 -0.018100 
#    y 0.045340 1.948480 -0.030220 
#    z -0.018100 -0.030220 1.923570 
# 
# From -- ./inp_files/434032.got.cif
#   From: 2010.05.17/outbox.cif.g08.bks.cpg/sg2_218_cif.got.tgz:434032.got - 2010.06.03 11:33:40.
