data_PCOD9106595
_publ_section_title
;
Structure prediction by ZEFSAII (Michael W. Deem and Ramdas Pophale) SiO2 
 PCOD9106595
Probable space group: P -1
;
_chemical_formula_sum "Si O2"
_cell_formula_units_Z 16
_cell_length_a 10.627352
_cell_length_b 7.884045
_cell_length_c 19.479808
_cell_angle_alpha 130.905830
_cell_angle_beta 33.696561
_cell_angle_gamma 116.912092
_cell_volume 667.627658
_symmetry_space_group_name_H-M "P -1"
_symmetry_group_IT_number 2
_symmetry_cell_setting 'triclinic'
loop_
_space_group_symop_operation_xyz
x,y,z
-x,-y,-z
loop_
_atom_site_type_symbol
_atom_site_label
_atom_site_fract_x
_atom_site_fract_y
_atom_site_fract_z
Si Si1 0.741161 0.904165 0.529996
Si Si2 0.325965 0.135832 0.860206
Si Si3 0.579066 0.535828 0.877700
Si Si4 0.317178 0.481919 0.636275
Si Si5 0.183001 0.532106 0.851554
Si Si6 0.158003 0.185046 0.085660
Si Si7 0.946741 0.358101 0.554979
Si Si8 0.846618 0.227657 0.934217
O O1 0.766688 0.745490 0.409354
O O2 0.860044 0.751260 0.501920
O O3 0.469664 0.985524 0.696160
O O4 0.846952 0.127272 0.524872
O O5 0.505557 0.293491 0.842604
O O6 0.276381 0.028678 0.926958
O O7 0.069965 0.285713 0.996445
O O8 0.711182 0.613881 0.902185
O O9 0.751357 0.530950 0.733786
O O10 0.333931 0.713475 0.029214
O O11 0.500000 0.500000 0.500000
O O12 0.370577 0.496990 0.696446
O O13 0.099145 0.693165 0.784926
O O14 0.262678 0.601698 0.907481
O O15 0.090998 0.295425 0.830377
O O16 0.145384 0.026499 0.113323
O O17 0.000000 0.500000 0.500000
#
# Coordination Sequence:
#
# PCOD9106595 Si02
#       8
#     2   2   2   2   2   2   2   2
#     4  10  22  43  62  96 130 170 215 265 325 384
#     4   9  21  37  67  87 120 165 205 256 317 382
#     4  10  20  40  57  94 124 156 204 263 315 384
#     4  11  25  41  64  89 129 168 216 262 318 389
#     4   9  22  44  62  88 123 164 213 266 313 381
#     4  11  22  38  63  93 119 158 213 259 313 384
#     4  10  22  39  65  93 134 170 209 262 331 398
#     4  10  22  39  65  89 123 161 213 263 323 373
#
# _framework density 23.965456
#
# number of rings (size 3 to 8) (size 9 to 14) (size 15 to 20)
#    0.000    2.000    1.250    0.750    5.250    2.000 
#    0.000    0.625    0.000    0.000    0.000    0.000 
#    0.000    0.000    0.000    0.000    0.000    0.000 
#
# Total GULP energy -89239.065947 kJ/mol
# GULP energy per Si atom -5577.441622 kJ/mol
# Density = 2.391091 g / cm^3
# Si number density = 23.965456 Si / 1000 Ang^3
#
#
#
# Elastic Constant Matrix: (Units=GPa)
#
#
# Indices 1 2 3 4 5 6 
#
# 1 57.5662 16.0929 20.7443 -15.2853 7.9000 2.6398
# 2 16.0929 89.6914 19.1062 -3.8908 3.6116 -0.2469
# 3 20.7443 19.1062 98.8368 -16.0887 24.9327 -1.3243
# 4 -15.2853 -3.8908 -16.0887 28.8410 -3.1717 3.1144
# 5 7.9000 3.6116 24.9327 -3.1717 36.3332 -2.5768
# 6 2.6398 -0.2469 -1.3243 3.1144 -2.5768 30.6102
#
#
#
# Elastic Compliance Matrix: (Units=1/GPa)
#
#
# Indices 1 2 3 4 5 6 
#
# 1 0.022128 -0.003051 -0.001738 0.010411 -0.002640 -0.003290
# 2 -0.003051 0.012058 -0.002072 -0.001105 0.000822 0.000452
# 3 -0.001738 -0.002072 0.013958 0.005708 -0.008536 -0.000562
# 4 0.010411 -0.001105 0.005708 0.043508 -0.002649 -0.005309
# 5 -0.002640 0.000822 -0.008536 -0.002649 0.033853 0.002984
# 6 -0.003290 0.000452 -0.000562 -0.005309 0.002984 0.033723
#
#
# Mechanical properties :
#
#
# Convention : Reuss Voigt Hill
#
# Bulk Modulus (GPa) = 29.05067 39.77570 34.41319
# Shear Modulus (GPa) = 27.11136 31.83360 29.47248
#
# Velocity S-wave (km/s) = 3.36708 3.64856 3.51064
# Velocity P-wave (km/s) = 5.22154 5.86365 5.55189
#
# Compressibility (1/GPa) = 0.03442261
#
# Stress axis : x y z
#
# Youngs Moduli (GPa) = 45.19122 82.93003 71.64459
#
# Poissons Ratio (x) = 0.25304 0.12451
# Poissons Ratio (y) = 0.13789 0.14843
# Poissons Ratio (z) = 0.07854 0.17181
#
# Static dielectric constant tensor:
#      x y z
#    x 1.987110 -0.044750 0.009890 
#    y -0.044750 2.014900 -0.033780 
#    z 0.009890 -0.033780 1.911240 
# 
# From -- ./inp_files/418368.got.cif
#   From: 2010.05.17/outbox.cif.g08.bks.cpg/sg2_210_cif.got.tgz:418368.got - 2010.06.03 11:33:40.
