data_PCOD9106724
_publ_section_title
;
Structure prediction by ZEFSAII (Michael W. Deem and Ramdas Pophale) SiO2 
 PCOD9106724
Probable space group: P -1
;
_chemical_formula_sum "Si O2"
_cell_formula_units_Z 16
_cell_length_a 8.926919
_cell_length_b 9.786882
_cell_length_c 15.375663
_cell_angle_alpha 132.484530
_cell_angle_beta 72.603744
_cell_angle_gamma 71.841423
_cell_volume 646.294733
_symmetry_space_group_name_H-M "P -1"
_symmetry_group_IT_number 2
_symmetry_cell_setting 'triclinic'
loop_
_space_group_symop_operation_xyz
x,y,z
-x,-y,-z
loop_
_atom_site_type_symbol
_atom_site_label
_atom_site_fract_x
_atom_site_fract_y
_atom_site_fract_z
Si Si1 0.952209 0.447890 0.829196
Si Si2 0.339887 0.377095 0.202638
Si Si3 0.270350 0.228756 0.327958
Si Si4 0.229900 0.820744 0.502405
Si Si5 0.718333 0.439975 0.444188
Si Si6 0.378822 0.443882 0.936959
Si Si7 0.594093 0.732887 0.323506
Si Si8 0.801616 0.049751 0.881130
O O1 0.811620 0.599953 0.830933
O O2 0.761379 0.584895 0.995566
O O3 0.138632 0.446801 0.810345
O O4 0.079250 0.136478 0.666419
O O5 0.354244 0.251246 0.234498
O O6 0.209370 0.685013 0.372378
O O7 0.594007 0.197425 0.046971
O O8 0.365370 0.275722 0.408202
O O9 0.000000 0.500000 0.500000
O O10 0.280836 0.002755 0.211293
O O11 0.185432 0.734487 0.557590
O O12 0.494422 0.661836 0.375037
O O13 0.500000 0.500000 0.500000
O O14 0.945121 0.234708 0.257601
O O15 0.194126 0.737580 0.047760
O O16 0.500000 0.500000 0.000000
O O17 0.500525 0.241138 0.745515
O O18 0.500000 0.000000 0.500000
#
# Coordination Sequence:
#
# PCOD9106724 Si02
#       8
#     2   2   2   2   2   2   2   2
#     4  11  22  38  64  99 129 171 212 274 335 388
#     4  11  21  39  67  94 130 169 223 270 333 394
#     4   9  22  42  62  91 128 171 223 273 321 397
#     4  10  20  40  60  90 133 170 212 269 327 406
#     4  10  22  42  64  89 125 173 218 272 338 392
#     4  12  22  42  67  98 133 175 223 263 337 395
#     4  10  23  41  58  93 140 172 211 275 326 396
#     4  11  21  41  64  91 126 164 222 279 314 397
#
# _framework density 24.756505000000001
#
# number of rings (size 3 to 8) (size 9 to 14) (size 15 to 20)
#    0.000    1.500    3.750    1.125    0.000    3.000 
#    6.750    2.500    0.000    0.000    0.000    0.000 
#    0.000    0.000    0.000    0.000    0.000    0.000 
#
# Total GULP energy -89249.808757 kJ/mol
# GULP energy per Si atom -5578.113047 kJ/mol
# Density = 2.470016 g / cm^3
# Si number density = 24.756505 Si / 1000 Ang^3
#
#
#
# Elastic Constant Matrix: (Units=GPa)
#
#
# Indices 1 2 3 4 5 6 
#
# 1 103.5800 5.7553 30.6014 -6.1761 -3.8384 8.6136
# 2 5.7553 27.6707 17.6483 2.2867 -0.6670 12.2843
# 3 30.6014 17.6483 113.2293 -7.0406 7.6100 -2.5504
# 4 -6.1761 2.2867 -7.0406 36.3187 19.4516 2.9744
# 5 -3.8384 -0.6670 7.6100 19.4516 53.4507 0.4146
# 6 8.6136 12.2843 -2.5504 2.9744 0.4146 29.8276
#
#
#
# Elastic Compliance Matrix: (Units=1/GPa)
#
#
# Indices 1 2 3 4 5 6 
#
# 1 0.010993 0.001676 -0.003335 0.000944 0.000975 -0.004258
# 2 0.001676 0.052557 -0.009775 -0.005380 0.004300 -0.022488
# 3 -0.003335 -0.009775 0.011848 0.003727 -0.003449 0.005678
# 4 0.000944 -0.005380 0.003727 0.036182 -0.013688 -0.001156
# 5 0.000975 0.004300 -0.003449 -0.013688 0.024315 -0.001320
# 6 -0.004258 -0.022488 0.005678 -0.001156 -0.001320 0.044636
#
#
# Mechanical properties :
#
#
# Convention : Reuss Voigt Hill
#
# Bulk Modulus (GPa) = 19.03648 39.16557 29.10102
# Shear Modulus (GPa) = 22.63386 36.61773 29.62579
#
# Velocity S-wave (km/s) = 3.02695 3.85010 3.46307
# Velocity P-wave (km/s) = 4.46349 5.96817 5.26981
#
# Compressibility (1/GPa) = 0.05253072
#
# Stress axis : x y z
#
# Youngs Moduli (GPa) = 90.96718 19.02700 84.40318
#
# Poissons Ratio (x) = -0.03189 0.28148
# Poissons Ratio (y) = -0.15248 0.82502
# Poissons Ratio (z) = 0.30337 0.18598
#
# Static dielectric constant tensor:
#      x y z
#    x 1.979140 -0.045390 0.044370 
#    y -0.045390 2.049560 0.039080 
#    z 0.044370 0.039080 2.058180 
# 
# From -- ./inp_files/243424.got.cif
#   From: 2010.05.17/outbox.cif.g08.bks.cpg/sg2_122_cif.got.tgz:243424.got - 2010.06.03 11:33:40.
