data_PCOD9106145
_publ_section_title
;
Structure prediction by ZEFSAII (Michael W. Deem and Ramdas Pophale) SiO2 
 PCOD9106145
Probable space group: P -1
;
_chemical_formula_sum "Si O2"
_cell_formula_units_Z 14
_cell_length_a 8.660517
_cell_length_b 15.016505
_cell_length_c 5.498166
_cell_angle_alpha 98.283444
_cell_angle_beta 60.400348
_cell_angle_gamma 86.494952
_cell_volume 607.923732
_symmetry_space_group_name_H-M "P -1"
_symmetry_group_IT_number 2
_symmetry_cell_setting 'triclinic'
loop_
_space_group_symop_operation_xyz
x,y,z
-x,-y,-z
loop_
_atom_site_type_symbol
_atom_site_label
_atom_site_fract_x
_atom_site_fract_y
_atom_site_fract_z
Si Si1 0.283940 0.627866 0.239317
Si Si2 0.117508 0.097125 0.175208
Si Si3 0.584208 0.556982 0.663798
Si Si4 0.964152 0.558347 0.297947
Si Si5 0.755260 0.214515 0.293453
Si Si6 0.488166 0.910205 0.314382
Si Si7 0.838241 0.093100 0.791005
O O1 0.337390 0.522922 0.242034
O O2 0.096654 0.631826 0.247129
O O3 0.269159 0.689924 0.512917
O O4 0.443710 0.633156 0.930118
O O5 0.953896 0.162296 0.199471
O O6 0.028974 0.096705 0.514613
O O7 0.139007 0.988465 0.063695
O O8 0.315564 0.120520 0.973772
O O9 0.500000 0.500000 0.500000
O O10 0.755731 0.598558 0.459063
O O11 0.000000 0.500000 0.500000
O O12 0.000000 0.500000 0.000000
O O13 0.588682 0.166200 0.496067
O O14 0.767838 0.192300 0.991044
O O15 0.323826 0.931322 0.259558
O O16 0.500000 0.000000 0.500000
#
# Coordination Sequence:
#
# PCOD9106145 Si02
#       7
#     2   2   2   2   2   2   2
#     4  10  23  40  61  95 126 160 210 266 321 386
#     4  10  22  38  62  87 118 167 213 254 313 379
#     4  10  20  39  70  90 120 168 208 255 323 394
#     4  10  20  39  67  96 123 168 214 260 325 399
#     4  11  24  40  60  92 130 160 211 269 316 369
#     4  11  23  38  64  90 121 168 217 259 308 383
#     4  10  22  38  62  90 119 165 213 262 317 370
#
# _framework density 23.029204
#
# number of rings (size 3 to 8) (size 9 to 14) (size 15 to 20)
#    0.000    1.714    2.857    0.857    4.000    3.429 
#    0.000    0.000    0.000    0.000    0.000    0.000 
#    0.000    0.000    0.000    0.000    0.000    0.000 
#
# Total GULP energy -78005.900882 kJ/mol
# GULP energy per Si atom -5571.850063 kJ/mol
# Density = 2.297679 g / cm^3
# Si number density = 23.029204 Si / 1000 Ang^3
#
#
#
# Elastic Constant Matrix: (Units=GPa)
#
#
# Indices 1 2 3 4 5 6 
#
# 1 123.7620 28.9909 76.7405 -2.4209 -32.3452 35.0559
# 2 28.9909 60.0074 33.3998 17.5638 -20.2457 14.6386
# 3 76.7405 33.3998 148.7806 15.7403 -35.0276 29.7469
# 4 -2.4209 17.5638 15.7403 39.4165 12.8398 -3.9572
# 5 -32.3452 -20.2457 -35.0276 12.8398 57.9681 -7.8144
# 6 35.0559 14.6386 29.7469 -3.9572 -7.8144 37.1806
#
#
#
# Elastic Compliance Matrix: (Units=1/GPa)
#
#
# Indices 1 2 3 4 5 6 
#
# 1 0.014858 -0.001864 -0.005063 0.001939 0.003020 -0.008383
# 2 -0.001864 0.029065 0.001484 -0.018854 0.012811 -0.010188
# 3 -0.005063 0.001484 0.012495 -0.008593 0.006423 -0.005372
# 4 0.001939 -0.018854 -0.008593 0.044788 -0.018826 0.013280
# 5 0.003020 0.012811 0.006423 -0.018826 0.030293 -0.008667
# 6 -0.008383 -0.010188 -0.005372 0.013280 -0.008667 0.042700
#
#
# Mechanical properties :
#
#
# Convention : Reuss Voigt Hill
#
# Bulk Modulus (GPa) = 21.96250 67.86806 44.91528
# Shear Modulus (GPa) = 24.96731 39.80762 32.38747
#
# Velocity S-wave (km/s) = 3.29623 4.16212 3.75422
# Velocity P-wave (km/s) = 4.90350 7.25480 6.19178
#
# Compressibility (1/GPa) = 0.04553216
#
# Stress axis : x y z
#
# Youngs Moduli (GPa) = 67.30389 34.40585 80.03160
#
# Poissons Ratio (x) = 0.06412 0.40523
# Poissons Ratio (y) = 0.12543 -0.11878
# Poissons Ratio (z) = 0.34078 -0.05106
#
# Static dielectric constant tensor:
#      x y z
#    x 1.720460 -0.231990 0.379750 
#    y -0.231990 1.684930 0.376210 
#    z 0.379750 0.376210 1.139340 
# 
# From -- ./inp_files/45659.got.cif
#   From: 2010.05.17/outbox.cif.g08.bks.cpg/sg2_23_cif.got.tgz:45659.got - 2010.06.03 11:33:40.
