data_PCOD9106493
_publ_section_title
;
Structure prediction by ZEFSAII (Michael W. Deem and Ramdas Pophale) SiO2 
 PCOD9106493
Probable space group: P -1
;
_chemical_formula_sum "Si O2"
_cell_formula_units_Z 14
_cell_length_a 10.289023
_cell_length_b 9.003495
_cell_length_c 9.177246
_cell_angle_alpha 120.148656
_cell_angle_beta 95.721959
_cell_angle_gamma 114.604585
_cell_volume 614.680681
_symmetry_space_group_name_H-M "P -1"
_symmetry_group_IT_number 2
_symmetry_cell_setting 'triclinic'
loop_
_space_group_symop_operation_xyz
x,y,z
-x,-y,-z
loop_
_atom_site_type_symbol
_atom_site_label
_atom_site_fract_x
_atom_site_fract_y
_atom_site_fract_z
Si Si1 0.948249 0.455578 0.142602
Si Si2 0.412202 0.591154 0.120404
Si Si3 0.740643 0.381208 0.607758
Si Si4 0.329730 0.966941 0.980182
Si Si5 0.451163 0.609418 0.659443
Si Si6 0.718271 0.995056 0.332022
Si Si7 0.204881 0.329095 0.734721
O O1 0.787892 0.234915 0.040326
O O2 0.931151 0.635123 0.302927
O O3 0.081736 0.453589 0.250689
O O4 0.000000 0.500000 0.000000
O O5 0.365599 0.583467 0.277775
O O6 0.532605 0.827914 0.223027
O O7 0.500000 0.500000 0.000000
O O8 0.251437 0.456987 0.953227
O O9 0.669768 0.358354 0.428596
O O10 0.732574 0.169674 0.522790
O O11 0.247859 0.946545 0.805711
O O12 0.500000 0.000000 0.000000
O O13 0.391356 0.186034 0.168789
O O14 0.500000 0.500000 0.500000
O O15 0.347038 0.460131 0.704157
O O16 0.802869 0.880585 0.341455
#
# Coordination Sequence:
#
# PCOD9106493 Si02
#       7
#     2   2   2   2   2   2   2
#     4  12  27  47  75 106 154 198 242 306 380 442
#     4  10  20  39  71 100 138 189 242 294 357 431
#     4  12  26  43  72 111 148 191 254 306 366 443
#     4  12  24  49  75 105 145 203 246 298 374 444
#     4  12  26  45  76 113 144 191 257 308 358 445
#     4  11  23  41  76 107 142 192 252 302 363 437
#     4  11  23  45  72 103 150 194 240 300 373 434
#
# _framework density 22.776054999999999
#
# number of rings (size 3 to 8) (size 9 to 14) (size 15 to 20)
#    0.000    0.571    5.714    2.143    2.000    5.143 
#    0.000    2.857    0.000    0.000    0.000    0.000 
#    0.000    0.000    0.000    0.000    0.000    0.000 
#
# Total GULP energy -77994.077877 kJ/mol
# GULP energy per Si atom -5571.005563 kJ/mol
# Density = 2.272422 g / cm^3
# Si number density = 22.776055 Si / 1000 Ang^3
#
#
#
# Elastic Constant Matrix: (Units=GPa)
#
#
# Indices 1 2 3 4 5 6 
#
# 1 125.2209 50.9907 29.6828 2.4276 -17.2822 -3.8401
# 2 50.9907 128.1050 38.4036 -3.8890 -18.5973 4.6920
# 3 29.6828 38.4036 91.6913 5.6823 -27.7154 6.3793
# 4 2.4276 -3.8890 5.6823 41.8017 -4.9802 2.4159
# 5 -17.2822 -18.5973 -27.7154 -4.9802 34.2752 4.8796
# 6 -3.8401 4.6920 6.3793 2.4159 4.8796 31.7257
#
#
#
# Elastic Compliance Matrix: (Units=1/GPa)
#
#
# Indices 1 2 3 4 5 6 
#
# 1 0.010003 -0.003399 -0.001370 -0.000604 0.001752 0.001765
# 2 -0.003399 0.010394 -0.002486 0.001911 0.002474 -0.001975
# 3 -0.001370 -0.002486 0.016320 -0.000692 0.011744 -0.004833
# 4 -0.000604 0.001911 -0.000692 0.024887 0.004181 -0.002755
# 5 0.001752 0.002474 0.011744 0.004181 0.042847 -0.009424
# 6 0.001765 -0.001975 -0.004833 -0.002755 -0.009424 0.034657
#
#
# Mechanical properties :
#
#
# Convention : Reuss Voigt Hill
#
# Bulk Modulus (GPa) = 45.03382 64.79681 54.91531
# Shear Modulus (GPa) = 31.05188 36.62319 33.83754
#
# Velocity S-wave (km/s) = 3.69637 4.01430 3.85861
# Velocity P-wave (km/s) = 6.16708 7.07089 6.63439
#
# Compressibility (1/GPa) = 0.02220553
#
# Stress axis : x y z
#
# Youngs Moduli (GPa) = 99.97452 96.20950 61.27411
#
# Poissons Ratio (x) = 0.32705 0.08395
# Poissons Ratio (y) = 0.33985 0.15233
# Poissons Ratio (z) = 0.13698 0.23919
#
# Static dielectric constant tensor:
#      x y z
#    x 2.125520 -0.190680 0.189930 
#    y -0.190680 2.023290 -0.047390 
#    z 0.189930 -0.047390 1.987520 
# 
# From -- ./inp_files/241093.got.cif
#   From: 2010.05.17/outbox.cif.g08.bks.cpg/sg2_121_cif.got.tgz:241093.got - 2010.06.03 11:33:40.
