data_PCOD9106636
_publ_section_title
;
Structure prediction by ZEFSAII (Michael W. Deem and Ramdas Pophale) SiO2 
 PCOD9106636
Probable space group: P -1
;
_chemical_formula_sum "Si O2"
_cell_formula_units_Z 16
_cell_length_a 28.631728
_cell_length_b 6.159401
_cell_length_c 9.006279
_cell_angle_alpha 98.274093
_cell_angle_beta 40.421999
_cell_angle_gamma 122.283153
_cell_volume 764.184365
_symmetry_space_group_name_H-M "P -1"
_symmetry_group_IT_number 2
_symmetry_cell_setting 'triclinic'
loop_
_space_group_symop_operation_xyz
x,y,z
-x,-y,-z
loop_
_atom_site_type_symbol
_atom_site_label
_atom_site_fract_x
_atom_site_fract_y
_atom_site_fract_z
Si Si1 0.675362 0.564190 0.455083
Si Si2 0.128580 0.412037 0.639418
Si Si3 0.000988 0.755002 0.825423
Si Si4 0.436094 0.253624 0.261003
Si Si5 0.944345 0.573126 0.493911
Si Si6 0.499039 0.059812 0.332626
Si Si7 0.665147 0.307732 0.742717
Si Si8 0.123394 0.239445 0.095486
O O1 0.654938 0.775199 0.490592
O O2 0.680542 0.546154 0.620192
O O3 0.583877 0.260317 0.570342
O O4 0.772649 0.653934 0.166707
O O5 0.110712 0.453609 0.520716
O O6 0.236870 0.616831 0.450091
O O7 0.063884 0.445173 0.898476
O O8 0.088019 0.079951 0.704093
O O9 0.926772 0.777569 0.933750
O O10 0.033226 0.634368 0.619827
O O11 0.478662 0.255206 0.316696
O O12 0.400138 0.969897 0.233411
O O13 0.500000 0.500000 0.000000
O O14 0.879379 0.545650 0.777741
O O15 0.047449 0.902035 0.300563
O O16 0.500000 0.000000 0.500000
O O17 0.604491 0.222690 0.028730
#
# Coordination Sequence:
#
# PCOD9106636 Si02
#       8
#     2   2   2   2   2   2   2   2
#     4  11  22  41  66  91 126 168 219 260 314 395
#     4  10  22  36  59  93 123 161 214 260 318 380
#     4  10  20  40  59  87 126 164 209 264 320 375
#     4  11  21  43  68  96 122 173 220 256 322 391
#     4  10  22  38  59  88 128 164 208 265 322 376
#     4  11  25  42  66  95 135 163 205 275 324 374
#     4  11  22  41  65  91 128 168 211 268 315 385
#     4  10  22  38  61  90 122 167 212 263 319 380
#
# _framework density 20.937355
#
# number of rings (size 3 to 8) (size 9 to 14) (size 15 to 20)
#    0.000    1.500    3.750    1.500    3.500    1.500 
#    0.000    0.000    0.000    0.000    0.000    0.000 
#    0.000    0.000    0.000    0.000    0.000    0.000 
#
# Total GULP energy -89088.203740 kJ/mol
# GULP energy per Si atom -5568.012734 kJ/mol
# Density = 2.088970 g / cm^3
# Si number density = 20.937355 Si / 1000 Ang^3
#
#
#
# Elastic Constant Matrix: (Units=GPa)
#
#
# Indices 1 2 3 4 5 6 
#
# 1 132.3656 15.8601 53.5084 5.4578 9.4833 -3.0897
# 2 15.8601 39.6499 22.7336 21.7225 -2.1441 -12.7093
# 3 53.5084 22.7336 126.2501 22.3565 -4.4090 -7.2871
# 4 5.4578 21.7225 22.3565 29.1684 1.8350 -6.7668
# 5 9.4833 -2.1441 -4.4090 1.8350 35.6635 7.9181
# 6 -3.0897 -12.7093 -7.2871 -6.7668 7.9181 18.1592
#
#
#
# Elastic Compliance Matrix: (Units=1/GPa)
#
#
# Indices 1 2 3 4 5 6 
#
# 1 0.009939 -0.004255 -0.004450 0.005071 -0.003817 0.000482
# 2 -0.004255 0.052645 -0.000523 -0.032613 0.000703 0.023452
# 3 -0.004450 -0.000523 0.011357 -0.007885 0.003157 -0.000881
# 4 0.005071 -0.032613 -0.007885 0.064781 -0.008191 0.002585
# 5 -0.003817 0.000703 0.003157 -0.008191 0.033592 -0.016591
# 6 0.000482 0.023452 -0.000881 0.002585 -0.016591 0.079408
#
#
# Mechanical properties :
#
#
# Convention : Reuss Voigt Hill
#
# Bulk Modulus (GPa) = 18.02274 53.60775 35.81525
# Shear Modulus (GPa) = 17.32064 30.34244 23.83154
#
# Velocity S-wave (km/s) = 2.87933 3.81097 3.37743
# Velocity P-wave (km/s) = 4.43629 6.71000 5.68792
#
# Compressibility (1/GPa) = 0.05548546
#
# Stress axis : x y z
#
# Youngs Moduli (GPa) = 100.61324 18.99513 88.05373
#
# Poissons Ratio (x) = 0.08082 0.39183
# Poissons Ratio (y) = 0.42807 0.04607
# Poissons Ratio (z) = 0.44771 0.00994
#
# Static dielectric constant tensor:
#      x y z
#    x 1.819350 -0.076440 0.076100 
#    y -0.076440 1.794800 -0.027180 
#    z 0.076100 -0.027180 1.813970 
# 
# From -- ./inp_files/356019.got.cif
#   From: 2010.05.17/outbox.cif.g08.bks.cpg/sg2_179_cif.got.tgz:356019.got - 2010.06.03 11:33:40.
