data_PCOD9106234
_publ_section_title
;
Structure prediction by ZEFSAII (Michael W. Deem and Ramdas Pophale) SiO2 
 PCOD9106234
Probable space group: P -1
;
_chemical_formula_sum "Si O2"
_cell_formula_units_Z 16
_cell_length_a 25.068668
_cell_length_b 9.765416
_cell_length_c 9.772092
_cell_angle_alpha 124.459766
_cell_angle_beta 153.783612
_cell_angle_gamma 48.244127
_cell_volume 784.732905
_symmetry_space_group_name_H-M "P -1"
_symmetry_group_IT_number 2
_symmetry_cell_setting 'triclinic'
loop_
_space_group_symop_operation_xyz
x,y,z
-x,-y,-z
loop_
_atom_site_type_symbol
_atom_site_label
_atom_site_fract_x
_atom_site_fract_y
_atom_site_fract_z
Si Si1 0.214889 0.644702 0.822315
Si Si2 0.575774 0.910853 0.765974
Si Si3 0.124853 0.551294 0.285069
Si Si4 0.754539 0.074318 0.772576
Si Si5 0.610208 0.814116 0.310565
Si Si6 0.139348 0.368563 0.674180
Si Si7 0.473361 0.308426 0.226444
Si Si8 0.957420 0.852524 0.880027
O O1 0.142550 0.652000 0.517753
O O2 0.177751 0.513675 0.762841
O O3 0.185513 0.841928 0.927504
O O4 0.374976 0.522294 0.104153
O O5 0.541456 0.768354 0.701350
O O6 0.500000 0.000000 0.500000
O O7 0.523374 0.089956 0.849514
O O8 0.734255 0.779675 0.032411
O O9 0.269184 0.384153 0.493746
O O10 0.000000 0.500000 0.000000
O O11 0.084080 0.682464 0.136349
O O12 0.628268 0.252996 0.523317
O O13 0.684834 0.944407 0.580659
O O14 0.860401 0.956381 0.839157
O O15 0.573721 0.794668 0.057568
O O16 0.112689 0.235437 0.431470
O O17 0.000000 0.500000 0.500000
O O18 0.000000 0.000000 0.000000
#
# Coordination Sequence:
#
# PCOD9106234 Si02
#       8
#     2   2   2   2   2   2   2   2
#     4  10  21  37  64  94 118 160 212 261 311 377
#     4  10  21  35  59  96 124 158 210 263 314 373
#     4  11  21  42  65  87 123 168 215 259 314 384
#     4  11  19  36  63  92 121 159 205 259 307 379
#     4  10  20  39  68  90 120 172 213 258 313 387
#     4  11  23  42  63  88 130 174 207 257 329 383
#     4   9  19  39  63  88 122 167 209 252 320 382
#     4  12  25  42  61  91 126 167 213 262 324 382
#
# _framework density 20.389102999999999
#
# number of rings (size 3 to 8) (size 9 to 14) (size 15 to 20)
#    0.000    1.500    2.500    4.875    1.750    0.500 
#    4.500    0.000    0.000    2.250    0.000    0.000 
#    0.000    0.000    0.000    0.000    0.000    0.000 
#
# Total GULP energy -89134.902290 kJ/mol
# GULP energy per Si atom -5570.931393 kJ/mol
# Density = 2.034270 g / cm^3
# Si number density = 20.389103 Si / 1000 Ang^3
#
#
#
# Elastic Constant Matrix: (Units=GPa)
#
#
# Indices 1 2 3 4 5 6 
#
# 1 34.0573 22.7950 16.5510 -8.7617 -7.3072 -16.7066
# 2 22.7950 82.0369 41.6237 15.2023 -9.8001 -19.4797
# 3 16.5510 41.6237 98.6575 -6.8038 -19.0902 -6.1854
# 4 -8.7617 15.2023 -6.8038 45.3568 -8.0388 -4.8167
# 5 -7.3072 -9.8001 -19.0902 -8.0388 33.9128 -7.9690
# 6 -16.7066 -19.4797 -6.1854 -4.8167 -7.9690 42.6312
#
#
#
# Elastic Compliance Matrix: (Units=1/GPa)
#
#
# Indices 1 2 3 4 5 6 
#
# 1 0.059783 -0.014289 0.003332 0.023259 0.021801 0.024086
# 2 -0.014289 0.022696 -0.008710 -0.012236 -0.004000 0.001377
# 3 0.003332 -0.008710 0.015768 0.007848 0.009471 0.002271
# 4 0.023259 -0.012236 0.007848 0.036153 0.017278 0.011977
# 5 0.021801 -0.004000 0.009471 0.017278 0.046875 0.018804
# 6 0.024086 0.001377 0.002271 0.011977 0.018804 0.038723
#
#
# Mechanical properties :
#
#
# Convention : Reuss Voigt Hill
#
# Bulk Modulus (GPa) = 16.97402 41.85458 29.41430
# Shear Modulus (GPa) = 17.92315 33.29896 25.61106
#
# Velocity S-wave (km/s) = 2.96810 4.04564 3.54802
# Velocity P-wave (km/s) = 4.48211 6.51118 5.58949
#
# Compressibility (1/GPa) = 0.05891355
#
# Stress axis : x y z
#
# Youngs Moduli (GPa) = 16.72709 44.06118 63.41939
#
# Poissons Ratio (x) = 0.62957 -0.21129
# Poissons Ratio (y) = 0.23901 0.55237
# Poissons Ratio (z) = -0.05573 0.38377
#
# Static dielectric constant tensor:
#      x y z
#    x 1.638310 -0.022880 -0.008640 
#    y -0.022880 1.703390 -0.071860 
#    z -0.008640 -0.071860 1.700490 
# 
# From -- ./inp_files/352353.got.cif
#   From: 2010.05.17/outbox.cif.g08.bks.cpg/sg2_177_cif.got.tgz:352353.got - 2010.06.03 11:33:40.
