data_PCOD9106031
_publ_section_title
;
Structure prediction by ZEFSAII (Michael W. Deem and Ramdas Pophale) SiO2 
 PCOD9106031
Probable space group: P -1
;
_chemical_formula_sum "Si O2"
_cell_formula_units_Z 16
_cell_length_a 13.134261
_cell_length_b 8.617943
_cell_length_c 12.979244
_cell_angle_alpha 49.695625
_cell_angle_beta 54.032870
_cell_angle_gamma 91.508006
_cell_volume 682.713672
_symmetry_space_group_name_H-M "P -1"
_symmetry_group_IT_number 2
_symmetry_cell_setting 'triclinic'
loop_
_space_group_symop_operation_xyz
x,y,z
-x,-y,-z
loop_
_atom_site_type_symbol
_atom_site_label
_atom_site_fract_x
_atom_site_fract_y
_atom_site_fract_z
Si Si1 0.229238 0.516227 0.479375
Si Si2 0.874035 0.313482 0.851751
Si Si3 0.341337 0.359638 0.298865
Si Si4 0.531091 0.119814 0.101360
Si Si5 0.846606 0.579163 0.084658
Si Si6 0.802916 0.821293 0.179866
Si Si7 0.451877 0.794975 0.706587
Si Si8 0.917268 0.236916 0.302677
O O1 0.245870 0.408863 0.411312
O O2 0.276041 0.401492 0.590281
O O3 0.039120 0.396021 0.661478
O O4 0.372030 0.841043 0.264799
O O5 0.955196 0.572939 0.763551
O O6 0.713238 0.215801 0.925462
O O7 0.789964 0.048201 0.087265
O O8 0.455891 0.321755 0.308329
O O9 0.211036 0.066955 0.448671
O O10 0.450697 0.625163 0.049806
O O11 0.516704 0.093897 0.244945
O O12 0.772815 0.688966 0.143596
O O13 0.739943 0.437019 0.106908
O O14 0.848428 0.387524 0.243173
O O15 0.026115 0.787253 0.833920
O O16 0.000000 0.000000 0.000000
O O17 0.500000 0.000000 0.500000
#
# Coordination Sequence:
#
# PCOD9106031 Si02
#       8
#     2   2   2   2   2   2   2   2
#     4  11  25  47  71 103 146 191 237 292 354 427
#     4  11  24  44  75 106 142 189 234 295 361 422
#     4  12  28  47  71 102 146 194 231 296 359 422
#     4  12  28  51  70 105 148 189 241 291 356 431
#     4  11  21  38  68 104 137 176 232 298 348 412
#     4  10  20  39  67 105 140 178 230 295 358 405
#     4  12  25  45  72 105 135 183 242 294 354 417
#     4  11  21  41  70 102 142 177 239 295 346 421
#
# _framework density 23.435884999999999
#
# number of rings (size 3 to 8) (size 9 to 14) (size 15 to 20)
#    0.000    0.750    5.000    3.750    5.250    1.500 
#    2.250    0.000    0.000    0.000    0.000    0.000 
#    0.000    0.000    0.000    0.000    0.000    0.000 
#
# Total GULP energy -89299.001781 kJ/mol
# GULP energy per Si atom -5581.187611 kJ/mol
# Density = 2.338254 g / cm^3
# Si number density = 23.435885 Si / 1000 Ang^3
#
#
#
# Elastic Constant Matrix: (Units=GPa)
#
#
# Indices 1 2 3 4 5 6 
#
# 1 44.7121 10.6104 29.4763 5.5255 3.9980 -20.8713
# 2 10.6104 38.6994 39.5723 -11.4356 -5.6790 4.9018
# 3 29.4763 39.5723 132.8389 -31.3592 11.9003 -17.3905
# 4 5.5255 -11.4356 -31.3592 40.5066 -8.5252 0.5766
# 5 3.9980 -5.6790 11.9003 -8.5252 34.0011 -6.0111
# 6 -20.8713 4.9018 -17.3905 0.5766 -6.0111 28.0790
#
#
#
# Elastic Compliance Matrix: (Units=1/GPa)
#
#
# Indices 1 2 3 4 5 6 
#
# 1 0.049711 -0.020745 -0.003443 -0.017046 -0.005739 0.037561
# 2 -0.020745 0.056101 -0.015067 0.010420 0.014083 -0.031744
# 3 -0.003443 -0.015067 0.016159 0.007705 -0.004242 0.009012
# 4 -0.017046 0.010420 0.007705 0.037946 0.009049 -0.008559
# 5 -0.005739 0.014083 -0.004242 0.009049 0.035863 -0.001860
# 6 0.037561 -0.031744 0.009012 -0.008559 -0.001860 0.074434
#
#
# Mechanical properties :
#
#
# Convention : Reuss Voigt Hill
#
# Bulk Modulus (GPa) = 23.00936 41.72984 32.36960
# Shear Modulus (GPa) = 13.76606 29.62343 21.69474
#
# Velocity S-wave (km/s) = 2.42625 3.55916 3.04584
# Velocity P-wave (km/s) = 4.20574 5.89362 5.11972
#
# Compressibility (1/GPa) = 0.04346057
#
# Stress axis : x y z
#
# Youngs Moduli (GPa) = 20.11611 17.82498 61.88456
#
# Poissons Ratio (x) = 0.36979 0.21309
# Poissons Ratio (y) = 0.41732 0.93240
# Poissons Ratio (z) = 0.06927 0.26856
#
# Static dielectric constant tensor:
#      x y z
#    x 1.935380 -0.084070 -0.048060 
#    y -0.084070 1.835730 0.073570 
#    z -0.048060 0.073570 2.036220 
# 
# From -- ./inp_files/529290.got.cif
#   From: 2010.05.17/outbox.cif.g08.bks.cpg/sg2_265_cif.got.tgz:529290.got - 2010.06.03 11:33:40.
