data_PCOD9106868
_publ_section_title
;
Structure prediction by ZEFSAII (Michael W. Deem and Ramdas Pophale) SiO2 
 PCOD9106868
Probable space group: P -1
;
_chemical_formula_sum "Si O2"
_cell_formula_units_Z 14
_cell_length_a 17.874464
_cell_length_b 13.799834
_cell_length_c 11.175255
_cell_angle_alpha 159.269256
_cell_angle_beta 145.104626
_cell_angle_gamma 35.025018
_cell_volume 539.630124
_symmetry_space_group_name_H-M "P -1"
_symmetry_group_IT_number 2
_symmetry_cell_setting 'triclinic'
loop_
_space_group_symop_operation_xyz
x,y,z
-x,-y,-z
loop_
_atom_site_type_symbol
_atom_site_label
_atom_site_fract_x
_atom_site_fract_y
_atom_site_fract_z
Si Si1 0.704119 0.928674 0.165989
Si Si2 0.017837 0.840019 0.528232
Si Si3 0.519551 0.263167 0.905495
Si Si4 0.190389 0.226131 0.109974
Si Si5 0.652075 0.559894 0.893784
Si Si6 0.284440 0.598061 0.834404
Si Si7 0.092471 0.693665 0.891672
O O1 0.866547 0.888365 0.336783
O O2 0.634004 0.255428 0.477590
O O3 0.691486 0.835100 0.905242
O O4 0.669340 0.738757 0.006773
O O5 0.078598 0.512520 0.257882
O O6 0.118830 0.970606 0.733126
O O7 0.992162 0.035014 0.837109
O O8 0.412107 0.529038 0.011155
O O9 0.500000 0.000000 0.500000
O O10 0.469060 0.277336 0.990821
O O11 0.667791 0.286746 0.092002
O O12 0.243917 0.317875 0.412141
O O13 0.790652 0.482338 0.066882
O O14 0.168913 0.777164 0.973719
O O15 0.000000 0.500000 0.500000
#
# Coordination Sequence:
#
# PCOD9106868 Si02
#       7
#     2   2   2   2   2   2   2
#     4  11  23  43  64  93 132 174 215 254 312 380
#     4  11  23  38  63  95 135 174 208 251 318 384
#     4  10  24  44  69  89 126 167 214 270 327 380
#     4  12  24  41  64  95 132 171 216 258 309 383
#     4  10  24  42  66  93 124 173 214 261 322 373
#     4  10  24  41  63  97 125 169 210 270 322 379
#     4  10  20  40  61  98 132 163 208 267 320 382
#
# _framework density 25.943697
#
# number of rings (size 3 to 8) (size 9 to 14) (size 15 to 20)
#    0.000    1.429    1.429    3.429   10.000    0.571 
#    0.000    1.429    0.000    0.000    0.000    0.000 
#    0.000    0.000    0.000    0.000    0.000    0.000 
#
# Total GULP energy -78434.446342 kJ/mol
# GULP energy per Si atom -5602.460453 kJ/mol
# Density = 2.588465 g / cm^3
# Si number density = 25.943697 Si / 1000 Ang^3
#
#
#
# Elastic Constant Matrix: (Units=GPa)
#
#
# Indices 1 2 3 4 5 6 
#
# 1 213.2302 50.4906 19.7127 17.0853 -17.6750 1.6860
# 2 50.4906 87.3166 24.9100 13.1842 5.9663 11.9942
# 3 19.7127 24.9100 72.7954 19.2408 -14.5338 2.8600
# 4 17.0853 13.1842 19.2408 34.4843 2.5120 1.6196
# 5 -17.6750 5.9663 -14.5338 2.5120 58.2195 4.4419
# 6 1.6860 11.9942 2.8600 1.6196 4.4419 23.3713
#
#
#
# Elastic Compliance Matrix: (Units=1/GPa)
#
#
# Indices 1 2 3 4 5 6 
#
# 1 0.005815 -0.003514 0.000595 -0.002084 0.002286 0.001021
# 2 -0.003514 0.016154 -0.004629 -0.001294 -0.003307 -0.006752
# 3 0.000595 -0.004629 0.018826 -0.009432 0.005794 -0.000419
# 4 -0.002084 -0.001294 -0.009432 0.036097 -0.004436 0.000310
# 5 0.002286 -0.003307 0.005794 -0.004436 0.020052 -0.002680
# 6 0.001021 -0.006752 -0.000419 0.000310 -0.002680 0.046718
#
#
# Mechanical properties :
#
#
# Convention : Reuss Voigt Hill
#
# Bulk Modulus (GPa) = 38.91225 62.61876 50.76551
# Shear Modulus (GPa) = 29.88192 41.76361 35.82276
#
# Velocity S-wave (km/s) = 3.39750 4.01656 3.71993
# Velocity P-wave (km/s) = 5.51561 6.76011 6.16932
#
# Compressibility (1/GPa) = 0.02569884
#
# Stress axis : x y z
#
# Youngs Moduli (GPa) = 171.95980 61.90361 53.11782
#
# Poissons Ratio (x) = 0.21754 -0.03160
# Poissons Ratio (y) = 0.60430 0.24589
# Poissons Ratio (z) = -0.10231 0.28656
#
# Static dielectric constant tensor:
#      x y z
#    x 2.033980 0.031940 0.010810 
#    y 0.031940 2.111030 -0.041460 
#    z 0.010810 -0.041460 2.000340 
# 
# From -- ./inp_files/76246.got.cif
#   From: 2010.05.17/outbox.cif.g08.bks.cpg/sg2_39_cif.got.tgz:76246.got - 2010.06.03 11:33:40.
