data_PCOD9106911
_publ_section_title
;
Structure prediction by ZEFSAII (Michael W. Deem and Ramdas Pophale) SiO2 
 PCOD9106911
Probable space group: P -1
;
_chemical_formula_sum "Si O2"
_cell_formula_units_Z 16
_cell_length_a 12.224772
_cell_length_b 14.678550
_cell_length_c 19.849230
_cell_angle_alpha 156.614153
_cell_angle_beta 33.798505
_cell_angle_gamma 151.652947
_cell_volume 666.153921
_symmetry_space_group_name_H-M "P -1"
_symmetry_group_IT_number 2
_symmetry_cell_setting 'triclinic'
loop_
_space_group_symop_operation_xyz
x,y,z
-x,-y,-z
loop_
_atom_site_type_symbol
_atom_site_label
_atom_site_fract_x
_atom_site_fract_y
_atom_site_fract_z
Si Si1 0.369117 0.464787 0.265280
Si Si2 0.365291 0.940442 0.429234
Si Si3 0.855193 0.276112 0.978639
Si Si4 0.695504 0.381877 0.953712
Si Si5 0.264606 0.087921 0.433656
Si Si6 0.433903 0.330366 0.285093
Si Si7 0.337275 0.165743 0.880603
Si Si8 0.047348 0.353448 0.231808
O O1 0.325468 0.388126 0.313794
O O2 0.151440 0.346071 0.246530
O O3 0.519204 0.790673 0.403142
O O4 0.532630 0.367066 0.086694
O O5 0.566006 0.876537 0.266774
O O6 0.141456 0.665229 0.382745
O O7 0.295679 0.017239 0.446629
O O8 0.751485 0.970788 0.799661
O O9 0.652199 0.312467 0.135243
O O10 0.000000 0.500000 0.000000
O O11 0.047840 0.358400 0.993911
O O12 0.566146 0.376575 0.948294
O O13 0.703358 0.113066 0.765624
O O14 0.450973 0.408060 0.548397
O O15 0.000000 0.000000 0.500000
O O16 0.155272 0.253112 0.050972
O O17 0.221521 0.871974 0.777628
#
# Coordination Sequence:
#
# PCOD9106911 Si02
#       8
#     2   2   2   2   2   2   2   2
#     4  10  21  40  61  91 126 159 210 256 304 372
#     4  10  21  39  62  88 126 162 206 257 306 365
#     4  11  21  40  65  88 125 163 206 257 305 368
#     4  10  20  40  62  86 129 161 202 257 307 367
#     4  10  20  40  62  92 128 163 208 255 310 375
#     4  10  22  40  62  92 122 164 207 252 310 367
#     4   9  21  40  59  89 125 159 205 255 308 373
#     4  10  20  41  62  90 122 161 210 256 306 363
#
# _framework density 24.018473
#
# number of rings (size 3 to 8) (size 9 to 14) (size 15 to 20)
#    0.000    2.000    2.500    0.750    0.000    0.500 
#   27.000    0.625    0.000    0.000    0.000    0.000 
#    0.000    0.000    0.000    0.000    0.000    0.000 
#
# Total GULP energy -89446.241724 kJ/mol
# GULP energy per Si atom -5590.390108 kJ/mol
# Density = 2.396381 g / cm^3
# Si number density = 24.018473 Si / 1000 Ang^3
#
#
#
# Elastic Constant Matrix: (Units=GPa)
#
#
# Indices 1 2 3 4 5 6 
#
# 1 57.0506 21.2879 6.5217 1.2881 6.3276 13.0052
# 2 21.2879 99.9786 38.8049 35.6298 -0.9439 -1.4774
# 3 6.5217 38.8049 153.9500 26.9408 2.6433 3.4669
# 4 1.2881 35.6298 26.9408 46.8971 -0.6879 -2.1561
# 5 6.3276 -0.9439 2.6433 -0.6879 29.8699 5.1934
# 6 13.0052 -1.4774 3.4669 -2.1561 5.1934 33.1607
#
#
#
# Elastic Compliance Matrix: (Units=1/GPa)
#
#
# Indices 1 2 3 4 5 6 
#
# 1 0.021960 -0.006182 0.000253 0.003524 -0.003370 -0.008157
# 2 -0.006182 0.015934 -0.001964 -0.010676 0.001317 0.002439
# 3 0.000253 -0.001964 0.007522 -0.002894 -0.000664 -0.001057
# 4 0.003524 -0.010676 -0.002894 0.031020 -0.000199 0.000493
# 5 -0.003370 0.001317 -0.000664 -0.000199 0.034991 -0.004043
# 6 -0.008157 0.002439 -0.001057 0.000493 -0.004043 0.034240
#
#
# Mechanical properties :
#
#
# Convention : Reuss Voigt Hill
#
# Bulk Modulus (GPa) = 33.75002 49.35646 41.55324
# Shear Modulus (GPa) = 29.18359 38.27654 33.73007
#
# Velocity S-wave (km/s) = 3.48954 3.99636 3.75152
# Velocity P-wave (km/s) = 5.50618 6.47213 6.00860
#
# Compressibility (1/GPa) = 0.02962961
#
# Stress axis : x y z
#
# Youngs Moduli (GPa) = 45.53736 62.75924 132.95106
#
# Poissons Ratio (x) = 0.38799 -0.03362
# Poissons Ratio (y) = 0.28152 0.26107
# Poissons Ratio (z) = -0.01152 0.12324
#
# Static dielectric constant tensor:
#      x y z
#    x 2.021150 -0.012290 -0.019640 
#    y -0.012290 1.883080 0.013250 
#    z -0.019640 0.013250 1.924920 
# 
# From -- ./inp_files/201805.got.cif
#   From: 2010.05.17/outbox.cif.g08.bks.cpg/sg2_101_cif.got.tgz:201805.got - 2010.06.03 11:33:40.
