data_PCOD9106999
_publ_section_title
;
Structure prediction by ZEFSAII (Michael W. Deem and Ramdas Pophale) SiO2 
 PCOD9106999
Probable space group: P -1
;
_chemical_formula_sum "Si O2"
_cell_formula_units_Z 16
_cell_length_a 9.871952
_cell_length_b 9.188668
_cell_length_c 19.576476
_cell_angle_alpha 119.170805
_cell_angle_beta 140.462303
_cell_angle_gamma 85.547336
_cell_volume 832.929488
_symmetry_space_group_name_H-M "P -1"
_symmetry_group_IT_number 2
_symmetry_cell_setting 'triclinic'
loop_
_space_group_symop_operation_xyz
x,y,z
-x,-y,-z
loop_
_atom_site_type_symbol
_atom_site_label
_atom_site_fract_x
_atom_site_fract_y
_atom_site_fract_z
Si Si1 0.028578 0.944916 0.386671
Si Si2 0.232702 0.815510 0.881141
Si Si3 0.227547 0.465883 0.879851
Si Si4 0.352130 0.050484 0.658717
Si Si5 0.109903 0.615417 0.999714
Si Si6 0.941010 0.256307 0.352034
Si Si7 0.345912 0.702730 0.639640
Si Si8 0.899724 0.810463 0.871732
O O1 0.962726 0.746891 0.276857
O O2 0.816148 0.890466 0.349688
O O3 0.290710 0.056245 0.556539
O O4 0.995065 0.090390 0.357964
O O5 0.256236 0.645200 0.886920
O O6 0.072434 0.734242 0.731538
O O7 0.078029 0.858327 0.886371
O O8 0.500000 0.000000 0.000000
O O9 0.500000 0.500000 0.000000
O O10 0.157155 0.490606 0.934639
O O11 0.630479 0.185694 0.829850
O O12 0.267556 0.824307 0.588563
O O13 0.000000 0.500000 0.000000
O O14 0.927967 0.662523 0.898055
O O15 0.158615 0.468767 0.511926
O O16 0.685611 0.220223 0.280789
O O17 0.613597 0.742255 0.730686
O O18 0.000000 0.000000 0.000000
#
# Coordination Sequence:
#
# PCOD9106999 Si02
#       8
#     2   2   2   2   2   2   2   2
#     4  10  21  38  66  92 123 159 210 254 310 356
#     4  11  24  39  63  91 125 161 211 253 305 368
#     4  11  22  41  63  91 125 163 203 261 304 366
#     4  10  20  40  62  91 125 161 201 259 304 369
#     4  11  25  40  62  92 128 160 207 249 315 371
#     4  10  22  39  65  95 120 161 208 258 301 378
#     4  10  21  40  64  89 126 158 209 250 316 361
#     4  11  23  41  63  89 124 166 200 260 307 366
#
# _framework density 19.209311
#
# number of rings (size 3 to 8) (size 9 to 14) (size 15 to 20)
#    0.000    1.500    2.500    2.250    5.250    4.500 
#    0.000    0.625    0.000    0.000    0.000    0.000 
#    0.000    0.000    0.000    0.000    0.000    0.000 
#
# Total GULP energy -89218.044054 kJ/mol
# GULP energy per Si atom -5576.127753 kJ/mol
# Density = 1.916559 g / cm^3
# Si number density = 19.209311 Si / 1000 Ang^3
#
#
#
# Elastic Constant Matrix: (Units=GPa)
#
#
# Indices 1 2 3 4 5 6 
#
# 1 137.2952 77.3410 35.0862 -9.2518 -19.6943 -1.2306
# 2 77.3410 82.4432 25.1353 5.7333 -15.2028 -7.8675
# 3 35.0862 25.1353 60.6424 -0.8786 -14.1617 -5.5613
# 4 -9.2518 5.7333 -0.8786 34.7616 3.2614 -2.1573
# 5 -19.6943 -15.2028 -14.1617 3.2614 33.2019 -4.3623
# 6 -1.2306 -7.8675 -5.5613 -2.1573 -4.3623 32.7581
#
#
#
# Elastic Compliance Matrix: (Units=1/GPa)
#
#
# Indices 1 2 3 4 5 6 
#
# 1 0.018091 -0.016595 -0.003704 0.007210 0.000396 -0.003407
# 2 -0.016595 0.030353 -0.001280 -0.009548 0.005304 0.006527
# 3 -0.003704 -0.001280 0.021112 -0.000631 0.006810 0.004003
# 4 0.007210 -0.009548 -0.000631 0.032556 -0.003624 -0.000468
# 5 0.000396 0.005304 0.006810 -0.003624 0.036980 0.007131
# 6 -0.003407 0.006527 0.004003 -0.000468 0.007131 0.033565
#
#
# Mechanical properties :
#
#
# Convention : Reuss Voigt Hill
#
# Bulk Modulus (GPa) = 37.88370 61.72287 49.80329
# Shear Modulus (GPa) = 22.26040 29.66554 25.96297
#
# Velocity S-wave (km/s) = 3.40786 3.93406 3.68038
# Velocity P-wave (km/s) = 5.93709 7.26893 6.63650
#
# Compressibility (1/GPa) = 0.02639658
#
# Stress axis : x y z
#
# Youngs Moduli (GPa) = 55.27702 32.94557 47.36660
#
# Poissons Ratio (x) = 0.54674 0.17544
# Poissons Ratio (y) = 0.91734 0.06065
# Poissons Ratio (z) = 0.20473 0.04218
#
# Static dielectric constant tensor:
#      x y z
#    x 1.679710 0.016850 0.028190 
#    y 0.016850 1.641770 0.012480 
#    z 0.028190 0.012480 1.701530 
# 
# From -- ./inp_files/209351.got.cif
#   From: 2010.05.17/outbox.cif.g08.bks.cpg/sg2_105_cif.got.tgz:209351.got - 2010.06.03 11:33:40.
