data_PCOD9106362
_publ_section_title
;
Structure prediction by ZEFSAII (Michael W. Deem and Ramdas Pophale) SiO2 
 PCOD9106362
Probable space group: P -1
;
_chemical_formula_sum "Si O2"
_cell_formula_units_Z 14
_cell_length_a 14.502903
_cell_length_b 13.504939
_cell_length_c 6.788475
_cell_angle_alpha 121.861475
_cell_angle_beta 98.751899
_cell_angle_gamma 40.465390
_cell_volume 653.537778
_symmetry_space_group_name_H-M "P -1"
_symmetry_group_IT_number 2
_symmetry_cell_setting 'triclinic'
loop_
_space_group_symop_operation_xyz
x,y,z
-x,-y,-z
loop_
_atom_site_type_symbol
_atom_site_label
_atom_site_fract_x
_atom_site_fract_y
_atom_site_fract_z
Si Si1 0.502704 0.778659 0.623466
Si Si2 0.880162 0.934415 0.622463
Si Si3 0.364046 0.682813 0.295353
Si Si4 0.150561 0.291965 0.724538
Si Si5 0.747628 0.429378 0.651973
Si Si6 0.290989 0.057391 0.180547
Si Si7 0.388306 0.249001 0.781211
O O1 0.426881 0.736909 0.471792
O O2 0.643031 0.598948 0.629705
O O3 0.577126 0.772059 0.459315
O O4 0.365939 0.987554 0.917219
O O5 0.854672 0.841929 0.385824
O O6 0.065905 0.765283 0.538569
O O7 0.790520 0.128603 0.687614
O O8 0.789662 0.986682 0.848210
O O9 0.322339 0.626138 0.379618
O O10 0.500000 0.500000 0.000000
O O11 0.297739 0.221302 0.766585
O O12 0.166987 0.273090 0.468061
O O13 0.000000 0.500000 0.000000
O O14 0.721338 0.534789 0.949119
O O15 0.445492 0.907652 0.215161
#
# Coordination Sequence:
#
# PCOD9106362 Si02
#       7
#     2   2   2   2   2   2   2
#     4  11  22  41  64  98 127 165 219 262 311 384
#     4  10  22  43  63  96 130 164 214 262 319 375
#     4  12  22  43  70  91 125 175 216 260 320 382
#     4  10  20  39  69  92 131 170 207 263 322 374
#     4  11  23  40  65  96 131 165 214 265 320 375
#     4   9  21  38  64  91 133 160 218 259 310 378
#     4  11  19  41  67  93 124 178 211 256 319 381
#
# _framework density 21.421866000000001
#
# number of rings (size 3 to 8) (size 9 to 14) (size 15 to 20)
#    0.857    0.571    4.286    2.143    0.000    0.571 
#    2.571    3.571    0.000    0.000    0.000    0.000 
#    0.000    0.000    0.000    0.000    0.000    0.000 
#
# Total GULP energy -78109.000972 kJ/mol
# GULP energy per Si atom -5579.214355 kJ/mol
# Density = 2.137311 g / cm^3
# Si number density = 21.421866 Si / 1000 Ang^3
#
#
#
# Elastic Constant Matrix: (Units=GPa)
#
#
# Indices 1 2 3 4 5 6 
#
# 1 97.7577 34.2808 16.5371 3.7569 -23.9732 -10.0323
# 2 34.2808 78.4470 48.6811 8.9973 -22.7831 -4.3384
# 3 16.5371 48.6811 125.4203 6.5007 -21.6883 -6.2488
# 4 3.7569 8.9973 6.5007 23.5436 7.3046 -5.8830
# 5 -23.9732 -22.7831 -21.6883 7.3046 32.4284 7.1580
# 6 -10.0323 -4.3384 -6.2488 -5.8830 7.1580 30.0897
#
#
#
# Elastic Compliance Matrix: (Units=1/GPa)
#
#
# Indices 1 2 3 4 5 6 
#
# 1 0.013825 -0.003878 0.001489 -0.003525 0.008945 0.001542
# 2 -0.003878 0.022873 -0.005736 -0.011720 0.013017 -0.004574
# 3 0.001489 -0.005736 0.011004 -0.002546 0.004941 0.000281
# 4 -0.003525 -0.011720 -0.002546 0.061403 -0.029842 0.015711
# 5 0.008945 0.013017 0.004941 -0.029842 0.059748 -0.014163
# 6 0.001542 -0.004574 0.000281 0.015711 -0.014163 0.039588
#
#
# Mechanical properties :
#
#
# Convention : Reuss Voigt Hill
#
# Bulk Modulus (GPa) = 31.79532 55.62476 43.71004
# Shear Modulus (GPa) = 21.26071 30.68741 25.97406
#
# Velocity S-wave (km/s) = 3.15378 3.78898 3.48588
# Velocity P-wave (km/s) = 5.30438 6.72046 6.05396
#
# Compressibility (1/GPa) = 0.03145117
#
# Stress axis : x y z
#
# Youngs Moduli (GPa) = 72.33460 43.71903 90.87670
#
# Poissons Ratio (x) = 0.16952 -0.13528
# Poissons Ratio (y) = 0.28048 0.52131
# Poissons Ratio (z) = -0.10768 0.25079
#
# Static dielectric constant tensor:
#      x y z
#    x 1.752540 0.014640 0.003100 
#    y 0.014640 1.775040 0.013220 
#    z 0.003100 0.013220 1.824680 
# 
# From -- ./inp_files/97359.got.cif
#   From: 2010.05.17/outbox.cif.g08.bks.cpg/sg2_49_cif.got.tgz:97359.got - 2010.06.03 11:33:40.
