data_PCOD9106790
_publ_section_title
;
Structure prediction by ZEFSAII (Michael W. Deem and Ramdas Pophale) SiO2 
 PCOD9106790
Probable space group: P -1
;
_chemical_formula_sum "Si O2"
_cell_formula_units_Z 12
_cell_length_a 12.926512
_cell_length_b 8.461820
_cell_length_c 7.140760
_cell_angle_alpha 53.258042
_cell_angle_beta 68.597898
_cell_angle_gamma 90.088554
_cell_volume 556.867410
_symmetry_space_group_name_H-M "P -1"
_symmetry_group_IT_number 2
_symmetry_cell_setting 'triclinic'
loop_
_space_group_symop_operation_xyz
x,y,z
-x,-y,-z
loop_
_atom_site_type_symbol
_atom_site_label
_atom_site_fract_x
_atom_site_fract_y
_atom_site_fract_z
Si Si1 0.248128 0.839535 0.549549
Si Si2 0.848264 0.719813 0.312927
Si Si3 0.650672 0.922976 0.357949
Si Si4 0.278922 0.743891 0.213398
Si Si5 0.562688 0.325591 0.553069
Si Si6 0.021689 0.923186 0.744649
O O1 0.333663 0.034775 0.462169
O O2 0.241540 0.879045 0.303656
O O3 0.310647 0.656356 0.637614
O O4 0.122483 0.810581 0.738627
O O5 0.812859 0.480944 0.561581
O O6 0.727980 0.777818 0.349518
O O7 0.927489 0.872917 0.304930
O O8 0.913937 0.775549 0.033040
O O9 0.526175 0.835583 0.408214
O O10 0.708475 0.145993 0.069220
O O11 0.404203 0.737677 0.216860
O O12 0.500000 0.500000 0.500000
O O13 0.000000 0.000000 0.500000
#
# Coordination Sequence:
#
# PCOD9106790 Si02
#       6
#     2   2   2   2   2   2
#     4   9  22  36  60  90 115 157 200 243 290 354
#     4  10  22  39  62  89 121 154 199 248 295 353
#     4  11  19  40  62  87 125 156 194 243 300 354
#     4  10  22  37  60  90 118 160 192 241 301 348
#     4  10  20  40  61  87 124 157 192 250 294 350
#     4  10  21  41  62  86 120 159 198 248 298 348
#
# _framework density 21.549116000000001
#
# number of rings (size 3 to 8) (size 9 to 14) (size 15 to 20)
#    1.000    1.000    1.667    2.000    0.000    2.000 
#    0.000   14.167    0.000    0.000    0.000    0.000 
#    0.000    0.000    0.000    0.000    0.000    0.000 
#
# Total GULP energy -66809.041527 kJ/mol
# GULP energy per Si atom -5567.420127 kJ/mol
# Density = 2.150007 g / cm^3
# Si number density = 21.549116 Si / 1000 Ang^3
#
#
#
# Elastic Constant Matrix: (Units=GPa)
#
#
# Indices 1 2 3 4 5 6 
#
# 1 76.4852 36.3405 20.2875 12.9758 -11.9998 -8.5655
# 2 36.3405 76.1648 33.6755 3.6465 -10.2642 -12.5104
# 3 20.2875 33.6755 44.9969 0.9493 1.9076 0.0305
# 4 12.9758 3.6465 0.9493 26.0307 -0.0538 -10.3888
# 5 -11.9998 -10.2642 1.9076 -0.0538 23.5690 6.0507
# 6 -8.5655 -12.5104 0.0305 -10.3888 6.0507 40.3257
#
#
#
# Elastic Compliance Matrix: (Units=1/GPa)
#
#
# Indices 1 2 3 4 5 6 
#
# 1 0.019936 -0.006195 -0.004498 -0.009421 0.008137 -0.001332
# 2 -0.006195 0.025290 -0.016517 0.002582 0.007647 0.006060
# 3 -0.004498 -0.016517 0.037068 0.001593 -0.011458 -0.003978
# 4 -0.009421 0.002582 0.001593 0.047488 -0.006786 0.012051
# 5 0.008137 0.007647 -0.011458 -0.006786 0.052219 -0.005474
# 6 -0.001332 0.006060 -0.003978 0.012051 -0.005474 0.030324
#
#
# Mechanical properties :
#
#
# Convention : Reuss Voigt Hill
#
# Bulk Modulus (GPa) = 35.87381 42.02822 38.95101
# Shear Modulus (GPa) = 18.11356 25.14131 21.62744
#
# Velocity S-wave (km/s) = 2.90241 3.41940 3.17146
# Velocity P-wave (km/s) = 5.28352 5.92752 5.61476
#
# Compressibility (1/GPa) = 0.02787549
#
# Stress axis : x y z
#
# Youngs Moduli (GPa) = 50.15926 39.54101 26.97767
#
# Poissons Ratio (x) = 0.24495 0.12134
# Poissons Ratio (y) = 0.31072 0.44559
# Poissons Ratio (z) = 0.22561 0.65309
#
# Static dielectric constant tensor:
#      x y z
#    x 1.810510 -0.002490 -0.011370 
#    y -0.002490 1.823600 0.019830 
#    z -0.011370 0.019830 1.769500 
# 
# From -- ./inp_files/88401.got.cif
#   From: 2010.05.17/outbox.cif.g08.bks.cpg/sg2_45_cif.got.tgz:88401.got - 2010.06.03 11:33:40.
