data_PCOD9106072
_publ_section_title
;
Structure prediction by ZEFSAII (Michael W. Deem and Ramdas Pophale) SiO2 
 PCOD9106072
Probable space group: P -1
;
_chemical_formula_sum "Si O2"
_cell_formula_units_Z 12
_cell_length_a 7.263128
_cell_length_b 13.587556
_cell_length_c 9.295492
_cell_angle_alpha 55.516614
_cell_angle_beta 71.563465
_cell_angle_gamma 42.840850
_cell_volume 506.101079
_symmetry_space_group_name_H-M "P -1"
_symmetry_group_IT_number 2
_symmetry_cell_setting 'triclinic'
loop_
_space_group_symop_operation_xyz
x,y,z
-x,-y,-z
loop_
_atom_site_type_symbol
_atom_site_label
_atom_site_fract_x
_atom_site_fract_y
_atom_site_fract_z
Si Si1 0.966078 0.818544 0.574642
Si Si2 0.195446 0.758336 0.284284
Si Si3 0.557084 0.797087 0.633602
Si Si4 0.316158 0.849812 0.934927
Si Si5 0.823896 0.327741 0.043593
Si Si6 0.157109 0.524267 0.337531
O O1 0.198104 0.757193 0.455836
O O2 0.796117 0.788964 0.557970
O O3 0.060768 0.731740 0.776316
O O4 0.738826 0.020323 0.482951
O O5 0.392715 0.760622 0.143757
O O6 0.233020 0.608863 0.339605
O O7 0.892872 0.948121 0.167098
O O8 0.612622 0.656966 0.644466
O O9 0.551170 0.778187 0.822711
O O10 0.162542 0.807243 0.925632
O O11 0.500000 0.500000 0.000000
O O12 0.968195 0.358864 0.873836
O O13 0.000000 0.500000 0.500000
#
# Coordination Sequence:
#
# PCOD9106072 Si02
#       6
#     2   2   2   2   2   2
#     4  10  22  40  66  93 123 166 207 251 308 373
#     4   9  19  36  65  90 125 161 206 255 303 367
#     4  10  20  39  67  92 126 161 207 251 313 368
#     4   9  19  39  64  89 123 167 201 254 307 368
#     4  11  23  42  65  91 125 165 210 252 310 368
#     4  11  21  40  64  90 130 162 204 260 307 366
#
# _framework density 23.710678999999999
#
# number of rings (size 3 to 8) (size 9 to 14) (size 15 to 20)
#    0.000    2.000    3.333    0.000    0.000    3.333 
#    0.000    5.833    7.333    0.000    0.000    0.000 
#    0.000    0.000    0.000    0.000    0.000    0.000 
#
# Total GULP energy -67004.481259 kJ/mol
# GULP energy per Si atom -5583.706772 kJ/mol
# Density = 2.365671 g / cm^3
# Si number density = 23.710679 Si / 1000 Ang^3
#
#
#
# Elastic Constant Matrix: (Units=GPa)
#
#
# Indices 1 2 3 4 5 6 
#
# 1 45.7280 30.4968 44.2190 -9.7847 -9.5050 8.0528
# 2 30.4968 145.8977 46.5677 -5.9164 2.0984 26.2395
# 3 44.2190 46.5677 196.0674 28.0429 -11.2466 -7.3843
# 4 -9.7847 -5.9164 28.0429 42.5279 5.0625 -20.5996
# 5 -9.5050 2.0984 -11.2466 5.0625 38.1328 5.5431
# 6 8.0528 26.2395 -7.3843 -20.5996 5.5431 27.7519
#
#
#
# Elastic Compliance Matrix: (Units=1/GPa)
#
#
# Indices 1 2 3 4 5 6 
#
# 1 0.037493 -0.004443 -0.008992 0.013133 0.005249 -0.000371
# 2 -0.004443 0.010166 -0.001155 -0.004871 0.000431 -0.012331
# 3 -0.008992 -0.001155 0.008674 -0.008396 0.001573 -0.000537
# 4 0.013133 -0.004871 -0.008396 0.051815 -0.011530 0.039324
# 5 0.005249 0.000431 0.001573 -0.011530 0.031893 -0.016441
# 6 -0.000371 -0.012331 -0.000537 0.039324 -0.016441 0.080131
#
#
# Mechanical properties :
#
#
# Convention : Reuss Voigt Hill
#
# Bulk Modulus (GPa) = 36.83043 70.02891 53.42967
# Shear Modulus (GPa) = 19.34958 39.44314 29.39636
#
# Velocity S-wave (km/s) = 2.85979 4.08305 3.52489
# Velocity P-wave (km/s) = 5.14505 7.19912 6.25695
#
# Compressibility (1/GPa) = 0.02715146
#
# Stress axis : x y z
#
# Youngs Moduli (GPa) = 26.67142 98.36941 115.29344
#
# Poissons Ratio (x) = 0.43709 1.03669
# Poissons Ratio (y) = 0.11851 0.13321
# Poissons Ratio (z) = 0.23982 0.11365
#
# Static dielectric constant tensor:
#      x y z
#    x 1.868220 -0.023390 -0.037700 
#    y -0.023390 1.880130 0.024310 
#    z -0.037700 0.024310 1.987960 
# 
# From -- ./inp_files/185197.got.cif
#   From: 2010.05.17/outbox.cif.g08.bks.cpg/sg2_93_cif.got.tgz:185197.got - 2010.06.03 11:33:40.
