data_PCOD9106247
_publ_section_title
;
Structure prediction by ZEFSAII (Michael W. Deem and Ramdas Pophale) SiO2 
 PCOD9106247
Probable space group: P -1
;
_chemical_formula_sum "Si O2"
_cell_formula_units_Z 16
_cell_length_a 10.323985
_cell_length_b 8.301427
_cell_length_c 20.209510
_cell_angle_alpha 145.976894
_cell_angle_beta 130.164972
_cell_angle_gamma 60.155861
_cell_volume 737.823543
_symmetry_space_group_name_H-M "P -1"
_symmetry_group_IT_number 2
_symmetry_cell_setting 'triclinic'
loop_
_space_group_symop_operation_xyz
x,y,z
-x,-y,-z
loop_
_atom_site_type_symbol
_atom_site_label
_atom_site_fract_x
_atom_site_fract_y
_atom_site_fract_z
Si Si1 0.660138 0.591673 0.129838
Si Si2 0.518177 0.350826 0.136008
Si Si3 0.059817 0.800821 0.894700
Si Si4 0.241457 0.429002 0.590626
Si Si5 0.398726 0.778108 0.638589
Si Si6 0.141241 0.276245 0.968217
Si Si7 0.032117 0.123490 0.319446
Si Si8 0.753038 0.658067 0.659927
O O1 0.621148 0.473967 0.149891
O O2 0.818301 0.414700 0.104979
O O3 0.673702 0.933430 0.260216
O O4 0.500000 0.500000 0.000000
O O5 0.618078 0.498606 0.281589
O O6 0.326350 0.434393 0.094312
O O7 0.500000 0.000000 0.000000
O O8 0.901262 0.620266 0.747399
O O9 0.127520 0.023872 0.934163
O O10 0.000000 0.000000 0.000000
O O11 0.342030 0.554323 0.601571
O O12 0.143386 0.133533 0.427032
O O13 0.082647 0.604663 0.621303
O O14 0.599493 0.800331 0.695139
O O15 0.316354 0.644677 0.498755
O O16 0.000000 0.500000 0.000000
O O17 0.108922 0.128339 0.835226
O O18 0.160816 0.157938 0.310663
#
# Coordination Sequence:
#
# PCOD9106247 Si02
#       8
#     2   2   2   2   2   2   2   2
#     4  12  26  40  64  95 127 167 212 259 316 381
#     4  12  22  41  64  93 125 162 215 263 310 378
#     4  11  24  41  63  92 128 164 210 263 314 376
#     4  10  20  39  68  93 120 166 212 262 311 375
#     4  10  22  39  68  93 126 169 211 259 320 378
#     4  11  25  41  63  92 128 167 204 261 322 377
#     4   9  19  38  65  91 125 165 208 256 321 373
#     4   9  20  41  63  91 129 170 206 259 320 376
#
# _framework density 21.685402
#
# number of rings (size 3 to 8) (size 9 to 14) (size 15 to 20)
#    0.000    1.500    2.500    2.250    7.000    0.500 
#    0.000    1.875    0.000    0.000    0.000    0.000 
#    0.000    0.000    0.000    0.000    0.000    0.000 
#
# Total GULP energy -89170.849754 kJ/mol
# GULP energy per Si atom -5573.178110 kJ/mol
# Density = 2.163605 g / cm^3
# Si number density = 21.685402 Si / 1000 Ang^3
#
#
#
# Elastic Constant Matrix: (Units=GPa)
#
#
# Indices 1 2 3 4 5 6 
#
# 1 80.6834 15.9036 1.8547 -8.6183 -9.3005 -18.6373
# 2 15.9036 74.4282 51.0497 -18.1338 -9.7814 -29.8085
# 3 1.8547 51.0497 144.6636 -39.5510 -19.7202 -11.9869
# 4 -8.6183 -18.1338 -39.5510 27.5714 -2.0101 -1.4348
# 5 -9.3005 -9.7814 -19.7202 -2.0101 34.0866 -2.7344
# 6 -18.6373 -29.8085 -11.9869 -1.4348 -2.7344 42.2430
#
#
#
# Elastic Compliance Matrix: (Units=1/GPa)
#
#
# Indices 1 2 3 4 5 6 
#
# 1 0.018031 0.003134 0.006400 0.018425 0.011680 0.013365
# 2 0.003134 0.029562 -0.001320 0.020592 0.011660 0.023322
# 3 0.006400 -0.001320 0.017442 0.027608 0.013781 0.008671
# 4 0.018425 0.020592 0.027608 0.099661 0.035688 0.036189
# 5 0.011680 0.011660 0.013781 0.035688 0.047679 0.021590
# 6 0.013365 0.023322 0.008671 0.036189 0.021590 0.051113
#
#
# Mechanical properties :
#
#
# Convention : Reuss Voigt Hill
#
# Bulk Modulus (GPa) = 12.27572 48.59901 30.43736
# Shear Modulus (GPa) = 18.23400 36.17802 27.20601
#
# Velocity S-wave (km/s) = 2.90287 4.08893 3.54584
# Velocity P-wave (km/s) = 4.11202 6.68970 5.55251
#
# Compressibility (1/GPa) = 0.08146164
#
# Stress axis : x y z
#
# Youngs Moduli (GPa) = 55.46059 33.82776 57.33448
#
# Poissons Ratio (x) = -0.10603 -0.36693
# Poissons Ratio (y) = -0.17383 0.07569
# Poissons Ratio (z) = -0.35494 0.04466
#
# Static dielectric constant tensor:
#      x y z
#    x 1.825690 -0.037090 -0.065170 
#    y -0.037090 1.858150 0.096650 
#    z -0.065170 0.096650 1.973230 
# 
# From -- ./inp_files/295250.got.cif
#   From: 2010.05.17/outbox.cif.g08.bks.cpg/sg2_148_cif.got.tgz:295250.got - 2010.06.03 11:33:40.
