data_PCOD9106763
_publ_section_title
;
Structure prediction by ZEFSAII (Michael W. Deem and Ramdas Pophale) SiO2 
 PCOD9106763
Probable space group: P -1
;
_chemical_formula_sum "Si O2"
_cell_formula_units_Z 14
_cell_length_a 8.470692
_cell_length_b 9.428766
_cell_length_c 9.420872
_cell_angle_alpha 69.842463
_cell_angle_beta 54.771630
_cell_angle_gamma 67.941629
_cell_volume 561.440965
_symmetry_space_group_name_H-M "P -1"
_symmetry_group_IT_number 2
_symmetry_cell_setting 'triclinic'
loop_
_space_group_symop_operation_xyz
x,y,z
-x,-y,-z
loop_
_atom_site_type_symbol
_atom_site_label
_atom_site_fract_x
_atom_site_fract_y
_atom_site_fract_z
Si Si1 0.590901 0.325312 0.951891
Si Si2 0.224648 0.500652 0.411949
Si Si3 0.175810 0.528591 0.744081
Si Si4 0.607432 0.251804 0.264345
Si Si5 0.322134 0.932669 0.437769
Si Si6 0.315097 0.204315 0.916404
Si Si7 0.914594 0.822552 0.711577
O O1 0.742397 0.354829 0.745175
O O2 0.437152 0.254859 0.966790
O O3 0.500000 0.500000 0.000000
O O4 0.676639 0.221420 0.077794
O O5 0.280990 0.512838 0.542824
O O6 0.379427 0.344180 0.341981
O O7 0.000000 0.500000 0.500000
O O8 0.278660 0.624499 0.767915
O O9 0.183236 0.358860 0.857957
O O10 0.963501 0.637517 0.775223
O O11 0.631127 0.108152 0.407810
O O12 0.517656 0.868017 0.262177
O O13 0.129214 0.855645 0.549072
O O14 0.231501 0.101785 0.362848
O O15 0.175940 0.112687 0.109166
#
# Coordination Sequence:
#
# PCOD9106763 Si02
#       7
#     2   2   2   2   2   2   2
#     4  10  21  35  56  92 125 155 198 266 308 355
#     4  11  22  34  59  93 126 155 200 261 315 358
#     4  11  21  38  65  93 120 161 212 258 307 372
#     4  10  20  40  61  83 127 165 200 249 320 359
#     4  10  22  44  62  88 127 168 209 254 305 376
#     4  12  21  40  66  91 125 164 210 256 315 364
#     4  10  24  36  65  95 121 160 218 255 302 371
#
# _framework density 24.935836999999999
#
# number of rings (size 3 to 8) (size 9 to 14) (size 15 to 20)
#    0.000    1.429    4.286    3.000    4.000    2.286 
#    0.000    0.714    0.000    8.571    0.000    0.000 
#    0.000    0.000    0.000    0.000    0.000    0.000 
#
# Total GULP energy -78187.958332 kJ/mol
# GULP energy per Si atom -5584.854167 kJ/mol
# Density = 2.487908 g / cm^3
# Si number density = 24.935837 Si / 1000 Ang^3
#
#
#
# Elastic Constant Matrix: (Units=GPa)
#
#
# Indices 1 2 3 4 5 6 
#
# 1 64.1217 32.8464 33.0750 -17.0945 7.2330 -12.6046
# 2 32.8464 76.3090 32.0970 -30.7323 9.0672 -36.8582
# 3 33.0750 32.0970 189.5431 -28.6521 24.1282 -8.5646
# 4 -17.0945 -30.7323 -28.6521 30.5808 -15.5960 18.7289
# 5 7.2330 9.0672 24.1282 -15.5960 54.6546 -7.1351
# 6 -12.6046 -36.8582 -8.5646 18.7289 -7.1351 45.7512
#
#
#
# Elastic Compliance Matrix: (Units=1/GPa)
#
#
# Indices 1 2 3 4 5 6 
#
# 1 0.021167 -0.008131 -0.001921 0.003388 0.000042 -0.002459
# 2 -0.008131 0.031854 -0.000901 0.018510 0.003591 0.016236
# 3 -0.001921 -0.000901 0.006571 0.004814 -0.001413 -0.002216
# 4 0.003388 0.018510 0.004814 0.070622 0.013188 -0.010107
# 5 0.000042 0.003591 -0.001413 0.013188 0.022174 0.000699
# 6 -0.002459 0.016236 -0.002216 -0.010107 0.000699 0.038091
#
#
# Mechanical properties :
#
#
# Convention : Reuss Voigt Hill
#
# Bulk Modulus (GPa) = 26.53530 58.44563 42.49047
# Shear Modulus (GPa) = 22.22758 41.66102 31.94430
#
# Velocity S-wave (km/s) = 2.98886 4.09189 3.58307
# Velocity P-wave (km/s) = 4.75137 6.76861 5.84763
#
# Compressibility (1/GPa) = 0.03768564
#
# Stress axis : x y z
#
# Youngs Moduli (GPa) = 47.24440 31.39369 152.18386
#
# Poissons Ratio (x) = 0.25527 0.29232
# Poissons Ratio (y) = 0.38416 0.13705
# Poissons Ratio (z) = 0.09075 0.02827
#
# Static dielectric constant tensor:
#      x y z
#    x 2.005670 0.026420 -0.047310 
#    y 0.026420 2.047060 0.048260 
#    z -0.047310 0.048260 2.121670 
# 
# From -- ./inp_files/185678.got.cif
#   From: 2010.05.17/outbox.cif.g08.bks.cpg/sg2_93_cif.got.tgz:185678.got - 2010.06.03 11:33:40.
