data_PCOD9106562
_publ_section_title
;
Structure prediction by ZEFSAII (Michael W. Deem and Ramdas Pophale) SiO2 
 PCOD9106562
Probable space group: P -1
;
_chemical_formula_sum "Si O2"
_cell_formula_units_Z 12
_cell_length_a 8.929648
_cell_length_b 9.236783
_cell_length_c 7.516397
_cell_angle_alpha 112.571042
_cell_angle_beta 52.365057
_cell_angle_gamma 92.768427
_cell_volume 438.430057
_symmetry_space_group_name_H-M "P -1"
_symmetry_group_IT_number 2
_symmetry_cell_setting 'triclinic'
loop_
_space_group_symop_operation_xyz
x,y,z
-x,-y,-z
loop_
_atom_site_type_symbol
_atom_site_label
_atom_site_fract_x
_atom_site_fract_y
_atom_site_fract_z
Si Si1 0.694937 0.495965 0.242987
Si Si2 0.535754 0.262494 0.064679
Si Si3 0.679304 0.839632 0.274284
Si Si4 0.264459 0.063462 0.360542
Si Si5 0.965948 0.885794 0.810138
Si Si6 0.174020 0.541757 0.499384
O O1 0.500000 0.500000 0.500000
O O2 0.713361 0.331162 0.043870
O O3 0.652029 0.661739 0.245395
O O4 0.848307 0.490542 0.288224
O O5 0.370989 0.426307 0.223566
O O6 0.215142 0.167961 0.993139
O O7 0.423260 0.166006 0.237761
O O8 0.376916 0.875051 0.204016
O O9 0.500000 0.000000 0.500000
O O10 0.812601 0.868865 0.360211
O O11 0.113891 0.071831 0.311263
O O12 0.151126 0.732292 0.592589
O O13 0.000000 0.000000 0.000000
O O14 0.000000 0.500000 0.500000
#
# Coordination Sequence:
#
# PCOD9106562 Si02
#       6
#     2   2   2   2   2   2
#     4  10  21  42  71 102 139 188 237 293 355 427
#     4  10  20  39  76  94 140 193 224 295 355 417
#     4  12  26  44  75 108 138 191 249 290 355 440
#     4  11  22  47  70 105 146 187 238 299 355 428
#     4  12  28  45  73 105 149 192 234 301 371 420
#     4  11  21  40  68 101 139 189 228 290 368 410
#
# _framework density 27.370387999999998
#
# number of rings (size 3 to 8) (size 9 to 14) (size 15 to 20)
#    0.000    1.000    5.000    3.000    4.667    1.333 
#    0.000    5.000    0.000    0.000    0.000    0.000 
#    0.000    0.000    0.000    0.000    0.000    0.000 
#
# Total GULP energy -67168.839347 kJ/mol
# GULP energy per Si atom -5597.403279 kJ/mol
# Density = 2.730809 g / cm^3
# Si number density = 27.370388 Si / 1000 Ang^3
#
#
#
# Elastic Constant Matrix: (Units=GPa)
#
#
# Indices 1 2 3 4 5 6 
#
# 1 123.3976 51.9706 40.1883 19.1279 26.1004 -20.0620
# 2 51.9706 131.6385 64.9972 7.1759 2.8884 -9.2754
# 3 40.1883 64.9972 153.7928 31.1263 21.6099 -10.0034
# 4 19.1279 7.1759 31.1263 68.5568 0.4808 0.1150
# 5 26.1004 2.8884 21.6099 0.4808 59.0007 11.6262
# 6 -20.0620 -9.2754 -10.0034 0.1150 11.6262 29.6941
#
#
#
# Elastic Compliance Matrix: (Units=1/GPa)
#
#
# Indices 1 2 3 4 5 6 
#
# 1 0.014210 -0.004949 0.001187 -0.003944 -0.008794 0.011913
# 2 -0.004949 0.011490 -0.004774 0.002323 0.003930 -0.002911
# 3 0.001187 -0.004774 0.010080 -0.004382 -0.004859 0.004626
# 4 -0.003944 0.002323 -0.004382 0.017413 0.004096 -0.005086
# 5 -0.008794 0.003930 -0.004859 0.004096 0.025625 -0.016399
# 6 0.011913 -0.002911 0.004626 -0.005086 -0.016399 0.048815
#
#
# Mechanical properties :
#
#
# Convention : Reuss Voigt Hill
#
# Bulk Modulus (GPa) = 53.45452 80.34899 66.90175
# Shear Modulus (GPa) = 33.12565 48.22853 40.67709
#
# Velocity S-wave (km/s) = 3.48267 4.20226 3.85927
# Velocity P-wave (km/s) = 5.97867 7.27772 6.65994
#
# Compressibility (1/GPa) = 0.01870749
#
# Stress axis : x y z
#
# Youngs Moduli (GPa) = 70.37484 87.03418 99.20203
#
# Poissons Ratio (x) = 0.43070 -0.11775
# Poissons Ratio (y) = 0.34826 0.47363
# Poissons Ratio (z) = -0.08353 0.41554
#
# Static dielectric constant tensor:
#      x y z
#    x 2.389800 0.022480 0.091710 
#    y 0.022480 2.220380 -0.012880 
#    z 0.091710 -0.012880 2.091950 
# 
# From -- ./inp_files/377136.got.cif
#   From: 2010.05.17/outbox.cif.g08.bks.cpg/sg2_189_cif.got.tgz:377136.got - 2010.06.03 11:33:40.
