data_PCOD9106141
_publ_section_title
;
Structure prediction by ZEFSAII (Michael W. Deem and Ramdas Pophale) SiO2 
 PCOD9106141
Probable space group: P -1
;
_chemical_formula_sum "Si O2"
_cell_formula_units_Z 16
_cell_length_a 7.223685
_cell_length_b 27.560050
_cell_length_c 7.511748
_cell_angle_alpha 130.762921
_cell_angle_beta 141.850972
_cell_angle_gamma 42.104349
_cell_volume 610.595148
_symmetry_space_group_name_H-M "P -1"
_symmetry_group_IT_number 2
_symmetry_cell_setting 'triclinic'
loop_
_space_group_symop_operation_xyz
x,y,z
-x,-y,-z
loop_
_atom_site_type_symbol
_atom_site_label
_atom_site_fract_x
_atom_site_fract_y
_atom_site_fract_z
Si Si1 0.283499 0.115303 0.950047
Si Si2 0.645125 0.211325 0.508990
Si Si3 0.655314 0.375222 0.345218
Si Si4 0.284640 0.871116 0.163675
Si Si5 0.327438 0.284465 0.805142
Si Si6 0.664888 0.960325 0.712656
Si Si7 0.538849 0.430309 0.756886
Si Si8 0.083868 0.356780 0.271242
O O1 0.054316 0.156701 0.698843
O O2 0.012373 0.117714 0.895326
O O3 0.548063 0.030121 0.918963
O O4 0.467496 0.160599 0.258172
O O5 0.568919 0.255972 0.743979
O O6 0.417733 0.276990 0.358914
O O7 0.570331 0.435058 0.578447
O O8 0.955935 0.303678 0.499393
O O9 0.827282 0.377964 0.297343
O O10 0.350325 0.356842 0.044850
O O11 0.524331 0.784487 0.119277
O O12 0.490382 0.909633 0.489112
O O13 0.074351 0.910380 0.920854
O O14 0.500000 0.000000 0.500000
O O15 0.229130 0.413387 0.510028
O O16 0.500000 0.500000 0.000000
O O17 0.865780 0.364145 0.947381
#
# Coordination Sequence:
#
# PCOD9106141 Si02
#       8
#     2   2   2   2   2   2   2   2
#     4  11  21  39  65  89 116 163 218 265 320 388
#     4  10  20  39  67  96 120 159 216 272 323 381
#     4  11  23  44  70 101 137 176 221 277 333 388
#     4  11  21  40  63  83 114 168 214 261 322 383
#     4  10  20  40  68  97 123 163 223 277 325 388
#     4  12  25  40  52  85 131 161 207 263 322 390
#     4  12  27  45  68 106 140 176 228 262 317 412
#     4  11  23  45  70  98 141 178 217 280 331 380
#
# _framework density 26.203944
#
# number of rings (size 3 to 8) (size 9 to 14) (size 15 to 20)
#    0.000    1.000    0.000   10.500    0.000    1.000 
#   13.500    0.000    0.000    0.000    0.000    0.000 
#    0.000    0.000    0.000    0.000    0.000    0.000 
#
# Total GULP energy -89614.880253 kJ/mol
# GULP energy per Si atom -5600.930016 kJ/mol
# Density = 2.614430 g / cm^3
# Si number density = 26.203944 Si / 1000 Ang^3
#
#
#
# Elastic Constant Matrix: (Units=GPa)
#
#
# Indices 1 2 3 4 5 6 
#
# 1 104.4646 -9.8615 27.4246 10.0209 -3.2816 10.8946
# 2 -9.8615 63.7923 2.7679 -14.5074 1.6989 9.1658
# 3 27.4246 2.7679 146.8207 7.7799 16.4734 10.0538
# 4 10.0209 -14.5074 7.7799 52.7528 1.0958 -5.4208
# 5 -3.2816 1.6989 16.4734 1.0958 47.4306 1.8829
# 6 10.8946 9.1658 10.0538 -5.4208 1.8829 21.9599
#
#
#
# Elastic Compliance Matrix: (Units=1/GPa)
#
#
# Indices 1 2 3 4 5 6 
#
# 1 0.011133 0.002217 -0.001771 -0.001919 0.001598 -0.006248
# 2 0.002217 0.017981 -0.000430 0.003824 -0.000134 -0.007452
# 3 -0.001771 -0.000430 0.007678 -0.001117 -0.002649 -0.002505
# 4 -0.001919 0.003824 -0.001117 0.021075 -0.000572 0.005119
# 5 0.001598 -0.000134 -0.002649 -0.000572 0.022194 -0.001569
# 6 -0.006248 -0.007452 -0.002505 0.005119 -0.001569 0.054293
#
#
# Mechanical properties :
#
#
# Convention : Reuss Voigt Hill
#
# Bulk Modulus (GPa) = 27.15756 39.52662 33.34209
# Shear Modulus (GPa) = 34.10686 44.07842 39.09264
#
# Velocity S-wave (km/s) = 3.61167 4.10583 3.86665
# Velocity P-wave (km/s) = 5.27055 6.13140 5.71720
#
# Compressibility (1/GPa) = 0.03682215
#
# Stress axis : x y z
#
# Youngs Moduli (GPa) = 89.82500 55.61355 130.24470
#
# Poissons Ratio (x) = -0.12327 0.23067
# Poissons Ratio (y) = -0.19910 0.05605
# Poissons Ratio (z) = 0.15908 0.02393
#
# Static dielectric constant tensor:
#      x y z
#    x 2.165150 -0.039890 -0.088240 
#    y -0.039890 2.129230 -0.041740 
#    z -0.088240 -0.041740 1.984620 
# 
# From -- ./inp_files/228018.got.cif
#   From: 2010.05.17/outbox.cif.g08.bks.cpg/sg2_115_cif.got.tgz:228018.got - 2010.06.03 11:33:40.
