data_PCOD9106547
_publ_section_title
;
Structure prediction by ZEFSAII (Michael W. Deem and Ramdas Pophale) SiO2 
 PCOD9106547
Probable space group: P -1
;
_chemical_formula_sum "Si O2"
_cell_formula_units_Z 16
_cell_length_a 26.332037
_cell_length_b 8.138199
_cell_length_c 14.780739
_cell_angle_alpha 152.598106
_cell_angle_beta 26.683696
_cell_angle_gamma 150.476908
_cell_volume 607.610295
_symmetry_space_group_name_H-M "P -1"
_symmetry_group_IT_number 2
_symmetry_cell_setting 'triclinic'
loop_
_space_group_symop_operation_xyz
x,y,z
-x,-y,-z
loop_
_atom_site_type_symbol
_atom_site_label
_atom_site_fract_x
_atom_site_fract_y
_atom_site_fract_z
Si Si1 0.597304 0.798707 0.757908
Si Si2 0.294612 0.994855 0.493310
Si Si3 0.573599 0.609618 0.028117
Si Si4 0.053262 0.340207 0.509257
Si Si5 0.211870 0.894523 0.975319
Si Si6 0.013786 0.187817 0.897698
Si Si7 0.242433 0.884507 0.712429
Si Si8 0.166170 0.976511 0.410640
O O1 0.522957 0.435518 0.760332
O O2 0.711720 0.060307 0.765133
O O3 0.651818 0.723531 0.539639
O O4 0.500000 0.000000 0.000000
O O5 0.149749 0.739028 0.588349
O O6 0.325051 0.102447 0.602836
O O7 0.360281 0.695210 0.221253
O O8 0.687862 0.996504 0.052772
O O9 0.500000 0.500000 0.000000
O O10 0.000000 0.000000 0.500000
O O11 0.927517 0.312784 0.649750
O O12 0.136034 0.178109 0.235127
O O13 0.112262 0.473698 0.947320
O O14 0.269560 0.935085 0.801825
O O15 0.082280 0.961824 0.624142
O O16 0.000000 0.500000 0.000000
O O17 0.876988 0.010850 0.060046
O O18 0.207847 0.421471 0.526143
#
# Coordination Sequence:
#
# PCOD9106547 Si02
#       8
#     2   2   2   2   2   2   2   2
#     4  10  23  40  50  74 118 156 189 233 272 321
#     4  10  21  34  55  79 114 148 182 234 282 327
#     4  10  21  37  58  79 105 149 200 235 269 318
#     4  11  17  29  57  92 111 138 183 236 286 336
#     4   9  17  31  55  86 113 135 178 239 285 322
#     4   8  14  29  53  86 112 129 168 229 288 331
#     4  10  16  34  58  89 113 139 175 232 295 341
#     4  10  17  32  58  81 113 145 183 228 282 331
#
# _framework density 26.332667000000001
#
# number of rings (size 3 to 8) (size 9 to 14) (size 15 to 20)
#    0.000    2.500    5.000    0.750    1.750    0.500 
#    0.000    6.875    0.000    7.500    0.000    0.000 
#    0.000    0.000    0.000    0.000    0.000    0.000 
#
# Total GULP energy -89314.193876 kJ/mol
# GULP energy per Si atom -5582.137117 kJ/mol
# Density = 2.627273 g / cm^3
# Si number density = 26.332667 Si / 1000 Ang^3
#
#
#
# Elastic Constant Matrix: (Units=GPa)
#
#
# Indices 1 2 3 4 5 6 
#
# 1 138.9979 41.2045 38.4287 -19.1417 -9.4250 14.1082
# 2 41.2045 48.9655 19.4940 -12.7747 -15.7504 -1.8231
# 3 38.4287 19.4940 98.1414 -15.9770 -14.2956 0.5879
# 4 -19.1417 -12.7747 -15.9770 40.0826 -0.9485 -0.6668
# 5 -9.4250 -15.7504 -14.2956 -0.9485 53.9438 -23.2772
# 6 14.1082 -1.8231 0.5879 -0.6668 -23.2772 42.3281
#
#
#
# Elastic Compliance Matrix: (Units=1/GPa)
#
#
# Indices 1 2 3 4 5 6 
#
# 1 0.011463 -0.009942 -0.002994 0.000892 -0.004572 -0.006708
# 2 -0.009942 0.035786 -0.000024 0.007203 0.014391 0.012883
# 3 -0.002994 -0.000024 0.012575 0.003729 0.004259 0.003223
# 4 0.000892 0.007203 0.003729 0.029334 0.005173 0.003268
# 5 -0.004572 0.014391 0.004259 0.005173 0.031592 0.019539
# 6 -0.006708 0.012883 0.003223 0.003268 0.019539 0.037167
#
#
# Mechanical properties :
#
#
# Convention : Reuss Voigt Hill
#
# Bulk Modulus (GPa) = 29.49490 53.81769 41.65629
# Shear Modulus (GPa) = 25.62306 39.73608 32.67957
#
# Velocity S-wave (km/s) = 3.12276 3.88880 3.52664
# Velocity P-wave (km/s) = 4.92213 6.37540 5.69531
#
# Compressibility (1/GPa) = 0.03390417
#
# Stress axis : x y z
#
# Youngs Moduli (GPa) = 87.23736 27.94399 79.52499
#
# Poissons Ratio (x) = 0.27781 0.23812
# Poissons Ratio (y) = 0.86728 0.00189
# Poissons Ratio (z) = 0.26121 0.00066
#
# Static dielectric constant tensor:
#      x y z
#    x 2.249860 -0.050790 -0.063150 
#    y -0.050790 2.192870 0.013250 
#    z -0.063150 0.013250 2.107110 
# 
# From -- ./inp_files/542605.got.cif
#   From: 2010.05.17/outbox.cif.g08.bks.cpg/sg2_272_cif.got.tgz:542605.got - 2010.06.03 11:33:40.
