data_PCOD9106836
_publ_section_title
;
Structure prediction by ZEFSAII (Michael W. Deem and Ramdas Pophale) SiO2 
 PCOD9106836
Probable space group: P -1
;
_chemical_formula_sum "Si O2"
_cell_formula_units_Z 14
_cell_length_a 9.869285
_cell_length_b 11.635110
_cell_length_c 7.165488
_cell_angle_alpha 59.558084
_cell_angle_beta 91.282160
_cell_angle_gamma 94.187283
_cell_volume 707.388175
_symmetry_space_group_name_H-M "P -1"
_symmetry_group_IT_number 2
_symmetry_cell_setting 'triclinic'
loop_
_space_group_symop_operation_xyz
x,y,z
-x,-y,-z
loop_
_atom_site_type_symbol
_atom_site_label
_atom_site_fract_x
_atom_site_fract_y
_atom_site_fract_z
Si Si1 0.667794 0.777819 0.481870
Si Si2 0.659544 0.617100 0.998206
Si Si3 0.169403 0.654759 0.335928
Si Si4 0.596594 0.057239 0.230946
Si Si5 0.142308 0.347449 0.705257
Si Si6 0.391337 0.857830 0.273736
Si Si7 0.357233 0.650778 0.981261
O O1 0.782330 0.721813 0.403429
O O2 0.521217 0.769299 0.379177
O O3 0.688936 0.937517 0.381446
O O4 0.656891 0.696047 0.738908
O O5 0.775620 0.680132 0.082806
O O6 0.681527 0.463767 0.074528
O O7 0.509352 0.622054 0.076470
O O8 0.159362 0.507684 0.545135
O O9 0.254692 0.765462 0.371188
O O10 0.017103 0.693333 0.261337
O O11 0.252270 0.643227 0.154561
O O12 0.626722 0.197316 0.217537
O O13 0.442055 0.988005 0.291583
O O14 0.615074 0.091845 0.982451
#
# Coordination Sequence:
#
# PCOD9106836 Si02
#       7
#     2   2   2   2   2   2   2
#     4  10  20  40  61  91 120 150 199 253 289 354
#     4  11  24  35  63  93 119 153 197 254 295 338
#     4  10  21  39  60  85 122 163 194 241 299 355
#     4   8  17  36  64  85 120 152 192 250 298 342
#     4  11  23  38  59  89 124 158 197 241 298 357
#     4   8  17  34  62  86 111 158 193 239 295 343
#     4  10  21  40  58  92 119 151 200 245 295 352
#
# _framework density 19.791114
#
# number of rings (size 3 to 8) (size 9 to 14) (size 15 to 20)
#    0.857    1.429    1.429    1.714    4.000    2.286 
#    0.000    2.857    0.000    3.429    0.000    0.000 
#    0.000    0.000    0.000    0.000    0.000    0.000 
#
# Total GULP energy -78054.073460 kJ/mol
# GULP energy per Si atom -5575.290961 kJ/mol
# Density = 1.974607 g / cm^3
# Si number density = 19.791114 Si / 1000 Ang^3
#
#
#
# Elastic Constant Matrix: (Units=GPa)
#
#
# Indices 1 2 3 4 5 6 
#
# 1 130.3510 42.7174 40.9954 9.0399 -4.7745 -2.7691
# 2 42.7174 70.9106 35.7191 -8.4664 -5.8610 -0.1885
# 3 40.9954 35.7191 79.2988 -3.2995 -3.6750 -4.3396
# 4 9.0399 -8.4664 -3.2995 27.7278 2.5675 -8.7271
# 5 -4.7745 -5.8610 -3.6750 2.5675 14.6654 -6.2397
# 6 -2.7691 -0.1885 -4.3396 -8.7271 -6.2397 16.4736
#
#
#
# Elastic Compliance Matrix: (Units=1/GPa)
#
#
# Indices 1 2 3 4 5 6 
#
# 1 0.011054 -0.005601 -0.003567 -0.006545 0.000597 -0.002387
# 2 -0.005601 0.022134 -0.006192 0.008730 0.005869 0.004528
# 3 -0.003567 -0.006192 0.017919 0.003320 0.003272 0.007048
# 4 -0.006545 0.008730 0.003320 0.049644 0.005525 0.028267
# 5 0.000597 0.005869 0.003272 0.005525 0.086147 0.036586
# 6 -0.002387 0.004528 0.007048 0.028267 0.036586 0.091043
#
#
# Mechanical properties :
#
#
# Convention : Reuss Voigt Hill
#
# Bulk Modulus (GPa) = 49.04731 57.71381 53.38056
# Shear Modulus (GPa) = 15.85004 22.51525 19.18264
#
# Velocity S-wave (km/s) = 2.83303 3.37656 3.11666
# Velocity P-wave (km/s) = 5.96135 6.66531 6.32313
#
# Compressibility (1/GPa) = 0.02038848
#
# Stress axis : x y z
#
# Youngs Moduli (GPa) = 90.46596 45.17837 55.80635
#
# Poissons Ratio (x) = 0.25303 0.19907
# Poissons Ratio (y) = 0.50666 0.34554
# Poissons Ratio (z) = 0.32270 0.27973
#
# Static dielectric constant tensor:
#      x y z
#    x 1.665750 0.014780 -0.008660 
#    y 0.014780 1.742650 -0.011830 
#    z -0.008660 -0.011830 1.724390 
# 
# From -- ./inp_files/175151.got.cif
#   From: 2010.05.17/outbox.cif.g08.bks.cpg/sg2_88_cif.got.tgz:175151.got - 2010.06.03 11:33:40.
