data_PCOD9106712
_publ_section_title
;
Structure prediction by ZEFSAII (Michael W. Deem and Ramdas Pophale) SiO2 
 PCOD9106712
Probable space group: P -1
;
_chemical_formula_sum "Si O2"
_cell_formula_units_Z 16
_cell_length_a 4.957431
_cell_length_b 5.821377
_cell_length_c 24.672902
_cell_angle_alpha 110.088608
_cell_angle_beta 96.273114
_cell_angle_gamma 101.568084
_cell_volume 642.737852
_symmetry_space_group_name_H-M "P -1"
_symmetry_group_IT_number 2
_symmetry_cell_setting 'triclinic'
loop_
_space_group_symop_operation_xyz
x,y,z
-x,-y,-z
loop_
_atom_site_type_symbol
_atom_site_label
_atom_site_fract_x
_atom_site_fract_y
_atom_site_fract_z
Si Si1 0.875491 0.103523 0.954137
Si Si2 0.537946 0.231360 0.832814
Si Si3 0.907021 0.400732 0.430705
Si Si4 0.623786 0.267339 0.148285
Si Si5 0.256533 0.949344 0.276299
Si Si6 0.628775 0.526584 0.631329
Si Si7 0.208259 0.126014 0.662459
Si Si8 0.953070 0.494877 0.072899
O O1 0.099526 0.234919 0.923694
O O2 0.640819 0.892360 0.904132
O O3 0.800733 0.327855 0.005793
O O4 0.000000 0.000000 0.000000
O O5 0.424825 0.451782 0.817298
O O6 0.771681 0.162476 0.792926
O O7 0.710154 0.387936 0.899871
O O8 0.356930 0.945754 0.823180
O O9 0.127381 0.553303 0.403061
O O10 0.000000 0.500000 0.500000
O O11 0.587406 0.402815 0.411141
O O12 0.926588 0.114017 0.397765
O O13 0.859659 0.347009 0.114009
O O14 0.578859 0.961232 0.298858
O O15 0.033210 0.795356 0.302281
O O16 0.232690 0.233169 0.308501
O O17 0.419502 0.329191 0.647951
#
# Coordination Sequence:
#
# PCOD9106712 Si02
#       8
#     2   2   2   2   2   2   2   2
#     4  10  20  40  60  89 124 159 205 258 321 401
#     4  11  26  42  61  95 122 160 220 266 322 393
#     4  10  21  37  60  95 131 163 215 267 315 388
#     4  11  25  42  64  92 123 164 209 262 333 390
#     4  10  24  41  62  90 124 165 216 271 319 390
#     4  10  21  39  60  90 124 173 212 261 326 384
#     4  10  22  42  64  91 126 170 216 261 329 386
#     4  10  23  40  61  89 124 162 205 263 323 394
#
# _framework density 24.893508000000001
#
# number of rings (size 3 to 8) (size 9 to 14) (size 15 to 20)
#    0.000    1.750    1.250    1.500    5.250    1.500 
#    0.000    0.000    0.000    0.000    0.000    0.000 
#    0.000    0.000    0.000    0.000    0.000    0.000 
#
# Total GULP energy -89108.194190 kJ/mol
# GULP energy per Si atom -5569.262137 kJ/mol
# Density = 2.483685 g / cm^3
# Si number density = 24.893508 Si / 1000 Ang^3
#
#
#
# Elastic Constant Matrix: (Units=GPa)
#
#
# Indices 1 2 3 4 5 6 
#
# 1 94.1246 22.2309 19.0921 1.7561 -11.5074 19.3740
# 2 22.2309 175.5082 23.6132 -8.7776 -11.3542 28.0042
# 3 19.0921 23.6132 112.3800 13.8905 -4.0841 7.7047
# 4 1.7561 -8.7776 13.8905 20.7952 9.3023 -6.3865
# 5 -11.5074 -11.3542 -4.0841 9.3023 32.4047 -4.4152
# 6 19.3740 28.0042 7.7047 -6.3865 -4.4152 35.6957
#
#
#
# Elastic Compliance Matrix: (Units=1/GPa)
#
#
# Indices 1 2 3 4 5 6 
#
# 1 0.012985 -0.000367 -0.000870 -0.004950 0.004860 -0.006857
# 2 -0.000367 0.006771 -0.001273 0.001988 0.000916 -0.004369
# 3 -0.000870 -0.001273 0.010781 -0.009729 0.003095 -0.002213
# 4 -0.004950 0.001988 -0.009729 0.068931 -0.020297 0.013049
# 5 0.004860 0.000916 0.003095 -0.020297 0.038733 -0.002865
# 6 -0.006857 -0.004369 -0.002213 0.013049 -0.002865 0.037622
#
#
# Mechanical properties :
#
#
# Convention : Reuss Voigt Hill
#
# Bulk Modulus (GPa) = 39.19125 56.87612 48.03368
# Shear Modulus (GPa) = 26.40622 38.91757 32.66189
#
# Velocity S-wave (km/s) = 3.26048 3.95823 3.62617
# Velocity P-wave (km/s) = 5.47284 6.61721 6.07205
#
# Compressibility (1/GPa) = 0.02551590
#
# Stress axis : x y z
#
# Youngs Moduli (GPa) = 77.01067 147.68011 92.75914
#
# Poissons Ratio (x) = 0.05416 0.08075
# Poissons Ratio (y) = 0.02824 0.11812
# Poissons Ratio (z) = 0.06704 0.18805
#
# Static dielectric constant tensor:
#      x y z
#    x 2.122510 -0.062630 -0.088060 
#    y -0.062630 2.205070 -0.040120 
#    z -0.088060 -0.040120 2.124370 
# 
# From -- ./inp_files/12905.got.cif
#   From: 2010.05.17/outbox.cif.g08.bks.cpg/sg2_7_cif.got.tgz:12905.got - 2010.06.03 11:33:40.
