data_PCOD9106685
_publ_section_title
;
Structure prediction by ZEFSAII (Michael W. Deem and Ramdas Pophale) SiO2 
 PCOD9106685
Probable space group: P -1
;
_chemical_formula_sum "Si O2"
_cell_formula_units_Z 14
_cell_length_a 13.656342
_cell_length_b 13.567609
_cell_length_c 13.440878
_cell_angle_alpha 36.705897
_cell_angle_beta 29.115634
_cell_angle_gamma 32.437046
_cell_volume 629.866220
_symmetry_space_group_name_H-M "P -1"
_symmetry_group_IT_number 2
_symmetry_cell_setting 'triclinic'
loop_
_space_group_symop_operation_xyz
x,y,z
-x,-y,-z
loop_
_atom_site_type_symbol
_atom_site_label
_atom_site_fract_x
_atom_site_fract_y
_atom_site_fract_z
Si Si1 0.561291 0.159724 0.193018
Si Si2 0.696883 0.408640 0.601633
Si Si3 0.293074 0.350788 0.095856
Si Si4 0.458183 0.811700 0.581192
Si Si5 0.943395 0.041125 0.786282
Si Si6 0.860577 0.537186 0.197092
Si Si7 0.575248 0.960390 0.078246
O O1 0.361729 0.332446 0.165526
O O2 0.561118 0.213866 0.263074
O O3 0.528556 0.974309 0.372897
O O4 0.797295 0.098435 0.972477
O O5 0.632615 0.610972 0.541235
O O6 0.905612 0.235701 0.614126
O O7 0.758581 0.404937 0.433736
O O8 0.476742 0.384300 0.842211
O O9 0.046941 0.496937 0.152026
O O10 0.367146 0.133238 0.180361
O O11 0.205931 0.890351 0.693572
O O12 0.806177 0.970568 0.893203
O O13 0.646628 0.747949 0.213344
O O14 0.000000 0.500000 0.000000
O O15 0.500000 0.000000 0.000000
#
# Coordination Sequence:
#
# PCOD9106685 Si02
#       7
#     2   2   2   2   2   2   2
#     4   9  21  38  65  91 126 161 197 250 297 365
#     4  10  23  38  60  90 120 156 204 250 293 364
#     4  10  22  42  58  89 127 152 199 255 299 354
#     4  11  20  40  64  92 123 163 202 242 306 357
#     4  10  22  40  62  89 129 159 200 249 302 357
#     4  12  23  39  64  83 116 163 202 248 309 354
#     4  10  20  40  60  86 115 159 199 247 301 351
#
# _framework density 22.226942000000001
#
# number of rings (size 3 to 8) (size 9 to 14) (size 15 to 20)
#    0.000    2.000    1.429    3.857    0.000    2.857 
#    0.000   12.143    0.000    0.000    0.000    0.000 
#    0.000    0.000    0.000    0.000    0.000    0.000 
#
# Total GULP energy -78175.703536 kJ/mol
# GULP energy per Si atom -5583.978824 kJ/mol
# Density = 2.217635 g / cm^3
# Si number density = 22.226942 Si / 1000 Ang^3
#
#
#
# Elastic Constant Matrix: (Units=GPa)
#
#
# Indices 1 2 3 4 5 6 
#
# 1 98.1393 45.5559 38.7383 5.6610 31.5757 -17.9679
# 2 45.5559 65.7856 41.3554 7.1010 13.2759 -18.5929
# 3 38.7383 41.3554 112.6443 4.8818 41.0013 -7.0665
# 4 5.6610 7.1010 4.8818 23.7377 -9.8202 4.2497
# 5 31.5757 13.2759 41.0013 -9.8202 36.9711 -0.0818
# 6 -17.9679 -18.5929 -7.0665 4.2497 -0.0818 35.7693
#
#
#
# Elastic Compliance Matrix: (Units=1/GPa)
#
#
# Indices 1 2 3 4 5 6 
#
# 1 0.026020 -0.011593 0.009142 -0.020537 -0.033628 0.011213
# 2 -0.011593 0.029953 -0.010072 -0.001429 0.009953 0.007949
# 3 0.009142 -0.010072 0.023726 -0.019991 -0.035799 0.006337
# 4 -0.020537 -0.001429 -0.019991 0.081536 0.061826 -0.024554
# 5 -0.033628 0.009953 -0.035799 0.061826 0.108260 -0.025889
# 6 0.011213 0.007949 0.006337 -0.024554 -0.025889 0.041832
#
#
# Mechanical properties :
#
#
# Convention : Reuss Voigt Hill
#
# Bulk Modulus (GPa) = 18.29787 58.65203 38.47495
# Shear Modulus (GPa) = 14.10077 29.35693 21.72885
#
# Velocity S-wave (km/s) = 2.52146 3.63820 3.13004
# Velocity P-wave (km/s) = 4.08989 6.64031 5.51457
#
# Compressibility (1/GPa) = 0.05465118
#
# Stress axis : x y z
#
# Youngs Moduli (GPa) = 38.43239 33.38571 42.14828
#
# Poissons Ratio (x) = 0.38704 -0.38530
# Poissons Ratio (y) = 0.44555 0.42453
# Poissons Ratio (z) = -0.35133 0.33627
#
# Static dielectric constant tensor:
#      x y z
#    x 1.843090 0.012970 -0.004210 
#    y 0.012970 1.787940 -0.018990 
#    z -0.004210 -0.018990 1.914330 
# 
# From -- ./inp_files/534041.got.cif
#   From: 2010.05.17/outbox.cif.g08.bks.cpg/sg2_268_cif.got.tgz:534041.got - 2010.06.03 11:33:40.
