data_PCOD9106091
_publ_section_title
;
Structure prediction by ZEFSAII (Michael W. Deem and Ramdas Pophale) SiO2 
 PCOD9106091
Probable space group: P -1
;
_chemical_formula_sum "Si O2"
_cell_formula_units_Z 16
_cell_length_a 10.129212
_cell_length_b 9.574029
_cell_length_c 10.707920
_cell_angle_alpha 111.658330
_cell_angle_beta 77.439164
_cell_angle_gamma 73.752807
_cell_volume 864.641543
_symmetry_space_group_name_H-M "P -1"
_symmetry_group_IT_number 2
_symmetry_cell_setting 'triclinic'
loop_
_space_group_symop_operation_xyz
x,y,z
-x,-y,-z
loop_
_atom_site_type_symbol
_atom_site_label
_atom_site_fract_x
_atom_site_fract_y
_atom_site_fract_z
Si Si1 0.621039 0.399386 0.046306
Si Si2 0.682982 0.128988 0.761821
Si Si3 0.120984 0.500718 0.317934
Si Si4 0.163707 0.428352 0.993669
Si Si5 0.388104 0.120857 0.739452
Si Si6 0.168102 0.249336 0.430653
Si Si7 0.613321 0.409540 0.657175
Si Si8 0.537159 0.770408 0.510575
O O1 0.519610 0.437019 0.201532
O O2 0.500000 0.500000 0.000000
O O3 0.698869 0.217703 0.914465
O O4 0.737644 0.482682 0.057974
O O5 0.523481 0.119702 0.795109
O O6 0.670032 0.254685 0.692348
O O7 0.795749 0.943714 0.651449
O O8 0.163160 0.457185 0.151331
O O9 0.118469 0.345025 0.341764
O O10 0.245535 0.548451 0.373240
O O11 0.963799 0.652179 0.415036
O O12 0.241388 0.239870 0.874623
O O13 0.000000 0.500000 0.000000
O O14 0.411401 0.191476 0.623946
O O15 0.413113 0.936318 0.645103
O O16 0.317565 0.267601 0.449723
O O17 0.539408 0.354202 0.539792
#
# Coordination Sequence:
#
# PCOD9106091 Si02
#       8
#     2   2   2   2   2   2   2   2
#     4  10  16  34  56  83 109 132 178 239 266 310
#     4   9  16  34  58  77 107 143 180 226 266 314
#     4  11  23  38  53  81 113 148 178 224 275 327
#     4  12  21  33  57  85 108 141 183 228 277 318
#     4   9  16  31  54  84 111 134 179 230 265 309
#     4  10  23  38  53  76 119 150 177 214 277 334
#     4  10  18  33  61  83 108 137 185 231 263 309
#     4   9  17  33  57  79 109 146 175 221 269 315
#
# _framework density 18.504778999999999
#
# number of rings (size 3 to 8) (size 9 to 14) (size 15 to 20)
#    0.000    2.000    6.250    1.500    0.000    1.000 
#    2.250    5.625    0.000    0.750    0.000    0.000 
#    0.000    0.000    0.000    0.000    0.000    0.000 
#
# Total GULP energy -89161.298771 kJ/mol
# GULP energy per Si atom -5572.581173 kJ/mol
# Density = 1.846266 g / cm^3
# Si number density = 18.504779 Si / 1000 Ang^3
#
#
#
# Elastic Constant Matrix: (Units=GPa)
#
#
# Indices 1 2 3 4 5 6 
#
# 1 70.4145 11.3947 23.6901 15.8866 0.2885 -6.4115
# 2 11.3947 59.2488 44.4307 24.2497 -3.3427 1.3798
# 3 23.6901 44.4307 103.7471 45.3894 -1.8924 -7.4442
# 4 15.8866 24.2497 45.3894 21.4117 -2.2929 -3.6671
# 5 0.2885 -3.3427 -1.8924 -2.2929 31.3634 8.5092
# 6 -6.4115 1.3798 -7.4442 -3.6671 8.5092 14.8319
#
#
#
# Elastic Compliance Matrix: (Units=1/GPa)
#
#
# Indices 1 2 3 4 5 6 
#
# 1 0.029811 0.018417 0.059656 -0.169651 -0.008159 0.003851
# 2 0.018417 0.055129 0.077361 -0.243286 -0.002837 -0.016863
# 3 0.059656 0.077361 0.295210 -0.761620 -0.028809 -0.005019
# 4 -0.169651 -0.243286 -0.761620 2.077047 0.070662 0.040032
# 5 -0.008159 -0.002837 -0.028809 0.070662 0.041633 -0.024137
# 6 0.003851 -0.016863 -0.005019 0.040032 -0.024137 0.091882
#
#
# Mechanical properties :
#
#
# Convention : Reuss Voigt Hill
#
# Bulk Modulus (GPa) = 1.44714 43.60458 22.52586
# Shear Modulus (GPa) = 1.99189 23.78106 12.88647
#
# Velocity S-wave (km/s) = 1.03863 3.58876 2.64178
# Velocity P-wave (km/s) = 1.49066 6.38650 4.63732
#
# Compressibility (1/GPa) = 0.69101677
#
# Stress axis : x y z
#
# Youngs Moduli (GPa) = 33.54484 18.13921 3.38742
#
# Poissons Ratio (x) = -0.33407 -0.20208
# Poissons Ratio (y) = -0.61779 -0.26205
# Poissons Ratio (z) = -2.00113 -1.40327
#
# Static dielectric constant tensor:
#      x y z
#    x 1.627720 0.001510 0.016490 
#    y 0.001510 1.663380 0.002810 
#    z 0.016490 0.002810 1.666500 
# 
# From -- ./inp_files/280415.got.cif
#   From: 2010.05.17/outbox.cif.g08.bks.cpg/sg2_141_cif.got.tgz:280415.got - 2010.06.03 11:33:40.
