data_PCOD9106660
_publ_section_title
;
Structure prediction by ZEFSAII (Michael W. Deem and Ramdas Pophale) SiO2 
 PCOD9106660
Probable space group: P -1
;
_chemical_formula_sum "Si O2"
_cell_formula_units_Z 11
_cell_length_a 7.355650
_cell_length_b 11.939426
_cell_length_c 6.638560
_cell_angle_alpha 70.691784
_cell_angle_beta 59.918546
_cell_angle_gamma 48.194871
_cell_volume 376.049132
_symmetry_space_group_name_H-M "P -1"
_symmetry_group_IT_number 2
_symmetry_cell_setting 'triclinic'
loop_
_space_group_symop_operation_xyz
x,y,z
-x,-y,-z
loop_
_atom_site_type_symbol
_atom_site_label
_atom_site_fract_x
_atom_site_fract_y
_atom_site_fract_z
Si Si1 0.185677 0.412934 0.198883
Si Si2 0.184115 0.664284 0.438477
Si Si3 0.245192 0.041946 0.745351
Si Si4 0.500000 0.500000 0.000000
Si Si5 0.768981 0.150463 0.413381
Si Si6 0.250345 0.244590 0.884057
O O1 0.428763 0.391079 0.184692
O O2 0.957352 0.413802 0.424872
O O3 0.028210 0.590136 0.114117
O O4 0.297261 0.277192 0.060803
O O5 0.452212 0.569229 0.218349
O O6 0.188933 0.728741 0.610788
O O7 0.996347 0.805136 0.313959
O O8 0.251125 0.103120 0.924486
O O9 0.500000 0.000000 0.500000
O O10 0.213472 0.916251 0.776940
O O11 0.485634 0.212768 0.632807
O O12 0.000000 0.000000 0.500000
#
# Coordination Sequence:
#
# PCOD9106660 Si02
#       6
#     2   2   2   1   2   2
#     4  11  24  39  64  92 124 160 200 258 306 360
#     4  11  22  41  65  92 118 164 207 242 311 371
#     4   9  19  38  65  84 123 164 197 253 298 349
#     4  12  22  40  64  90 124 160 198 260 306 360
#     4   9  19  38  62  86 121 167 197 247 300 354
#     4  10  20  40  59  94 128 153 202 261 301 349
#
# _framework density 29.251498999999999
#
# number of rings (size 3 to 8) (size 9 to 14) (size 15 to 20)
#    0.000    1.818    3.636    0.545    0.000    0.727 
#    0.000    9.091    0.000    0.000    0.000    0.000 
#    0.000    0.000    0.000    0.000    0.000    0.000 
#
# Total GULP energy -61328.394635 kJ/mol
# GULP energy per Si atom -5575.308603 kJ/mol
# Density = 2.918492 g / cm^3
# Si number density = 29.251499 Si / 1000 Ang^3
#
#
#
# Elastic Constant Matrix: (Units=GPa)
#
#
# Indices 1 2 3 4 5 6 
#
# 1 128.5700 92.0381 26.4538 21.3867 17.7288 61.2048
# 2 92.0381 170.6138 66.4305 24.7437 -13.1325 43.2298
# 3 26.4538 66.4305 162.2157 35.8991 12.0522 44.9012
# 4 21.3867 24.7437 35.8991 57.9309 13.5143 -0.7710
# 5 17.7288 -13.1325 12.0522 13.5143 39.3005 16.6849
# 6 61.2048 43.2298 44.9012 -0.7710 16.6849 101.9123
#
#
#
# Elastic Compliance Matrix: (Units=1/GPa)
#
#
# Indices 1 2 3 4 5 6 
#
# 1 0.020791 -0.011293 0.005136 -0.003848 -0.009848 -0.008375
# 2 -0.011293 0.014900 -0.004898 -0.001943 0.011970 0.000645
# 3 0.005136 -0.004898 0.010157 -0.005450 -0.003062 -0.005021
# 4 -0.003848 -0.001943 -0.005450 0.025065 -0.008912 0.007186
# 5 -0.009848 0.011970 -0.003062 -0.008912 0.039755 -0.004390
# 6 -0.008375 0.000645 -0.005021 0.007186 -0.004390 0.017554
#
#
# Mechanical properties :
#
#
# Convention : Reuss Voigt Hill
#
# Bulk Modulus (GPa) = 42.12888 92.36048 67.24468
# Shear Modulus (GPa) = 31.59692 58.26054 44.92873
#
# Velocity S-wave (km/s) = 3.29018 4.46770 3.92337
# Velocity P-wave (km/s) = 5.37282 7.63262 6.60016
#
# Compressibility (1/GPa) = 0.02373669
#
# Stress axis : x y z
#
# Youngs Moduli (GPa) = 48.09878 67.11380 98.45817
#
# Poissons Ratio (x) = 0.75792 -0.50567
# Poissons Ratio (y) = 0.54318 0.48226
# Poissons Ratio (z) = -0.24703 0.32873
#
# Static dielectric constant tensor:
#      x y z
#    x 3.281040 -0.079440 -0.200150 
#    y -0.079440 2.200060 -0.034940 
#    z -0.200150 -0.034940 2.315770 
# 
# From -- ./inp_files/21327.got.cif
#   From: 2010.05.17/outbox.cif.g08.bks.cpg/sg2_11_cif.got.tgz:21327.got - 2010.06.03 11:33:40.
