data_PCOD9106237
_publ_section_title
;
Structure prediction by ZEFSAII (Michael W. Deem and Ramdas Pophale) SiO2 
 PCOD9106237
Probable space group: P -1
;
_chemical_formula_sum "Si O2"
_cell_formula_units_Z 15
_cell_length_a 15.213226
_cell_length_b 9.418426
_cell_length_c 20.854835
_cell_angle_alpha 45.976705
_cell_angle_beta 159.448974
_cell_angle_gamma 133.391773
_cell_volume 746.449970
_symmetry_space_group_name_H-M "P -1"
_symmetry_group_IT_number 2
_symmetry_cell_setting 'triclinic'
loop_
_space_group_symop_operation_xyz
x,y,z
-x,-y,-z
loop_
_atom_site_type_symbol
_atom_site_label
_atom_site_fract_x
_atom_site_fract_y
_atom_site_fract_z
Si Si1 0.686011 0.837030 0.540429
Si Si2 0.325003 0.495296 0.786182
Si Si3 0.965930 0.817297 0.400479
Si Si4 0.000000 0.000000 0.500000
Si Si5 0.299515 0.336216 0.530837
Si Si6 0.717122 0.017360 0.697823
Si Si7 0.221057 0.369264 0.198326
Si Si8 0.125046 0.394032 0.823317
O O1 0.643349 0.689434 0.496902
O O2 0.427441 0.920005 0.357954
O O3 0.782442 0.735487 0.701375
O O4 0.894344 0.019362 0.603765
O O5 0.261755 0.322962 0.744952
O O6 0.213848 0.407537 0.805881
O O7 0.169005 0.673135 0.605446
O O8 0.619560 0.573554 0.971274
O O9 0.886283 0.918571 0.378407
O O10 0.749304 0.881206 0.403368
O O11 0.511261 0.487303 0.663580
O O12 0.035974 0.424287 0.332394
O O13 0.942242 0.191338 0.778738
O O14 0.500000 0.000000 0.500000
O O15 0.799648 0.799716 0.817814
O O16 0.000000 0.500000 0.000000
#
# Coordination Sequence:
#
# PCOD9106237 Si02
#       8
#     2   2   2   1   2   2   2   2
#     4  10  22  41  66  90 126 174 214 264 331 392
#     4  10  22  38  66  95 127 172 226 266 323 392
#     4  10  21  41  63  92 130 171 218 272 324 390
#     4  10  22  40  64  90 126 178 210 270 334 378
#     4  11  22  43  64  88 136 172 211 272 331 385
#     4  10  20  39  68  91 123 170 214 265 328 385
#     4  11  24  42  66  97 127 168 216 274 329 388
#     4  11  21  40  68  95 132 174 223 274 324 387
#
# _framework density 20.095116999999998
#
# number of rings (size 3 to 8) (size 9 to 14) (size 15 to 20)
#    0.000    1.600    4.000    2.000    0.000    2.133 
#    7.200    2.667    0.000    0.000    0.000    0.000 
#    0.000    0.000    0.000    0.000    0.000    0.000 
#
# Total GULP energy -83502.358952 kJ/mol
# GULP energy per Si atom -5566.823930 kJ/mol
# Density = 2.004938 g / cm^3
# Si number density = 20.095117 Si / 1000 Ang^3
#
#
#
# Elastic Constant Matrix: (Units=GPa)
#
#
# Indices 1 2 3 4 5 6 
#
# 1 105.3150 32.1106 25.6940 13.9655 7.5180 -9.4433
# 2 32.1106 69.7981 24.2132 25.4730 0.7247 -11.6629
# 3 25.6940 24.2132 85.3602 15.0887 9.9809 -12.9899
# 4 13.9655 25.4730 15.0887 34.9740 -2.9151 1.6894
# 5 7.5180 0.7247 9.9809 -2.9151 14.6225 -2.2645
# 6 -9.4433 -11.6629 -12.9899 1.6894 -2.2645 29.6914
#
#
#
# Elastic Compliance Matrix: (Units=1/GPa)
#
#
# Indices 1 2 3 4 5 6 
#
# 1 0.011754 -0.004096 -0.001301 -0.001634 -0.005082 0.001266
# 2 -0.004096 0.023727 -0.001555 -0.015355 0.000204 0.008226
# 3 -0.001301 -0.001555 0.015685 -0.006240 -0.010368 0.005402
# 4 -0.001634 -0.015355 -0.006240 0.044736 0.013102 -0.010828
# 5 -0.005082 0.000204 -0.010368 0.013102 0.080575 -0.000672
# 6 0.001266 0.008226 0.005402 -0.010828 -0.000672 0.040242
#
#
# Mechanical properties :
#
#
# Convention : Reuss Voigt Hill
#
# Bulk Modulus (GPa) = 26.83588 47.16766 37.00177
# Shear Modulus (GPa) = 20.57235 27.75462 24.16349
#
# Velocity S-wave (km/s) = 3.20308 3.72043 3.47141
# Velocity P-wave (km/s) = 5.20221 6.47909 5.87544
#
# Compressibility (1/GPa) = 0.03726354
#
# Stress axis : x y z
#
# Youngs Moduli (GPa) = 85.07399 42.14557 63.75505
#
# Poissons Ratio (x) = 0.17262 0.08292
# Poissons Ratio (y) = 0.34844 0.09916
# Poissons Ratio (z) = 0.11064 0.06555
#
# Static dielectric constant tensor:
#      x y z
#    x 1.715070 -0.003660 0.002440 
#    y -0.003660 1.779070 -0.036440 
#    z 0.002440 -0.036440 1.698550 
# 
# From -- ./inp_files/597331.got.cif
#   From: 2010.05.17/outbox.cif.g08.bks.cpg/sg2_299_cif.got.tgz:597331.got - 2010.06.03 11:33:40.
