data_PCOD9106326
_publ_section_title
;
Structure prediction by ZEFSAII (Michael W. Deem and Ramdas Pophale) SiO2 
 PCOD9106326
Probable space group: P -1
;
_chemical_formula_sum "Si O2"
_cell_formula_units_Z 16
_cell_length_a 5.220690
_cell_length_b 18.694972
_cell_length_c 8.779075
_cell_angle_alpha 59.475427
_cell_angle_beta 66.404794
_cell_angle_gamma 98.852289
_cell_volume 603.183151
_symmetry_space_group_name_H-M "P -1"
_symmetry_group_IT_number 2
_symmetry_cell_setting 'triclinic'
loop_
_space_group_symop_operation_xyz
x,y,z
-x,-y,-z
loop_
_atom_site_type_symbol
_atom_site_label
_atom_site_fract_x
_atom_site_fract_y
_atom_site_fract_z
Si Si1 0.299502 0.587730 0.404236
Si Si2 0.971787 0.887627 0.975432
Si Si3 0.309020 0.670528 0.877925
Si Si4 0.437084 0.359439 0.417289
Si Si5 0.812012 0.255614 0.873620
Si Si6 0.829622 0.063302 0.438238
Si Si7 0.611515 0.557828 0.105226
Si Si8 0.465211 0.065032 0.804342
O O1 0.278229 0.592235 0.584563
O O2 0.574962 0.570779 0.281444
O O3 0.000000 0.500000 0.500000
O O4 0.357494 0.689901 0.225213
O O5 0.193661 0.844178 0.032208
O O6 0.646374 0.864467 0.164086
O O7 0.949290 0.868379 0.820675
O O8 0.172502 0.997358 0.841259
O O9 0.543670 0.709956 0.636913
O O10 0.437248 0.610838 0.010570
O O11 0.250017 0.735135 0.942511
O O12 0.981261 0.606186 0.943206
O O13 0.151178 0.314078 0.649479
O O14 0.443760 0.448308 0.232804
O O15 0.750318 0.100522 0.575140
O O16 0.500000 0.000000 0.500000
O O17 0.000000 0.000000 0.500000
O O18 0.500000 0.000000 0.000000
#
# Coordination Sequence:
#
# PCOD9106326 Si02
#       8
#     2   2   2   2   2   2   2   2
#     4  11  22  41  68  91 131 181 233 275 336 391
#     4  10  23  41  65  99 136 171 218 274 332 400
#     4  11  26  41  66  94 131 172 233 280 335 399
#     4  12  23  40  68  91 128 176 225 278 340 391
#     4  11  25  43  61  95 138 175 217 282 340 391
#     4  10  20  39  68  99 131 169 210 263 322 392
#     4  11  22  42  64  96 126 172 230 290 328 393
#     4  10  20  40  72  99 128 170 224 263 327 407
#
# _framework density 26.525939999999999
#
# number of rings (size 3 to 8) (size 9 to 14) (size 15 to 20)
#    0.000    1.250    3.750    2.625    1.750    2.000 
#    0.000    0.000    0.000    0.000    0.000    0.000 
#    0.000    0.000    0.000    0.000    0.000    0.000 
#
# Total GULP energy -89323.929825 kJ/mol
# GULP energy per Si atom -5582.745614 kJ/mol
# Density = 2.646557 g / cm^3
# Si number density = 26.525940 Si / 1000 Ang^3
#
#
#
# Elastic Constant Matrix: (Units=GPa)
#
#
# Indices 1 2 3 4 5 6 
#
# 1 84.3766 25.0341 13.1397 4.4291 7.6158 -20.5298
# 2 25.0341 154.6745 77.0454 44.6294 4.9835 -25.0732
# 3 13.1397 77.0454 106.9523 57.0995 -0.9496 -11.2312
# 4 4.4291 44.6294 57.0995 61.7717 -11.8256 -7.9521
# 5 7.6158 4.9835 -0.9496 -11.8256 19.5817 -9.1988
# 6 -20.5298 -25.0732 -11.2312 -7.9521 -9.1988 31.4966
#
#
#
# Elastic Compliance Matrix: (Units=1/GPa)
#
#
# Indices 1 2 3 4 5 6 
#
# 1 0.014307 -0.000815 -0.001167 0.001674 -0.000375 0.008573
# 2 -0.000815 0.011242 -0.006682 -0.001443 -0.001246 0.005307
# 3 -0.001167 -0.006682 0.024911 -0.021287 -0.012403 -0.006194
# 4 0.001674 -0.001443 -0.021287 0.044477 0.031555 0.012797
# 5 -0.000375 -0.001246 -0.012403 0.031555 0.082372 0.026365
# 6 0.008573 0.005307 -0.006194 0.012797 0.026365 0.050285
#
#
# Mechanical properties :
#
#
# Convention : Reuss Voigt Hill
#
# Bulk Modulus (GPa) = 30.18228 64.04911 47.11569
# Shear Modulus (GPa) = 19.53382 37.95562 28.74472
#
# Velocity S-wave (km/s) = 2.71662 3.78681 3.29545
# Velocity P-wave (km/s) = 4.60903 6.58165 5.68161
#
# Compressibility (1/GPa) = 0.03313203
#
# Stress axis : x y z
#
# Youngs Moduli (GPa) = 69.89445 88.95008 40.14279
#
# Poissons Ratio (x) = 0.07254 0.04684
# Poissons Ratio (y) = 0.05700 0.26823
# Poissons Ratio (z) = 0.08156 0.59435
#
# Static dielectric constant tensor:
#      x y z
#    x 2.304110 -0.062040 0.082530 
#    y -0.062040 2.107790 0.020940 
#    z 0.082530 0.020940 2.193770 
# 
# From -- ./inp_files/52285.got.cif
#   From: 2010.05.17/outbox.cif.g08.bks.cpg/sg2_27_cif.got.tgz:52285.got - 2010.06.03 11:33:40.
