data_PCOD9106168
_publ_section_title
;
Structure prediction by ZEFSAII (Michael W. Deem and Ramdas Pophale) SiO2 
 PCOD9106168
Probable space group: P -1
;
_chemical_formula_sum "Si O2"
_cell_formula_units_Z 16
_cell_length_a 9.596404
_cell_length_b 14.034474
_cell_length_c 11.404887
_cell_angle_alpha 101.653336
_cell_angle_beta 84.012553
_cell_angle_gamma 33.894615
_cell_volume 727.516585
_symmetry_space_group_name_H-M "P -1"
_symmetry_group_IT_number 2
_symmetry_cell_setting 'triclinic'
loop_
_space_group_symop_operation_xyz
x,y,z
-x,-y,-z
loop_
_atom_site_type_symbol
_atom_site_label
_atom_site_fract_x
_atom_site_fract_y
_atom_site_fract_z
Si Si1 0.600093 0.262137 0.884836
Si Si2 0.608510 0.961679 0.614622
Si Si3 0.238690 0.423728 0.608652
Si Si4 0.822479 0.025817 0.589920
Si Si5 0.050076 0.071097 0.951303
Si Si6 0.931725 0.341071 0.129412
Si Si7 0.353379 0.272073 0.322427
Si Si8 0.294239 0.262931 0.938626
O O1 0.810433 0.079138 0.731822
O O2 0.333169 0.468484 0.886122
O O3 0.487750 0.235886 0.959679
O O4 0.782125 0.234325 0.924389
O O5 0.663278 0.823960 0.636413
O O6 0.500000 0.000000 0.500000
O O7 0.871199 0.880028 0.553149
O O8 0.414365 0.136237 0.777714
O O9 0.502594 0.222466 0.609940
O O10 0.160378 0.572959 0.711582
O O11 0.332972 0.362406 0.451198
O O12 0.945075 0.539584 0.675756
O O13 0.000000 0.000000 0.500000
O O14 0.352091 0.897238 0.814913
O O15 0.007142 0.184623 0.071493
O O16 0.000000 0.000000 0.000000
O O17 0.206870 0.235721 0.034387
O O18 0.000000 0.500000 0.000000
#
# Coordination Sequence:
#
# PCOD9106168 Si02
#       8
#     2   2   2   2   2   2   2   2
#     4   9  21  38  61  93 128 162 215 269 327 379
#     4  11  21  38  66  99 122 172 225 261 321 387
#     4  10  23  43  66  94 132 178 211 272 335 391
#     4  10  20  39  67  97 129 166 215 272 325 388
#     4  12  26  43  63  97 133 174 215 276 334 382
#     4  10  21  42  67  91 126 168 224 270 326 391
#     4  11  24  44  64  94 138 171 224 272 322 405
#     4   9  19  36  62  94 125 162 210 275 316 380
#
# _framework density 21.992625
#
# number of rings (size 3 to 8) (size 9 to 14) (size 15 to 20)
#    0.000    1.750    2.500    1.875    1.750    2.500 
#    0.000    6.250    0.000    0.000    0.000    0.000 
#    0.000    0.000    0.000    0.000    0.000    0.000 
#
# Total GULP energy -89175.086957 kJ/mol
# GULP energy per Si atom -5573.442935 kJ/mol
# Density = 2.194257 g / cm^3
# Si number density = 21.992625 Si / 1000 Ang^3
#
#
#
# Elastic Constant Matrix: (Units=GPa)
#
#
# Indices 1 2 3 4 5 6 
#
# 1 126.6660 31.5237 56.3384 12.2439 -6.9706 26.4728
# 2 31.5237 65.2790 25.1484 4.4668 -3.3928 -5.5396
# 3 56.3384 25.1484 110.5930 17.5433 22.8646 10.6376
# 4 12.2439 4.4668 17.5433 20.1968 4.7656 0.7747
# 5 -6.9706 -3.3928 22.8646 4.7656 44.0460 0.3233
# 6 26.4728 -5.5396 10.6376 0.7747 0.3233 34.3597
#
#
#
# Elastic Compliance Matrix: (Units=1/GPa)
#
#
# Indices 1 2 3 4 5 6 
#
# 1 0.014511 -0.005117 -0.005804 -0.003500 0.005369 -0.010180
# 2 -0.005117 0.019802 -0.003257 0.000705 0.002271 0.008106
# 3 -0.005804 -0.003257 0.015743 -0.007395 -0.008537 -0.000680
# 4 -0.003500 0.000705 -0.007395 0.058467 -0.003015 0.003810
# 5 0.005369 0.002271 -0.008537 -0.003015 0.028495 -0.001328
# 6 -0.010180 0.008106 -0.000680 0.003810 -0.001328 0.038391
#
#
# Mechanical properties :
#
#
# Convention : Reuss Voigt Hill
#
# Bulk Modulus (GPa) = 46.08371 58.72878 52.40624
# Shear Modulus (GPa) = 23.69657 32.35568 28.02613
#
# Velocity S-wave (km/s) = 3.28606 3.83979 3.57367
# Velocity P-wave (km/s) = 5.94956 6.81326 6.39600
#
# Compressibility (1/GPa) = 0.02169964
#
# Stress axis : x y z
#
# Youngs Moduli (GPa) = 68.91226 50.49911 63.51943
#
# Poissons Ratio (x) = 0.25839 0.36869
# Poissons Ratio (y) = 0.35261 0.20691
# Poissons Ratio (z) = 0.39999 0.16449
#
# Static dielectric constant tensor:
#      x y z
#    x 1.879090 -0.026290 -0.012440 
#    y -0.026290 1.919690 -0.030380 
#    z -0.012440 -0.030380 1.832180 
# 
# From -- ./inp_files/399297.got.cif
#   From: 2010.05.17/outbox.cif.g08.bks.cpg/sg2_200_cif.got.tgz:399297.got - 2010.06.03 11:33:40.
