data_PCOD9106752
_publ_section_title
;
Structure prediction by ZEFSAII (Michael W. Deem and Ramdas Pophale) SiO2 
 PCOD9106752
Probable space group: P -1
;
_chemical_formula_sum "Si O2"
_cell_formula_units_Z 16
_cell_length_a 9.057635
_cell_length_b 14.006782
_cell_length_c 13.411802
_cell_angle_alpha 59.968894
_cell_angle_beta 29.707007
_cell_angle_gamma 60.678619
_cell_volume 723.994442
_symmetry_space_group_name_H-M "P -1"
_symmetry_group_IT_number 2
_symmetry_cell_setting 'triclinic'
loop_
_space_group_symop_operation_xyz
x,y,z
-x,-y,-z
loop_
_atom_site_type_symbol
_atom_site_label
_atom_site_fract_x
_atom_site_fract_y
_atom_site_fract_z
Si Si1 0.989549 0.047026 0.777241
Si Si2 0.236525 0.827866 0.486359
Si Si3 0.785314 0.244430 0.668986
Si Si4 0.791045 0.169629 0.142232
Si Si5 0.762106 0.781841 0.320058
Si Si6 0.367797 0.369012 0.249628
Si Si7 0.682939 0.374287 0.848399
Si Si8 0.408201 0.074969 0.242889
O O1 0.914205 0.115488 0.685103
O O2 0.210304 0.118460 0.670697
O O3 0.678107 0.062689 0.012215
O O4 0.109536 0.917855 0.783403
O O5 0.363266 0.763120 0.346257
O O6 0.424224 0.767662 0.498045
O O7 0.877151 0.844830 0.674694
O O8 0.316083 0.953455 0.377901
O O9 0.602606 0.299427 0.841702
O O10 0.057335 0.318244 0.463456
O O11 0.616076 0.289393 0.207814
O O12 0.555777 0.117403 0.234333
O O13 0.069192 0.184326 0.897797
O O14 0.978952 0.677360 0.291081
O O15 0.336186 0.496636 0.233621
O O16 0.485068 0.363653 0.068850
#
# Coordination Sequence:
#
# PCOD9106752 Si02
#       8
#     2   2   2   2   2   2   2   2
#     4  10  19  35  57  86 117 161 192 233 282 347
#     4  11  20  33  56  89 123 157 183 241 297 342
#     4  11  23  34  60  91 120 145 198 245 287 348
#     4  10  16  34  60  81 115 154 199 231 273 352
#     4   9  17  34  60  84 111 157 194 234 288 343
#     4  10  20  39  62  90 108 156 199 245 287 339
#     4   9  21  40  67  82 112 153 204 242 289 340
#     4  10  19  34  56  82 125 161 191 223 289 365
#
# _framework density 22.099618
#
# number of rings (size 3 to 8) (size 9 to 14) (size 15 to 20)
#    0.000    2.000    3.750    1.875    0.000    1.000 
#    0.000    0.625    5.500    6.750    0.000    0.000 
#    0.000    0.000    0.000    0.000    0.000    0.000 
#
# Total GULP energy -89412.039918 kJ/mol
# GULP energy per Si atom -5588.252495 kJ/mol
# Density = 2.204932 g / cm^3
# Si number density = 22.099618 Si / 1000 Ang^3
#
#
#
# Elastic Constant Matrix: (Units=GPa)
#
#
# Indices 1 2 3 4 5 6 
#
# 1 80.4564 28.0875 19.5662 10.9565 -6.2629 -2.5968
# 2 28.0875 144.4786 10.2342 -1.5178 9.7688 -10.3529
# 3 19.5662 10.2342 51.8519 7.8677 2.7573 0.8539
# 4 10.9565 -1.5178 7.8677 30.7746 -4.1365 6.2717
# 5 -6.2629 9.7688 2.7573 -4.1365 25.2327 3.7157
# 6 -2.5968 -10.3529 0.8539 6.2717 3.7157 23.3935
#
#
#
# Elastic Compliance Matrix: (Units=1/GPa)
#
#
# Indices 1 2 3 4 5 6 
#
# 1 0.015625 -0.002987 -0.004973 -0.003978 0.004793 0.000899
# 2 -0.002987 0.008105 -0.000327 0.000156 -0.004396 0.003924
# 3 -0.004973 -0.000327 0.022145 -0.004574 -0.004338 0.000410
# 4 -0.003978 0.000156 -0.004574 0.038480 0.007485 -0.011711
# 5 0.004793 -0.004396 -0.004338 0.007485 0.045774 -0.010532
# 6 0.000899 0.003924 0.000410 -0.011711 -0.010532 0.049381
#
#
# Mechanical properties :
#
#
# Convention : Reuss Voigt Hill
#
# Bulk Modulus (GPa) = 34.12817 43.61808 38.87313
# Shear Modulus (GPa) = 24.28945 30.47343 27.38144
#
# Velocity S-wave (km/s) = 3.31885 3.71740 3.52376
# Velocity P-wave (km/s) = 5.49206 6.18104 5.84671
#
# Compressibility (1/GPa) = 0.02930131
#
# Stress axis : x y z
#
# Youngs Moduli (GPa) = 64.00020 123.37627 45.15772
#
# Poissons Ratio (x) = 0.36850 0.22455
# Poissons Ratio (y) = 0.19116 0.01478
# Poissons Ratio (z) = 0.31825 0.04038
#
# Static dielectric constant tensor:
#      x y z
#    x 1.812050 -0.009060 0.039950 
#    y -0.009060 1.824720 0.032060 
#    z 0.039950 0.032060 1.865570 
# 
# From -- ./inp_files/314983.got.cif
#   From: 2010.05.17/outbox.cif.g08.bks.cpg/sg2_158_cif.got.tgz:314983.got - 2010.06.03 11:33:40.
