data_PCOD9106686
_publ_section_title
;
Structure prediction by ZEFSAII (Michael W. Deem and Ramdas Pophale) SiO2 
 PCOD9106686
Probable space group: P -1
;
_chemical_formula_sum "Si O2"
_cell_formula_units_Z 14
_cell_length_a 18.619745
_cell_length_b 7.660636
_cell_length_c 9.157733
_cell_angle_alpha 76.213895
_cell_angle_beta 140.690271
_cell_angle_gamma 128.947523
_cell_volume 556.051228
_symmetry_space_group_name_H-M "P -1"
_symmetry_group_IT_number 2
_symmetry_cell_setting 'triclinic'
loop_
_space_group_symop_operation_xyz
x,y,z
-x,-y,-z
loop_
_atom_site_type_symbol
_atom_site_label
_atom_site_fract_x
_atom_site_fract_y
_atom_site_fract_z
Si Si1 0.722055 0.153563 0.891750
Si Si2 0.392515 0.004449 0.934993
Si Si3 0.687958 0.570390 0.261226
Si Si4 0.548583 0.569101 0.745387
Si Si5 0.911281 0.498303 0.544671
Si Si6 0.005156 0.881227 0.381511
Si Si7 0.292745 0.467927 0.239953
O O1 0.684824 0.299349 0.722663
O O2 0.659046 0.127493 0.961539
O O3 0.650120 0.870523 0.813258
O O4 0.917378 0.354804 0.144160
O O5 0.511589 0.307324 0.096815
O O6 0.500000 0.000000 0.000000
O O7 0.219269 0.809114 0.618479
O O8 0.807129 0.532448 0.457703
O O9 0.814195 0.870115 0.442073
O O10 0.631457 0.562925 0.011781
O O11 0.357186 0.410463 0.481425
O O12 0.576077 0.447801 0.690835
O O13 0.960962 0.643802 0.437596
O O14 0.000000 0.000000 0.500000
O O15 0.876340 0.757959 0.070055
#
# Coordination Sequence:
#
# PCOD9106686 Si02
#       7
#     2   2   2   2   2   2   2
#     4  12  22  38  64  93 120 159 215 250 302 364
#     4  10  21  34  57  93 127 155 195 264 311 353
#     4  10  19  37  59  91 124 154 199 254 314 352
#     4  11  22  38  58  90 129 162 200 250 308 370
#     4  10  18  34  61  92 118 150 203 259 295 352
#     4  10  16  34  59  88 115 149 202 248 293 349
#     4  11  22  37  61  89 127 163 200 254 305 363
#
# _framework density 25.177537999999998
#
# number of rings (size 3 to 8) (size 9 to 14) (size 15 to 20)
#    0.000    1.429    5.714    2.571    0.000    0.571 
#    0.000    0.000    0.000    5.143    0.000   16.000 
#    0.000    0.000    0.000    0.000    0.000    0.000 
#
# Total GULP energy -77993.001737 kJ/mol
# GULP energy per Si atom -5570.928696 kJ/mol
# Density = 2.512023 g / cm^3
# Si number density = 25.177538 Si / 1000 Ang^3
#
#
#
# Elastic Constant Matrix: (Units=GPa)
#
#
# Indices 1 2 3 4 5 6 
#
# 1 63.9593 25.1382 4.1700 6.5516 17.6227 -23.2427
# 2 25.1382 114.3091 39.1821 18.7106 19.9214 -20.9763
# 3 4.1700 39.1821 126.1821 3.1245 12.7948 0.7558
# 4 6.5516 18.7106 3.1245 41.0473 0.1841 14.3722
# 5 17.6227 19.9214 12.7948 0.1841 37.9006 4.6535
# 6 -23.2427 -20.9763 0.7558 14.3722 4.6535 37.3920
#
#
#
# Elastic Compliance Matrix: (Units=1/GPa)
#
#
# Indices 1 2 3 4 5 6 
#
# 1 0.035589 0.007188 -0.000590 -0.021998 -0.024647 0.037688
# 2 0.007188 0.018071 -0.004125 -0.017065 -0.014191 0.023014
# 3 -0.000590 -0.004125 0.009204 0.002623 -0.000205 -0.003850
# 4 -0.021998 -0.017065 0.002623 0.051464 0.023715 -0.046032
# 5 -0.024647 -0.014191 -0.000205 0.023715 0.049999 -0.038615
# 6 0.037688 0.023014 -0.003850 -0.046032 -0.038615 0.085658
#
#
# Mechanical properties :
#
#
# Convention : Reuss Voigt Hill
#
# Bulk Modulus (GPa) = 14.74722 49.04791 31.89756
# Shear Modulus (GPa) = 18.68158 38.99867 28.84012
#
# Velocity S-wave (km/s) = 2.72691 3.93994 3.38815
# Velocity P-wave (km/s) = 3.97300 6.34197 5.29175
#
# Compressibility (1/GPa) = 0.06780940
#
# Stress axis : x y z
#
# Youngs Moduli (GPa) = 28.09890 55.33636 108.64332
#
# Poissons Ratio (x) = -0.39775 0.06409
# Poissons Ratio (y) = -0.20197 0.44819
# Poissons Ratio (z) = 0.01658 0.22828
#
# Static dielectric constant tensor:
#      x y z
#    x 2.171290 -0.052190 -0.050480 
#    y -0.052190 2.045030 -0.018210 
#    z -0.050480 -0.018210 2.086150 
# 
# From -- ./inp_files/474190.got.cif
#   From: 2010.05.17/outbox.cif.g08.bks.cpg/sg2_238_cif.got.tgz:474190.got - 2010.06.03 11:33:40.
