data_PCOD9106242
_publ_section_title
;
Structure prediction by ZEFSAII (Michael W. Deem and Ramdas Pophale) SiO2 
 PCOD9106242
Probable space group: P -1
;
_chemical_formula_sum "Si O2"
_cell_formula_units_Z 14
_cell_length_a 5.114116
_cell_length_b 12.238765
_cell_length_c 11.711307
_cell_angle_alpha 85.780209
_cell_angle_beta 73.890210
_cell_angle_gamma 116.556600
_cell_volume 613.045365
_symmetry_space_group_name_H-M "P -1"
_symmetry_group_IT_number 2
_symmetry_cell_setting 'triclinic'
loop_
_space_group_symop_operation_xyz
x,y,z
-x,-y,-z
loop_
_atom_site_type_symbol
_atom_site_label
_atom_site_fract_x
_atom_site_fract_y
_atom_site_fract_z
Si Si1 0.505004 0.840725 0.021784
Si Si2 0.634421 0.412953 0.033109
Si Si3 0.794709 0.057094 0.126116
Si Si4 0.324261 0.280265 0.317950
Si Si5 0.666752 0.414001 0.489214
Si Si6 0.704726 0.192973 0.529969
Si Si7 0.626865 0.953268 0.632182
O O1 0.565193 0.912878 0.128434
O O2 0.413047 0.696582 0.040728
O O3 0.267684 0.864198 0.971061
O O4 0.852489 0.913890 0.919406
O O5 0.450837 0.345465 0.176573
O O6 0.500000 0.500000 0.000000
O O7 0.000000 0.500000 0.000000
O O8 0.685798 0.088685 0.253898
O O9 0.597383 0.357623 0.372445
O O10 0.244809 0.135402 0.329092
O O11 0.017625 0.274260 0.411139
O O12 0.500000 0.500000 0.500000
O O13 0.576028 0.284523 0.580671
O O14 0.000000 0.500000 0.500000
O O15 0.440430 0.093608 0.486044
O O16 0.787606 0.103791 0.604385
#
# Coordination Sequence:
#
# PCOD9106242 Si02
#       7
#     2   2   2   2   2   2   2
#     4  10  21  41  65  92 126 170 220 264 337 376
#     4  12  27  43  68  97 133 180 235 274 321 405
#     4  10  20  39  68  92 129 168 204 280 333 390
#     4  11  23  43  72  91 139 177 224 282 340 387
#     4  11  23  44  68  93 135 180 220 269 330 399
#     4  10  22  40  69 103 129 174 221 273 335 415
#     4  10  21  38  67 103 132 168 221 273 344 395
#
# _framework density 22.83681
#
# number of rings (size 3 to 8) (size 9 to 14) (size 15 to 20)
#    0.000    1.429    2.857    2.143    4.000    0.000 
#    5.143    0.000    0.000    0.000    0.000    0.000 
#    0.000    0.000    0.000    0.000    0.000    0.000 
#
# Total GULP energy -78020.098981 kJ/mol
# GULP energy per Si atom -5572.864213 kJ/mol
# Density = 2.278483 g / cm^3
# Si number density = 22.836810 Si / 1000 Ang^3
#
#
#
# Elastic Constant Matrix: (Units=GPa)
#
#
# Indices 1 2 3 4 5 6 
#
# 1 142.6926 50.7454 25.5280 -12.3413 8.8999 -26.4084
# 2 50.7454 176.8038 14.0309 -11.2963 22.7823 -36.8836
# 3 25.5280 14.0309 50.4070 -12.4964 -1.3177 -9.7224
# 4 -12.3413 -11.2963 -12.4964 34.4455 -4.7418 7.2509
# 5 8.8999 22.7823 -1.3177 -4.7418 30.2699 -1.5441
# 6 -26.4084 -36.8836 -9.7224 7.2509 -1.5441 46.7818
#
#
#
# Elastic Compliance Matrix: (Units=1/GPa)
#
#
# Indices 1 2 3 4 5 6 
#
# 1 0.008814 -0.001408 -0.003367 0.000643 -0.001423 0.003019
# 2 -0.001408 0.007850 -0.000615 0.000053 -0.005253 0.005085
# 3 -0.003367 -0.000615 0.023967 0.007474 0.003747 0.001560
# 4 0.000643 0.000053 0.007474 0.033341 0.005164 -0.003039
# 5 -0.001423 -0.005253 0.003747 0.005164 0.038191 -0.003707
# 6 0.003019 0.005085 0.001560 -0.003039 -0.003707 0.027762
#
#
# Mechanical properties :
#
#
# Convention : Reuss Voigt Hill
#
# Bulk Modulus (GPa) = 33.50167 61.16802 47.33485
# Shear Modulus (GPa) = 31.12201 40.93939 36.03070
#
# Velocity S-wave (km/s) = 3.69562 4.23861 3.97639
# Velocity P-wave (km/s) = 5.73690 7.12723 6.46952
#
# Compressibility (1/GPa) = 0.02984926
#
# Stress axis : x y z
#
# Youngs Moduli (GPa) = 113.44951 127.38742 41.72410
#
# Poissons Ratio (x) = 0.17941 0.14050
# Poissons Ratio (y) = 0.15978 0.02567
# Poissons Ratio (z) = 0.38204 0.07838
#
# Static dielectric constant tensor:
#      x y z
#    x 1.897970 -0.012540 0.042430 
#    y -0.012540 1.909370 0.004350 
#    z 0.042430 0.004350 1.910280 
# 
# From -- ./inp_files/84955.got.cif
#   From: 2010.05.17/outbox.cif.g08.bks.cpg/sg2_43_cif.got.tgz:84955.got - 2010.06.03 11:33:40.
