data_PCOD9106044
_publ_section_title
;
Structure prediction by ZEFSAII (Michael W. Deem and Ramdas Pophale) SiO2 
 PCOD9106044
Probable space group: P -1
;
_chemical_formula_sum "Si O2"
_cell_formula_units_Z 10
_cell_length_a 7.040981
_cell_length_b 7.261997
_cell_length_c 14.776077
_cell_angle_alpha 132.438049
_cell_angle_beta 53.111657
_cell_angle_gamma 124.493520
_cell_volume 428.991953
_symmetry_space_group_name_H-M "P -1"
_symmetry_group_IT_number 2
_symmetry_cell_setting 'triclinic'
loop_
_space_group_symop_operation_xyz
x,y,z
-x,-y,-z
loop_
_atom_site_type_symbol
_atom_site_label
_atom_site_fract_x
_atom_site_fract_y
_atom_site_fract_z
Si Si1 0.187287 0.149215 0.918755
Si Si2 0.859997 0.924947 0.420861
Si Si3 0.050443 0.328249 0.284514
Si Si4 0.328261 0.604153 0.451877
Si Si5 0.760074 0.336100 0.838700
O O1 0.475358 0.168533 0.860951
O O2 0.193447 0.451810 0.023857
O O3 0.083628 0.966855 0.802835
O O4 0.000000 0.000000 0.000000
O O5 0.613733 0.689471 0.419033
O O6 0.051210 0.835525 0.273209
O O7 0.757308 0.158330 0.491027
O O8 0.000000 0.000000 0.500000
O O9 0.250663 0.379465 0.324878
O O10 0.177345 0.492245 0.215290
O O11 0.834718 0.439186 0.425633
#
# Coordination Sequence:
#
# PCOD9106044 Si02
#       5
#     2   2   2   2   2
#     4   9  20  39  65  88 119 162 207 255 299 353
#     4  11  21  39  63  92 124 165 200 246 305 367
#     4  10  20  40  60  90 127 160 195 256 300 356
#     4  10  23  38  60  96 130 154 198 254 305 357
#     4  10  20  39  67  88 118 169 206 242 307 363
#
# _framework density 23.310461
#
# number of rings (size 3 to 8) (size 9 to 14) (size 15 to 20)
#    0.000    2.000    2.000    1.200    2.800    0.800 
#   14.400    2.000    0.000    0.000    0.000    0.000 
#    0.000    0.000    0.000    0.000    0.000    0.000 
#
# Total GULP energy -55857.121004 kJ/mol
# GULP energy per Si atom -5585.712100 kJ/mol
# Density = 2.325741 g / cm^3
# Si number density = 23.310461 Si / 1000 Ang^3
#
#
#
# Elastic Constant Matrix: (Units=GPa)
#
#
# Indices 1 2 3 4 5 6 
#
# 1 151.4679 80.0982 68.0847 11.8243 4.3095 39.2663
# 2 80.0982 127.0515 47.3376 0.7112 10.0362 50.1999
# 3 68.0847 47.3376 110.1402 23.2569 18.1902 29.2998
# 4 11.8243 0.7112 23.2569 43.7730 17.1415 6.5582
# 5 4.3095 10.0362 18.1902 17.1415 38.7964 0.9836
# 6 39.2663 50.1999 29.2998 6.5582 0.9836 53.6275
#
#
#
# Elastic Compliance Matrix: (Units=1/GPa)
#
#
# Indices 1 2 3 4 5 6 
#
# 1 0.012108 -0.005793 -0.005032 -0.001706 0.003280 -0.000546
# 2 -0.005793 0.016846 -0.000838 0.005645 -0.005520 -0.011659
# 3 -0.005032 -0.000838 0.015021 -0.004497 -0.004201 -0.003111
# 4 -0.001706 0.005645 -0.004497 0.031441 -0.012923 -0.005186
# 5 0.003280 -0.005520 -0.004201 -0.012923 0.034366 0.006011
# 6 -0.000546 -0.011659 -0.003111 -0.005186 0.006011 0.032184
#
#
# Mechanical properties :
#
#
# Convention : Reuss Voigt Hill
#
# Bulk Modulus (GPa) = 48.42536 86.63339 67.52938
# Shear Modulus (GPa) = 29.04005 40.11531 34.57768
#
# Velocity S-wave (km/s) = 3.53341 4.15289 3.85561
# Velocity P-wave (km/s) = 6.12094 7.76151 6.98952
#
# Compressibility (1/GPa) = 0.02065034
#
# Stress axis : x y z
#
# Youngs Moduli (GPa) = 82.58704 59.36007 66.57388
#
# Poissons Ratio (x) = 0.34387 0.33497
# Poissons Ratio (y) = 0.47842 0.05580
# Poissons Ratio (z) = 0.41554 0.04976
#
# Static dielectric constant tensor:
#      x y z
#    x 1.858250 -0.045670 0.035920 
#    y -0.045670 1.975910 0.015140 
#    z 0.035920 0.015140 1.920800 
# 
# From -- ./inp_files/39548.got.cif
#   From: 2010.05.17/outbox.cif.g08.bks.cpg/sg2_20_cif.got.tgz:39548.got - 2010.06.03 11:33:40.
