data_PCOD9106192
_publ_section_title
;
Structure prediction by ZEFSAII (Michael W. Deem and Ramdas Pophale) SiO2 
 PCOD9106192
Probable space group: P -1
;
_chemical_formula_sum "Si O2"
_cell_formula_units_Z 12
_cell_length_a 8.381509
_cell_length_b 7.925947
_cell_length_c 7.818623
_cell_angle_alpha 93.691086
_cell_angle_beta 104.230630
_cell_angle_gamma 72.125405
_cell_volume 479.127281
_symmetry_space_group_name_H-M "P -1"
_symmetry_group_IT_number 2
_symmetry_cell_setting 'triclinic'
loop_
_space_group_symop_operation_xyz
x,y,z
-x,-y,-z
loop_
_atom_site_type_symbol
_atom_site_label
_atom_site_fract_x
_atom_site_fract_y
_atom_site_fract_z
Si Si1 0.503633 0.727856 0.092041
Si Si2 0.125881 0.148298 0.268495
Si Si3 0.132137 0.498669 0.886871
Si Si4 0.698288 0.223306 0.637128
Si Si5 0.995764 0.684776 0.424655
Si Si6 0.505865 0.111509 0.258108
O O1 0.664216 0.560089 0.072138
O O2 0.409552 0.670558 0.226663
O O3 0.534716 0.904780 0.203419
O O4 0.434483 0.805620 0.890710
O O5 0.296294 0.187942 0.240462
O O6 0.950740 0.298043 0.183649
O O7 0.109302 0.161843 0.470793
O O8 0.163555 0.940727 0.237825
O O9 0.107234 0.327569 0.770343
O O10 0.000000 0.500000 0.000000
O O11 0.812648 0.320093 0.570496
O O12 0.589166 0.154877 0.459834
O O13 0.000000 0.500000 0.500000
#
# Coordination Sequence:
#
# PCOD9106192 Si02
#       6
#     2   2   2   2   2   2
#     4  10  21  39  66 100 133 172 217 263 331 391
#     4  10  20  40  68  95 125 173 214 260 333 389
#     4  11  21  41  64  90 135 175 209 265 330 387
#     4  11  22  42  68  99 130 166 226 272 318 394
#     4  10  23  42  65  92 129 176 218 271 332 380
#     4  10  20  39  67  99 134 171 211 272 329 389
#
# _framework density 25.045535999999998
#
# number of rings (size 3 to 8) (size 9 to 14) (size 15 to 20)
#    0.000    1.667    1.667    4.500    0.000    0.000 
#    6.000   15.000    0.000    0.000    0.000    0.000 
#    0.000    0.000    0.000    0.000    0.000    0.000 
#
# Total GULP energy -66834.347415 kJ/mol
# GULP energy per Si atom -5569.528951 kJ/mol
# Density = 2.498853 g / cm^3
# Si number density = 25.045536 Si / 1000 Ang^3
#
#
#
# Elastic Constant Matrix: (Units=GPa)
#
#
# Indices 1 2 3 4 5 6 
#
# 1 144.7977 57.5800 47.6543 1.4465 -37.5771 -11.5273
# 2 57.5800 82.1394 26.9545 -1.9067 3.3301 -32.3027
# 3 47.6543 26.9545 107.8021 26.6970 -36.3557 -15.6786
# 4 1.4465 -1.9067 26.6970 30.6295 -3.2506 -4.9025
# 5 -37.5771 3.3301 -36.3557 -3.2506 42.2733 0.4877
# 6 -11.5273 -32.3027 -15.6786 -4.9025 0.4877 50.9517
#
#
#
# Elastic Compliance Matrix: (Units=1/GPa)
#
#
# Indices 1 2 3 4 5 6 
#
# 1 0.016338 -0.015273 0.002445 -0.002888 0.017672 -0.005681
# 2 -0.015273 0.034112 -0.010809 0.012236 -0.024806 0.016260
# 3 0.002445 -0.010809 0.022168 -0.018140 0.020712 -0.001421
# 4 -0.002888 0.012236 -0.018140 0.048735 -0.015457 0.006359
# 5 0.017672 -0.024806 0.020712 -0.015457 0.058028 -0.007398
# 6 -0.005681 0.016260 -0.001421 0.006359 -0.007398 0.028895
#
#
# Mechanical properties :
#
#
# Convention : Reuss Voigt Hill
#
# Bulk Modulus (GPa) = 39.45469 66.56854 53.01161
# Shear Modulus (GPa) = 18.93966 38.27426 28.60696
#
# Velocity S-wave (km/s) = 2.75291 3.91344 3.38331
# Velocity P-wave (km/s) = 5.08842 6.85979 6.03940
#
# Compressibility (1/GPa) = 0.02534553
#
# Stress axis : x y z
#
# Youngs Moduli (GPa) = 61.20869 29.31533 45.10927
#
# Poissons Ratio (x) = 0.44773 -0.11031
# Poissons Ratio (y) = 0.93483 0.48757
# Poissons Ratio (z) = -0.14968 0.31686
#
# Static dielectric constant tensor:
#      x y z
#    x 1.537470 0.033940 0.022300 
#    y 0.033940 2.015710 -0.084290 
#    z 0.022300 -0.084290 2.099920 
# 
# From -- ./inp_files/150915.got.cif
#   From: 2010.05.17/outbox.cif.g08.bks.cpg/sg2_76_cif.got.tgz:150915.got - 2010.06.03 11:33:40.
