data_PCOD9106407
_publ_section_title
;
Structure prediction by ZEFSAII (Michael W. Deem and Ramdas Pophale) SiO2 
 PCOD9106407
Probable space group: P -1
;
_chemical_formula_sum "Si O2"
_cell_formula_units_Z 16
_cell_length_a 14.435778
_cell_length_b 5.547551
_cell_length_c 22.413934
_cell_angle_alpha 71.666179
_cell_angle_beta 159.593140
_cell_angle_gamma 108.464607
_cell_volume 592.808708
_symmetry_space_group_name_H-M "P -1"
_symmetry_group_IT_number 2
_symmetry_cell_setting 'triclinic'
loop_
_space_group_symop_operation_xyz
x,y,z
-x,-y,-z
loop_
_atom_site_type_symbol
_atom_site_label
_atom_site_fract_x
_atom_site_fract_y
_atom_site_fract_z
Si Si1 0.319970 0.748212 0.204774
Si Si2 0.761618 0.349845 0.334142
Si Si3 0.645964 0.201981 0.149733
Si Si4 0.831686 0.009722 0.503912
Si Si5 0.224629 0.342270 0.072047
Si Si6 0.262317 0.319478 0.342787
Si Si7 0.678507 0.211904 0.513641
Si Si8 0.840841 0.549029 0.141004
O O1 0.627781 0.761976 0.409857
O O2 0.271897 0.548325 0.137904
O O3 0.272083 0.041438 0.135396
O O4 0.097714 0.681554 0.125898
O O5 0.786137 0.356745 0.277845
O O6 0.466512 0.425082 0.166868
O O7 0.000000 0.500000 0.500000
O O8 0.786352 0.077124 0.402349
O O9 0.663607 0.327848 0.085443
O O10 0.855424 0.985746 0.291974
O O11 0.340308 0.206686 0.986742
O O12 0.712488 0.202112 0.464236
O O13 0.500000 0.500000 0.500000
O O14 0.380735 0.251061 0.354733
O O15 0.981442 0.438733 0.176796
O O16 0.259977 0.064196 0.400864
O O17 0.910907 0.385441 0.671229
#
# Coordination Sequence:
#
# PCOD9106407 Si02
#       8
#     2   2   2   2   2   2   2   2
#     4   9  19  38  65  90 129 173 226 281 338 408
#     4  11  23  41  63  97 136 179 230 274 339 418
#     4  11  23  41  62  95 134 180 223 274 334 402
#     4  11  22  40  69 100 134 178 225 282 342 418
#     4   9  19  39  61  91 130 175 224 280 339 401
#     4   9  19  41  66  94 127 164 224 284 333 394
#     4  10  20  39  69  99 124 171 222 275 348 394
#     4  10  22  43  65  92 137 171 222 279 333 401
#
# _framework density 26.990157
#
# number of rings (size 3 to 8) (size 9 to 14) (size 15 to 20)
#    0.000    2.000    1.250    1.875    0.000    2.500 
#    9.000    3.750    0.000    0.000    0.000    0.000 
#    0.000    0.000    0.000    0.000    0.000    0.000 
#
# Total GULP energy -89282.153874 kJ/mol
# GULP energy per Si atom -5580.134617 kJ/mol
# Density = 2.692873 g / cm^3
# Si number density = 26.990157 Si / 1000 Ang^3
#
#
#
# Elastic Constant Matrix: (Units=GPa)
#
#
# Indices 1 2 3 4 5 6 
#
# 1 154.2330 16.3095 26.1048 -9.8493 41.9198 -27.7180
# 2 16.3095 81.5432 33.6654 -9.9266 12.6303 -13.0654
# 3 26.1048 33.6654 159.4241 -29.9495 43.5427 -1.5976
# 4 -9.8493 -9.9266 -29.9495 40.1301 -10.5775 10.1957
# 5 41.9198 12.6303 43.5427 -10.5775 50.4466 -9.2601
# 6 -27.7180 -13.0654 -1.5976 10.1957 -9.2601 33.2003
#
#
#
# Elastic Compliance Matrix: (Units=1/GPa)
#
#
# Indices 1 2 3 4 5 6 
#
# 1 0.009427 -0.000028 0.000305 -0.000916 -0.007151 0.006161
# 2 -0.000028 0.014378 -0.002993 -0.000085 0.000002 0.005517
# 3 0.000305 -0.002993 0.010032 0.005903 -0.007735 -0.004411
# 4 -0.000916 -0.000085 0.005903 0.031784 0.000490 -0.010138
# 5 -0.007151 0.000002 -0.007735 0.000490 0.033045 0.002724
# 6 0.006161 0.005517 -0.004411 -0.010138 0.002724 0.041096
#
#
# Mechanical properties :
#
#
# Convention : Reuss Voigt Hill
#
# Bulk Modulus (GPa) = 35.20370 60.81773 48.01071
# Shear Modulus (GPa) = 32.32855 46.03009 39.17932
#
# Velocity S-wave (km/s) = 3.46467 4.13418 3.81414
# Velocity P-wave (km/s) = 5.39228 6.73578 6.10113
#
# Compressibility (1/GPa) = 0.02840611
#
# Stress axis : x y z
#
# Youngs Moduli (GPa) = 106.07289 69.55050 99.68016
#
# Poissons Ratio (x) = 0.00196 -0.03043
# Poissons Ratio (y) = 0.00300 0.29832
# Poissons Ratio (z) = -0.03238 0.20815
#
# Static dielectric constant tensor:
#      x y z
#    x 2.166720 0.047880 0.023510 
#    y 0.047880 2.217960 -0.108730 
#    z 0.023510 -0.108730 2.186410 
# 
# From -- ./inp_files/611260.got.cif
#   From: 2010.05.17/outbox.cif.g08.bks.cpg/sg2_306_cif.got.tgz:611260.got - 2010.06.03 11:33:40.
