data_PCOD9106027
_publ_section_title
;
Structure prediction by ZEFSAII (Michael W. Deem and Ramdas Pophale) SiO2 
 PCOD9106027
Probable space group: P -1
;
_chemical_formula_sum "Si O2"
_cell_formula_units_Z 16
_cell_length_a 8.434758
_cell_length_b 14.570870
_cell_length_c 8.627499
_cell_angle_alpha 37.755577
_cell_angle_beta 101.416045
_cell_angle_gamma 104.165607
_cell_volume 629.477549
_symmetry_space_group_name_H-M "P -1"
_symmetry_group_IT_number 2
_symmetry_cell_setting 'triclinic'
loop_
_space_group_symop_operation_xyz
x,y,z
-x,-y,-z
loop_
_atom_site_type_symbol
_atom_site_label
_atom_site_fract_x
_atom_site_fract_y
_atom_site_fract_z
Si Si1 0.888927 0.830150 0.697165
Si Si2 0.375017 0.601468 0.266955
Si Si3 0.479402 0.172234 0.252811
Si Si4 0.268383 0.023071 0.011716
Si Si5 0.380298 0.720208 0.568296
Si Si6 0.008447 0.133724 0.012769
Si Si7 0.879050 0.380975 0.546396
Si Si8 0.275725 0.320502 0.431187
O O1 0.702410 0.826557 0.721155
O O2 0.965772 0.773291 0.947282
O O3 0.861732 0.745187 0.638565
O O4 0.000000 0.000000 0.500000
O O5 0.500000 0.500000 0.500000
O O6 0.267722 0.659561 0.303740
O O7 0.262015 0.481323 0.294123
O O8 0.479271 0.743098 0.012174
O O9 0.615399 0.255043 0.283115
O O10 0.500000 0.000000 0.500000
O O11 0.315141 0.196028 0.734218
O O12 0.149983 0.040072 0.114117
O O13 0.166366 0.966601 0.910811
O O14 0.370652 0.888354 0.262198
O O15 0.224047 0.601607 0.647995
O O16 0.546323 0.656114 0.648361
O O17 0.988385 0.249459 0.714502
O O18 0.000000 0.500000 0.500000
#
# Coordination Sequence:
#
# PCOD9106027 Si02
#       8
#     2   2   2   2   2   2   2   2
#     4  11  24  43  70 106 145 188 235 297 364 422
#     4  12  28  49  72 106 142 195 246 292 365 431
#     4  11  28  47  74 104 146 190 239 299 357 432
#     4  10  20  39  67 103 138 184 231 291 353 424
#     4  10  23  42  69 103 140 185 240 291 362 429
#     4  10  22  38  64 100 142 178 237 288 359 416
#     4  11  25  45  71 101 142 190 242 301 358 426
#     4  11  23  42  71 101 144 188 240 291 359 431
#
# _framework density 25.417904
#
# number of rings (size 3 to 8) (size 9 to 14) (size 15 to 20)
#    0.000    1.250    2.500    1.875    7.000    4.000 
#    2.250    1.250    0.000    0.000    0.000    0.000 
#    0.000    0.000    0.000    0.000    0.000    0.000 
#
# Total GULP energy -89143.644863 kJ/mol
# GULP energy per Si atom -5571.477804 kJ/mol
# Density = 2.536005 g / cm^3
# Si number density = 25.417904 Si / 1000 Ang^3
#
#
#
# Elastic Constant Matrix: (Units=GPa)
#
#
# Indices 1 2 3 4 5 6 
#
# 1 62.8013 11.7142 16.1667 0.2641 2.9149 3.9224
# 2 11.7142 158.3541 12.4670 28.4128 8.8668 29.9987
# 3 16.1667 12.4670 76.1559 6.3889 -8.8753 3.7037
# 4 0.2641 28.4128 6.3889 42.0350 5.1457 8.6834
# 5 2.9149 8.8668 -8.8753 5.1457 31.1156 -5.4280
# 6 3.9224 29.9987 3.7037 8.6834 -5.4280 46.2001
#
#
#
# Elastic Compliance Matrix: (Units=1/GPa)
#
#
# Indices 1 2 3 4 5 6 
#
# 1 0.017318 -0.000868 -0.003967 0.001710 -0.003010 -0.001264
# 2 -0.000868 0.008237 -0.000899 -0.004119 -0.002668 -0.004742
# 3 -0.003967 -0.000899 0.014921 -0.002472 0.005437 0.000828
# 4 0.001710 -0.004119 -0.002472 0.028189 -0.004902 -0.003146
# 5 -0.003010 -0.002668 0.005437 -0.004902 0.036726 0.006789
# 6 -0.001264 -0.004742 0.000828 -0.003146 0.006789 0.026154
#
#
# Mechanical properties :
#
#
# Convention : Reuss Voigt Hill
#
# Bulk Modulus (GPa) = 34.47302 42.00077 38.23689
# Shear Modulus (GPa) = 32.74796 41.00103 36.87450
#
# Velocity S-wave (km/s) = 3.59330 4.02067 3.81298
# Velocity P-wave (km/s) = 5.55046 6.17368 5.87035
#
# Compressibility (1/GPa) = 0.02900819
#
# Stress axis : x y z
#
# Youngs Moduli (GPa) = 57.74427 121.40768 67.01958
#
# Poissons Ratio (x) = 0.10534 0.26587
# Poissons Ratio (y) = 0.05010 0.06025
# Poissons Ratio (z) = 0.22907 0.10914
#
# Static dielectric constant tensor:
#      x y z
#    x 1.957320 0.071260 -0.153740 
#    y 0.071260 2.132320 -0.087230 
#    z -0.153740 -0.087230 2.276500 
# 
# From -- ./inp_files/205423.got.cif
#   From: 2010.05.17/outbox.cif.g08.bks.cpg/sg2_103_cif.got.tgz:205423.got - 2010.06.03 11:33:40.
