data_PCOD9106626
_publ_section_title
;
Structure prediction by ZEFSAII (Michael W. Deem and Ramdas Pophale) SiO2 
 PCOD9106626
Probable space group: P -1
;
_chemical_formula_sum "Si O2"
_cell_formula_units_Z 14
_cell_length_a 13.461869
_cell_length_b 7.851257
_cell_length_c 17.369990
_cell_angle_alpha 69.190290
_cell_angle_beta 156.041439
_cell_angle_gamma 100.158819
_cell_volume 641.504796
_symmetry_space_group_name_H-M "P -1"
_symmetry_group_IT_number 2
_symmetry_cell_setting 'triclinic'
loop_
_space_group_symop_operation_xyz
x,y,z
-x,-y,-z
loop_
_atom_site_type_symbol
_atom_site_label
_atom_site_fract_x
_atom_site_fract_y
_atom_site_fract_z
Si Si1 0.570836 0.615101 0.715874
Si Si2 0.793449 0.961959 0.546512
Si Si3 0.101335 0.369996 0.200770
Si Si4 0.263755 0.053402 0.914225
Si Si5 0.769428 0.530190 0.195469
Si Si6 0.075550 0.624105 0.274672
Si Si7 0.830295 0.865233 0.414958
O O1 0.733203 0.667348 0.754340
O O2 0.347671 0.558383 0.525511
O O3 0.410721 0.812981 0.618890
O O4 0.789700 0.441677 0.947440
O O5 0.785402 0.816668 0.632418
O O6 0.743055 0.898201 0.437153
O O7 0.091487 0.959221 0.761184
O O8 0.121654 0.557373 0.230534
O O9 0.563495 0.925936 0.167965
O O10 0.261793 0.250582 0.839305
O O11 0.092087 0.148129 0.855967
O O12 0.898069 0.515424 0.203725
O O13 0.970639 0.360567 0.417560
O O14 0.500000 0.500000 0.000000
O O15 0.000000 0.000000 0.500000
#
# Coordination Sequence:
#
# PCOD9106626 Si02
#       7
#     2   2   2   2   2   2   2
#     4  10  23  38  60  90 118 155 198 240 295 346
#     4  11  23  38  60  87 119 152 195 246 287 346
#     4  11  21  38  62  87 119 158 195 240 294 347
#     4   9  22  37  57  85 116 152 195 239 288 345
#     4  10  20  40  59  84 118 152 196 239 288 349
#     4   9  19  40  58  83 123 153 190 244 287 343
#     4  12  22  39  63  84 114 159 196 237 298 346
#
# _framework density 21.823688000000001
#
# number of rings (size 3 to 8) (size 9 to 14) (size 15 to 20)
#    0.857    0.857    2.857    1.714    2.000    0.571 
#    0.000    0.714    0.000    9.429    0.000    0.000 
#    0.000    0.000    0.000    0.000    0.000    0.000 
#
# Total GULP energy -78167.952955 kJ/mol
# GULP energy per Si atom -5583.425211 kJ/mol
# Density = 2.177402 g / cm^3
# Si number density = 21.823688 Si / 1000 Ang^3
#
#
#
# Elastic Constant Matrix: (Units=GPa)
#
#
# Indices 1 2 3 4 5 6 
#
# 1 54.3201 7.6543 22.3119 -2.5880 0.5559 -2.1431
# 2 7.6543 42.5176 28.8597 -0.5286 -3.9813 -0.8922
# 3 22.3119 28.8597 127.5411 -11.8188 17.5343 -11.1986
# 4 -2.5880 -0.5286 -11.8188 28.3555 6.7985 -7.5025
# 5 0.5559 -3.9813 17.5343 6.7985 24.6801 2.5461
# 6 -2.1431 -0.8922 -11.1986 -7.5025 2.5461 29.9589
#
#
#
# Elastic Compliance Matrix: (Units=1/GPa)
#
#
# Indices 1 2 3 4 5 6 
#
# 1 0.019983 -0.000981 -0.003585 -0.000216 0.002015 -0.000165
# 2 -0.000981 0.032416 -0.010970 -0.009888 0.016500 -0.007084
# 3 -0.003585 -0.010970 0.015296 0.012487 -0.016998 0.009706
# 4 -0.000216 -0.009888 0.012487 0.051880 -0.026778 0.019626
# 5 0.002015 0.016500 -0.016998 -0.026778 0.064434 -0.017900
# 6 -0.000165 -0.007084 0.009706 0.019626 -0.017900 0.043221
#
#
# Mechanical properties :
#
#
# Convention : Reuss Voigt Hill
#
# Bulk Modulus (GPa) = 27.30604 38.00341 32.65472
# Shear Modulus (GPa) = 18.48356 27.63576 23.05966
#
# Velocity S-wave (km/s) = 2.91340 3.56240 3.25412
# Velocity P-wave (km/s) = 4.88431 5.86281 5.39579
#
# Compressibility (1/GPa) = 0.03662193
#
# Stress axis : x y z
#
# Youngs Moduli (GPa) = 50.04278 30.84911 65.37511
#
# Poissons Ratio (x) = 0.03027 0.23439
# Poissons Ratio (y) = 0.04911 0.71716
# Poissons Ratio (z) = 0.17942 0.33841
#
# Static dielectric constant tensor:
#      x y z
#    x 1.827530 -0.015170 0.013290 
#    y -0.015170 1.814370 -0.026400 
#    z 0.013290 -0.026400 1.769500 
# 
# From -- ./inp_files/572592.got.cif
#   From: 2010.05.17/outbox.cif.g08.bks.cpg/sg2_287_cif.got.tgz:572592.got - 2010.06.03 11:33:40.
