data_PCOD9106107
_publ_section_title
;
Structure prediction by ZEFSAII (Michael W. Deem and Ramdas Pophale) SiO2 
 PCOD9106107
Probable space group: P -1
;
_chemical_formula_sum "Si O2"
_cell_formula_units_Z 14
_cell_length_a 28.794678
_cell_length_b 23.196735
_cell_length_c 14.730222
_cell_angle_alpha 156.763410
_cell_angle_beta 159.629394
_cell_angle_gamma 10.998530
_cell_volume 653.269044
_symmetry_space_group_name_H-M "P -1"
_symmetry_group_IT_number 2
_symmetry_cell_setting 'triclinic'
loop_
_space_group_symop_operation_xyz
x,y,z
-x,-y,-z
loop_
_atom_site_type_symbol
_atom_site_label
_atom_site_fract_x
_atom_site_fract_y
_atom_site_fract_z
Si Si1 0.717664 0.258186 0.415671
Si Si2 0.150736 0.905026 0.366828
Si Si3 0.591144 0.126495 0.865530
Si Si4 0.113234 0.144332 0.173524
Si Si5 0.307980 0.221675 0.742309
Si Si6 0.868338 0.753201 0.185352
Si Si7 0.915141 0.529621 0.635308
O O1 0.449880 0.622596 0.454909
O O2 0.792480 0.168059 0.527416
O O3 0.590246 0.239796 0.108457
O O4 0.000000 0.000000 0.500000
O O5 0.013636 0.195319 0.525913
O O6 0.970484 0.933388 0.052193
O O7 0.291359 0.401564 0.669679
O O8 0.791833 0.970469 0.922844
O O9 0.708351 0.865923 0.748317
O O10 0.338697 0.037830 0.478771
O O11 0.846459 0.507061 0.207278
O O12 0.105923 0.374651 0.675181
O O13 0.568244 0.043775 0.010185
O O14 0.903727 0.667688 0.229703
O O15 0.000000 0.500000 0.000000
#
# Coordination Sequence:
#
# PCOD9106107 Si02
#       7
#     2   2   2   2   2   2   2
#     4  11  21  38  65  97 127 162 215 266 322 376
#     4  11  24  40  65  97 134 168 213 269 324 386
#     4  10  20  39  67  94 122 162 221 270 320 381
#     4  10  20  40  67  98 126 165 216 271 324 375
#     4  10  21  39  66  92 129 168 213 270 321 382
#     4  12  25  43  61  91 134 175 215 263 331 387
#     4  10  22  39  63  91 126 170 214 265 321 388
#
# _framework density 21.430682000000001
#
# number of rings (size 3 to 8) (size 9 to 14) (size 15 to 20)
#    0.000    1.429    1.429    4.714    2.000    4.571 
#    2.571    5.714    0.000    0.000    0.000    0.000 
#    0.000    0.000    0.000    0.000    0.000    0.000 
#
# Total GULP energy -78062.718675 kJ/mol
# GULP energy per Si atom -5575.908477 kJ/mol
# Density = 2.138190 g / cm^3
# Si number density = 21.430682 Si / 1000 Ang^3
#
#
#
# Elastic Constant Matrix: (Units=GPa)
#
#
# Indices 1 2 3 4 5 6 
#
# 1 -403.0406 -739.9603 -11.8030 -148.8082 337.2564 142.0911
# 2 -739.9603-1174.3150 -42.9255 -237.5823 545.4371 229.7541
# 3 -11.8030 -42.9255 137.8229 -1.1318 27.0162 14.2271
# 4 -148.8082 -237.5823 -1.1318 -13.8160 108.8270 42.5316
# 5 337.2564 545.4371 27.0162 108.8270 -199.9314 -109.3615
# 6 142.0911 229.7541 14.2271 42.5316 -109.3615 -11.0250
#
#
#
# Elastic Compliance Matrix: (Units=1/GPa)
#
#
# Indices 1 2 3 4 5 6 
#
# 1 0.016625 -0.008996 -0.002036 0.000337 0.002376 0.001889
# 2 -0.008996 0.010328 0.000384 -0.004835 0.007673 0.005025
# 3 -0.002036 0.000384 0.007647 -0.001904 -0.001403 -0.001806
# 4 0.000337 -0.004835 -0.001904 0.030125 0.001349 0.003967
# 5 0.002376 0.007673 -0.001403 0.001349 0.019338 0.002095
# 6 0.001889 0.005025 -0.001806 0.003967 0.002095 0.030561
#
#
# Mechanical properties :
#
#
# Convention : Reuss Voigt Hill
#
# Bulk Modulus (GPa) = 75.17271 -336.54561 -130.68645
# Shear Modulus (GPa) = 35.62391 -87.94408 -26.16009
#
# Velocity S-wave (km/s) = 4.08154 -6.41293 -3.49762
# Velocity P-wave (km/s) = 7.57398 14.56757 8.79912
#
# Compressibility (1/GPa) = 0.01330270
#
# Stress axis : x y z
#
# Youngs Moduli (GPa) = 60.15042 96.82044 130.77739
#
# Poissons Ratio (x) = 0.87103 0.26628
# Poissons Ratio (y) = 0.54113 -0.05020
# Poissons Ratio (z) = 0.12248 -0.03717
#
# Static dielectric constant tensor:
#      x y z
#    x 1.772770 -0.035570 0.029260 
#    y -0.035570 1.854040 -0.017550 
#    z 0.029260 -0.017550 1.854640 
# 
# From -- ./inp_files/545159.got.cif
#   From: 2010.05.17/outbox.cif.g08.bks.cpg/sg2_273_cif.got.tgz:545159.got - 2010.06.03 11:33:40.
