data_PCOD9106476
_publ_section_title
;
Structure prediction by ZEFSAII (Michael W. Deem and Ramdas Pophale) SiO2 
 PCOD9106476
Probable space group: P -1
;
_chemical_formula_sum "Si O2"
_cell_formula_units_Z 16
_cell_length_a 21.632320
_cell_length_b 7.701933
_cell_length_c 8.784496
_cell_angle_alpha 48.312726
_cell_angle_beta 128.253623
_cell_angle_gamma 143.071413
_cell_volume 644.080174
_symmetry_space_group_name_H-M "P -1"
_symmetry_group_IT_number 2
_symmetry_cell_setting 'triclinic'
loop_
_space_group_symop_operation_xyz
x,y,z
-x,-y,-z
loop_
_atom_site_type_symbol
_atom_site_label
_atom_site_fract_x
_atom_site_fract_y
_atom_site_fract_z
Si Si1 0.388876 0.641626 0.747465
Si Si2 0.818880 0.247258 0.954397
Si Si3 0.257241 0.030428 0.696906
Si Si4 0.080797 0.366895 0.407737
Si Si5 0.464491 0.181459 0.900812
Si Si6 0.195544 0.284861 0.864948
Si Si7 0.171165 0.979444 0.283259
Si Si8 0.633257 0.882877 0.672490
O O1 0.326087 0.363716 0.692635
O O2 0.315458 0.491899 0.873777
O O3 0.397464 0.921650 0.542614
O O4 0.500120 0.761213 0.901484
O O5 0.876973 0.532201 0.760554
O O6 0.697164 0.032536 0.840853
O O7 0.817309 0.239808 0.136684
O O8 0.855073 0.055278 0.077764
O O9 0.343958 0.010879 0.790559
O O10 0.192203 0.023468 0.467616
O O11 0.156901 0.423076 0.626293
O O12 0.072949 0.621570 0.298079
O O13 0.000000 0.000000 0.500000
O O14 0.533289 0.522183 0.734472
O O15 0.500000 0.000000 0.000000
O O16 0.171465 0.216003 0.046980
O O17 0.275467 0.054570 0.328914
#
# Coordination Sequence:
#
# PCOD9106476 Si02
#       8
#     2   2   2   2   2   2   2   2
#     4  11  20  41  62  86 124 173 218 273 318 367
#     4   9  20  38  63  87 126 164 213 259 318 384
#     4  11  24  40  60  95 133 170 218 269 327 369
#     4  10  20  39  70  97 120 162 214 264 318 397
#     4  12  25  40  61  90 131 176 230 268 300 375
#     4   9  17  38  65  85 118 164 209 256 318 375
#     4  10  21  38  61  93 126 163 215 259 322 387
#     4  10  20  41  60  85 119 172 222 261 312 371
#
# _framework density 24.841629000000001
#
# number of rings (size 3 to 8) (size 9 to 14) (size 15 to 20)
#    0.000    2.000    6.250    1.125    0.000    4.500 
#    4.500    0.625    0.000    3.750    0.000    0.000 
#    0.000    0.000    0.000    0.000    0.000    0.000 
#
# Total GULP energy -89325.012133 kJ/mol
# GULP energy per Si atom -5582.813258 kJ/mol
# Density = 2.478509 g / cm^3
# Si number density = 24.841629 Si / 1000 Ang^3
#
#
#
# Elastic Constant Matrix: (Units=GPa)
#
#
# Indices 1 2 3 4 5 6 
#
# 1 35.9871 38.5937 34.1031 -19.3890 -8.1702 -10.4891
# 2 38.5937 98.8842 31.2662 -27.8206 -14.8907 -4.1898
# 3 34.1031 31.2662 163.9455 -39.9731 -24.5855 2.1893
# 4 -19.3890 -27.8206 -39.9731 49.7256 -8.5181 1.8290
# 5 -8.1702 -14.8907 -24.5855 -8.5181 36.7982 -4.5481
# 6 -10.4891 -4.1898 2.1893 1.8290 -4.5481 28.0956
#
#
#
# Elastic Compliance Matrix: (Units=1/GPa)
#
#
# Indices 1 2 3 4 5 6 
#
# 1 0.071639 -0.020101 -0.007357 0.011321 0.008563 0.024970
# 2 -0.020101 0.019811 0.003238 0.007179 0.006865 -0.004158
# 3 -0.007357 0.003238 0.010482 0.008902 0.008457 -0.002291
# 4 0.011321 0.007179 0.008902 0.039110 0.021096 0.005472
# 5 0.008563 0.006865 0.008457 0.021096 0.043530 0.009235
# 6 0.024970 -0.004158 -0.002291 0.005472 0.009235 0.045612
#
#
# Mechanical properties :
#
#
# Convention : Reuss Voigt Hill
#
# Bulk Modulus (GPa) = 18.69442 56.30475 37.49959
# Shear Modulus (GPa) = 16.86598 35.91412 26.39005
#
# Velocity S-wave (km/s) = 2.60847 3.80639 3.26288
# Velocity P-wave (km/s) = 4.07602 6.48327 5.41511
#
# Compressibility (1/GPa) = 0.05349189
#
# Stress axis : x y z
#
# Youngs Moduli (GPa) = 13.95889 50.47580 95.40296
#
# Poissons Ratio (x) = 1.01462 0.70192
# Poissons Ratio (y) = 0.28059 -0.30895
# Poissons Ratio (z) = 0.10270 -0.16346
#
# Static dielectric constant tensor:
#      x y z
#    x 2.028410 -0.029600 -0.011830 
#    y -0.029600 2.047280 0.066600 
#    z -0.011830 0.066600 2.037950 
# 
# From -- ./inp_files/356360.got.cif
#   From: 2010.05.17/outbox.cif.g08.bks.cpg/sg2_179_cif.got.tgz:356360.got - 2010.06.03 11:33:40.
