data_PCOD9106447
_publ_section_title
;
Structure prediction by ZEFSAII (Michael W. Deem and Ramdas Pophale) SiO2 
 PCOD9106447
Probable space group: P -1
;
_chemical_formula_sum "Si O2"
_cell_formula_units_Z 12
_cell_length_a 6.702491
_cell_length_b 7.159376
_cell_length_c 13.752491
_cell_angle_alpha 123.794403
_cell_angle_beta 110.981419
_cell_angle_gamma 83.511095
_cell_volume 508.892962
_symmetry_space_group_name_H-M "P -1"
_symmetry_group_IT_number 2
_symmetry_cell_setting 'triclinic'
loop_
_space_group_symop_operation_xyz
x,y,z
-x,-y,-z
loop_
_atom_site_type_symbol
_atom_site_label
_atom_site_fract_x
_atom_site_fract_y
_atom_site_fract_z
Si Si1 0.219078 0.155082 0.599834
Si Si2 0.775751 0.338841 0.228989
Si Si3 0.446453 0.479628 0.596391
Si Si4 0.661172 0.687532 0.971156
Si Si5 0.180788 0.209223 0.165652
Si Si6 0.520090 0.163282 0.826477
O O1 0.165866 0.394253 0.705631
O O2 0.339376 0.237126 0.544344
O O3 0.393188 0.078595 0.682718
O O4 0.000000 0.000000 0.500000
O O5 0.715787 0.352096 0.336511
O O6 0.561438 0.267371 0.109248
O O7 0.968752 0.211697 0.191928
O O8 0.500000 0.500000 0.500000
O O9 0.666381 0.559771 0.714145
O O10 0.843304 0.772966 0.949772
O O11 0.640156 0.416709 0.904423
O O12 0.649569 0.806913 0.107375
O O13 0.313608 0.005848 0.160277
#
# Coordination Sequence:
#
# PCOD9106447 Si02
#       6
#     2   2   2   2   2   2
#     4   9  20  45  67  95 130 176 224 271 322 399
#     4   8  20  39  65  93 134 163 221 272 318 395
#     4   9  21  43  65  90 132 175 216 274 324 389
#     4   9  20  43  61  95 137 167 222 269 320 400
#     4  11  20  39  64 100 131 172 215 273 337 384
#     4  10  20  39  70  91 131 180 214 269 333 384
#
# _framework density 23.580597000000001
#
# number of rings (size 3 to 8) (size 9 to 14) (size 15 to 20)
#    1.000    1.667    1.667    0.500    0.000    2.667 
#    9.000   12.500    0.000    1.000    0.000    0.000 
#    0.000    0.000    0.000    0.000    0.000    0.000 
#
# Total GULP energy -67030.763989 kJ/mol
# GULP energy per Si atom -5585.896999 kJ/mol
# Density = 2.352693 g / cm^3
# Si number density = 23.580597 Si / 1000 Ang^3
#
#
#
# Elastic Constant Matrix: (Units=GPa)
#
#
# Indices 1 2 3 4 5 6 
#
# 1 122.1160 55.9055 44.9863 -11.9313 -30.5601 24.2481
# 2 55.9055 125.5672 28.5457 -14.0688 -13.3650 19.4928
# 3 44.9863 28.5457 99.2617 -15.4147 -13.8642 30.9628
# 4 -11.9313 -14.0688 -15.4147 36.7482 21.8561 -9.3061
# 5 -30.5601 -13.3650 -13.8642 21.8561 42.7687 -3.4396
# 6 24.2481 19.4928 30.9628 -9.3061 -3.4396 28.9826
#
#
#
# Elastic Compliance Matrix: (Units=1/GPa)
#
#
# Indices 1 2 3 4 5 6 
#
# 1 0.014731 -0.004373 -0.002572 -0.006375 0.010990 -0.007378
# 2 -0.004373 0.010478 0.000041 0.002810 -0.001491 -0.002707
# 3 -0.002572 0.000041 0.016199 0.001361 0.001560 -0.014559
# 4 -0.006375 0.002810 0.001361 0.045241 -0.025268 0.013518
# 5 0.010990 -0.001491 0.001560 -0.025268 0.043154 -0.012851
# 6 -0.007378 -0.002707 -0.014559 0.013518 -0.012851 0.060867
#
#
# Mechanical properties :
#
#
# Convention : Reuss Voigt Hill
#
# Bulk Modulus (GPa) = 36.23160 67.31330 51.77245
# Shear Modulus (GPa) = 23.39981 36.20038 29.80010
#
# Velocity S-wave (km/s) = 3.15355 3.92238 3.55879
# Velocity P-wave (km/s) = 5.35333 7.00867 6.23617
#
# Compressibility (1/GPa) = 0.02760022
#
# Stress axis : x y z
#
# Youngs Moduli (GPa) = 67.88404 95.43925 61.73232
#
# Poissons Ratio (x) = 0.41736 0.15878
# Poissons Ratio (y) = 0.29686 -0.00255
# Poissons Ratio (z) = 0.17460 -0.00394
#
# Static dielectric constant tensor:
#      x y z
#    x 1.885940 0.039300 -0.018750 
#    y 0.039300 1.960890 0.030380 
#    z -0.018750 0.030380 1.928750 
# 
# From -- ./inp_files/479409.got.cif
#   From: 2010.05.17/outbox.cif.g08.bks.cpg/sg2_240_cif.got.tgz:479409.got - 2010.06.03 11:33:40.
