data_PCOD9106017
_publ_section_title
;
Structure prediction by ZEFSAII (Michael W. Deem and Ramdas Pophale) SiO2 
 PCOD9106017
Probable space group: P -1
;
_chemical_formula_sum "Si O2"
_cell_formula_units_Z 14
_cell_length_a 18.125067
_cell_length_b 12.393648
_cell_length_c 8.660342
_cell_angle_alpha 68.471411
_cell_angle_beta 65.217893
_cell_angle_gamma 20.406147
_cell_volume 613.783855
_symmetry_space_group_name_H-M "P -1"
_symmetry_group_IT_number 2
_symmetry_cell_setting 'triclinic'
loop_
_space_group_symop_operation_xyz
x,y,z
-x,-y,-z
loop_
_atom_site_type_symbol
_atom_site_label
_atom_site_fract_x
_atom_site_fract_y
_atom_site_fract_z
Si Si1 0.982618 0.754470 0.273216
Si Si2 0.560143 0.318906 0.921168
Si Si3 0.879604 0.729777 0.117356
Si Si4 0.494787 0.700160 0.515687
Si Si5 0.842074 0.142538 0.684174
Si Si6 0.684043 0.831218 0.506496
Si Si7 0.823283 0.213765 0.214024
O O1 0.005282 0.666758 0.130523
O O2 0.152350 0.464957 0.385871
O O3 0.735716 0.054426 0.386921
O O4 0.978948 0.896960 0.216340
O O5 0.736643 0.154800 0.744492
O O6 0.343587 0.561835 0.899386
O O7 0.500000 0.500000 0.000000
O O8 0.680148 0.055637 0.036537
O O9 0.810664 0.734472 0.313090
O O10 0.000000 0.500000 0.000000
O O11 0.631600 0.504315 0.657353
O O12 0.645438 0.444060 0.388061
O O13 0.436973 0.909858 0.422108
O O14 0.000000 0.000000 0.500000
O O15 0.998612 0.928747 0.808635
O O16 0.500000 0.000000 0.500000
#
# Coordination Sequence:
#
# PCOD9106017 Si02
#       7
#     2   2   2   2   2   2   2
#     4  11  22  43  68  97 131 184 228 271 341 407
#     4  12  24  45  65  96 147 175 220 279 349 408
#     4  11  26  44  67  97 136 184 221 275 352 402
#     4  10  20  39  67 101 130 170 234 271 334 395
#     4  10  23  40  67 106 132 170 235 275 330 408
#     4  11  25  46  70  98 133 178 237 284 323 412
#     4  11  23  39  71 102 133 178 220 287 339 394
#
# _framework density 22.809332000000001
#
# number of rings (size 3 to 8) (size 9 to 14) (size 15 to 20)
#    0.000    1.143    2.857    3.857    6.000    2.857 
#    2.571    0.714    0.000    0.000    0.000    0.000 
#    0.000    0.000    0.000    0.000    0.000    0.000 
#
# Total GULP energy -78116.531780 kJ/mol
# GULP energy per Si atom -5579.752270 kJ/mol
# Density = 2.275742 g / cm^3
# Si number density = 22.809332 Si / 1000 Ang^3
#
#
#
# Elastic Constant Matrix: (Units=GPa)
#
#
# Indices 1 2 3 4 5 6 
#
# 1 78.8926 50.0139 24.0665 -3.5048 14.0398 -12.3900
# 2 50.0139 166.2527 63.7426 -41.4668 23.7107 -6.0893
# 3 24.0665 63.7426 92.4922 -9.3864 15.9536 6.5368
# 4 -3.5048 -41.4668 -9.3864 59.2880 -2.3725 14.2749
# 5 14.0398 23.7107 15.9536 -2.3725 32.7719 1.9079
# 6 -12.3900 -6.0893 6.5368 14.2749 1.9079 57.5304
#
#
#
# Elastic Compliance Matrix: (Units=1/GPa)
#
#
# Indices 1 2 3 4 5 6 
#
# 1 0.017442 -0.005114 -0.001073 -0.003936 -0.003794 0.004440
# 2 -0.005114 0.011890 -0.005523 0.007232 -0.003147 -0.000905
# 3 -0.001073 -0.005523 0.015466 -0.001067 -0.003022 -0.002208
# 4 -0.003936 0.007232 -0.001067 0.022827 -0.001048 -0.005590
# 5 -0.003794 -0.003147 -0.003022 -0.001048 0.035913 -0.001738
# 6 0.004440 -0.000905 -0.002208 -0.005590 -0.001738 0.019938
#
#
# Mechanical properties :
#
#
# Convention : Reuss Voigt Hill
#
# Bulk Modulus (GPa) = 46.77536 68.14259 57.45898
# Shear Modulus (GPa) = 32.46273 43.23903 37.85088
#
# Velocity S-wave (km/s) = 3.77665 4.35866 4.07805
# Velocity P-wave (km/s) = 6.29040 7.43440 6.88619
#
# Compressibility (1/GPa) = 0.02137878
#
# Stress axis : x y z
#
# Youngs Moduli (GPa) = 57.33217 84.10209 64.65669
#
# Poissons Ratio (x) = 0.43009 0.06938
# Poissons Ratio (y) = 0.29319 0.35711
# Poissons Ratio (z) = 0.06152 0.46450
#
# Static dielectric constant tensor:
#      x y z
#    x 1.948400 0.001040 -0.027760 
#    y 0.001040 1.828970 0.037440 
#    z -0.027760 0.037440 2.046070 
# 
# From -- ./inp_files/333111.got.cif
#   From: 2010.05.17/outbox.cif.g08.bks.cpg/sg2_167_cif.got.tgz:333111.got - 2010.06.03 11:33:40.
