data_PCOD9106040
_publ_section_title
;
Structure prediction by ZEFSAII (Michael W. Deem and Ramdas Pophale) SiO2 
 PCOD9106040
Probable space group: P -1
;
_chemical_formula_sum "Si O2"
_cell_formula_units_Z 16
_cell_length_a 9.048957
_cell_length_b 14.120731
_cell_length_c 19.738434
_cell_angle_alpha 18.629204
_cell_angle_beta 120.815145
_cell_angle_gamma 110.591661
_cell_volume 604.170693
_symmetry_space_group_name_H-M "P -1"
_symmetry_group_IT_number 2
_symmetry_cell_setting 'triclinic'
loop_
_space_group_symop_operation_xyz
x,y,z
-x,-y,-z
loop_
_atom_site_type_symbol
_atom_site_label
_atom_site_fract_x
_atom_site_fract_y
_atom_site_fract_z
Si Si1 0.122524 0.319333 0.234808
Si Si2 0.941492 0.955069 0.223231
Si Si3 0.695737 0.605231 0.900396
Si Si4 0.694091 0.758904 0.395688
Si Si5 0.614544 0.662092 0.996479
Si Si6 0.725753 0.801694 0.163295
Si Si7 0.026967 0.381204 0.314752
Si Si8 0.814293 0.030168 0.893169
O O1 0.280582 0.204118 0.289266
O O2 0.158309 0.205106 0.399258
O O3 0.924714 0.325264 0.157517
O O4 0.061193 0.716754 0.966717
O O5 0.777249 0.918885 0.253654
O O6 0.847058 0.954085 0.128672
O O7 0.148370 0.604948 0.518369
O O8 0.546950 0.461928 0.949500
O O9 0.633875 0.753190 0.861490
O O10 0.701479 0.431582 0.585646
O O11 0.837770 0.698076 0.534991
O O12 0.478935 0.995911 0.214000
O O13 0.824461 0.363882 0.274987
O O14 0.500000 0.000000 0.000000
O O15 0.732091 0.870468 0.038618
O O16 0.905489 0.796776 0.006497
O O17 0.000000 0.000000 0.000000
#
# Coordination Sequence:
#
# PCOD9106040 Si02
#       8
#     2   2   2   2   2   2   2   2
#     4  10  20  39  67  87 119 164 198 255 312 349
#     4  11  22  39  64  88 123 166 202 240 301 359
#     4   9  20  40  64  88 119 154 205 261 309 351
#     4  11  22  38  64  90 124 163 204 240 292 372
#     4  10  21  40  65  90 117 159 205 252 306 359
#     4  11  25  39  60  93 128 162 200 247 291 358
#     4  10  22  38  62  90 124 161 197 246 303 359
#     4  10  20  40  57  88 132 158 194 243 290 360
#
# _framework density 26.482581
#
# number of rings (size 3 to 8) (size 9 to 14) (size 15 to 20)
#    0.000    1.750    3.750    1.500    3.500    2.500 
#    0.000    6.250    0.000    0.000    0.000    0.000 
#    0.000    0.000    0.000    0.000    0.000    0.000 
#
# Total GULP energy -89377.706847 kJ/mol
# GULP energy per Si atom -5586.106678 kJ/mol
# Density = 2.642231 g / cm^3
# Si number density = 26.482581 Si / 1000 Ang^3
#
#
#
# Elastic Constant Matrix: (Units=GPa)
#
#
# Indices 1 2 3 4 5 6 
#
# 1 137.7453 28.2045 17.7951 18.2647 15.5299 -18.0021
# 2 28.2045 138.5062 24.7808 11.6204 -4.4362 -25.1814
# 3 17.7951 24.7808 63.6193 -12.6098 31.3254 5.3456
# 4 18.2647 11.6204 -12.6098 28.7764 0.2638 -0.1215
# 5 15.5299 -4.4362 31.3254 0.2638 29.3242 0.1433
# 6 -18.0021 -25.1814 5.3456 -0.1215 0.1433 58.0213
#
#
#
# Elastic Compliance Matrix: (Units=1/GPa)
#
#
# Indices 1 2 3 4 5 6 
#
# 1 0.009302 0.000208 -0.004566 -0.007975 0.000038 0.003380
# 2 0.000208 0.015360 -0.023828 -0.016993 0.027777 0.008822
# 3 -0.004566 -0.023828 0.080697 0.048606 -0.087735 -0.018874
# 4 -0.007975 -0.016993 0.048606 0.068380 -0.050817 -0.014059
# 5 0.000038 0.027777 -0.087735 -0.050817 0.132367 0.019717
# 6 0.003380 0.008822 -0.018874 -0.014059 0.019717 0.023773
#
#
# Mechanical properties :
#
#
# Convention : Reuss Voigt Hill
#
# Bulk Modulus (GPa) = 20.41384 53.49243 36.95313
# Shear Modulus (GPa) = 12.41986 41.16374 26.79180
#
# Velocity S-wave (km/s) = 2.16795 3.94683 3.18414
# Velocity P-wave (km/s) = 3.74056 6.40413 5.24427
#
# Compressibility (1/GPa) = 0.04898638
#
# Stress axis : x y z
#
# Youngs Moduli (GPa) = 107.50268 65.10458 12.39204
#
# Poissons Ratio (x) = -0.01352 0.05659
# Poissons Ratio (y) = -0.02232 0.29527
# Poissons Ratio (z) = 0.49090 1.55128
#
# Static dielectric constant tensor:
#      x y z
#    x 2.237220 0.092650 -0.067230 
#    y 0.092650 2.201030 -0.014510 
#    z -0.067230 -0.014510 2.294720 
# 
# From -- ./inp_files/217174.got.cif
#   From: 2010.05.17/outbox.cif.g08.bks.cpg/sg2_109_cif.got.tgz:217174.got - 2010.06.03 11:33:40.
