data_PCOD9106671
_publ_section_title
;
Structure prediction by ZEFSAII (Michael W. Deem and Ramdas Pophale) SiO2 
 PCOD9106671
Probable space group: P -1
;
_chemical_formula_sum "Si O2"
_cell_formula_units_Z 15
_cell_length_a 18.403672
_cell_length_b 15.009504
_cell_length_c 8.134563
_cell_angle_alpha 38.534884
_cell_angle_beta 120.320849
_cell_angle_gamma 144.302375
_cell_volume 762.459788
_symmetry_space_group_name_H-M "P -1"
_symmetry_group_IT_number 2
_symmetry_cell_setting 'triclinic'
loop_
_space_group_symop_operation_xyz
x,y,z
-x,-y,-z
loop_
_atom_site_type_symbol
_atom_site_label
_atom_site_fract_x
_atom_site_fract_y
_atom_site_fract_z
Si Si1 0.013176 0.680321 0.185730
Si Si2 0.605565 0.414093 0.474690
Si Si3 0.463843 0.136552 0.027760
Si Si4 0.877653 0.307486 0.017672
Si Si5 0.763220 0.388070 0.510233
Si Si6 0.364904 0.067043 0.472804
Si Si7 0.713126 0.858198 0.039603
Si Si8 0.500000 0.000000 0.500000
O O1 0.063600 0.733492 0.980812
O O2 0.000000 0.500000 0.500000
O O3 0.869569 0.553177 0.250358
O O4 0.131285 0.917040 0.071782
O O5 0.534674 0.226183 0.806548
O O6 0.715638 0.466335 0.432821
O O7 0.492060 0.296617 0.382107
O O8 0.663162 0.631178 0.310679
O O9 0.556238 0.230143 0.153513
O O10 0.371189 0.152698 0.915108
O O11 0.367958 0.869369 0.340703
O O12 0.827220 0.368196 0.750551
O O13 0.000000 0.500000 0.000000
O O14 0.751359 0.104078 0.278562
O O15 0.315738 0.109255 0.215747
O O16 0.404763 0.970756 0.569326
#
# Coordination Sequence:
#
# PCOD9106671 Si02
#       8
#     2   2   2   2   2   2   2   1
#     4  10  20  40  60  83 114 158 205 246 294 354
#     4  12  23  38  60  93 127 156 197 248 309 362
#     4  11  20  39  60  89 120 159 199 245 299 361
#     4  11  22  35  63  91 113 152 212 256 287 349
#     4  11  21  38  63  85 120 155 201 252 297 353
#     4  11  21  37  58  91 125 155 203 248 298 355
#     4  11  23  38  62  88 124 165 193 245 308 365
#     4  10  22  32  62  90 122 156 200 250 300 346
#
# _framework density 19.673169000000001
#
# number of rings (size 3 to 8) (size 9 to 14) (size 15 to 20)
#    0.000    1.067    5.333    3.600    1.867    0.533 
#    0.000    0.000    0.000    1.600    0.000    0.000 
#    0.000    0.000    0.000    0.000    0.000    0.000 
#
# Total GULP energy -83520.530781 kJ/mol
# GULP energy per Si atom -5568.035385 kJ/mol
# Density = 1.962839 g / cm^3
# Si number density = 19.673169 Si / 1000 Ang^3
#
#
#
# Elastic Constant Matrix: (Units=GPa)
#
#
# Indices 1 2 3 4 5 6 
#
# 1 129.5374 11.9657 40.9656 -9.8093 -29.3929 -1.5144
# 2 11.9657 73.3158 29.4231 -5.5512 -11.9959 0.5448
# 3 40.9656 29.4231 49.1483 -7.4674 -19.6222 -1.3248
# 4 -9.8093 -5.5512 -7.4674 31.4762 -10.3182 -3.4226
# 5 -29.3929 -11.9959 -19.6222 -10.3182 37.2160 -1.6936
# 6 -1.5144 0.5448 -1.3248 -3.4226 -1.6936 23.2885
#
#
#
# Elastic Compliance Matrix: (Units=1/GPa)
#
#
# Indices 1 2 3 4 5 6 
#
# 1 0.012134 0.002833 -0.007836 0.005178 0.007874 0.001611
# 2 0.002833 0.018651 -0.012351 0.001923 0.002247 -0.000509
# 3 -0.007836 -0.012351 0.042189 0.010948 0.015333 0.004904
# 4 0.005178 0.001923 0.010948 0.044986 0.023375 0.009226
# 5 0.007874 0.002247 0.015333 0.023375 0.048756 0.008313
# 6 0.001611 -0.000509 0.004904 0.009226 0.008313 0.045296
#
#
# Mechanical properties :
#
#
# Convention : Reuss Voigt Hill
#
# Bulk Modulus (GPa) = 26.13304 46.30112 36.21708
# Shear Modulus (GPa) = 19.26965 29.70594 24.48780
#
# Velocity S-wave (km/s) = 3.13307 3.89005 3.53190
# Velocity P-wave (km/s) = 5.13815 6.61536 5.92299
#
# Compressibility (1/GPa) = 0.03826574
#
# Stress axis : x y z
#
# Youngs Moduli (GPa) = 82.41538 53.61599 23.70281
#
# Poissons Ratio (x) = -0.15188 0.18573
# Poissons Ratio (y) = -0.23346 0.29276
# Poissons Ratio (z) = 0.64577 0.66222
#
# Static dielectric constant tensor:
#      x y z
#    x 1.713160 -0.040380 -0.015860 
#    y -0.040380 1.378440 -0.080190 
#    z -0.015860 -0.080190 1.660130 
# 
# From -- ./inp_files/334658.got.cif
#   From: 2010.05.17/outbox.cif.g08.bks.cpg/sg2_168_cif.got.tgz:334658.got - 2010.06.03 11:33:40.
