data_PCOD9106974
_publ_section_title
;
Structure prediction by ZEFSAII (Michael W. Deem and Ramdas Pophale) SiO2 
 PCOD9106974
Probable space group: P -1
;
_chemical_formula_sum "Si O2"
_cell_formula_units_Z 13
_cell_length_a 14.601852
_cell_length_b 5.099854
_cell_length_c 6.864396
_cell_angle_alpha 75.665502
_cell_angle_beta 88.308097
_cell_angle_gamma 71.452535
_cell_volume 468.860373
_symmetry_space_group_name_H-M "P -1"
_symmetry_group_IT_number 2
_symmetry_cell_setting 'triclinic'
loop_
_space_group_symop_operation_xyz
x,y,z
-x,-y,-z
loop_
_atom_site_type_symbol
_atom_site_label
_atom_site_fract_x
_atom_site_fract_y
_atom_site_fract_z
Si Si1 0.813816 0.283328 0.691038
Si Si2 0.615591 0.213842 0.709435
Si Si3 0.332661 0.233379 0.887113
Si Si4 0.432999 0.697055 0.739596
Si Si5 0.000000 0.000000 0.500000
Si Si6 0.133698 0.157605 0.897847
Si Si7 0.953933 0.521776 0.766963
O O1 0.704123 0.334317 0.647371
O O2 0.857125 0.538015 0.656361
O O3 0.885524 0.072376 0.574630
O O4 0.832759 0.141572 0.934164
O O5 0.535398 0.447618 0.797750
O O6 0.573631 0.202155 0.502270
O O7 0.656557 0.910300 0.872210
O O8 0.354831 0.530183 0.818719
O O9 0.228615 0.228769 0.813049
O O10 0.412533 0.985231 0.809784
O O11 0.021943 0.687482 0.650998
O O12 0.032850 0.194542 0.777903
O O13 0.086957 0.376781 0.035924
#
# Coordination Sequence:
#
# PCOD9106974 Si02
#       7
#     2   2   2   2   1   2   2
#     4  10  21  40  61  93 127 183 218 289 345 407
#     4  10  25  46  71 104 145 182 241 296 353 422
#     4  11  25  46  75 106 141 189 238 293 356 423
#     4  11  26  48  71 109 140 190 239 294 357 422
#     4  10  22  36  56  96 122 168 220 274 340 408
#     4   9  22  38  62  96 126 179 227 280 344 414
#     4  10  20  40  62  89 135 170 229 277 345 418
#
# _framework density 27.726800999999998
#
# number of rings (size 3 to 8) (size 9 to 14) (size 15 to 20)
#    0.000    1.846    0.000    1.846    6.462    4.923 
#   11.077    0.000    0.000    0.000    0.000    0.000 
#    0.000    0.000    0.000    0.000    0.000    0.000 
#
# Total GULP energy -72557.640708 kJ/mol
# GULP energy per Si atom -5581.356978 kJ/mol
# Density = 2.766369 g / cm^3
# Si number density = 27.726801 Si / 1000 Ang^3
#
#
#
# Elastic Constant Matrix: (Units=GPa)
#
#
# Indices 1 2 3 4 5 6 
#
# 1 147.5100 9.5623 20.2014 -5.9990 -25.3980 -9.9370
# 2 9.5623 75.3854 1.8491 1.6090 -16.8972 15.7576
# 3 20.2014 1.8491 93.0489 -5.1997 -6.6283 4.1056
# 4 -5.9990 1.6090 -5.1997 26.9361 -8.1143 -18.3319
# 5 -25.3980 -16.8972 -6.6283 -8.1143 47.5148 -6.0522
# 6 -9.9370 15.7576 4.1056 -18.3319 -6.0522 46.3090
#
#
#
# Elastic Compliance Matrix: (Units=1/GPa)
#
#
# Indices 1 2 3 4 5 6 
#
# 1 0.008896 -0.001199 -0.001286 0.008134 0.006364 0.006483
# 2 -0.001199 0.015753 0.000207 -0.005147 0.003187 -0.007257
# 3 -0.001286 0.000207 0.011238 0.001972 0.001240 -0.000400
# 4 0.008134 -0.005147 0.001972 0.067143 0.018373 0.032302
# 5 0.006364 0.003187 0.001240 0.018373 0.030345 0.011410
# 6 0.006483 -0.007257 -0.000400 0.032302 0.011410 0.039768
#
#
# Mechanical properties :
#
#
# Convention : Reuss Voigt Hill
#
# Bulk Modulus (GPa) = 31.91635 42.12999 37.02317
# Shear Modulus (GPa) = 26.57533 43.10742 34.84138
#
# Velocity S-wave (km/s) = 3.09928 3.94727 3.54869
# Velocity P-wave (km/s) = 4.93390 6.00019 5.49298
#
# Compressibility (1/GPa) = 0.03133190
#
# Stress axis : x y z
#
# Youngs Moduli (GPa) = 112.40653 63.47906 88.98195
#
# Poissons Ratio (x) = 0.07611 0.11441
# Poissons Ratio (y) = 0.13478 -0.01841
# Poissons Ratio (z) = 0.14453 -0.01313
#
# Static dielectric constant tensor:
#      x y z
#    x 2.094650 -0.161070 0.106990 
#    y -0.161070 1.797840 -0.136750 
#    z 0.106990 -0.136750 2.378520 
# 
# From -- ./inp_files/32384.got.cif
#   From: 2010.05.17/outbox.cif.g08.bks.cpg/sg2_17_cif.got.tgz:32384.got - 2010.06.03 11:33:40.
