data_PCOD9106757
_publ_section_title
;
Structure prediction by ZEFSAII (Michael W. Deem and Ramdas Pophale) SiO2 
 PCOD9106757
Probable space group: P -1
;
_chemical_formula_sum "Si O2"
_cell_formula_units_Z 16
_cell_length_a 23.595878
_cell_length_b 12.074088
_cell_length_c 5.296353
_cell_angle_alpha 57.093536
_cell_angle_beta 70.194191
_cell_angle_gamma 31.841690
_cell_volume 642.199796
_symmetry_space_group_name_H-M "P -1"
_symmetry_group_IT_number 2
_symmetry_cell_setting 'triclinic'
loop_
_space_group_symop_operation_xyz
x,y,z
-x,-y,-z
loop_
_atom_site_type_symbol
_atom_site_label
_atom_site_fract_x
_atom_site_fract_y
_atom_site_fract_z
Si Si1 0.200195 0.790662 0.354316
Si Si2 0.937621 0.985114 0.225465
Si Si3 0.610747 0.630095 0.771514
Si Si4 0.731998 0.856112 0.592175
Si Si5 0.592050 0.887608 0.817072
Si Si6 0.069007 0.485020 0.568702
Si Si7 0.536742 0.323020 0.963607
Si Si8 0.254544 0.978590 0.234377
O O1 0.128109 0.860513 0.604908
O O2 0.314178 0.517635 0.408524
O O3 0.231178 0.875752 0.311178
O O4 0.135464 0.921854 0.023490
O O5 0.002736 0.726114 0.505211
O O6 0.000000 0.000000 0.000000
O O7 0.657932 0.649989 0.869924
O O8 0.573088 0.564430 0.047262
O O9 0.489503 0.900389 0.531250
O O10 0.670554 0.857091 0.848760
O O11 0.849451 0.585851 0.656539
O O12 0.760902 0.944641 0.553842
O O13 0.641792 0.054111 0.270252
O O14 0.500000 0.000000 0.000000
O O15 0.000000 0.500000 0.500000
O O16 0.158664 0.243937 0.910206
O O17 0.500000 0.500000 0.000000
O O18 0.611216 0.243358 0.724603
#
# Coordination Sequence:
#
# PCOD9106757 Si02
#       8
#     2   2   2   2   2   2   2   2
#     4  12  27  47  78 108 146 190 247 307 375 441
#     4  12  30  52  72 109 147 193 250 310 381 439
#     4  10  23  41  67 101 142 189 236 293 355 441
#     4  10  24  39  66 102 132 187 239 294 358 439
#     4  10  22  43  65  97 142 192 237 283 361 437
#     4  11  24  46  72  97 142 187 245 306 367 436
#     4  10  20  40  61 101 145 178 232 287 361 423
#     4  11  23  42  72 108 141 189 246 300 370 442
#
# _framework density 24.914363000000002
#
# number of rings (size 3 to 8) (size 9 to 14) (size 15 to 20)
#    0.000    1.250    2.500    1.875    7.000    2.500 
#    0.000    0.000    0.000    0.000    0.000    0.000 
#    0.000    0.000    0.000    0.000    0.000    0.000 
#
# Total GULP energy -89186.714481 kJ/mol
# GULP energy per Si atom -5574.169655 kJ/mol
# Density = 2.485766 g / cm^3
# Si number density = 24.914363 Si / 1000 Ang^3
#
#
#
# Elastic Constant Matrix: (Units=GPa)
#
#
# Indices 1 2 3 4 5 6 
#
# 1 105.0503 35.5244 13.7448 0.7908 -9.0903 4.0703
# 2 35.5244 147.9151 23.1819 7.9448 -9.3817 0.9585
# 3 13.7448 23.1819 61.2089 3.9855 -0.8114 -7.8305
# 4 0.7908 7.9448 3.9855 41.3451 -2.9817 0.8388
# 5 -9.0903 -9.3817 -0.8114 -2.9817 32.1415 -0.5845
# 6 4.0703 0.9585 -7.8305 0.8388 -0.5845 32.9131
#
#
#
# Elastic Compliance Matrix: (Units=1/GPa)
#
#
# Indices 1 2 3 4 5 6 
#
# 1 0.010757 -0.002169 -0.001815 0.000592 0.002388 -0.001672
# 2 -0.002169 0.007822 -0.002446 -0.001108 0.001497 -0.000487
# 3 -0.001815 -0.002446 0.018352 -0.001418 -0.000810 0.004684
# 4 0.000592 -0.001108 -0.001418 0.024695 0.002081 -0.000971
# 5 0.002388 0.001497 -0.000810 0.002081 0.032397 -0.000009
# 6 -0.001672 -0.000487 0.004684 -0.000971 -0.000009 0.031743
#
#
# Mechanical properties :
#
#
# Convention : Reuss Voigt Hill
#
# Bulk Modulus (GPa) = 41.54091 51.00849 46.27470
# Shear Modulus (GPa) = 34.09496 37.39483 35.74489
#
# Velocity S-wave (km/s) = 3.70332 3.87839 3.79187
# Velocity P-wave (km/s) = 5.91572 6.36976 6.14694
#
# Compressibility (1/GPa) = 0.02407266
#
# Stress axis : x y z
#
# Youngs Moduli (GPa) = 92.96268 127.83846 54.48952
#
# Poissons Ratio (x) = 0.27722 0.09890
# Poissons Ratio (y) = 0.20159 0.13328
# Poissons Ratio (z) = 0.16873 0.31268
#
# Static dielectric constant tensor:
#      x y z
#    x 2.083620 -0.076140 -0.210360 
#    y -0.076140 2.009970 0.011790 
#    z -0.210360 0.011790 2.307230 
# 
# From -- ./inp_files/68585.got.cif
#   From: 2010.05.17/outbox.cif.g08.bks.cpg/sg2_35_cif.got.tgz:68585.got - 2010.06.03 11:33:40.
