data_PCOD9106193
_publ_section_title
;
Structure prediction by ZEFSAII (Michael W. Deem and Ramdas Pophale) SiO2 
 PCOD9106193
Probable space group: P -1
;
_chemical_formula_sum "Si O2"
_cell_formula_units_Z 13
_cell_length_a 12.250196
_cell_length_b 9.200224
_cell_length_c 8.131612
_cell_angle_alpha 97.921677
_cell_angle_beta 81.785558
_cell_angle_gamma 39.278365
_cell_volume 527.195053
_symmetry_space_group_name_H-M "P -1"
_symmetry_group_IT_number 2
_symmetry_cell_setting 'triclinic'
loop_
_space_group_symop_operation_xyz
x,y,z
-x,-y,-z
loop_
_atom_site_type_symbol
_atom_site_label
_atom_site_fract_x
_atom_site_fract_y
_atom_site_fract_z
Si Si1 0.899580 0.817234 0.192994
Si Si2 0.397851 0.719431 0.432577
Si Si3 0.000000 0.000000 0.000000
Si Si4 0.523605 0.122015 0.124624
Si Si5 0.688978 0.163224 0.887094
Si Si6 0.034011 0.407363 0.294781
Si Si7 0.361302 0.281277 0.535660
O O1 0.033821 0.545873 0.193671
O O2 0.784895 0.016235 0.398833
O O3 0.729196 0.923896 0.140520
O O4 0.998918 0.842893 0.081405
O O5 0.500000 0.500000 0.500000
O O6 0.553077 0.677026 0.378964
O O7 0.350740 0.722813 0.261597
O O8 0.814187 0.136738 0.963584
O O9 0.377936 0.283108 0.334561
O O10 0.500000 0.000000 0.000000
O O11 0.515398 0.275676 0.037411
O O12 0.804723 0.886872 0.783136
O O13 0.842461 0.526891 0.320796
O O14 0.000000 0.500000 0.500000
O O15 0.500000 0.000000 0.500000
#
# Coordination Sequence:
#
# PCOD9106193 Si02
#       7
#     2   2   1   2   2   2   2
#     4  10  23  44  65 100 142 174 237 280 349 418
#     4  11  24  44  70  96 135 191 237 281 347 426
#     4  10  26  46  64 104 152 182 220 288 360 436
#     4  10  20  39  67  99 140 172 220 288 347 409
#     4  11  25  45  71 104 141 183 237 289 357 417
#     4  12  22  41  74 107 133 178 238 299 343 403
#     4  11  21  42  66 101 137 175 237 284 340 419
#
# _framework density 24.658804
#
# number of rings (size 3 to 8) (size 9 to 14) (size 15 to 20)
#    0.000    1.231    4.615    1.846    2.154    4.308 
#    0.000   13.077    0.000    0.000    0.000    0.000 
#    0.000    0.000    0.000    0.000    0.000    0.000 
#
# Total GULP energy -72472.431212 kJ/mol
# GULP energy per Si atom -5574.802401 kJ/mol
# Density = 2.460268 g / cm^3
# Si number density = 24.658804 Si / 1000 Ang^3
#
#
#
# Elastic Constant Matrix: (Units=GPa)
#
#
# Indices 1 2 3 4 5 6 
#
# 1 166.4256 25.8032 32.8875 -3.2384 -7.6556 15.7929
# 2 25.8032 128.4402 37.5621 -7.0044 -13.8665 28.9189
# 3 32.8875 37.5621 124.7017 -15.7750 -2.0129 13.0449
# 4 -3.2384 -7.0044 -15.7750 31.7646 3.3707 6.5720
# 5 -7.6556 -13.8665 -2.0129 3.3707 41.6685 -6.5204
# 6 15.7929 28.9189 13.0449 6.5720 -6.5204 16.5174
#
#
#
# Elastic Compliance Matrix: (Units=1/GPa)
#
#
# Indices 1 2 3 4 5 6 
#
# 1 0.006879 0.000841 -0.000956 0.002081 0.000062 -0.008099
# 2 0.000841 0.015256 -0.000295 0.009852 -0.000493 -0.031396
# 3 -0.000956 -0.000295 0.010353 0.007358 -0.002007 -0.010466
# 4 0.002081 0.009852 0.007358 0.048011 -0.007223 -0.047003
# 5 0.000062 -0.000493 -0.002007 -0.007223 0.026813 0.015847
# 6 -0.008099 -0.031396 -0.010466 -0.047003 0.015847 0.156478
#
#
# Mechanical properties :
#
#
# Convention : Reuss Voigt Hill
#
# Bulk Modulus (GPa) = 31.57626 68.00811 49.79218
# Shear Modulus (GPa) = 18.17080 39.54443 28.85762
#
# Velocity S-wave (km/s) = 2.71752 4.00892 3.42464
# Velocity P-wave (km/s) = 4.76231 7.00486 5.98948
#
# Compressibility (1/GPa) = 0.03166937
#
# Stress axis : x y z
#
# Youngs Moduli (GPa) = 145.36866 65.54810 96.58785
#
# Poissons Ratio (x) = -0.05514 0.09236
# Poissons Ratio (y) = -0.12229 0.02845
# Poissons Ratio (z) = 0.13900 0.01931
#
# Static dielectric constant tensor:
#      x y z
#    x 2.009520 -0.016110 -0.000860 
#    y -0.016110 2.010740 0.020710 
#    z -0.000860 0.020710 2.055650 
# 
# From -- ./inp_files/231589.got.cif
#   From: 2010.05.17/outbox.cif.g08.bks.cpg/sg2_116_cif.got.tgz:231589.got - 2010.06.03 11:33:40.
