data_PCOD9106789
_publ_section_title
;
Structure prediction by ZEFSAII (Michael W. Deem and Ramdas Pophale) SiO2 
 PCOD9106789
Probable space group: P -1
;
_chemical_formula_sum "Si O2"
_cell_formula_units_Z 16
_cell_length_a 15.992690
_cell_length_b 14.337969
_cell_length_c 6.468707
_cell_angle_alpha 115.471151
_cell_angle_beta 80.904962
_cell_angle_gamma 147.921247
_cell_volume 641.970346
_symmetry_space_group_name_H-M "P -1"
_symmetry_group_IT_number 2
_symmetry_cell_setting 'triclinic'
loop_
_space_group_symop_operation_xyz
x,y,z
-x,-y,-z
loop_
_atom_site_type_symbol
_atom_site_label
_atom_site_fract_x
_atom_site_fract_y
_atom_site_fract_z
Si Si1 0.152794 0.079593 0.031139
Si Si2 0.507914 0.111763 0.303376
Si Si3 0.847143 0.550479 0.350026
Si Si4 0.060443 0.589139 0.315209
Si Si5 0.661542 0.876748 0.764643
Si Si6 0.331859 0.272057 0.742728
Si Si7 0.697315 0.598206 0.447401
Si Si8 0.352059 0.753935 0.212469
O O1 0.164406 0.988212 0.078364
O O2 0.305254 0.315738 0.296020
O O3 0.205614 0.101857 0.807265
O O4 0.000000 0.000000 0.000000
O O5 0.695212 0.336403 0.345445
O O6 0.359933 0.024237 0.168121
O O7 0.526664 0.168014 0.589589
O O8 0.452157 0.933050 0.178004
O O9 0.833976 0.655719 0.508134
O O10 0.021360 0.669604 0.408673
O O11 0.771447 0.456424 0.057973
O O12 0.237711 0.715124 0.347692
O O13 0.000000 0.500000 0.500000
O O14 0.000000 0.500000 0.000000
O O15 0.634080 0.786823 0.476412
O O16 0.488483 0.656935 0.750267
O O17 0.249211 0.279222 0.655000
O O18 0.500000 0.500000 0.000000
#
# Coordination Sequence:
#
# PCOD9106789 Si02
#       8
#     2   2   2   2   2   2   2   2
#     4  11  23  41  58  88 125 156 194 257 317 365
#     4  10  21  37  60  87 119 153 210 253 310 367
#     4  10  21  37  62  84 121 157 209 252 309 377
#     4  10  20  40  61  87 123 168 210 261 323 378
#     4  10  21  37  62  90 117 153 209 249 294 387
#     4  11  19  37  65  81 116 157 196 246 310 360
#     4  10  21  37  62  93 113 155 213 243 297 384
#     4  10  21  37  59  87 120 161 202 259 316 364
#
# _framework density 24.923269000000001
#
# number of rings (size 3 to 8) (size 9 to 14) (size 15 to 20)
#    0.000    1.750    3.750    1.125    1.750    2.000 
#    4.500    1.250    0.000    0.000    0.000    0.000 
#    0.000    0.000    0.000    0.000    0.000    0.000 
#
# Total GULP energy -89080.100396 kJ/mol
# GULP energy per Si atom -5567.506275 kJ/mol
# Density = 2.486654 g / cm^3
# Si number density = 24.923269 Si / 1000 Ang^3
#
#
#
# Elastic Constant Matrix: (Units=GPa)
#
#
# Indices 1 2 3 4 5 6 
#
# 1 164.1762 6.9211 22.2965 -11.9092 13.1857 5.7118
# 2 6.9211 40.7053 22.4868 -7.3176 -0.8532 6.0164
# 3 22.2965 22.4868 75.5724 -20.9988 7.9449 -9.5072
# 4 -11.9092 -7.3176 -20.9988 18.8178 2.0678 -2.7478
# 5 13.1857 -0.8532 7.9449 2.0678 43.4208 -1.1585
# 6 5.7118 6.0164 -9.5072 -2.7478 -1.1585 28.8305
#
#
#
# Elastic Compliance Matrix: (Units=1/GPa)
#
#
# Indices 1 2 3 4 5 6 
#
# 1 0.006673 0.000259 -0.001214 0.002958 -0.001982 -0.001574
# 2 0.000259 0.032408 -0.012099 -0.002620 0.002605 -0.010949
# 3 -0.001214 -0.012099 0.027267 0.027659 -0.005798 0.014160
# 4 0.002958 -0.002620 0.027659 0.088431 -0.009765 0.017118
# 5 -0.001982 0.002605 -0.005798 -0.009765 0.025157 -0.001982
# 6 -0.001574 -0.010949 0.014160 0.017118 -0.001982 0.043503
#
#
# Mechanical properties :
#
#
# Convention : Reuss Voigt Hill
#
# Bulk Modulus (GPa) = 24.85031 42.65140 33.75086
# Shear Modulus (GPa) = 19.01422 33.46379 26.23901
#
# Velocity S-wave (km/s) = 2.76508 3.66823 3.24820
# Velocity P-wave (km/s) = 4.49295 5.92380 5.25728
#
# Compressibility (1/GPa) = 0.04024094
#
# Stress axis : x y z
#
# Youngs Moduli (GPa) = 149.84756 30.85616 36.67482
#
# Poissons Ratio (x) = -0.00798 0.04451
# Poissons Ratio (y) = -0.03875 0.44372
# Poissons Ratio (z) = 0.18186 0.37332
#
# Static dielectric constant tensor:
#      x y z
#    x 1.977610 0.011310 0.092830 
#    y 0.011310 2.038660 0.001330 
#    z 0.092830 0.001330 2.139130 
# 
# From -- ./inp_files/97185.got.cif
#   From: 2010.05.17/outbox.cif.g08.bks.cpg/sg2_49_cif.got.tgz:97185.got - 2010.06.03 11:33:40.
