data_PCOD9106754
_publ_section_title
;
Structure prediction by ZEFSAII (Michael W. Deem and Ramdas Pophale) SiO2 
 PCOD9106754
Probable space group: P -1
;
_chemical_formula_sum "Si O2"
_cell_formula_units_Z 16
_cell_length_a 27.085124
_cell_length_b 16.383135
_cell_length_c 9.145644
_cell_angle_alpha 130.713394
_cell_angle_beta 131.068654
_cell_angle_gamma 15.751433
_cell_volume 826.612877
_symmetry_space_group_name_H-M "P -1"
_symmetry_group_IT_number 2
_symmetry_cell_setting 'triclinic'
loop_
_space_group_symop_operation_xyz
x,y,z
-x,-y,-z
loop_
_atom_site_type_symbol
_atom_site_label
_atom_site_fract_x
_atom_site_fract_y
_atom_site_fract_z
Si Si1 0.679600 0.655676 0.991121
Si Si2 0.999983 0.499960 0.825734
Si Si3 0.157781 0.816674 0.688906
Si Si4 0.662218 0.864359 0.586516
Si Si5 0.326558 0.392162 0.741819
Si Si6 0.043150 0.210746 0.084396
Si Si7 0.547692 0.705900 0.563181
Si Si8 0.814201 0.848861 0.491242
O O1 0.681214 0.554021 0.763128
O O2 0.681410 0.604473 0.096598
O O3 0.851880 0.468687 0.085436
O O4 0.500000 0.000000 0.000000
O O5 0.161350 0.195702 0.688631
O O6 0.818984 0.709151 0.681996
O O7 0.985555 0.644065 0.909362
O O8 0.000000 0.500000 0.000000
O O9 0.209311 0.662060 0.746793
O O10 0.336631 0.546728 0.616011
O O11 0.000000 0.000000 0.500000
O O12 0.110534 0.005628 0.882465
O O13 0.731877 0.635952 0.464545
O O14 0.537915 0.081317 0.738168
O O15 0.527085 0.083543 0.441045
O O16 0.169141 0.062796 0.289173
O O17 0.372850 0.920335 0.551122
O O18 0.000000 0.500000 0.500000
#
# Coordination Sequence:
#
# PCOD9106754 Si02
#       8
#     2   2   2   2   2   2   2   2
#     4  12  22  37  68 101 126 169 220 284 334 381
#     4  11  24  37  66 100 130 163 217 277 336 385
#     4  11  25  46  62  95 135 184 225 262 325 405
#     4  10  20  40  60  98 128 163 213 284 325 376
#     4  10  24  37  65  93 133 167 222 273 326 383
#     4  11  24  43  66  91 136 179 215 266 337 395
#     4  11  21  40  66  93 132 170 217 275 324 389
#     4  10  20  41  62  95 127 166 216 269 334 387
#
# _framework density 19.356096999999998
#
# number of rings (size 3 to 8) (size 9 to 14) (size 15 to 20)
#    0.000    1.250    5.000    2.250    5.250    1.000 
#    0.000    0.000    0.000    1.500    0.000    0.000 
#    0.000    0.000    0.000    0.000    0.000    0.000 
#
# Total GULP energy -89269.236448 kJ/mol
# GULP energy per Si atom -5579.327278 kJ/mol
# Density = 1.931204 g / cm^3
# Si number density = 19.356097 Si / 1000 Ang^3
#
#
#
# Elastic Constant Matrix: (Units=GPa)
#
#
# Indices 1 2 3 4 5 6 
#
# 1 151.9875 45.2540 62.2812 6.8628 -15.7483 -20.6455
# 2 45.2540 41.4804 27.2743 9.8420 -1.7539 -6.8624
# 3 62.2812 27.2743 115.1729 23.2855 -5.3996 6.0470
# 4 6.8628 9.8420 23.2855 24.7901 -1.9344 4.1632
# 5 -15.7483 -1.7539 -5.3996 -1.9344 42.3740 -1.5520
# 6 -20.6455 -6.8624 6.0470 4.1632 -1.5520 29.7307
#
#
#
# Elastic Compliance Matrix: (Units=1/GPa)
#
#
# Indices 1 2 3 4 5 6 
#
# 1 0.013401 -0.010444 -0.006011 0.005138 0.004296 0.007623
# 2 -0.010444 0.040059 -0.001690 -0.012305 -0.002857 0.003912
# 3 -0.006011 -0.001690 0.014739 -0.010566 -0.001133 -0.006142
# 4 0.005138 -0.012305 -0.010566 0.054695 0.002380 -0.004658
# 5 0.004296 -0.002857 -0.001133 0.002380 0.025171 0.003535
# 6 0.007623 0.003912 -0.006142 -0.004658 0.003535 0.041917
#
#
# Mechanical properties :
#
#
# Convention : Reuss Voigt Hill
#
# Bulk Modulus (GPa) = 31.33957 64.25110 47.79533
# Shear Modulus (GPa) = 21.10511 30.96772 26.03641
#
# Velocity S-wave (km/s) = 3.30564 4.00421 3.67158
# Velocity P-wave (km/s) = 5.54941 7.39219 6.53607
#
# Compressibility (1/GPa) = 0.03190854
#
# Stress axis : x y z
#
# Youngs Moduli (GPa) = 74.62154 24.96302 67.84703
#
# Poissons Ratio (x) = 0.26072 0.40783
# Poissons Ratio (y) = 0.77935 0.11468
# Poissons Ratio (z) = 0.44855 0.04219
#
# Static dielectric constant tensor:
#      x y z
#    x 1.668160 -0.002990 -0.034500 
#    y -0.002990 1.687910 0.014930 
#    z -0.034500 0.014930 1.748890 
# 
# From -- ./inp_files/354599.got.cif
#   From: 2010.05.17/outbox.cif.g08.bks.cpg/sg2_178_cif.got.tgz:354599.got - 2010.06.03 11:33:40.
