data_PCOD9106069
_publ_section_title
;
Structure prediction by ZEFSAII (Michael W. Deem and Ramdas Pophale) SiO2 
 PCOD9106069
Probable space group: P -1
;
_chemical_formula_sum "Si O2"
_cell_formula_units_Z 12
_cell_length_a 5.264974
_cell_length_b 7.028383
_cell_length_c 14.254332
_cell_angle_alpha 61.180826
_cell_angle_beta 98.403581
_cell_angle_gamma 104.316858
_cell_volume 447.562947
_symmetry_space_group_name_H-M "P -1"
_symmetry_group_IT_number 2
_symmetry_cell_setting 'triclinic'
loop_
_space_group_symop_operation_xyz
x,y,z
-x,-y,-z
loop_
_atom_site_type_symbol
_atom_site_label
_atom_site_fract_x
_atom_site_fract_y
_atom_site_fract_z
Si Si1 0.620049 0.783991 0.545353
Si Si2 0.159573 0.842678 0.204126
Si Si3 0.650420 0.899140 0.112167
Si Si4 0.183774 0.366361 0.596728
Si Si5 0.929427 0.663101 0.755093
Si Si6 0.451691 0.577585 0.872843
O O1 0.685650 0.758007 0.446170
O O2 0.867279 0.784398 0.627351
O O3 0.406791 0.556597 0.611175
O O4 0.500000 0.000000 0.500000
O O5 0.617488 0.645881 0.139211
O O6 0.469549 0.922657 0.187270
O O7 0.011057 0.790485 0.307169
O O8 0.963290 0.981921 0.111738
O O9 0.124914 0.597139 0.214276
O O10 0.500000 0.000000 0.000000
O O11 0.000000 0.500000 0.500000
O O12 0.718340 0.706969 0.809321
O O13 0.210565 0.696330 0.811360
O O14 0.500000 0.500000 0.000000
#
# Coordination Sequence:
#
# PCOD9106069 Si02
#       6
#     2   2   2   2   2   2
#     4  11  25  44  69 104 146 188 245 298 355 427
#     4  10  20  39  67  91 129 181 226 272 356 425
#     4  10  21  38  64  92 128 169 222 291 344 412
#     4  11  23  43  72  98 143 194 238 291 362 437
#     4  10  20  40  66  90 130 183 221 280 353 421
#     4  10  21  39  64  90 127 174 223 280 354 421
#
# _framework density 26.811875000000001
#
# number of rings (size 3 to 8) (size 9 to 14) (size 15 to 20)
#    0.000    1.667    1.667    4.000    2.333    0.667 
#    3.000    0.000    3.667    0.000    0.000    0.000 
#    0.000    0.000    0.000    0.000    0.000    0.000 
#
# Total GULP energy -67207.054861 kJ/mol
# GULP energy per Si atom -5600.587905 kJ/mol
# Density = 2.675085 g / cm^3
# Si number density = 26.811875 Si / 1000 Ang^3
#
#
#
# Elastic Constant Matrix: (Units=GPa)
#
#
# Indices 1 2 3 4 5 6 
#
# 1 163.2041 73.1770 54.4337 -3.5061 23.9578 -22.1224
# 2 73.1770 137.7453 26.3524 7.9489 6.0321 -17.5747
# 3 54.4337 26.3524 145.6367 11.7842 15.8480 -19.1598
# 4 -3.5061 7.9489 11.7842 33.2934 -18.3341 0.3098
# 5 23.9578 6.0321 15.8480 -18.3341 55.0102 -2.7632
# 6 -22.1224 -17.5747 -19.1598 0.3098 -2.7632 63.5966
#
#
#
# Elastic Compliance Matrix: (Units=1/GPa)
#
#
# Indices 1 2 3 4 5 6 
#
# 1 0.009458 -0.004389 -0.002457 0.001620 -0.002328 0.001228
# 2 -0.004389 0.009887 0.000292 -0.003053 -0.000209 0.001299
# 3 -0.002457 0.000292 0.008713 -0.005133 -0.003096 0.001742
# 4 0.001620 -0.003053 -0.005133 0.040831 0.014647 -0.001389
# 5 -0.002328 -0.000209 -0.003096 0.014647 0.024949 -0.000788
# 6 0.001228 0.001299 0.001742 -0.001389 -0.000788 0.017007
#
#
# Mechanical properties :
#
#
# Convention : Reuss Voigt Hill
#
# Bulk Modulus (GPa) = 66.88979 83.83469 75.36224
# Shear Modulus (GPa) = 38.77861 49.88824 44.33343
#
# Velocity S-wave (km/s) = 3.80718 4.31824 4.07074
# Velocity P-wave (km/s) = 6.65794 7.49657 7.08966
#
# Compressibility (1/GPa) = 0.01494996
#
# Stress axis : x y z
#
# Youngs Moduli (GPa) = 105.73236 101.14507 114.76837
#
# Poissons Ratio (x) = 0.44396 0.28198
# Poissons Ratio (y) = 0.46409 -0.03355
# Poissons Ratio (z) = 0.25978 -0.02957
#
# Static dielectric constant tensor:
#      x y z
#    x 2.120920 0.026910 0.000510 
#    y 0.026910 2.141420 0.027360 
#    z 0.000510 0.027360 2.160450 
# 
# From -- ./inp_files/482538.got.cif
#   From: 2010.05.17/outbox.cif.g08.bks.cpg/sg2_242_cif.got.tgz:482538.got - 2010.06.03 11:33:40.
