data_PCOD9106147
_publ_section_title
;
Structure prediction by ZEFSAII (Michael W. Deem and Ramdas Pophale) SiO2 
 PCOD9106147
Probable space group: P -1
;
_chemical_formula_sum "Si O2"
_cell_formula_units_Z 16
_cell_length_a 14.305210
_cell_length_b 10.218260
_cell_length_c 9.104114
_cell_angle_alpha 56.979817
_cell_angle_beta 99.225526
_cell_angle_gamma 136.008376
_cell_volume 711.013192
_symmetry_space_group_name_H-M "P -1"
_symmetry_group_IT_number 2
_symmetry_cell_setting 'triclinic'
loop_
_space_group_symop_operation_xyz
x,y,z
-x,-y,-z
loop_
_atom_site_type_symbol
_atom_site_label
_atom_site_fract_x
_atom_site_fract_y
_atom_site_fract_z
Si Si1 0.970814 0.141998 0.349900
Si Si2 0.911003 0.673007 0.043357
Si Si3 0.786345 0.780680 0.133144
Si Si4 0.638853 0.740685 0.476099
Si Si5 0.427998 0.720208 0.510947
Si Si6 0.416987 0.046849 0.285516
Si Si7 0.100725 0.665954 0.565232
Si Si8 0.500676 0.591963 0.096386
O O1 0.961801 0.265562 0.398027
O O2 0.079872 0.325477 0.131725
O O3 0.807632 0.943491 0.357296
O O4 0.000000 0.000000 0.500000
O O5 0.808917 0.689909 0.057897
O O6 0.884444 0.473899 0.243241
O O7 0.066816 0.939961 0.973604
O O8 0.712923 0.568826 0.361538
O O9 0.657527 0.742505 0.108401
O O10 0.500000 0.500000 0.500000
O O11 0.579978 0.842734 0.413826
O O12 0.622992 0.628356 0.694785
O O13 0.388528 0.834332 0.367287
O O14 0.470047 0.796430 0.646358
O O15 0.260886 0.912670 0.388232
O O16 0.491186 0.220658 0.059535
O O17 0.000000 0.500000 0.500000
O O18 0.500000 0.500000 0.000000
#
# Coordination Sequence:
#
# PCOD9106147 Si02
#       8
#     2   2   2   2   2   2   2   2
#     4  12  28  45  68 103 145 190 230 285 351 420
#     4  11  25  42  68  94 143 180 232 274 351 411
#     4  10  21  39  68 101 125 182 225 282 339 418
#     4  11  24  44  67  97 138 178 222 281 351 411
#     4  10  20  39  67  96 125 166 221 283 335 397
#     4  11  21  38  67 100 123 163 226 286 334 388
#     4  12  26  45  68 100 144 182 234 284 346 421
#     4  11  20  37  66  95 126 161 228 275 334 394
#
# _framework density 22.5031
#
# number of rings (size 3 to 8) (size 9 to 14) (size 15 to 20)
#    0.000    1.000    5.000    2.625    7.000    1.000 
#    0.000    0.625    0.000    0.000    0.000    0.000 
#    0.000    0.000    0.000    0.000    0.000    0.000 
#
# Total GULP energy -89204.004121 kJ/mol
# GULP energy per Si atom -5575.250258 kJ/mol
# Density = 2.245188 g / cm^3
# Si number density = 22.503100 Si / 1000 Ang^3
#
#
#
# Elastic Constant Matrix: (Units=GPa)
#
#
# Indices 1 2 3 4 5 6 
#
# 1 83.6627 -10.0844 21.5255 1.7461 -0.7500 -17.7336
# 2 -10.0844 77.5242 -7.0100 -9.8657 -1.9584 -13.1930
# 3 21.5255 -7.0100 85.5659 1.2446 -2.5196 -11.7332
# 4 1.7461 -9.8657 1.2446 28.1568 1.6706 -7.8493
# 5 -0.7500 -1.9584 -2.5196 1.6706 38.1487 -10.2147
# 6 -17.7336 -13.1930 -11.7332 -7.8493 -10.2147 29.4002
#
#
#
# Elastic Compliance Matrix: (Units=1/GPa)
#
#
# Indices 1 2 3 4 5 6 
#
# 1 0.015782 0.004858 -0.001663 0.004343 0.003886 0.013545
# 2 0.004858 0.018001 0.002523 0.010197 0.005167 0.016533
# 3 -0.001663 0.002523 0.013319 0.002182 0.002751 0.006983
# 4 0.004343 0.010197 0.002182 0.044451 0.004569 0.021521
# 5 0.003886 0.005167 0.002751 0.004569 0.031319 0.017862
# 6 0.013545 0.016533 0.006983 0.021521 0.017862 0.064340
#
#
# Mechanical properties :
#
#
# Convention : Reuss Voigt Hill
#
# Bulk Modulus (GPa) = 17.08287 28.40166 22.74226
# Shear Modulus (GPa) = 25.60326 35.29592 30.44959
#
# Velocity S-wave (km/s) = 3.37674 3.96472 3.68248
# Velocity P-wave (km/s) = 4.77608 5.79718 5.31122
#
# Compressibility (1/GPa) = 0.05853817
#
# Stress axis : x y z
#
# Youngs Moduli (GPa) = 63.36460 55.55246 75.08160
#
# Poissons Ratio (x) = -0.26990 0.12490
# Poissons Ratio (y) = -0.30785 -0.18946
# Poissons Ratio (z) = 0.10540 -0.14018
#
# Static dielectric constant tensor:
#      x y z
#    x 1.821760 0.004240 -0.080700 
#    y 0.004240 1.872820 0.085080 
#    z -0.080700 0.085080 1.875430 
# 
# From -- ./inp_files/306547.got.cif
#   From: 2010.05.17/outbox.cif.g08.bks.cpg/sg2_154_cif.got.tgz:306547.got - 2010.06.03 11:33:40.
