data_PCOD9106676
_publ_section_title
;
Structure prediction by ZEFSAII (Michael W. Deem and Ramdas Pophale) SiO2 
 PCOD9106676
Probable space group: P -1
;
_chemical_formula_sum "Si O2"
_cell_formula_units_Z 16
_cell_length_a 12.758194
_cell_length_b 12.820074
_cell_length_c 9.241852
_cell_angle_alpha 92.774870
_cell_angle_beta 144.880701
_cell_angle_gamma 91.025371
_cell_volume 864.219703
_symmetry_space_group_name_H-M "P -1"
_symmetry_group_IT_number 2
_symmetry_cell_setting 'triclinic'
loop_
_space_group_symop_operation_xyz
x,y,z
-x,-y,-z
loop_
_atom_site_type_symbol
_atom_site_label
_atom_site_fract_x
_atom_site_fract_y
_atom_site_fract_z
Si Si1 0.210518 0.206942 0.602392
Si Si2 0.751223 0.233044 0.793690
Si Si3 0.505704 0.604933 0.426070
Si Si4 0.806135 0.226119 0.192638
Si Si5 0.825257 0.785241 0.777734
Si Si6 0.690425 0.995236 0.135456
Si Si7 0.420376 0.083898 0.312378
Si Si8 0.525132 0.386706 0.950471
O O1 0.221289 0.189722 0.440247
O O2 0.213890 0.096112 0.680509
O O3 0.373471 0.295576 0.830280
O O4 0.021586 0.254638 0.423484
O O5 0.678217 0.345910 0.729065
O O6 0.597131 0.170141 0.516207
O O7 0.736644 0.200259 0.946394
O O8 0.958351 0.226403 0.975398
O O9 0.500000 0.500000 0.500000
O O10 0.690996 0.682820 0.665562
O O11 0.501764 0.593017 0.248633
O O12 0.778713 0.115565 0.238866
O O13 0.706457 0.322239 0.152661
O O14 0.754316 0.874318 0.803821
O O15 0.645011 0.957733 0.919004
O O16 0.500000 0.000000 0.000000
O O17 0.500000 0.000000 0.500000
O O18 0.500000 0.500000 0.000000
#
# Coordination Sequence:
#
# PCOD9106676 Si02
#       8
#     2   2   2   2   2   2   2   2
#     4  10  21  39  61  86 117 153 192 235 289 342
#     4   9  19  38  60  83 113 150 188 233 282 335
#     4   9  19  36  59  81 112 147 187 235 285 336
#     4  10  20  40  60  84 117 155 192 233 288 343
#     4   9  20  39  59  83 113 149 190 232 282 337
#     4  12  22  38  60  85 123 158 186 232 285 344
#     4  11  21  36  56  83 116 148 189 227 273 334
#     4  10  21  38  60  82 113 153 193 238 288 336
#
# _framework density 18.513812000000001
#
# number of rings (size 3 to 8) (size 9 to 14) (size 15 to 20)
#    0.000    2.000    2.500    1.875    0.000    3.500 
#    4.500    0.000    0.000    0.000    0.000    0.000 
#    0.000    0.000    0.000    0.000    0.000    0.000 
#
# Total GULP energy -89101.001991 kJ/mol
# GULP energy per Si atom -5568.812624 kJ/mol
# Density = 1.847167 g / cm^3
# Si number density = 18.513812 Si / 1000 Ang^3
#
#
#
# Elastic Constant Matrix: (Units=GPa)
#
#
# Indices 1 2 3 4 5 6 
#
# 1 108.2592 54.5350 30.6761 -5.9990 24.0505 -21.9896
# 2 54.5350 113.0028 23.2476 -26.2382 -1.2347 -8.3059
# 3 30.6761 23.2476 40.6673 -14.5795 17.0052 -11.4233
# 4 -5.9990 -26.2382 -14.5795 21.0994 -2.7021 -10.0162
# 5 24.0505 -1.2347 17.0052 -2.7021 26.1348 -9.9664
# 6 -21.9896 -8.3059 -11.4233 -10.0162 -9.9664 37.8730
#
#
#
# Elastic Compliance Matrix: (Units=1/GPa)
#
#
# Indices 1 2 3 4 5 6 
#
# 1 0.020447 -0.013418 -0.009535 -0.021618 -0.017066 -0.004155
# 2 -0.013418 0.025193 0.007874 0.043310 0.019232 0.016624
# 3 -0.009535 0.007874 0.064057 0.062695 -0.015354 0.028052
# 4 -0.021618 0.043310 0.062695 0.174235 0.025321 0.068599
# 5 -0.017066 0.019232 -0.015354 0.025321 0.073476 0.015710
# 6 -0.004155 0.016624 0.028052 0.068599 0.015710 0.058375
#
#
# Mechanical properties :
#
#
# Convention : Reuss Voigt Hill
#
# Bulk Modulus (GPa) = 12.57206 53.20521 32.88863
# Shear Modulus (GPa) = 10.58305 27.25281 18.91793
#
# Velocity S-wave (km/s) = 2.39347 3.84086 3.20007
# Velocity P-wave (km/s) = 3.80048 6.96205 5.60864
#
# Compressibility (1/GPa) = 0.07954144
#
# Stress axis : x y z
#
# Youngs Moduli (GPa) = 48.90574 39.69368 15.61102
#
# Poissons Ratio (x) = 0.53260 0.14885
# Poissons Ratio (y) = 0.65621 -0.12293
# Poissons Ratio (z) = 0.46630 -0.31256
#
# Static dielectric constant tensor:
#      x y z
#    x 1.638270 0.010000 -0.007170 
#    y 0.010000 1.677330 0.013340 
#    z -0.007170 0.013340 1.654960 
# 
# From -- ./inp_files/258701.got.cif
#   From: 2010.05.17/outbox.cif.g08.bks.cpg/sg2_130_cif.got.tgz:258701.got - 2010.06.03 11:33:40.
