data_PCOD9106403
_publ_section_title
;
Structure prediction by ZEFSAII (Michael W. Deem and Ramdas Pophale) SiO2 
 PCOD9106403
Probable space group: P -1
;
_chemical_formula_sum "Si O2"
_cell_formula_units_Z 16
_cell_length_a 5.335909
_cell_length_b 6.255925
_cell_length_c 23.258729
_cell_angle_alpha 109.564737
_cell_angle_beta 109.832204
_cell_angle_gamma 71.565233
_cell_volume 669.964114
_symmetry_space_group_name_H-M "P -1"
_symmetry_group_IT_number 2
_symmetry_cell_setting 'triclinic'
loop_
_space_group_symop_operation_xyz
x,y,z
-x,-y,-z
loop_
_atom_site_type_symbol
_atom_site_label
_atom_site_fract_x
_atom_site_fract_y
_atom_site_fract_z
Si Si1 0.036394 0.791602 0.274404
Si Si2 0.956222 0.659192 0.382890
Si Si3 0.390985 0.169997 0.352420
Si Si4 0.232887 0.898701 0.814208
Si Si5 0.444871 0.575153 0.708794
Si Si6 0.378764 0.793958 0.507552
Si Si7 0.188501 0.638316 0.993500
Si Si8 0.152120 0.099364 0.107807
O O1 0.920950 0.769389 0.326792
O O2 0.261427 0.556192 0.257780
O O3 0.219548 0.979249 0.314098
O O4 0.839471 0.878657 0.213875
O O5 0.175145 0.412248 0.370652
O O6 0.095646 0.788964 0.453069
O O7 0.670544 0.582847 0.361324
O O8 0.528640 0.204759 0.306406
O O9 0.597711 0.125600 0.417935
O O10 0.247926 0.670529 0.754856
O O11 0.540881 0.867823 0.858137
O O12 0.002130 0.924150 0.846771
O O13 0.500000 0.500000 0.500000
O O14 0.500000 0.000000 0.500000
O O15 0.500000 0.500000 0.000000
O O16 0.180936 0.869382 0.050633
O O17 0.049446 0.701860 0.926509
O O18 0.000000 0.500000 0.000000
#
# Coordination Sequence:
#
# PCOD9106403 Si02
#       8
#     2   2   2   2   2   2   2   2
#     4  11  24  42  67  92 141 191 237 304 380 449
#     4  10  22  41  65  94 131 185 245 308 386 462
#     4  10  21  43  64  93 138 183 247 316 394 455
#     4  12  26  47  70 105 154 191 246 303 357 446
#     4  11  26  41  65 100 138 191 248 307 374 458
#     4  10  20  39  69  98 135 186 254 330 403 487
#     4  11  24  49  80 110 152 195 237 299 360 422
#     4  11  27  47  73 114 149 192 246 298 356 433
#
# _framework density 23.881875000000001
#
# number of rings (size 3 to 8) (size 9 to 14) (size 15 to 20)
#    0.000    1.250    2.500    2.250    5.250    5.500 
#    0.000    0.625    0.000    0.000    0.000    0.000 
#    0.000    0.000    0.000    0.000    0.000    0.000 
#
# Total GULP energy -89387.304260 kJ/mol
# GULP energy per Si atom -5586.706516 kJ/mol
# Density = 2.382752 g / cm^3
# Si number density = 23.881875 Si / 1000 Ang^3
#
#
#
# Elastic Constant Matrix: (Units=GPa)
#
#
# Indices 1 2 3 4 5 6 
#
# 1 94.3287 33.1015 26.4100 -9.1369 11.4989 -6.0471
# 2 33.1015 110.1408 34.0642 -23.8281 8.2726 -2.6697
# 3 26.4100 34.0642 111.1377 -13.7074 18.2802 -6.1021
# 4 -9.1369 -23.8281 -13.7074 47.0844 -0.5327 11.3473
# 5 11.4989 8.2726 18.2802 -0.5327 53.7369 -1.3953
# 6 -6.0471 -2.6697 -6.1021 11.3473 -1.3953 46.3183
#
#
#
# Elastic Compliance Matrix: (Units=1/GPa)
#
#
# Indices 1 2 3 4 5 6 
#
# 1 0.012417 -0.003047 -0.001683 0.000081 -0.001585 0.001156
# 2 -0.003047 0.011779 -0.002277 0.005006 -0.000370 -0.001256
# 3 -0.001683 -0.002277 0.010794 0.001481 -0.002931 0.000620
# 4 0.000081 0.005006 0.001481 0.025606 -0.001189 -0.005815
# 5 -0.001585 -0.000370 -0.002931 -0.001189 0.019998 0.000279
# 6 0.001156 -0.001256 0.000620 -0.005815 0.000279 0.023183
#
#
# Mechanical properties :
#
#
# Convention : Reuss Voigt Hill
#
# Bulk Modulus (GPa) = 47.67013 55.86205 51.76609
# Shear Modulus (GPa) = 40.06954 44.23003 42.14978
#
# Velocity S-wave (km/s) = 4.10057 4.30819 4.20566
# Velocity P-wave (km/s) = 6.51334 6.94184 6.73100
#
# Compressibility (1/GPa) = 0.02097750
#
# Stress axis : x y z
#
# Youngs Moduli (GPa) = 80.53724 84.89329 92.64050
#
# Poissons Ratio (x) = 0.25864 0.15588
# Poissons Ratio (y) = 0.24537 0.21097
# Poissons Ratio (z) = 0.13551 0.19332
#
# Static dielectric constant tensor:
#      x y z
#    x 1.917430 -0.025010 0.000330 
#    y -0.025010 2.035600 0.005960 
#    z 0.000330 0.005960 1.883690 
# 
# From -- ./inp_files/114545.got.cif
#   From: 2010.05.17/outbox.cif.g08.bks.cpg/sg2_58_cif.got.tgz:114545.got - 2010.06.03 11:33:40.
