data_PCOD9106424
_publ_section_title
;
Structure prediction by ZEFSAII (Michael W. Deem and Ramdas Pophale) SiO2 
 PCOD9106424
Probable space group: P -1
;
_chemical_formula_sum "Si O2"
_cell_formula_units_Z 16
_cell_length_a 8.085585
_cell_length_b 10.439053
_cell_length_c 13.886685
_cell_angle_alpha 124.960404
_cell_angle_beta 47.131115
_cell_angle_gamma 99.465858
_cell_volume 652.603562
_symmetry_space_group_name_H-M "P -1"
_symmetry_group_IT_number 2
_symmetry_cell_setting 'triclinic'
loop_
_space_group_symop_operation_xyz
x,y,z
-x,-y,-z
loop_
_atom_site_type_symbol
_atom_site_label
_atom_site_fract_x
_atom_site_fract_y
_atom_site_fract_z
Si Si1 0.131803 0.405644 0.807867
Si Si2 0.209792 0.572063 0.656843
Si Si3 0.142719 0.839252 0.180589
Si Si4 0.054404 0.328323 0.488224
Si Si5 0.510745 0.821169 0.873106
Si Si6 0.698504 0.177462 0.519594
Si Si7 0.652648 0.013563 0.666716
Si Si8 0.245269 0.896455 0.809146
O O1 0.133260 0.537971 0.780664
O O2 0.414896 0.268864 0.640924
O O3 0.974520 0.292423 0.796394
O O4 0.000000 0.500000 0.000000
O O5 0.500000 0.500000 0.500000
O O6 0.088910 0.477688 0.595774
O O7 0.172061 0.760734 0.723348
O O8 0.305992 0.876916 0.215336
O O9 0.335318 0.767083 0.987081
O O10 0.919670 0.015444 0.314276
O O11 0.212191 0.286060 0.309507
O O12 0.793804 0.328465 0.563390
O O13 0.166727 0.171544 0.451758
O O14 0.409899 0.822258 0.805848
O O15 0.500000 0.000000 0.000000
O O16 0.703381 0.088639 0.581749
O O17 0.390483 0.000603 0.749979
O O18 0.000000 0.000000 0.000000
#
# Coordination Sequence:
#
# PCOD9106424 Si02
#       8
#     2   2   2   2   2   2   2   2
#     4  12  29  46  67 103 146 186 230 298 352 412
#     4  12  24  48  71  96 145 190 227 284 357 423
#     4  11  22  42  73 100 139 182 233 290 350 411
#     4  10  21  43  72 104 141 185 233 287 357 412
#     4  11  19  40  67 104 141 177 226 295 345 402
#     4  11  23  43  72 103 137 180 243 278 351 423
#     4  10  20  39  70 102 131 179 230 284 343 414
#     4  11  25  41  69 101 133 177 237 285 344 415
#
# _framework density 24.517181999999998
#
# number of rings (size 3 to 8) (size 9 to 14) (size 15 to 20)
#    0.000    1.000    6.250    4.125    3.500    1.000 
#    2.250    1.875    0.000    0.000    0.000    0.000 
#    0.000    0.000    0.000    0.000    0.000    0.000 
#
# Total GULP energy -89331.571429 kJ/mol
# GULP energy per Si atom -5583.223214 kJ/mol
# Density = 2.446138 g / cm^3
# Si number density = 24.517182 Si / 1000 Ang^3
#
#
#
# Elastic Constant Matrix: (Units=GPa)
#
#
# Indices 1 2 3 4 5 6 
#
# 1 91.3704 59.0423 29.4506 -12.8518 6.7437 28.6499
# 2 59.0423 129.3910 42.5986 -35.6439 0.2223 41.2866
# 3 29.4506 42.5986 112.5683 -31.4826 6.8951 13.0943
# 4 -12.8518 -35.6439 -31.4826 48.7433 11.5188 1.6040
# 5 6.7437 0.2223 6.8951 11.5188 35.8444 0.1114
# 6 28.6499 41.2866 13.0943 1.6040 0.1114 62.8886
#
#
#
# Elastic Compliance Matrix: (Units=1/GPa)
#
#
# Indices 1 2 3 4 5 6 
#
# 1 0.016545 -0.006125 -0.001601 -0.000428 -0.002619 -0.003167
# 2 -0.006125 0.016191 -0.000448 0.010740 -0.002288 -0.008016
# 3 -0.001601 -0.000448 0.012310 0.008381 -0.004752 -0.001745
# 4 -0.000428 0.010740 0.008381 0.037177 -0.013516 -0.009525
# 5 -0.002619 -0.002288 -0.004752 -0.013516 0.033650 0.003970
# 6 -0.003167 -0.008016 -0.001745 -0.009525 0.003970 0.023205
#
#
# Mechanical properties :
#
#
# Convention : Reuss Voigt Hill
#
# Bulk Modulus (GPa) = 34.84779 66.16807 50.50793
# Shear Modulus (GPa) = 30.30400 42.97784 36.64092
#
# Velocity S-wave (km/s) = 3.51954 4.19139 3.87007
# Velocity P-wave (km/s) = 5.54623 7.10427 6.37304
#
# Compressibility (1/GPa) = 0.02869622
#
# Stress axis : x y z
#
# Youngs Moduli (GPa) = 60.44186 61.76156 81.23373
#
# Poissons Ratio (x) = 0.37830 0.13009
# Poissons Ratio (y) = 0.37021 0.03643
# Poissons Ratio (z) = 0.09680 0.02770
#
# Static dielectric constant tensor:
#      x y z
#    x 1.887400 0.038740 0.009330 
#    y 0.038740 1.940760 -0.038100 
#    z 0.009330 -0.038100 1.979390 
# 
# From -- ./inp_files/500768.got.cif
#   From: 2010.05.17/outbox.cif.g08.bks.cpg/sg2_251_cif.got.tgz:500768.got - 2010.06.03 11:33:40.
