data_PCOD9106635
_publ_section_title
;
Structure prediction by ZEFSAII (Michael W. Deem and Ramdas Pophale) SiO2 
 PCOD9106635
Probable space group: P -1
;
_chemical_formula_sum "Si O2"
_cell_formula_units_Z 16
_cell_length_a 12.533170
_cell_length_b 8.798949
_cell_length_c 7.344995
_cell_angle_alpha 122.951600
_cell_angle_beta 81.498181
_cell_angle_gamma 86.283240
_cell_volume 661.849547
_symmetry_space_group_name_H-M "P -1"
_symmetry_group_IT_number 2
_symmetry_cell_setting 'triclinic'
loop_
_space_group_symop_operation_xyz
x,y,z
-x,-y,-z
loop_
_atom_site_type_symbol
_atom_site_label
_atom_site_fract_x
_atom_site_fract_y
_atom_site_fract_z
Si Si1 0.213970 0.016878 0.691736
Si Si2 0.079500 0.512900 0.160794
Si Si3 0.366488 0.217137 0.591670
Si Si4 0.999967 0.894007 0.618798
Si Si5 0.186092 0.167576 0.140772
Si Si6 0.379607 0.349012 0.319139
Si Si7 0.302909 0.641322 0.220845
Si Si8 0.476058 0.826134 0.133344
O O1 0.093495 0.979840 0.752382
O O2 0.259072 0.835671 0.453019
O O3 0.246045 0.181015 0.665837
O O4 0.262022 0.041494 0.894293
O O5 0.027987 0.678202 0.418775
O O6 0.107850 0.322153 0.140200
O O7 0.198896 0.563780 0.116408
O O8 0.000000 0.500000 0.000000
O O9 0.392043 0.372977 0.546978
O O10 0.430736 0.230386 0.772103
O O11 0.419681 0.029637 0.347243
O O12 0.886130 0.932700 0.776028
O O13 0.000000 0.000000 0.500000
O O14 0.265431 0.271859 0.300644
O O15 0.356596 0.516378 0.292855
O O16 0.472025 0.206437 0.099670
O O17 0.389606 0.688778 0.087100
#
# Coordination Sequence:
#
# PCOD9106635 Si02
#       8
#     2   2   2   2   2   2   2   2
#     4  10  20  40  59  87 124 161 203 250 316 358
#     4  10  22  41  65  90 123 164 208 252 316 371
#     4  10  21  37  65  90 123 169 204 256 305 376
#     4  11  22  38  61  89 124 157 207 260 307 369
#     4  11  22  39  64  90 123 168 208 255 309 375
#     4  11  21  38  63  93 124 163 213 252 310 368
#     4   9  22  39  63  90 127 159 202 265 305 366
#     4  10  20  40  63  88 130 161 207 254 313 363
#
# _framework density 24.174676999999999
#
# number of rings (size 3 to 8) (size 9 to 14) (size 15 to 20)
#    0.000    1.750    1.250    3.000    0.000    0.500 
#    0.000    1.250    8.250    0.000    0.000    0.000 
#    0.000    0.000    0.000    0.000    0.000    0.000 
#
# Total GULP energy -89342.042329 kJ/mol
# GULP energy per Si atom -5583.877646 kJ/mol
# Density = 2.411965 g / cm^3
# Si number density = 24.174677 Si / 1000 Ang^3
#
#
#
# Elastic Constant Matrix: (Units=GPa)
#
#
# Indices 1 2 3 4 5 6 
#
# 1 76.3021 25.7746 29.2695 -14.6949 -11.3997 18.9860
# 2 25.7746 75.7014 36.5974 -7.3175 -5.1322 13.6105
# 3 29.2695 36.5974 104.9484 -11.6479 -5.4034 26.0708
# 4 -14.6949 -7.3175 -11.6479 45.2923 12.0129 -8.7139
# 5 -11.3997 -5.1322 -5.4034 12.0129 32.7318 -17.5793
# 6 18.9860 13.6105 26.0708 -8.7139 -17.5793 25.5070
#
#
#
# Elastic Compliance Matrix: (Units=1/GPa)
#
#
# Indices 1 2 3 4 5 6 
#
# 1 0.017579 -0.003522 -0.000899 0.003289 -0.001122 -0.009936
# 2 -0.003522 0.016903 -0.004351 0.000185 -0.000597 -0.002299
# 3 -0.000899 -0.004351 0.015675 0.001862 -0.009125 -0.018683
# 4 0.003289 0.000185 0.001862 0.025669 -0.008922 -0.001830
# 5 -0.001122 -0.000597 -0.009125 -0.008922 0.056882 0.046636
# 6 -0.009936 -0.002299 -0.018683 -0.001830 0.046636 0.098439
#
#
# Mechanical properties :
#
#
# Convention : Reuss Voigt Hill
#
# Bulk Modulus (GPa) = 30.66380 48.91498 39.78939
# Shear Modulus (GPa) = 19.26323 31.72692 25.49507
#
# Velocity S-wave (km/s) = 2.82589 3.62664 3.25101
# Velocity P-wave (km/s) = 4.83315 6.14936 5.53055
#
# Compressibility (1/GPa) = 0.03261175
#
# Stress axis : x y z
#
# Youngs Moduli (GPa) = 56.88761 59.15973 63.79743
#
# Poissons Ratio (x) = 0.20838 0.05734
# Poissons Ratio (y) = 0.20038 0.27761
# Poissons Ratio (z) = 0.05113 0.25742
#
# Static dielectric constant tensor:
#      x y z
#    x 58.710100 16.727930 25.737850 
#    y 16.727930 6.931290 7.621080 
#    z 25.737850 7.621080 13.614560 
# 
# From -- ./inp_files/90928.got.cif
#   From: 2010.05.17/outbox.cif.g08.bks.cpg/sg2_46_cif.got.tgz:90928.got - 2010.06.03 11:33:40.
