data_PCOD9106632
_publ_section_title
;
Structure prediction by ZEFSAII (Michael W. Deem and Ramdas Pophale) SiO2 
 PCOD9106632
Probable space group: P -1
;
_chemical_formula_sum "Si O2"
_cell_formula_units_Z 16
_cell_length_a 5.142916
_cell_length_b 9.474227
_cell_length_c 21.337798
_cell_angle_alpha 45.334638
_cell_angle_beta 92.337769
_cell_angle_gamma 102.822958
_cell_volume 710.987691
_symmetry_space_group_name_H-M "P -1"
_symmetry_group_IT_number 2
_symmetry_cell_setting 'triclinic'
loop_
_space_group_symop_operation_xyz
x,y,z
-x,-y,-z
loop_
_atom_site_type_symbol
_atom_site_label
_atom_site_fract_x
_atom_site_fract_y
_atom_site_fract_z
Si Si1 0.833516 0.732958 0.477811
Si Si2 0.298892 0.446652 0.854092
Si Si3 0.097213 0.266277 0.247376
Si Si4 0.653538 0.244799 0.611506
Si Si5 0.698203 0.600864 0.269298
Si Si6 0.076013 0.974648 0.227609
Si Si7 0.103113 0.319116 0.367886
Si Si8 0.203361 0.366626 0.019398
O O1 0.703325 0.482966 0.556855
O O2 0.615612 0.819736 0.412137
O O3 0.881586 0.792305 0.532055
O O4 0.101834 0.762093 0.430458
O O5 0.604891 0.593825 0.812390
O O6 0.268785 0.323784 0.826496
O O7 0.213061 0.337953 0.953437
O O8 0.102491 0.591663 0.799510
O O9 0.000161 0.095759 0.247494
O O10 0.101655 0.196512 0.341217
O O11 0.683808 0.110352 0.714243
O O12 0.381305 0.503176 0.307351
O O13 0.852157 0.421112 0.335213
O O14 0.844258 0.779870 0.262123
O O15 0.147834 0.145941 0.121116
O O16 0.500000 0.500000 0.000000
O O17 0.000000 0.500000 0.000000
#
# Coordination Sequence:
#
# PCOD9106632 Si02
#       8
#     2   2   2   2   2   2   2   2
#     4  10  20  40  59  85 128 162 203 240 324 371
#     4  10  20  44  58  91 120 174 198 246 314 375
#     4  10  22  38  66  85 129 159 210 245 313 373
#     4  10  23  34  60  93 121 160 200 266 297 365
#     4  10  23  35  65  92 127 151 215 257 303 357
#     4  12  24  41  63 101 122 159 215 266 300 358
#     4  10  20  41  62  90 120 175 195 250 315 379
#     4  12  24  41  66  89 127 169 206 247 314 376
#
# _framework density 22.503906000000001
#
# number of rings (size 3 to 8) (size 9 to 14) (size 15 to 20)
#    0.000    1.500    3.750    0.750    3.500    4.500 
#    0.000    1.250    0.000    6.000    0.000    0.000 
#    0.000    0.000    0.000    0.000    0.000    0.000 
#
# Total GULP energy -89490.381727 kJ/mol
# GULP energy per Si atom -5593.148858 kJ/mol
# Density = 2.245269 g / cm^3
# Si number density = 22.503906 Si / 1000 Ang^3
#
#
#
# Elastic Constant Matrix: (Units=GPa)
#
#
# Indices 1 2 3 4 5 6 
#
# 1 98.0261 -3.8729 19.5805 9.8371 7.7699 1.0229
# 2 -3.8729 130.4678 25.1416 35.5705 -0.0682 12.3671
# 3 19.5805 25.1416 167.7396 38.8478 10.2115 2.0777
# 4 9.8371 35.5705 38.8478 46.9615 0.9038 3.7175
# 5 7.7699 -0.0682 10.2115 0.9038 25.4693 5.6162
# 6 1.0229 12.3671 2.0777 3.7175 5.6162 23.0973
#
#
#
# Elastic Compliance Matrix: (Units=1/GPa)
#
#
# Indices 1 2 3 4 5 6 
#
# 1 0.010869 0.001130 -0.000673 -0.002527 -0.002976 0.000105
# 2 0.001130 0.010210 0.000131 -0.007740 0.000897 -0.004501
# 3 -0.000673 0.000131 0.007642 -0.006303 -0.002850 0.000980
# 4 -0.002527 -0.007740 -0.006303 0.032937 0.002339 -0.001047
# 5 -0.002976 0.000897 -0.002850 0.002339 0.043678 -0.011089
# 6 0.000105 -0.004501 0.000980 -0.001047 -0.011089 0.048477
#
#
# Mechanical properties :
#
#
# Convention : Reuss Voigt Hill
#
# Bulk Modulus (GPa) = 33.44817 53.10352 43.27585
# Shear Modulus (GPa) = 30.74972 42.79790 36.77381
#
# Velocity S-wave (km/s) = 3.70052 4.36569 4.04680
# Velocity P-wave (km/s) = 5.75795 7.00436 6.41151
#
# Compressibility (1/GPa) = 0.02989700
#
# Stress axis : x y z
#
# Youngs Moduli (GPa) = 92.00639 97.94030 130.86404
#
# Poissons Ratio (x) = -0.11065 0.08807
# Poissons Ratio (y) = -0.10394 -0.01720
# Poissons Ratio (z) = 0.06192 -0.01287
#
# Static dielectric constant tensor:
#      x y z
#    x 1.802390 -0.003730 -0.004160 
#    y -0.003730 1.863470 0.008330 
#    z -0.004160 0.008330 1.880720 
# 
# From -- ./inp_files/582268.got.cif
#   From: 2010.05.17/outbox.cif.g08.bks.cpg/sg2_292_cif.got.tgz:582268.got - 2010.06.03 11:33:40.
