data_PCOD9106250
_publ_section_title
;
Structure prediction by ZEFSAII (Michael W. Deem and Ramdas Pophale) SiO2 
 PCOD9106250
Probable space group: P -1
;
_chemical_formula_sum "Si O2"
_cell_formula_units_Z 16
_cell_length_a 17.799521
_cell_length_b 6.590109
_cell_length_c 9.283901
_cell_angle_alpha 133.373986
_cell_angle_beta 73.372291
_cell_angle_gamma 92.921565
_cell_volume 741.738852
_symmetry_space_group_name_H-M "P -1"
_symmetry_group_IT_number 2
_symmetry_cell_setting 'triclinic'
loop_
_space_group_symop_operation_xyz
x,y,z
-x,-y,-z
loop_
_atom_site_type_symbol
_atom_site_label
_atom_site_fract_x
_atom_site_fract_y
_atom_site_fract_z
Si Si1 0.415130 0.686419 0.584238
Si Si2 0.453889 0.135893 0.948160
Si Si3 0.173240 0.312235 0.297663
Si Si4 0.713158 0.704327 0.509612
Si Si5 0.407602 0.798242 0.319102
Si Si6 0.879846 0.266894 0.689535
Si Si7 0.946088 0.604514 0.342055
Si Si8 0.849705 0.289419 0.053304
O O1 0.500000 0.500000 0.500000
O O2 0.353149 0.481030 0.512756
O O3 0.420468 0.832050 0.498079
O O4 0.394553 0.936312 0.834335
O O5 0.520946 0.135881 0.787730
O O6 0.410100 0.462237 0.143257
O O7 0.500000 0.000000 0.000000
O O8 0.244816 0.235790 0.336001
O O9 0.182138 0.559923 0.304322
O O10 0.095928 0.431660 0.500295
O O11 0.159225 0.036680 0.083832
O O12 0.778032 0.508527 0.275757
O O13 0.671357 0.993039 0.593818
O O14 0.961509 0.385820 0.689955
O O15 0.902430 0.929033 0.479601
O O16 0.852200 0.317955 0.893885
O O17 0.927197 0.372457 0.126666
#
# Coordination Sequence:
#
# PCOD9106250 Si02
#       8
#     2   2   2   2   2   2   2   2
#     4  12  24  43  67  93 122 159 213 261 317 383
#     4  11  23  42  67  97 120 149 206 269 316 379
#     4  10  23  41  60  91 132 167 210 257 309 377
#     4  11  26  43  60  89 131 170 207 256 323 378
#     4  11  24  42  68  89 125 160 202 266 321 375
#     4  10  20  39  68  93 128 166 212 260 309 362
#     4   9  20  39  64  97 126 165 211 263 308 364
#     4  10  23  40  60  91 132 165 213 254 309 384
#
# _framework density 21.570931999999999
#
# number of rings (size 3 to 8) (size 9 to 14) (size 15 to 20)
#    0.000    1.500    2.500    1.125    0.000    9.500 
#    0.000    0.000    0.000    0.000    0.000    0.000 
#    0.000    0.000    0.000    0.000    0.000    0.000 
#
# Total GULP energy -89449.924865 kJ/mol
# GULP energy per Si atom -5590.620304 kJ/mol
# Density = 2.152184 g / cm^3
# Si number density = 21.570932 Si / 1000 Ang^3
#
#
#
# Elastic Constant Matrix: (Units=GPa)
#
#
# Indices 1 2 3 4 5 6 
#
# 1 70.8702 32.7496 22.1431 1.4861 19.4633 -0.0171
# 2 32.7496 122.0449 33.5478 3.5342 14.2363 -26.4222
# 3 22.1431 33.5478 96.5615 16.0803 27.0080 -10.9221
# 4 1.4861 3.5342 16.0803 26.0565 8.0120 3.0522
# 5 19.4633 14.2363 27.0080 8.0120 35.7723 2.1324
# 6 -0.0171 -26.4222 -10.9221 3.0522 2.1324 39.5777
#
#
#
# Elastic Compliance Matrix: (Units=1/GPa)
#
#
# Indices 1 2 3 4 5 6 
#
# 1 0.018726 -0.004507 -0.001436 0.003218 -0.007839 -0.003223
# 2 -0.004507 0.011638 -0.001721 -0.000775 -0.001149 0.007414
# 3 -0.001436 -0.001721 0.015373 -0.006937 -0.008831 0.004104
# 4 0.003218 -0.000775 -0.006937 0.045069 -0.005966 -0.005584
# 5 -0.007839 -0.001149 -0.008831 -0.005966 0.040976 -0.004955
# 6 -0.003223 0.007414 0.004104 -0.005584 -0.004955 0.032045
#
#
# Mechanical properties :
#
#
# Convention : Reuss Voigt Hill
#
# Bulk Modulus (GPa) = 32.88473 51.81751 42.35112
# Shear Modulus (GPa) = 26.41435 33.68371 30.04903
#
# Velocity S-wave (km/s) = 3.50313 3.95591 3.73639
# Velocity P-wave (km/s) = 5.62500 6.70371 6.18790
#
# Compressibility (1/GPa) = 0.03040925
#
# Stress axis : x y z
#
# Youngs Moduli (GPa) = 53.40073 85.92841 65.05050
#
# Poissons Ratio (x) = 0.38725 0.09342
# Poissons Ratio (y) = 0.24066 0.11194
# Poissons Ratio (z) = 0.07669 0.14787
#
# Static dielectric constant tensor:
#      x y z
#    x 1.812730 0.021530 0.003240 
#    y 0.021530 1.763560 0.006570 
#    z 0.003240 0.006570 1.795170 
# 
# From -- ./inp_files/55668.got.cif
#   From: 2010.05.17/outbox.cif.g08.bks.cpg/sg2_28_cif.got.tgz:55668.got - 2010.06.03 11:33:40.
