data_PCOD9106405
_publ_section_title
;
Structure prediction by ZEFSAII (Michael W. Deem and Ramdas Pophale) SiO2 
 PCOD9106405
Probable space group: P -1
;
_chemical_formula_sum "Si O2"
_cell_formula_units_Z 14
_cell_length_a 9.881169
_cell_length_b 8.663698
_cell_length_c 12.050036
_cell_angle_alpha 83.499871
_cell_angle_beta 118.445950
_cell_angle_gamma 135.641328
_cell_volume 589.180777
_symmetry_space_group_name_H-M "P -1"
_symmetry_group_IT_number 2
_symmetry_cell_setting 'triclinic'
loop_
_space_group_symop_operation_xyz
x,y,z
-x,-y,-z
loop_
_atom_site_type_symbol
_atom_site_label
_atom_site_fract_x
_atom_site_fract_y
_atom_site_fract_z
Si Si1 0.791643 0.162118 0.849073
Si Si2 0.989743 0.311794 0.519511
Si Si3 0.687975 0.011921 0.051751
Si Si4 0.190437 0.473282 0.139550
Si Si5 0.426035 0.479056 0.656647
Si Si6 0.863204 0.985532 0.316082
Si Si7 0.266567 0.069385 0.381088
O O1 0.704280 0.275524 0.811607
O O2 0.760191 0.047142 0.733446
O O3 0.675804 0.971089 0.918673
O O4 0.065559 0.384409 0.977060
O O5 0.244225 0.449839 0.655169
O O6 0.000000 0.500000 0.500000
O O7 0.961172 0.212256 0.395807
O O8 0.771389 0.087656 0.526453
O O9 0.959433 0.277978 0.143578
O O10 0.672229 0.875467 0.154716
O O11 0.500000 0.000000 0.000000
O O12 0.342822 0.433380 0.215932
O O13 0.254373 0.198258 0.612120
O O14 0.506718 0.647494 0.571497
O O15 0.056439 0.029647 0.326529
#
# Coordination Sequence:
#
# PCOD9106405 Si02
#       7
#     2   2   2   2   2   2   2
#     4   9  21  39  66 100 139 177 227 270 336 399
#     4  11  29  47  68 101 132 175 233 287 341 403
#     4  10  20  39  69  98 137 175 220 283 332 399
#     4   9  20  40  66 101 133 179 225 268 338 402
#     4  11  23  44  70  96 135 184 222 275 342 398
#     4  11  25  45  67 100 139 176 230 277 341 403
#     4  11  23  46  67  99 137 178 227 281 330 411
#
# _framework density 23.761809
#
# number of rings (size 3 to 8) (size 9 to 14) (size 15 to 20)
#    0.857    0.857    1.429    2.571    2.000    7.429 
#    2.571    3.571    0.000    0.000    0.000    0.000 
#    0.000    0.000    0.000    0.000    0.000    0.000 
#
# Total GULP energy -77960.021252 kJ/mol
# GULP energy per Si atom -5568.572947 kJ/mol
# Density = 2.370773 g / cm^3
# Si number density = 23.761809 Si / 1000 Ang^3
#
#
#
# Elastic Constant Matrix: (Units=GPa)
#
#
# Indices 1 2 3 4 5 6 
#
# 1 100.4473 43.4329 43.0830 1.6758 -4.6971 -13.0897
# 2 43.4329 138.0477 28.1970 -24.3052 -7.0703 -3.5312
# 3 43.0830 28.1970 81.2249 -15.4524 -16.6296 -8.3248
# 4 1.6758 -24.3052 -15.4524 36.9230 -0.8985 0.3832
# 5 -4.6971 -7.0703 -16.6296 -0.8985 51.2576 2.0250
# 6 -13.0897 -3.5312 -8.3248 0.3832 2.0250 47.9878
#
#
#
# Elastic Compliance Matrix: (Units=1/GPa)
#
#
# Indices 1 2 3 4 5 6 
#
# 1 0.015943 -0.004637 -0.008413 -0.007377 -0.002144 0.002698
# 2 -0.004637 0.009867 0.000564 0.006978 0.001263 -0.000550
# 3 -0.008413 0.000564 0.019573 0.009077 0.005784 0.000826
# 4 -0.007377 0.006978 0.009077 0.035909 0.003876 -0.000374
# 5 -0.002144 0.001263 0.005784 0.003876 0.021448 -0.000425
# 6 0.002698 -0.000550 0.000826 -0.000374 -0.000425 0.021698
#
#
# Mechanical properties :
#
#
# Convention : Reuss Voigt Hill
#
# Bulk Modulus (GPa) = 48.99073 61.01620 55.00347
# Shear Modulus (GPa) = 32.00734 40.90082 36.45408
#
# Velocity S-wave (km/s) = 3.67414 4.15334 3.92107
# Velocity P-wave (km/s) = 6.21782 6.98099 6.61043
#
# Compressibility (1/GPa) = 0.02041202
#
# Stress axis : x y z
#
# Youngs Moduli (GPa) = 62.72219 101.34911 51.08977
#
# Poissons Ratio (x) = 0.47000 0.42980
# Poissons Ratio (y) = 0.29087 -0.02883
# Poissons Ratio (z) = 0.52766 -0.05719
#
# Static dielectric constant tensor:
#      x y z
#    x 1.902050 0.049860 0.048750 
#    y 0.049860 2.013370 -0.049330 
#    z 0.048750 -0.049330 1.996350 
# 
# From -- ./inp_files/378823.got.cif
#   From: 2010.05.17/outbox.cif.g08.bks.cpg/sg2_190_cif.got.tgz:378823.got - 2010.06.03 11:33:40.
