data_PCOD9106509
_publ_section_title
;
Structure prediction by ZEFSAII (Michael W. Deem and Ramdas Pophale) SiO2 
 PCOD9106509
Probable space group: P -1
;
_chemical_formula_sum "Si O2"
_cell_formula_units_Z 16
_cell_length_a 5.193868
_cell_length_b 22.035640
_cell_length_c 9.787964
_cell_angle_alpha 58.246493
_cell_angle_beta 134.534916
_cell_angle_gamma 97.444954
_cell_volume 623.741516
_symmetry_space_group_name_H-M "P -1"
_symmetry_group_IT_number 2
_symmetry_cell_setting 'triclinic'
loop_
_space_group_symop_operation_xyz
x,y,z
-x,-y,-z
loop_
_atom_site_type_symbol
_atom_site_label
_atom_site_fract_x
_atom_site_fract_y
_atom_site_fract_z
Si Si1 0.231852 0.791373 0.933834
Si Si2 0.414534 0.272374 0.150722
Si Si3 0.670337 0.687377 0.437025
Si Si4 0.255576 0.548011 0.979520
Si Si5 0.794036 0.196540 0.650961
Si Si6 0.650582 0.418845 0.728787
Si Si7 0.563439 0.064596 0.786371
Si Si8 0.389995 0.927166 0.881874
O O1 0.607279 0.753725 0.221793
O O2 0.117012 0.883211 0.789737
O O3 0.378294 0.750658 0.891074
O O4 0.892106 0.769038 0.895827
O O5 0.733835 0.234932 0.432981
O O6 0.116939 0.362557 0.957308
O O7 0.367270 0.733446 0.386476
O O8 0.567157 0.627438 0.376354
O O9 0.028968 0.632495 0.727204
O O10 0.500000 0.500000 0.000000
O O11 0.453871 0.562625 0.173307
O O12 0.000000 0.500000 0.000000
O O13 0.521536 0.144915 0.606996
O O14 0.182993 0.131968 0.940087
O O15 0.500000 0.500000 0.500000
O O16 0.537765 0.078613 0.921716
O O17 0.296319 0.016450 0.707849
O O18 0.000000 0.000000 0.000000
#
# Coordination Sequence:
#
# PCOD9106509 Si02
#       8
#     2   2   2   2   2   2   2   2
#     4  11  25  44  68 101 141 183 233 292 358 415
#     4  11  27  44  68 104 143 182 234 301 355 419
#     4  11  24  46  73 100 138 189 234 295 352 417
#     4  12  28  47  71 104 140 184 236 290 356 424
#     4  11  22  44  69 103 138 184 243 291 352 426
#     4  11  24  47  71 102 143 183 236 289 356 420
#     4   9  20  37  67 100 134 180 238 285 347 426
#     4  10  20  39  71  96 136 185 238 285 353 426
#
# _framework density 25.651651000000001
#
# number of rings (size 3 to 8) (size 9 to 14) (size 15 to 20)
#    0.000    1.250    3.750    1.500    5.250    3.500 
#    0.000    1.250    0.000    0.000    0.000    0.000 
#    0.000    0.000    0.000    0.000    0.000    0.000 
#
# Total GULP energy -89437.720799 kJ/mol
# GULP energy per Si atom -5589.857550 kJ/mol
# Density = 2.559327 g / cm^3
# Si number density = 25.651651 Si / 1000 Ang^3
#
#
#
# Elastic Constant Matrix: (Units=GPa)
#
#
# Indices 1 2 3 4 5 6 
#
# 1 63.8728 11.5080 1.4744 5.7889 -9.8935 -14.5595
# 2 11.5080 136.4912 18.1368 12.8287 -11.1014 -1.7067
# 3 1.4744 18.1368 154.3722 14.1773 -33.0591 -6.3022
# 4 5.7889 12.8287 14.1773 41.6485 -0.1382 -14.7824
# 5 -9.8935 -11.1014 -33.0591 -0.1382 38.9935 -1.0463
# 6 -14.5595 -1.7067 -6.3022 -14.7824 -1.0463 55.8659
#
#
#
# Elastic Compliance Matrix: (Units=1/GPa)
#
#
# Indices 1 2 3 4 5 6 
#
# 1 0.017818 -0.001092 0.001421 -0.000966 0.005535 0.004619
# 2 -0.001092 0.007812 -0.000375 -0.002364 0.001602 -0.000684
# 3 0.001421 -0.000375 0.008354 -0.002638 0.007347 0.000741
# 4 -0.000966 -0.002364 -0.002638 0.028167 -0.002873 0.006778
# 5 0.005535 0.001602 0.007347 -0.002873 0.033783 0.002193
# 6 0.004619 -0.000684 0.000741 0.006778 0.002193 0.021001
#
#
# Mechanical properties :
#
#
# Convention : Reuss Voigt Hill
#
# Bulk Modulus (GPa) = 29.50631 46.33049 37.91840
# Shear Modulus (GPa) = 38.96319 48.87605 43.91962
#
# Velocity S-wave (km/s) = 3.90158 4.36980 4.14231
# Velocity P-wave (km/s) = 5.64129 6.60006 6.13942
#
# Compressibility (1/GPa) = 0.03389106
#
# Stress axis : x y z
#
# Youngs Moduli (GPa) = 56.12383 128.00151 119.69903
#
# Poissons Ratio (x) = 0.13982 -0.17006
# Poissons Ratio (y) = 0.06131 0.04490
# Poissons Ratio (z) = -0.07974 0.04801
#
# Static dielectric constant tensor:
#      x y z
#    x 1.840220 0.578180 -0.217280 
#    y 0.578180 1.553680 0.280760 
#    z -0.217280 0.280760 1.891340 
# 
# From -- ./inp_files/141353.got.cif
#   From: 2010.05.17/outbox.cif.g08.bks.cpg/sg2_71_cif.got.tgz:141353.got - 2010.06.03 11:33:40.
