data_PCOD9106384
_publ_section_title
;
Structure prediction by ZEFSAII (Michael W. Deem and Ramdas Pophale) SiO2 
 PCOD9106384
Probable space group: P -1
;
_chemical_formula_sum "Si O2"
_cell_formula_units_Z 16
_cell_length_a 8.099637
_cell_length_b 21.120425
_cell_length_c 8.497596
_cell_angle_alpha 59.618390
_cell_angle_beta 80.953185
_cell_angle_gamma 129.603695
_cell_volume 668.877015
_symmetry_space_group_name_H-M "P -1"
_symmetry_group_IT_number 2
_symmetry_cell_setting 'triclinic'
loop_
_space_group_symop_operation_xyz
x,y,z
-x,-y,-z
loop_
_atom_site_type_symbol
_atom_site_label
_atom_site_fract_x
_atom_site_fract_y
_atom_site_fract_z
Si Si1 0.997953 0.864225 0.317314
Si Si2 0.375128 0.191498 0.071916
Si Si3 0.673692 0.441386 0.813108
Si Si4 0.584527 0.454556 0.137612
Si Si5 0.774116 0.615730 0.186069
Si Si6 0.443219 0.919716 0.269839
Si Si7 0.733194 0.916249 0.438097
Si Si8 0.187116 0.742830 0.238554
O O1 0.254015 0.924565 0.326969
O O2 0.709797 0.701057 0.562820
O O3 0.851324 0.888910 0.355028
O O4 0.211068 0.946758 0.024546
O O5 0.362561 0.150690 0.295948
O O6 0.627802 0.348109 0.851834
O O7 0.494008 0.179226 0.940686
O O8 0.023753 0.077815 0.222143
O O9 0.342886 0.358216 0.929202
O O10 0.936620 0.589551 0.517086
O O11 0.726143 0.458238 0.971209
O O12 0.777376 0.550681 0.140884
O O13 0.500000 0.500000 0.000000
O O14 0.500000 0.500000 0.500000
O O15 0.068836 0.734096 0.104149
O O16 0.465818 0.865908 0.464375
O O17 0.240622 0.813226 0.290279
#
# Coordination Sequence:
#
# PCOD9106384 Si02
#       8
#     2   2   2   2   2   2   2   2
#     4  11  22  43  72  98 130 176 227 267 335 402
#     4  11  24  44  63  94 138 170 221 283 333 393
#     4  10  21  40  65  94 130 181 218 268 342 394
#     4  10  20  39  69  95 135 174 221 273 330 403
#     4   9  20  38  63  95 131 167 217 277 325 388
#     4  11  25  43  71  99 132 178 225 276 335 403
#     4  11  25  47  67  97 137 174 225 281 331 401
#     4  11  23  42  62  99 136 168 228 278 328 405
#
# _framework density 23.920691999999999
#
# number of rings (size 3 to 8) (size 9 to 14) (size 15 to 20)
#    0.000    1.500    2.500    3.000    0.000    7.000 
#    2.250    2.500    0.000    0.000    0.000    0.000 
#    0.000    0.000    0.000    0.000    0.000    0.000 
#
# Total GULP energy -89310.758178 kJ/mol
# GULP energy per Si atom -5581.922386 kJ/mol
# Density = 2.386625 g / cm^3
# Si number density = 23.920692 Si / 1000 Ang^3
#
#
#
# Elastic Constant Matrix: (Units=GPa)
#
#
# Indices 1 2 3 4 5 6 
#
# 1 55.4198 19.3820 -0.0926 6.8515 10.8689 5.9577
# 2 19.3820 105.7157 10.0495 -0.2214 16.5929 11.3453
# 3 -0.0926 10.0495 46.7248 -21.3898 7.5805 9.4382
# 4 6.8515 -0.2214 -21.3898 29.9656 -5.8654 6.7990
# 5 10.8689 16.5929 7.5805 -5.8654 22.1561 3.4864
# 6 5.9577 11.3453 9.4382 6.7990 3.4864 36.3636
#
#
#
# Elastic Compliance Matrix: (Units=1/GPa)
#
#
# Indices 1 2 3 4 5 6 
#
# 1 0.021941 -0.002210 -0.001517 -0.008240 -0.010780 0.000063
# 2 -0.002210 0.011299 -0.001660 -0.001551 -0.006941 -0.001777
# 3 -0.001517 -0.001660 0.039629 0.031993 -0.000673 -0.015437
# 4 -0.008240 -0.001551 0.031993 0.065544 0.014779 -0.020142
# 5 -0.010780 -0.006941 -0.000673 0.014779 0.060464 -0.004454
# 6 0.000063 -0.001777 -0.015437 -0.020142 -0.004454 0.036244
#
#
# Mechanical properties :
#
#
# Convention : Reuss Voigt Hill
#
# Bulk Modulus (GPa) = 16.10450 29.61535 22.85992
# Shear Modulus (GPa) = 18.75512 29.59850 24.17681
#
# Velocity S-wave (km/s) = 2.80313 3.52143 3.18261
# Velocity P-wave (km/s) = 4.15016 5.37973 4.80444
#
# Compressibility (1/GPa) = 0.06209444
#
# Stress axis : x y z
#
# Youngs Moduli (GPa) = 45.57730 88.50140 25.23399
#
# Poissons Ratio (x) = 0.19562 0.03828
# Poissons Ratio (y) = 0.10074 0.04188
# Poissons Ratio (z) = 0.06915 0.14690
#
# Static dielectric constant tensor:
#      x y z
#    x 2.023680 -0.041020 0.009400 
#    y -0.041020 1.944730 -0.031170 
#    z 0.009400 -0.031170 1.926490 
# 
# From -- ./inp_files/223420.got.cif
#   From: 2010.05.17/outbox.cif.g08.bks.cpg/sg2_112_cif.got.tgz:223420.got - 2010.06.03 11:33:40.
