data_PCOD9106894
_publ_section_title
;
Structure prediction by ZEFSAII (Michael W. Deem and Ramdas Pophale) SiO2 
 PCOD9106894
Probable space group: P -1
;
_chemical_formula_sum "Si O2"
_cell_formula_units_Z 16
_cell_length_a 7.881589
_cell_length_b 9.005548
_cell_length_c 14.376532
_cell_angle_alpha 72.005210
_cell_angle_beta 137.102347
_cell_angle_gamma 94.438642
_cell_volume 642.897290
_symmetry_space_group_name_H-M "P -1"
_symmetry_group_IT_number 2
_symmetry_cell_setting 'triclinic'
loop_
_space_group_symop_operation_xyz
x,y,z
-x,-y,-z
loop_
_atom_site_type_symbol
_atom_site_label
_atom_site_fract_x
_atom_site_fract_y
_atom_site_fract_z
Si Si1 0.193518 0.774330 0.850523
Si Si2 0.659143 0.989274 0.661525
Si Si3 0.845160 0.951600 0.358349
Si Si4 0.972224 0.512756 0.128558
Si Si5 0.800167 0.390489 0.460736
Si Si6 0.602836 0.831147 0.126897
Si Si7 0.810153 0.310816 0.675138
Si Si8 0.375763 0.310377 0.189443
O O1 0.126776 0.611083 0.821250
O O2 0.947498 0.897889 0.771518
O O3 0.238909 0.879224 0.761199
O O4 0.404705 0.734359 0.024591
O O5 0.562865 0.878771 0.721249
O O6 0.500000 0.000000 0.500000
O O7 0.665532 0.168351 0.657529
O O8 0.622171 0.866754 0.238491
O O9 0.072347 0.800316 0.447743
O O10 0.000000 0.000000 0.500000
O O11 0.168179 0.597612 0.240021
O O12 0.131054 0.392582 0.139331
O O13 0.734998 0.640964 0.965805
O O14 0.702137 0.419238 0.521639
O O15 0.593007 0.396667 0.295867
O O16 0.000000 0.500000 0.500000
O O17 0.885864 0.756892 0.214979
O O18 0.500000 0.000000 0.000000
#
# Coordination Sequence:
#
# PCOD9106894 Si02
#       8
#     2   2   2   2   2   2   2   2
#     4  10  20  40  62  84 129 168 200 254 312 374
#     4  11  19  41  68  84 121 166 212 253 306 374
#     4  10  21  37  59  94 121 163 211 248 314 368
#     4  10  25  40  63  94 122 166 212 257 312 369
#     4  11  24  42  63  93 131 162 203 262 318 369
#     4   9  18  37  60  88 124 161 200 250 310 364
#     4  11  22  40  64  97 120 164 215 252 314 368
#     4  10  23  45  62  88 128 166 206 259 315 367
#
# _framework density 24.887333999999999
#
# number of rings (size 3 to 8) (size 9 to 14) (size 15 to 20)
#    0.000    1.750    5.000    0.000    5.250    3.500 
#    0.000    1.250    0.000    0.000    0.000    0.000 
#    0.000    0.000    0.000    0.000    0.000    0.000 
#
# Total GULP energy -89161.499859 kJ/mol
# GULP energy per Si atom -5572.593741 kJ/mol
# Density = 2.483069 g / cm^3
# Si number density = 24.887334 Si / 1000 Ang^3
#
#
#
# Elastic Constant Matrix: (Units=GPa)
#
#
# Indices 1 2 3 4 5 6 
#
# 1 37.1128 9.4622 16.8615 -3.2497 -5.3706 15.0843
# 2 9.4622 130.2192 54.5326 15.4860 -21.4100 35.3919
# 3 16.8615 54.5326 181.1189 26.3529 -3.1294 13.0921
# 4 -3.2497 15.4860 26.3529 46.6550 -1.8212 -0.8033
# 5 -5.3706 -21.4100 -3.1294 -1.8212 39.0122 2.1057
# 6 15.0843 35.3919 13.0921 -0.8033 2.1057 34.1035
#
#
#
# Elastic Compliance Matrix: (Units=1/GPa)
#
#
# Indices 1 2 3 4 5 6 
#
# 1 0.037844 0.006206 -0.004039 0.002852 0.009621 -0.022155
# 2 0.006206 0.015591 -0.003374 -0.002762 0.009999 -0.018312
# 3 -0.004039 -0.003374 0.007161 -0.003245 -0.002124 0.002593
# 4 0.002852 -0.002762 -0.003245 0.024425 -0.000430 0.003453
# 5 0.009621 0.009999 -0.002124 -0.000430 0.033111 -0.015871
# 6 -0.022155 -0.018312 0.002593 0.003453 -0.015871 0.058191
#
#
# Mechanical properties :
#
#
# Convention : Reuss Voigt Hill
#
# Bulk Modulus (GPa) = 17.18729 56.68483 36.93606
# Shear Modulus (GPa) = 25.23582 41.79378 33.51480
#
# Velocity S-wave (km/s) = 3.18780 4.10240 3.67367
# Velocity P-wave (km/s) = 4.52442 6.72797 5.73306
#
# Compressibility (1/GPa) = 0.05818253
#
# Stress axis : x y z
#
# Youngs Moduli (GPa) = 26.42395 64.14121 139.64702
#
# Poissons Ratio (x) = -0.39804 0.56401
# Poissons Ratio (y) = -0.16398 0.47110
# Poissons Ratio (z) = 0.10672 0.21638
#
# Static dielectric constant tensor:
#      x y z
#    x 2.205150 -0.007600 -0.020960 
#    y -0.007600 2.026240 0.041040 
#    z -0.020960 0.041040 1.988750 
# 
# From -- ./inp_files/403119.got.cif
#   From: 2010.05.17/outbox.cif.g08.bks.cpg/sg2_202_cif.got.tgz:403119.got - 2010.06.03 11:33:40.
