data_PCOD9106922
_publ_section_title
;
Structure prediction by ZEFSAII (Michael W. Deem and Ramdas Pophale) SiO2 
 PCOD9106922
Probable space group: P -1
;
_chemical_formula_sum "Si O2"
_cell_formula_units_Z 16
_cell_length_a 25.459265
_cell_length_b 8.582799
_cell_length_c 5.345041
_cell_angle_alpha 122.329847
_cell_angle_beta 100.366772
_cell_angle_gamma 45.403938
_cell_volume 664.605464
_symmetry_space_group_name_H-M "P -1"
_symmetry_group_IT_number 2
_symmetry_cell_setting 'triclinic'
loop_
_space_group_symop_operation_xyz
x,y,z
-x,-y,-z
loop_
_atom_site_type_symbol
_atom_site_label
_atom_site_fract_x
_atom_site_fract_y
_atom_site_fract_z
Si Si1 0.810406 0.829035 0.262334
Si Si2 0.586615 0.645110 0.494097
Si Si3 0.440936 0.554337 0.295273
Si Si4 0.180639 0.742809 0.830407
Si Si5 0.863425 0.320906 0.764097
Si Si6 0.067475 0.183319 0.784427
Si Si7 0.724789 0.123528 0.948648
Si Si8 0.433068 0.935691 0.388245
O O1 0.857281 0.902751 0.345863
O O2 0.764318 0.940434 0.578920
O O3 0.873553 0.508924 0.993508
O O4 0.753455 0.955307 0.083443
O O5 0.603146 0.502735 0.649505
O O6 0.492280 0.883227 0.591864
O O7 0.610363 0.793700 0.567636
O O8 0.632576 0.393445 0.124764
O O9 0.500000 0.500000 0.500000
O O10 0.394282 0.853817 0.411241
O O11 0.505161 0.308120 0.956128
O O12 0.182477 0.606093 0.471144
O O13 0.096442 0.054392 0.976250
O O14 0.183824 0.628964 0.992946
O O15 0.240870 0.756384 0.896874
O O16 0.937917 0.997770 0.519845
O O17 0.000000 0.500000 0.000000
#
# Coordination Sequence:
#
# PCOD9106922 Si02
#       8
#     2   2   2   2   2   2   2   2
#     4  11  23  42  64  88 129 168 206 266 309 370
#     4  10  21  35  62  86 112 161 209 249 316 387
#     4   9  18  36  56  82 121 147 188 257 313 365
#     4   9  19  40  59  86 127 158 199 260 300 371
#     4  10  20  40  62  87 124 163 204 258 311 363
#     4   9  21  39  65  93 125 165 206 259 315 371
#     4  11  22  42  62  88 124 169 209 256 317 377
#     4   9  19  38  59  84 120 151 197 264 314 365
#
# _framework density 24.074435000000001
#
# number of rings (size 3 to 8) (size 9 to 14) (size 15 to 20)
#    0.750    1.500    1.250    1.125    1.750    1.000 
#    2.250    4.375    0.000    0.000    0.000    0.000 
#    0.000    0.000    0.000    0.000    0.000    0.000 
#
# Total GULP energy -89093.001039 kJ/mol
# GULP energy per Si atom -5568.312565 kJ/mol
# Density = 2.401964 g / cm^3
# Si number density = 24.074435 Si / 1000 Ang^3
#
#
#
# Elastic Constant Matrix: (Units=GPa)
#
#
# Indices 1 2 3 4 5 6 
#
# 1 44.8782 35.2895 24.3083 9.4745 10.8885 23.8912
# 2 35.2895 94.1351 54.3500 8.6008 -6.8310 35.4427
# 3 24.3083 54.3500 130.2730 -0.4781 -0.2713 14.3093
# 4 9.4745 8.6008 -0.4781 46.8391 10.0671 5.2924
# 5 10.8885 -6.8310 -0.2713 10.0671 28.4511 8.9895
# 6 23.8912 35.4427 14.3093 5.2924 8.9895 43.6278
#
#
#
# Elastic Compliance Matrix: (Units=1/GPa)
#
#
# Indices 1 2 3 4 5 6 
#
# 1 0.041744 -0.012214 -0.001749 -0.001892 -0.015426 -0.008955
# 2 -0.012214 0.027198 -0.007275 -0.004614 0.017869 -0.016143
# 3 -0.001749 -0.007275 0.010629 0.001991 -0.002859 0.003729
# 4 -0.001892 -0.004614 0.001991 0.024387 -0.010017 0.003237
# 5 -0.015426 0.017869 -0.002859 -0.010017 0.053585 -0.014957
# 6 -0.008955 -0.016143 0.003729 0.003237 -0.014957 0.042406
#
#
# Mechanical properties :
#
#
# Convention : Reuss Voigt Hill
#
# Bulk Modulus (GPa) = 26.95697 55.24243 41.09970
# Shear Modulus (GPa) = 19.62406 34.13949 26.88177
#
# Velocity S-wave (km/s) = 2.85816 3.76983 3.34520
# Velocity P-wave (km/s) = 4.70253 6.47650 5.65946
#
# Compressibility (1/GPa) = 0.03709616
#
# Stress axis : x y z
#
# Youngs Moduli (GPa) = 23.95568 36.76729 94.08001
#
# Poissons Ratio (x) = 0.44908 0.16453
# Poissons Ratio (y) = 0.29260 0.68439
# Poissons Ratio (z) = 0.04190 0.26747
#
# Static dielectric constant tensor:
#      x y z
#    x 1.953470 -0.009130 0.032880 
#    y -0.009130 2.054720 -0.054390 
#    z 0.032880 -0.054390 1.939170 
# 
# From -- ./inp_files/128189.got.cif
#   From: 2010.05.17/outbox.cif.g08.bks.cpg/sg2_65_cif.got.tgz:128189.got - 2010.06.03 11:33:40.
