data_PCOD9106349
_publ_section_title
;
Structure prediction by ZEFSAII (Michael W. Deem and Ramdas Pophale) SiO2 
 PCOD9106349
Probable space group: P -1
;
_chemical_formula_sum "Si O2"
_cell_formula_units_Z 16
_cell_length_a 18.397590
_cell_length_b 15.475180
_cell_length_c 5.845714
_cell_angle_alpha 89.320928
_cell_angle_beta 85.068565
_cell_angle_gamma 154.044808
_cell_volume 710.391484
_symmetry_space_group_name_H-M "P -1"
_symmetry_group_IT_number 2
_symmetry_cell_setting 'triclinic'
loop_
_space_group_symop_operation_xyz
x,y,z
-x,-y,-z
loop_
_atom_site_type_symbol
_atom_site_label
_atom_site_fract_x
_atom_site_fract_y
_atom_site_fract_z
Si Si1 0.853261 0.410792 0.988877
Si Si2 0.724613 0.029828 0.528539
Si Si3 0.232005 0.061662 0.872463
Si Si4 0.970148 0.686392 0.254286
Si Si5 0.577698 0.016835 0.297065
Si Si6 0.748377 0.442777 0.719731
Si Si7 0.447047 0.650519 0.899916
Si Si8 0.590849 0.578851 0.224670
O O1 0.863467 0.495617 0.175635
O O2 0.674301 0.169781 0.063653
O O3 0.860805 0.479692 0.762521
O O4 0.000000 0.500000 0.000000
O O5 0.719536 0.110635 0.381045
O O6 0.866097 0.183438 0.678597
O O7 0.761979 0.987330 0.359453
O O8 0.540913 0.816689 0.698424
O O9 0.254044 0.187173 0.824890
O O10 0.399959 0.212108 0.968711
O O11 0.061532 0.851536 0.056845
O O12 0.846552 0.592477 0.481770
O O13 0.500000 0.000000 0.500000
O O14 0.433555 0.795187 0.272592
O O15 0.704874 0.465392 0.924422
O O16 0.385336 0.498395 0.793832
O O17 0.500000 0.500000 0.500000
O O18 0.500000 0.500000 0.000000
#
# Coordination Sequence:
#
# PCOD9106349 Si02
#       8
#     2   2   2   2   2   2   2   2
#     4  12  27  43  62  90 128 180 232 274 335 408
#     4  11  22  41  66  92 127 173 225 275 338 406
#     4  10  20  41  66  98 131 173 222 272 340 411
#     4  11  25  42  62  91 133 181 219 273 342 415
#     4  12  24  41  64  93 126 172 225 289 337 394
#     4  12  25  43  63  96 136 175 221 284 349 402
#     4  10  22  38  69 100 131 172 217 286 346 404
#     4  10  20  39  69 110 138 173 231 290 343 422
#
# _framework density 22.522791000000002
#
# number of rings (size 3 to 8) (size 9 to 14) (size 15 to 20)
#    0.000    1.000    3.750    3.375    3.500    1.000 
#    0.000    0.625    0.000    3.000    0.000    0.000 
#    0.000    0.000    0.000    0.000    0.000    0.000 
#
# Total GULP energy -89402.392879 kJ/mol
# GULP energy per Si atom -5587.649555 kJ/mol
# Density = 2.247153 g / cm^3
# Si number density = 22.522791 Si / 1000 Ang^3
#
#
#
# Elastic Constant Matrix: (Units=GPa)
#
#
# Indices 1 2 3 4 5 6 
#
# 1 56.9431 33.5329 13.7329 -6.0715 -10.4266 -6.6732
# 2 33.5329 80.4410 20.5212 -14.5155 -8.0824 -0.3825
# 3 13.7329 20.5212 101.8989 -28.3162 -18.2544 -4.9044
# 4 -6.0715 -14.5155 -28.3162 45.1490 3.2283 0.4160
# 5 -10.4266 -8.0824 -18.2544 3.2283 34.7194 5.6413
# 6 -6.6732 -0.3825 -4.9044 0.4160 5.6413 28.4808
#
#
#
# Elastic Compliance Matrix: (Units=1/GPa)
#
#
# Indices 1 2 3 4 5 6 
#
# 1 0.024740 -0.009832 -0.000523 -0.000502 0.004139 0.004762
# 2 -0.009832 0.017525 -0.001249 0.003513 0.000541 -0.002442
# 3 -0.000523 -0.001249 0.013263 0.007432 0.005687 0.000910
# 4 -0.000502 0.003513 0.007432 0.027730 0.001927 0.000423
# 5 0.004139 0.000541 0.005687 0.001927 0.033755 -0.004758
# 6 0.004762 -0.002442 0.000910 0.000423 -0.004758 0.037287
#
#
# Mechanical properties :
#
#
# Convention : Reuss Voigt Hill
#
# Bulk Modulus (GPa) = 30.93961 41.65079 36.29520
# Shear Modulus (GPa) = 26.55608 33.10291 29.82949
#
# Velocity S-wave (km/s) = 3.43749 3.83789 3.64320
# Velocity P-wave (km/s) = 5.43341 6.17836 5.81782
#
# Compressibility (1/GPa) = 0.03232103
#
# Stress axis : x y z
#
# Youngs Moduli (GPa) = 40.42096 57.06089 75.39606
#
# Poissons Ratio (x) = 0.56101 0.03943
# Poissons Ratio (y) = 0.39741 0.09416
# Poissons Ratio (z) = 0.02114 0.07126
#
# Static dielectric constant tensor:
#      x y z
#    x 1.831130 0.056440 0.047480 
#    y 0.056440 1.832760 0.039830 
#    z 0.047480 0.039830 1.881360 
# 
# From -- ./inp_files/38484.got.cif
#   From: 2010.05.17/outbox.cif.g08.bks.cpg/sg2_20_cif.got.tgz:38484.got - 2010.06.03 11:33:40.
