data_PCOD9106465
_publ_section_title
;
Structure prediction by ZEFSAII (Michael W. Deem and Ramdas Pophale) SiO2 
 PCOD9106465
Probable space group: P -1
;
_chemical_formula_sum "Si O2"
_cell_formula_units_Z 12
_cell_length_a 11.008332
_cell_length_b 9.718638
_cell_length_c 16.005129
_cell_angle_alpha 159.097735
_cell_angle_beta 120.761749
_cell_angle_gamma 63.442517
_cell_volume 522.318644
_symmetry_space_group_name_H-M "P -1"
_symmetry_group_IT_number 2
_symmetry_cell_setting 'triclinic'
loop_
_space_group_symop_operation_xyz
x,y,z
-x,-y,-z
loop_
_atom_site_type_symbol
_atom_site_label
_atom_site_fract_x
_atom_site_fract_y
_atom_site_fract_z
Si Si1 0.198875 0.760787 0.113512
Si Si2 0.340618 0.883230 0.408781
Si Si3 0.466062 0.925908 0.194722
Si Si4 0.928032 0.846720 0.972753
Si Si5 0.375408 0.095127 0.071432
Si Si6 0.235533 0.975297 0.587111
O O1 0.046856 0.889170 0.109948
O O2 0.193241 0.318588 0.826253
O O3 0.241467 0.799428 0.246802
O O4 0.328999 0.999691 0.243744
O O5 0.351529 0.506924 0.255016
O O6 0.278030 0.150500 0.609055
O O7 0.500000 0.000000 0.500000
O O8 0.431812 0.995527 0.126331
O O9 0.619433 0.158034 0.396822
O O10 0.500000 0.500000 0.000000
O O11 0.791270 0.064822 0.073415
O O12 0.878041 0.392806 0.676015
O O13 0.000000 0.000000 0.000000
O O14 0.500000 0.000000 0.000000
#
# Coordination Sequence:
#
# PCOD9106465 Si02
#       6
#     2   2   2   2   2   2
#     4  11  22  44  70  96 145 182 228 284 355 412
#     4  11  24  40  69 107 138 182 234 288 345 416
#     4  10  20  39  70  95 129 188 229 276 346 410
#     4  11  24  42  68 104 137 186 230 289 353 410
#     4  11  24  41  66 102 140 178 237 286 340 415
#     4  10  23  40  69 101 134 186 231 276 353 418
#
# _framework density 22.974482999999999
#
# number of rings (size 3 to 8) (size 9 to 14) (size 15 to 20)
#    0.000    1.333    3.333    2.500    2.333    6.667 
#    0.000    1.667    0.000   11.000    0.000    0.000 
#    0.000    0.000    0.000    0.000    0.000    0.000 
#
# Total GULP energy -66897.969365 kJ/mol
# GULP energy per Si atom -5574.830780 kJ/mol
# Density = 2.292219 g / cm^3
# Si number density = 22.974483 Si / 1000 Ang^3
#
#
#
# Elastic Constant Matrix: (Units=GPa)
#
#
# Indices 1 2 3 4 5 6 
#
# 1 128.9801 69.8917 25.7427 -28.0204 8.4383 -8.6179
# 2 69.8917 202.5832 66.5530 -55.5942 4.3702 6.2661
# 3 25.7427 66.5530 66.1640 -34.1585 7.1580 -0.3919
# 4 -28.0204 -55.5942 -34.1585 56.6465 5.8571 14.9045
# 5 8.4383 4.3702 7.1580 5.8571 36.1106 -9.9077
# 6 -8.6179 6.2661 -0.3919 14.9045 -9.9077 46.2258
#
#
#
# Elastic Compliance Matrix: (Units=1/GPa)
#
#
# Indices 1 2 3 4 5 6 
#
# 1 0.009965 -0.002976 0.000522 0.002262 -0.002143 0.001077
# 2 -0.002976 0.009438 -0.005129 0.005939 -0.001524 -0.004119
# 3 0.000522 -0.005129 0.028833 0.015099 -0.009261 -0.005816
# 4 0.002262 0.005939 0.015099 0.039542 -0.015111 -0.016244
# 5 -0.002143 -0.001524 -0.009261 -0.015111 0.036047 0.012327
# 6 0.001077 -0.004119 -0.005816 -0.016244 0.012327 0.030222
#
#
# Mechanical properties :
#
#
# Convention : Reuss Voigt Hill
#
# Bulk Modulus (GPa) = 30.23877 80.23359 55.23618
# Shear Modulus (GPa) = 27.74145 43.49925 35.62035
#
# Velocity S-wave (km/s) = 3.47867 4.35601 3.94182
# Velocity P-wave (km/s) = 5.41528 7.76521 6.69417
#
# Compressibility (1/GPa) = 0.03307013
#
# Stress axis : x y z
#
# Youngs Moduli (GPa) = 100.35094 105.95358 34.68296
#
# Poissons Ratio (x) = 0.31531 -0.01811
# Poissons Ratio (y) = 0.29863 0.17789
# Poissons Ratio (z) = -0.05240 0.54345
#
# Static dielectric constant tensor:
#      x y z
#    x 2.049580 -0.058100 -0.099840 
#    y -0.058100 1.818240 0.044050 
#    z -0.099840 0.044050 1.975410 
# 
# From -- ./inp_files/310760.got.cif
#   From: 2010.05.17/outbox.cif.g08.bks.cpg/sg2_156_cif.got.tgz:310760.got - 2010.06.03 11:33:40.
