data_PCOD9106796
_publ_section_title
;
Structure prediction by ZEFSAII (Michael W. Deem and Ramdas Pophale) SiO2 
 PCOD9106796
Probable space group: P -1
;
_chemical_formula_sum "Si O2"
_cell_formula_units_Z 14
_cell_length_a 12.030468
_cell_length_b 7.064234
_cell_length_c 11.496204
_cell_angle_alpha 91.065665
_cell_angle_beta 48.106556
_cell_angle_gamma 120.812464
_cell_volume 538.788244
_symmetry_space_group_name_H-M "P -1"
_symmetry_group_IT_number 2
_symmetry_cell_setting 'triclinic'
loop_
_space_group_symop_operation_xyz
x,y,z
-x,-y,-z
loop_
_atom_site_type_symbol
_atom_site_label
_atom_site_fract_x
_atom_site_fract_y
_atom_site_fract_z
Si Si1 0.262138 0.990581 0.516430
Si Si2 0.571698 0.779997 0.846640
Si Si3 0.612785 0.286842 0.657149
Si Si4 0.983859 0.685130 0.079306
Si Si5 0.727218 0.172072 0.934870
Si Si6 0.127381 0.272079 0.349498
Si Si7 0.696492 0.767992 0.266213
O O1 0.333901 0.835101 0.470033
O O2 0.026223 0.794910 0.643602
O O3 0.379002 0.165091 0.323083
O O4 0.301381 0.140586 0.606257
O O5 0.665779 0.663198 0.822970
O O6 0.346275 0.672437 0.018381
O O7 0.700759 0.047597 0.829509
O O8 0.441564 0.065983 0.864316
O O9 0.802199 0.511043 0.604788
O O10 0.510788 0.367803 0.656774
O O11 0.061944 0.702196 0.153738
O O12 0.141606 0.966631 0.915094
O O13 0.000000 0.500000 0.000000
O O14 0.774602 0.619078 0.215828
O O15 0.000000 0.000000 0.500000
#
# Coordination Sequence:
#
# PCOD9106796 Si02
#       7
#     2   2   2   2   2   2   2
#     4  10  20  40  61  87 128 161 201 255 310 365
#     4   9  19  36  59  86 123 153 200 253 296 368
#     4  10  21  38  63  86 124 167 205 249 313 363
#     4  10  22  41  63  91 126 163 209 258 311 370
#     4   9  19  38  60  86 121 161 207 248 306 369
#     4  10  21  37  57  88 124 159 205 254 305 371
#     4  10  22  42  64  92 126 166 209 256 311 376
#
# _framework density 25.984235999999999
#
# number of rings (size 3 to 8) (size 9 to 14) (size 15 to 20)
#    0.000    2.286    0.000    1.714    2.000    0.571 
#   18.000    2.857    0.000    0.000    0.000    0.000 
#    0.000    0.000    0.000    0.000    0.000    0.000 
#
# Total GULP energy -78380.485585 kJ/mol
# GULP energy per Si atom -5598.606113 kJ/mol
# Density = 2.592509 g / cm^3
# Si number density = 25.984236 Si / 1000 Ang^3
#
#
#
# Elastic Constant Matrix: (Units=GPa)
#
#
# Indices 1 2 3 4 5 6 
#
# 1 197.5613 46.5555 37.9344 26.0878 -27.1469 -1.6730
# 2 46.5555 78.2919 30.4851 18.6664 -1.9473 -0.8004
# 3 37.9344 30.4851 85.9384 16.8877 -6.6700 -6.3870
# 4 26.0878 18.6664 16.8877 47.4484 -6.1204 -3.3238
# 5 -27.1469 -1.9473 -6.6700 -6.1204 30.0263 18.6724
# 6 -1.6730 -0.8004 -6.3870 -3.3238 18.6724 42.6652
#
#
#
# Elastic Compliance Matrix: (Units=1/GPa)
#
#
# Indices 1 2 3 4 5 6 
#
# 1 0.007402 -0.003329 -0.001441 -0.001454 0.008137 -0.003663
# 2 -0.003329 0.017196 -0.004104 -0.003952 -0.004338 0.001168
# 3 -0.001441 -0.004104 0.014369 -0.002584 -0.000046 0.001836
# 4 -0.001454 -0.003952 -0.002584 0.024721 0.002773 0.000194
# 5 0.008137 -0.004338 -0.000046 0.002773 0.055860 -0.024000
# 6 -0.003663 0.001168 0.001836 0.000194 -0.024000 0.034110
#
#
# Mechanical properties :
#
#
# Convention : Reuss Voigt Hill
#
# Bulk Modulus (GPa) = 47.12707 65.74907 56.43807
# Shear Modulus (GPa) = 28.01432 40.48242 34.24837
#
# Velocity S-wave (km/s) = 3.28705 3.95138 3.63443
# Velocity P-wave (km/s) = 5.70810 6.79531 6.27530
#
# Compressibility (1/GPa) = 0.02121923
#
# Stress axis : x y z
#
# Youngs Moduli (GPa) = 135.09746 58.15187 69.59366
#
# Poissons Ratio (x) = 0.19357 0.10032
# Poissons Ratio (y) = 0.44969 0.28562
# Poissons Ratio (z) = 0.19474 0.23866
#
# Static dielectric constant tensor:
#      x y z
#    x 2.068910 -0.019550 -0.022220 
#    y -0.019550 2.024310 -0.058820 
#    z -0.022220 -0.058820 2.057160 
# 
# From -- ./inp_files/419580.got.cif
#   From: 2010.05.17/outbox.cif.g08.bks.cpg/sg2_210_cif.got.tgz:419580.got - 2010.06.03 11:33:40.
