data_PCOD9106191
_publ_section_title
;
Structure prediction by ZEFSAII (Michael W. Deem and Ramdas Pophale) SiO2 
 PCOD9106191
Probable space group: P -1
;
_chemical_formula_sum "Si O2"
_cell_formula_units_Z 12
_cell_length_a 9.091578
_cell_length_b 22.665167
_cell_length_c 8.022935
_cell_angle_alpha 129.632887
_cell_angle_beta 33.032128
_cell_angle_gamma 149.033600
_cell_volume 443.932429
_symmetry_space_group_name_H-M "P -1"
_symmetry_group_IT_number 2
_symmetry_cell_setting 'triclinic'
loop_
_space_group_symop_operation_xyz
x,y,z
-x,-y,-z
loop_
_atom_site_type_symbol
_atom_site_label
_atom_site_fract_x
_atom_site_fract_y
_atom_site_fract_z
Si Si1 0.148886 0.571850 0.731440
Si Si2 0.210434 0.260001 0.274950
Si Si3 0.523061 0.804466 0.648777
Si Si4 0.724080 0.570205 0.586569
Si Si5 0.933921 0.044911 0.295789
Si Si6 0.083837 0.841982 0.953316
O O1 0.386034 0.638431 0.806415
O O2 0.352959 0.681642 0.621073
O O3 0.185671 0.489904 0.518565
O O4 0.655732 0.478041 0.034369
O O5 0.000185 0.296508 0.497099
O O6 0.944050 0.135684 0.391075
O O7 0.282151 0.243358 0.991599
O O8 0.672586 0.874038 0.805011
O O9 0.176730 0.784610 0.863296
O O10 0.937908 0.879791 0.276985
O O11 0.500000 0.500000 0.500000
O O12 0.487963 0.055893 0.375951
O O13 0.000000 0.000000 0.000000
#
# Coordination Sequence:
#
# PCOD9106191 Si02
#       6
#     2   2   2   2   2   2
#     4  10  22  42  68  96 129 175 224 270 325 392
#     4  10  23  40  66  98 130 170 223 273 321 389
#     4  11  26  46  68  97 139 178 216 272 339 399
#     4  10  20  39  67  99 128 168 222 279 325 379
#     4  11  25  45  71 100 131 177 229 275 325 396
#     4  12  25  44  66 100 139 178 216 273 338 395
#
# _framework density 27.031141000000002
#
# number of rings (size 3 to 8) (size 9 to 14) (size 15 to 20)
#    0.000    1.333    0.000    5.500    0.000   14.667 
#    0.000    5.000    0.000    0.000    0.000    0.000 
#    0.000    0.000    0.000    0.000    0.000    0.000 
#
# Total GULP energy -67137.022943 kJ/mol
# GULP energy per Si atom -5594.751912 kJ/mol
# Density = 2.696962 g / cm^3
# Si number density = 27.031141 Si / 1000 Ang^3
#
#
#
# Elastic Constant Matrix: (Units=GPa)
#
#
# Indices 1 2 3 4 5 6 
#
# 1 137.0143 47.4386 41.9023 19.8964 -16.5442 -1.7804
# 2 47.4386 165.0008 47.2836 18.4619 -3.3399 -37.1276
# 3 41.9023 47.2836 154.9835 25.7604 -23.3373 -17.8246
# 4 19.8964 18.4619 25.7604 38.4860 -3.8428 -2.0656
# 5 -16.5442 -3.3399 -23.3373 -3.8428 51.8231 18.9583
# 6 -1.7804 -37.1276 -17.8246 -2.0656 18.9583 53.5986
#
#
#
# Elastic Compliance Matrix: (Units=1/GPa)
#
#
# Indices 1 2 3 4 5 6 
#
# 1 0.009317 -0.002718 -0.001134 -0.002599 0.003269 -0.003207
# 2 -0.002718 0.008923 -0.001424 -0.001913 -0.003565 0.006804
# 3 -0.001134 -0.001424 0.008349 -0.004008 0.002784 0.000613
# 4 -0.002599 -0.001913 -0.004008 0.030854 0.000113 -0.001595
# 5 0.003269 -0.003565 0.002784 0.000113 0.025150 -0.010326
# 6 -0.003207 0.006804 0.000613 -0.001595 -0.010326 0.027059
#
#
# Mechanical properties :
#
#
# Convention : Reuss Voigt Hill
#
# Bulk Modulus (GPa) = 62.35569 81.13862 71.74716
# Shear Modulus (GPa) = 39.82462 50.13981 44.98222
#
# Velocity S-wave (km/s) = 3.84251 4.31152 4.08375
# Velocity P-wave (km/s) = 6.54253 7.40726 6.98828
#
# Compressibility (1/GPa) = 0.01603703
#
# Stress axis : x y z
#
# Youngs Moduli (GPa) = 107.33024 112.06928 119.76932
#
# Poissons Ratio (x) = 0.30464 0.13585
# Poissons Ratio (y) = 0.29176 0.17051
# Poissons Ratio (z) = 0.12174 0.15955
#
# Static dielectric constant tensor:
#      x y z
#    x 2.172980 0.008950 0.035220 
#    y 0.008950 2.187810 -0.050460 
#    z 0.035220 -0.050460 2.122700 
# 
# From -- ./inp_files/49792.got.cif
#   From: 2010.05.17/outbox.cif.g08.bks.cpg/sg2_25_cif.got.tgz:49792.got - 2010.06.03 11:33:40.
