data_PCOD9106852
_publ_section_title
;
Structure prediction by ZEFSAII (Michael W. Deem and Ramdas Pophale) SiO2 
 PCOD9106852
Probable space group: P -1
;
_chemical_formula_sum "Si O2"
_cell_formula_units_Z 16
_cell_length_a 17.228201
_cell_length_b 7.658950
_cell_length_c 11.108294
_cell_angle_alpha 106.058213
_cell_angle_beta 43.161084
_cell_angle_gamma 74.711736
_cell_volume 680.397346
_symmetry_space_group_name_H-M "P -1"
_symmetry_group_IT_number 2
_symmetry_cell_setting 'triclinic'
loop_
_space_group_symop_operation_xyz
x,y,z
-x,-y,-z
loop_
_atom_site_type_symbol
_atom_site_label
_atom_site_fract_x
_atom_site_fract_y
_atom_site_fract_z
Si Si1 0.796969 0.051164 0.423313
Si Si2 0.352177 0.468673 0.620308
Si Si3 0.051166 0.651234 0.478868
Si Si4 0.948977 0.929525 0.899047
Si Si5 0.317323 0.194394 0.212416
Si Si6 0.530458 0.539428 0.271675
Si Si7 0.213684 0.906526 0.274866
Si Si8 0.138455 0.432687 0.713767
O O1 0.882138 0.756775 0.272864
O O2 0.908544 0.083837 0.250229
O O3 0.626723 0.229818 0.583170
O O4 0.766416 0.142203 0.614711
O O5 0.481056 0.404717 0.368178
O O6 0.430072 0.369095 0.645462
O O7 0.256317 0.402805 0.667054
O O8 0.217975 0.779276 0.842759
O O9 0.967003 0.833299 0.725409
O O10 0.240888 0.418370 0.244651
O O11 0.000000 0.500000 0.500000
O O12 0.975697 0.844410 0.490481
O O13 0.980789 0.729266 0.916999
O O14 0.225275 0.339223 0.467976
O O15 0.285010 0.023371 0.184400
O O16 0.500000 0.000000 0.000000
O O17 0.683466 0.341330 0.973706
#
# Coordination Sequence:
#
# PCOD9106852 Si02
#       8
#     2   2   2   2   2   2   2   2
#     4  11  25  41  69  98 131 172 224 280 329 388
#     4  11  23  42  70  93 133 181 218 271 329 397
#     4   9  19  37  62  92 132 167 212 268 321 393
#     4  11  22  44  68  96 130 175 224 268 331 394
#     4   9  18  33  62  95 128 164 213 270 319 386
#     4  11  23  42  66  97 131 178 221 270 336 388
#     4  10  20  40  61  92 134 168 216 271 329 392
#     4  10  22  41  65  96 130 172 225 265 329 392
#
# _framework density 23.515668999999999
#
# number of rings (size 3 to 8) (size 9 to 14) (size 15 to 20)
#    0.000    1.750    2.500    2.250    1.750    1.500 
#    0.000    0.000    0.000    0.000    0.000    0.000 
#    0.000    0.000    0.000    0.000    0.000    0.000 
#
# Total GULP energy -89461.924391 kJ/mol
# GULP energy per Si atom -5591.370274 kJ/mol
# Density = 2.346215 g / cm^3
# Si number density = 23.515669 Si / 1000 Ang^3
#
#
#
# Elastic Constant Matrix: (Units=GPa)
#
#
# Indices 1 2 3 4 5 6 
#
# 1 109.8646 43.7350 10.6942 14.3455 4.1802 -16.7521
# 2 43.7350 94.4094 24.2613 12.0766 -8.0457 -3.7201
# 3 10.6942 24.2613 75.4553 13.5314 -7.3653 -5.6291
# 4 14.3455 12.0766 13.5314 22.5226 -6.5220 -2.2257
# 5 4.1802 -8.0457 -7.3653 -6.5220 46.6884 9.9625
# 6 -16.7521 -3.7201 -5.6291 -2.2257 9.9625 53.5048
#
#
#
# Elastic Compliance Matrix: (Units=1/GPa)
#
#
# Indices 1 2 3 4 5 6 
#
# 1 0.012832 -0.005542 0.001079 -0.006519 -0.003734 0.004170
# 2 -0.005542 0.014394 -0.003438 -0.001541 0.002569 -0.001638
# 3 0.001079 -0.003438 0.015794 -0.008088 0.000384 0.001352
# 4 -0.006519 -0.001541 -0.008088 0.056157 0.007319 -0.002026
# 5 -0.003734 0.002569 0.000384 0.007319 0.024385 -0.005186
# 6 0.004170 -0.001638 0.001352 -0.002026 -0.005186 0.020905
#
#
# Mechanical properties :
#
#
# Convention : Reuss Voigt Hill
#
# Bulk Modulus (GPa) = 36.73889 48.56780 42.65334
# Shear Modulus (GPa) = 29.52584 37.94576 33.73580
#
# Velocity S-wave (km/s) = 3.54726 4.02137 3.79173
# Velocity P-wave (km/s) = 5.69513 6.50078 6.11124
#
# Compressibility (1/GPa) = 0.02721912
#
# Stress axis : x y z
#
# Youngs Moduli (GPa) = 77.92790 69.47165 63.31448
#
# Poissons Ratio (x) = 0.38500 -0.06831
# Poissons Ratio (y) = 0.43186 0.21767
# Poissons Ratio (z) = -0.08407 0.23884
#
# Static dielectric constant tensor:
#      x y z
#    x 2.358610 -0.053060 0.349000 
#    y -0.053060 1.904300 -0.033510 
#    z 0.349000 -0.033510 2.225310 
# 
# From -- ./inp_files/462292.got.cif
#   From: 2010.05.17/outbox.cif.g08.bks.cpg/sg2_232_cif.got.tgz:462292.got - 2010.06.03 11:33:40.
