data_PCOD9106838
_publ_section_title
;
Structure prediction by ZEFSAII (Michael W. Deem and Ramdas Pophale) SiO2 
 PCOD9106838
Probable space group: P -1
;
_chemical_formula_sum "Si O2"
_cell_formula_units_Z 14
_cell_length_a 17.094607
_cell_length_b 10.845573
_cell_length_c 11.657632
_cell_angle_alpha 109.690520
_cell_angle_beta 158.395834
_cell_angle_gamma 61.846744
_cell_volume 666.283626
_symmetry_space_group_name_H-M "P -1"
_symmetry_group_IT_number 2
_symmetry_cell_setting 'triclinic'
loop_
_space_group_symop_operation_xyz
x,y,z
-x,-y,-z
loop_
_atom_site_type_symbol
_atom_site_label
_atom_site_fract_x
_atom_site_fract_y
_atom_site_fract_z
Si Si1 0.108289 0.994207 0.269303
Si Si2 0.337608 0.202196 0.601675
Si Si3 0.038961 0.503320 0.374276
Si Si4 0.627981 0.163174 0.768058
Si Si5 0.090008 0.690559 0.687334
Si Si6 0.784444 0.964772 0.220569
Si Si7 0.411997 0.220105 0.235631
O O1 0.163242 0.133915 0.379586
O O2 0.361615 0.847294 0.565720
O O3 0.891770 0.023028 0.068867
O O4 0.000000 0.000000 0.000000
O O5 0.446643 0.150185 0.606901
O O6 0.217390 0.377626 0.494485
O O7 0.554872 0.123051 0.962902
O O8 0.986621 0.404139 0.363851
O O9 0.146446 0.599286 0.616283
O O10 0.787572 0.615786 0.011237
O O11 0.511299 0.202777 0.495035
O O12 0.702753 0.281049 0.964591
O O13 0.869359 0.849567 0.404451
O O14 0.718949 0.879672 0.004736
O O15 0.000000 0.000000 0.500000
#
# Coordination Sequence:
#
# PCOD9106838 Si02
#       7
#     2   2   2   2   2   2   2
#     4   9  20  40  61  91 125 163 206 257 308 364
#     4  11  22  38  68  92 129 160 208 267 304 378
#     4  10  22  42  62  92 126 169 207 254 316 377
#     4  11  21  40  67  95 121 167 209 256 317 365
#     4  10  21  41  62  86 125 163 214 250 311 370
#     4  10  20  40  61  91 120 163 209 257 307 364
#     4   9  22  40  65  90 130 162 208 257 309 379
#
# _framework density 21.012072
#
# number of rings (size 3 to 8) (size 9 to 14) (size 15 to 20)
#    0.000    2.000    2.857    0.000    0.000    7.429 
#    5.143    0.000    3.143    0.000    0.000    0.000 
#    0.000    0.000    0.000    0.000    0.000    0.000 
#
# Total GULP energy -77986.022175 kJ/mol
# GULP energy per Si atom -5570.430155 kJ/mol
# Density = 2.096425 g / cm^3
# Si number density = 21.012072 Si / 1000 Ang^3
#
#
#
# Elastic Constant Matrix: (Units=GPa)
#
#
# Indices 1 2 3 4 5 6 
#
# 1 100.9030 28.8523 37.7811 -14.4489 -0.3856 -9.6807
# 2 28.8523 85.3375 67.0944 -27.9906 -7.8633 -12.8734
# 3 37.7811 67.0944 132.1774 -5.4523 -11.2390 -9.7137
# 4 -14.4489 -27.9906 -5.4523 47.7659 -8.7685 0.3855
# 5 -0.3856 -7.8633 -11.2390 -8.7685 33.8409 -2.0189
# 6 -9.6807 -12.8734 -9.7137 0.3855 -2.0189 26.5327
#
#
#
# Elastic Compliance Matrix: (Units=1/GPa)
#
#
# Indices 1 2 3 4 5 6 
#
# 1 0.011800 -0.000210 -0.002900 0.003111 0.000114 0.003105
# 2 -0.000210 0.029940 -0.013031 0.017329 0.007714 0.010014
# 3 -0.002900 -0.013031 0.014573 -0.006855 -0.000114 -0.001954
# 4 0.003111 0.017329 -0.006855 0.033176 0.010821 0.007375
# 5 0.000114 0.007714 -0.000114 0.010821 0.034480 0.006209
# 6 0.003105 0.010014 -0.001954 0.007375 0.006209 0.043331
#
#
# Mechanical properties :
#
#
# Convention : Reuss Voigt Hill
#
# Bulk Modulus (GPa) = 41.61304 65.09704 53.35504
# Shear Modulus (GPa) = 24.08560 33.94057 29.01309
#
# Velocity S-wave (km/s) = 3.38934 4.02343 3.71992
# Velocity P-wave (km/s) = 5.92994 7.25479 6.62556
#
# Compressibility (1/GPa) = 0.02403093
#
# Stress axis : x y z
#
# Youngs Moduli (GPa) = 84.74331 33.40035 68.61972
#
# Poissons Ratio (x) = 0.00702 0.19900
# Poissons Ratio (y) = 0.01781 0.89418
# Poissons Ratio (z) = 0.24576 0.43524
#
# Static dielectric constant tensor:
#      x y z
#    x 1.719610 0.058140 0.110800 
#    y 0.058140 1.648790 -0.128720 
#    z 0.110800 -0.128720 1.698140 
# 
# From -- ./inp_files/345562.got.cif
#   From: 2010.05.17/outbox.cif.g08.bks.cpg/sg2_173_cif.got.tgz:345562.got - 2010.06.03 11:33:40.
