data_PCOD9106144
_publ_section_title
;
Structure prediction by ZEFSAII (Michael W. Deem and Ramdas Pophale) SiO2 
 PCOD9106144
Probable space group: P -1
;
_chemical_formula_sum "Si O2"
_cell_formula_units_Z 16
_cell_length_a 15.686388
_cell_length_b 8.689862
_cell_length_c 14.502456
_cell_angle_alpha 38.765615
_cell_angle_beta 142.248153
_cell_angle_gamma 135.132879
_cell_volume 735.557300
_symmetry_space_group_name_H-M "P -1"
_symmetry_group_IT_number 2
_symmetry_cell_setting 'triclinic'
loop_
_space_group_symop_operation_xyz
x,y,z
-x,-y,-z
loop_
_atom_site_type_symbol
_atom_site_label
_atom_site_fract_x
_atom_site_fract_y
_atom_site_fract_z
Si Si1 0.419379 0.191568 0.385517
Si Si2 0.854740 0.927317 0.149758
Si Si3 0.119203 0.589178 0.681926
Si Si4 0.419507 0.963897 0.092582
Si Si5 0.171180 0.082427 0.361936
Si Si6 0.362110 0.363020 0.539866
Si Si7 0.121463 0.212667 0.556258
Si Si8 0.366031 0.633631 0.016204
O O1 0.275759 0.062779 0.377409
O O2 0.527849 0.375913 0.462724
O O3 0.378480 0.364116 0.189084
O O4 0.500000 0.000000 0.500000
O O5 0.856322 0.657969 0.232136
O O6 0.843162 0.890449 0.267411
O O7 0.013450 0.100470 0.187194
O O8 0.713366 0.024089 0.961618
O O9 0.957761 0.564524 0.591647
O O10 0.148890 0.832934 0.525143
O O11 0.225386 0.637083 0.836715
O O12 0.540569 0.838332 0.297128
O O13 0.371771 0.797007 0.037840
O O14 0.501393 0.238565 0.996149
O O15 0.253057 0.323960 0.379454
O O16 0.260616 0.289212 0.576728
O O17 0.000000 0.000000 0.500000
#
# Coordination Sequence:
#
# PCOD9106144 Si02
#       8
#     2   2   2   2   2   2   2   2
#     4  11  27  42  65  90 136 175 211 258 326 392
#     4  11  23  35  63 101 136 158 209 282 321 371
#     4  11  23  37  67 101 131 161 217 276 322 367
#     4  10  20  39  67  96 123 163 223 267 316 368
#     4  11  23  43  61  98 128 169 219 258 321 386
#     4  11  22  42  70  94 126 172 219 264 312 392
#     4  11  18  36  65  97 124 163 212 267 322 368
#     4  10  21  42  64  93 128 171 216 261 318 391
#
# _framework density 21.752213999999999
#
# number of rings (size 3 to 8) (size 9 to 14) (size 15 to 20)
#    0.000    1.250    3.750    4.875    5.250    1.500 
#    0.000    3.125    2.750    0.000    0.000    0.000 
#    0.000    0.000    0.000    0.000    0.000    0.000 
#
# Total GULP energy -89465.004703 kJ/mol
# GULP energy per Si atom -5591.562794 kJ/mol
# Density = 2.170271 g / cm^3
# Si number density = 21.752214 Si / 1000 Ang^3
#
#
#
# Elastic Constant Matrix: (Units=GPa)
#
#
# Indices 1 2 3 4 5 6 
#
# 1 133.7031 19.1659 39.4728 -9.1953 38.0497 26.7008
# 2 19.1659 45.9126 17.8245 4.3281 11.6101 14.0539
# 3 39.4728 17.8245 84.8985 -6.1865 25.5041 16.1746
# 4 -9.1953 4.3281 -6.1865 27.5206 -0.5102 8.0172
# 5 38.0497 11.6101 25.5041 -0.5102 44.7032 8.9142
# 6 26.7008 14.0539 16.1746 8.0172 8.9142 26.5505
#
#
#
# Elastic Compliance Matrix: (Units=1/GPa)
#
#
# Indices 1 2 3 4 5 6 
#
# 1 0.012938 -0.000089 -0.000714 0.007550 -0.008084 -0.012095
# 2 -0.000089 0.027248 -0.002724 -0.001771 -0.003265 -0.011043
# 3 -0.000714 -0.002724 0.016512 0.005967 -0.006541 -0.007505
# 4 0.007550 -0.001771 0.005967 0.047131 -0.004226 -0.023103
# 5 -0.008084 -0.003265 -0.006541 -0.004226 0.032975 0.004048
# 6 -0.012095 -0.011043 -0.007505 -0.023103 0.004048 0.065862
#
#
# Mechanical properties :
#
#
# Convention : Reuss Voigt Hill
#
# Bulk Modulus (GPa) = 20.14289 46.38230 33.26259
# Shear Modulus (GPa) = 22.09778 32.29160 27.19469
#
# Velocity S-wave (km/s) = 3.19075 3.85713 3.53966
# Velocity P-wave (km/s) = 4.78067 6.41918 5.65954
#
# Compressibility (1/GPa) = 0.04964531
#
# Stress axis : x y z
#
# Youngs Moduli (GPa) = 77.29236 36.69996 60.56167
#
# Poissons Ratio (x) = 0.00327 0.04323
# Poissons Ratio (y) = 0.00688 0.16494
# Poissons Ratio (z) = 0.05517 0.09995
#
# Static dielectric constant tensor:
#      x y z
#    x 1.789090 0.004060 0.010460 
#    y 0.004060 1.820900 0.013580 
#    z 0.010460 0.013580 1.823790 
# 
# From -- ./inp_files/269484.got.cif
#   From: 2010.05.17/outbox.cif.g08.bks.cpg/sg2_135_cif.got.tgz:269484.got - 2010.06.03 11:33:40.
