data_PCOD9106783
_publ_section_title
;
Structure prediction by ZEFSAII (Michael W. Deem and Ramdas Pophale) SiO2 
 PCOD9106783
Probable space group: P -1
;
_chemical_formula_sum "Si O2"
_cell_formula_units_Z 16
_cell_length_a 16.346431
_cell_length_b 13.116841
_cell_length_c 7.682188
_cell_angle_alpha 109.445335
_cell_angle_beta 129.294615
_cell_angle_gamma 33.464871
_cell_volume 624.897876
_symmetry_space_group_name_H-M "P -1"
_symmetry_group_IT_number 2
_symmetry_cell_setting 'triclinic'
loop_
_space_group_symop_operation_xyz
x,y,z
-x,-y,-z
loop_
_atom_site_type_symbol
_atom_site_label
_atom_site_fract_x
_atom_site_fract_y
_atom_site_fract_z
Si Si1 0.212263 0.886736 0.113251
Si Si2 0.800330 0.021467 0.491293
Si Si3 0.577667 0.956164 0.841727
Si Si4 0.943864 0.167672 0.589514
Si Si5 0.954362 0.459261 0.670338
Si Si6 0.477319 0.545881 0.700460
Si Si7 0.837535 0.750855 0.498601
Si Si8 0.554357 0.764581 0.459591
O O1 0.130400 0.960980 0.244913
O O2 0.308876 0.686412 0.071020
O O3 0.414752 0.786340 0.333696
O O4 0.060884 0.073463 0.877527
O O5 0.950850 0.861535 0.443891
O O6 0.602656 0.259614 0.285885
O O7 0.779550 0.926171 0.506717
O O8 0.560143 0.859462 0.655069
O O9 0.368940 0.129959 0.771227
O O10 0.537369 0.099674 0.758600
O O11 0.812996 0.756816 0.091460
O O12 0.000000 0.000000 0.500000
O O13 0.704933 0.365407 0.412664
O O14 0.964033 0.429968 0.459343
O O15 0.890516 0.643290 0.689371
O O16 0.790942 0.535171 0.601481
O O17 0.500000 0.500000 0.500000
#
# Coordination Sequence:
#
# PCOD9106783 Si02
#       8
#     2   2   2   2   2   2   2   2
#     4  11  23  44  67  96 135 172 213 273 325 380
#     4  10  22  43  65  96 132 167 219 267 321 389
#     4  10  20  40  61  86 130 172 216 269 324 374
#     4  10  24  44  70  97 126 172 217 266 328 390
#     4  10  22  38  62  89 128 172 218 270 318 381
#     4   9  22  43  69  96 129 167 211 268 324 388
#     4  10  21  40  58  93 128 168 222 264 322 386
#     4  10  22  37  62  94 126 170 221 265 319 390
#
# _framework density 25.604181000000001
#
# number of rings (size 3 to 8) (size 9 to 14) (size 15 to 20)
#    0.000    2.000    1.250    0.750    3.500    6.500 
#    2.250    3.750    0.000    0.000    0.000    0.000 
#    0.000    0.000    0.000    0.000    0.000    0.000 
#
# Total GULP energy -89189.308423 kJ/mol
# GULP energy per Si atom -5574.331776 kJ/mol
# Density = 2.554591 g / cm^3
# Si number density = 25.604181 Si / 1000 Ang^3
#
#
#
# Elastic Constant Matrix: (Units=GPa)
#
#
# Indices 1 2 3 4 5 6 
#
# 1 71.3986 42.5740 3.5303 1.1383 12.8525 -23.2418
# 2 42.5740 112.0982 24.4081 -37.6993 5.6836 -23.0071
# 3 3.5303 24.4081 91.3840 -32.0600 4.9715 -14.9297
# 4 1.1383 -37.6993 -32.0600 37.1677 -10.2556 10.1582
# 5 12.8525 5.6836 4.9715 -10.2556 15.6311 -1.1732
# 6 -23.2418 -23.0071 -14.9297 10.1582 -1.1732 50.3315
#
#
#
# Elastic Compliance Matrix: (Units=1/GPa)
#
#
# Indices 1 2 3 4 5 6 
#
# 1 0.061756 -0.039687 -0.012512 -0.082104 -0.084641 0.021263
# 2 -0.039687 0.040413 0.010688 0.070633 0.060165 -0.009536
# 3 -0.012512 0.010688 0.019166 0.034500 0.022818 -0.001638
# 4 -0.082104 0.070633 0.034500 0.178796 0.146055 -0.028074
# 5 -0.084641 0.060165 0.022818 0.146055 0.198036 -0.029676
# 6 0.021263 -0.009536 -0.001638 -0.028074 -0.029676 0.029816
#
#
# Mechanical properties :
#
#
# Convention : Reuss Voigt Hill
#
# Bulk Modulus (GPa) = 26.09969 46.21173 36.15571
# Shear Modulus (GPa) = 8.01570 34.25062 21.13316
#
# Velocity S-wave (km/s) = 1.77128 3.66142 2.87606
# Velocity P-wave (km/s) = 3.79459 5.99686 5.01803
#
# Compressibility (1/GPa) = 0.03831464
#
# Stress axis : x y z
#
# Youngs Moduli (GPa) = 16.19279 24.74454 52.17529
#
# Poissons Ratio (x) = 0.98203 0.65279
# Poissons Ratio (y) = 0.64264 -0.55766
# Poissons Ratio (z) = 0.20260 -0.26447
#
# Static dielectric constant tensor:
#      x y z
#    x 2.268720 0.028190 -0.046710 
#    y 0.028190 2.151700 0.013900 
#    z -0.046710 0.013900 2.075240 
# 
# From -- ./inp_files/335733.got.cif
#   From: 2010.05.17/outbox.cif.g08.bks.cpg/sg2_168_cif.got.tgz:335733.got - 2010.06.03 11:33:40.
