data_PCOD9106673
_publ_section_title
;
Structure prediction by ZEFSAII (Michael W. Deem and Ramdas Pophale) SiO2 
 PCOD9106673
Probable space group: P -1
;
_chemical_formula_sum "Si O2"
_cell_formula_units_Z 14
_cell_length_a 17.481723
_cell_length_b 9.491017
_cell_length_c 14.329459
_cell_angle_alpha 49.759949
_cell_angle_beta 25.810196
_cell_angle_gamma 35.129191
_cell_volume 555.637612
_symmetry_space_group_name_H-M "P -1"
_symmetry_group_IT_number 2
_symmetry_cell_setting 'triclinic'
loop_
_space_group_symop_operation_xyz
x,y,z
-x,-y,-z
loop_
_atom_site_type_symbol
_atom_site_label
_atom_site_fract_x
_atom_site_fract_y
_atom_site_fract_z
Si Si1 0.533459 0.187926 0.547908
Si Si2 0.802063 0.363553 0.142976
Si Si3 0.353653 0.894386 0.335524
Si Si4 0.787040 0.732549 0.353338
Si Si5 0.860568 0.587417 0.715668
Si Si6 0.912004 0.241486 0.399200
Si Si7 0.405357 0.688758 0.112215
O O1 0.715252 0.217887 0.302218
O O2 0.283865 0.476292 0.734258
O O3 0.651573 0.034647 0.582552
O O4 0.539207 0.010690 0.548899
O O5 0.626963 0.600005 0.158896
O O6 0.077861 0.211007 0.879525
O O7 0.170750 0.860167 0.535028
O O8 0.280868 0.109430 0.254066
O O9 0.956821 0.570173 0.329911
O O10 0.805058 0.521851 0.374293
O O11 0.000000 0.500000 0.500000
O O12 0.653582 0.583326 0.932009
O O13 0.769377 0.296247 0.630081
O O14 0.213002 0.001475 0.168051
O O15 0.500000 0.500000 0.000000
#
# Coordination Sequence:
#
# PCOD9106673 Si02
#       7
#     2   2   2   2   2   2   2
#     4   9  21  40  64  82 116 159 211 250 289 359
#     4   9  20  40  65  84 111 162 214 245 292 354
#     4  10  20  40  60  83 125 155 196 252 293 359
#     4  12  22  36  64  89 120 157 202 249 302 361
#     4  12  21  37  63  93 117 160 204 239 306 367
#     4  11  24  38  54  95 126 155 203 249 302 360
#     4  11  24  38  58  85 131 167 194 246 300 367
#
# _framework density 25.196278
#
# number of rings (size 3 to 8) (size 9 to 14) (size 15 to 20)
#    0.857    0.571    1.429    5.571    0.000    1.714 
#    0.000    1.429    0.000    0.000    0.000    0.000 
#    0.000    0.000    0.000    0.000    0.000    0.000 
#
# Total GULP energy -78220.919723 kJ/mol
# GULP energy per Si atom -5587.208552 kJ/mol
# Density = 2.513893 g / cm^3
# Si number density = 25.196278 Si / 1000 Ang^3
#
#
#
# Elastic Constant Matrix: (Units=GPa)
#
#
# Indices 1 2 3 4 5 6 
#
# 1 70.0274 17.5718 19.9215 6.7066 3.9496 21.4694
# 2 17.5718 102.2288 15.9706 16.6080 6.8969 4.4956
# 3 19.9215 15.9706 99.9780 11.9421 9.6801 3.2065
# 4 6.7066 16.6080 11.9421 12.6356 -2.4812 -2.1126
# 5 3.9496 6.8969 9.6801 -2.4812 33.2797 1.0331
# 6 21.4694 4.4956 3.2065 -2.1126 1.0331 46.5884
#
#
#
# Elastic Compliance Matrix: (Units=1/GPa)
#
#
# Indices 1 2 3 4 5 6 
#
# 1 0.018714 -0.001021 -0.002114 -0.008395 -0.001750 -0.008722
# 2 -0.001021 0.013221 0.000778 -0.018662 -0.004186 -0.001612
# 3 -0.002114 0.000778 0.012213 -0.012369 -0.004372 -0.000405
# 4 -0.008395 -0.018662 -0.012369 0.125215 0.017431 0.011812
# 5 -0.001750 -0.004186 -0.004372 0.017431 0.033647 0.001555
# 6 -0.008722 -0.001612 -0.000405 0.011812 0.001555 0.026169
#
#
# Mechanical properties :
#
#
# Convention : Reuss Voigt Hill
#
# Bulk Modulus (GPa) = 25.35895 42.12909 33.74402
# Shear Modulus (GPa) = 20.23978 33.08544 26.66261
#
# Velocity S-wave (km/s) = 2.83730 3.62761 3.25652
# Velocity P-wave (km/s) = 4.56291 5.85686 5.24990
#
# Compressibility (1/GPa) = 0.03943382
#
# Stress axis : x y z
#
# Youngs Moduli (GPa) = 53.43468 75.63606 81.87986
#
# Poissons Ratio (x) = 0.07723 0.17310
# Poissons Ratio (y) = 0.05456 -0.06368
# Poissons Ratio (z) = 0.11296 -0.05882
#
# Static dielectric constant tensor:
#      x y z
#    x 2.076260 -0.005560 -0.006520 
#    y -0.005560 2.057040 0.054370 
#    z -0.006520 0.054370 1.991230 
# 
# From -- ./inp_files/307499.got.cif
#   From: 2010.05.17/outbox.cif.g08.bks.cpg/sg2_154_cif.got.tgz:307499.got - 2010.06.03 11:33:40.
