data_PCOD9106860
_publ_section_title
;
Structure prediction by ZEFSAII (Michael W. Deem and Ramdas Pophale) SiO2 
 PCOD9106860
Probable space group: P -1
;
_chemical_formula_sum "Si O2"
_cell_formula_units_Z 16
_cell_length_a 14.708417
_cell_length_b 7.103914
_cell_length_c 8.400392
_cell_angle_alpha 93.600362
_cell_angle_beta 119.033607
_cell_angle_gamma 120.086414
_cell_volume 607.259734
_symmetry_space_group_name_H-M "P -1"
_symmetry_group_IT_number 2
_symmetry_cell_setting 'triclinic'
loop_
_space_group_symop_operation_xyz
x,y,z
-x,-y,-z
loop_
_atom_site_type_symbol
_atom_site_label
_atom_site_fract_x
_atom_site_fract_y
_atom_site_fract_z
Si Si1 0.910818 0.629948 0.438527
Si Si2 0.859159 0.192230 0.533376
Si Si3 0.214323 0.538533 0.023021
Si Si4 0.367285 0.553236 0.743386
Si Si5 0.403473 0.183851 0.848570
Si Si6 0.728074 0.843034 0.929937
Si Si7 0.034528 0.816881 0.039164
Si Si8 0.553585 0.926993 0.675386
O O1 0.914674 0.460995 0.555268
O O2 0.789337 0.621135 0.395142
O O3 0.059434 0.847900 0.528341
O O4 0.855376 0.517144 0.209646
O O5 0.887433 0.141305 0.728401
O O6 0.706381 0.047043 0.353822
O O7 0.257558 0.366577 0.066036
O O8 0.331114 0.814205 0.143593
O O9 0.103599 0.442001 0.062487
O O10 0.414978 0.390990 0.773982
O O11 0.427943 0.734817 0.661981
O O12 0.451443 0.726011 0.976543
O O13 0.332696 0.154445 0.955112
O O14 0.866639 0.095184 0.019193
O O15 0.627990 0.810281 0.708978
O O16 0.000000 0.000000 0.000000
O O17 0.500000 0.000000 0.500000
#
# Coordination Sequence:
#
# PCOD9106860 Si02
#       8
#     2   2   2   2   2   2   2   2
#     4  10  20  40  61  94 123 162 210 260 322 377
#     4  10  22  37  66  97 124 157 218 269 308 375
#     4  10  21  43  65  87 128 169 201 263 327 370
#     4  10  22  40  60  87 130 162 207 254 320 372
#     4  10  21  41  63  95 122 164 217 262 305 375
#     4  10  21  43  65  91 128 168 208 257 324 381
#     4   9  21  41  65  93 126 168 206 254 332 387
#     4  11  26  41  58  95 128 164 221 259 300 390
#
# _framework density 26.34787
#
# number of rings (size 3 to 8) (size 9 to 14) (size 15 to 20)
#    0.000    2.000    1.250    1.500    1.750    5.500 
#    2.250    0.000    0.000    0.000    0.000    0.000 
#    0.000    0.000    0.000    0.000    0.000    0.000 
#
# Total GULP energy -89408.648211 kJ/mol
# GULP energy per Si atom -5588.040513 kJ/mol
# Density = 2.628790 g / cm^3
# Si number density = 26.347870 Si / 1000 Ang^3
#
#
#
# Elastic Constant Matrix: (Units=GPa)
#
#
# Indices 1 2 3 4 5 6 
#
# 1 96.3941 35.5127 25.9172 -15.2970 19.6725 17.1994
# 2 35.5127 161.6603 27.3916 -28.8937 -6.6281 27.5842
# 3 25.9172 27.3916 91.5047 -43.5878 27.6610 -11.0133
# 4 -15.2970 -28.8937 -43.5878 52.0293 -0.6047 7.0172
# 5 19.6725 -6.6281 27.6610 -0.6047 34.1049 -13.7897
# 6 17.1994 27.5842 -11.0133 7.0172 -13.7897 34.8231
#
#
#
# Elastic Compliance Matrix: (Units=1/GPa)
#
#
# Indices 1 2 3 4 5 6 
#
# 1 0.018962 -0.000711 0.004746 0.011375 -0.022149 -0.018364
# 2 -0.000711 0.008727 -0.000958 0.004904 -0.000244 -0.007950
# 3 0.004746 -0.000958 0.032328 0.028935 -0.032736 -0.010155
# 4 0.011375 0.004904 0.028935 0.052627 -0.038784 -0.026315
# 5 -0.022149 -0.000244 -0.032736 -0.038784 0.084998 0.042253
# 6 -0.018364 -0.007950 -0.010155 -0.026315 0.042253 0.062907
#
#
# Mechanical properties :
#
#
# Convention : Reuss Voigt Hill
#
# Bulk Modulus (GPa) = 15.11232 58.57800 36.84516
# Shear Modulus (GPa) = 18.08625 41.57398 29.83011
#
# Velocity S-wave (km/s) = 2.62284 3.97657 3.36842
# Velocity P-wave (km/s) = 3.86271 6.58521 5.39840
#
# Compressibility (1/GPa) = 0.06617116
#
# Stress axis : x y z
#
# Youngs Moduli (GPa) = 52.73651 114.58176 30.93310
#
# Poissons Ratio (x) = 0.08148 -0.14680
# Poissons Ratio (y) = 0.03750 0.02963
# Poissons Ratio (z) = -0.25028 0.10975
#
# Static dielectric constant tensor:
#      x y z
#    x 2.491860 -0.141070 0.333290 
#    y -0.141070 2.131930 -0.101020 
#    z 0.333290 -0.101020 2.486260 
# 
# From -- ./inp_files/327450.got.cif
#   From: 2010.05.17/outbox.cif.g08.bks.cpg/sg2_164_cif.got.tgz:327450.got - 2010.06.03 11:33:40.
