data_PCOD9106615
_publ_section_title
;
Structure prediction by ZEFSAII (Michael W. Deem and Ramdas Pophale) SiO2 
 PCOD9106615
Probable space group: P -1
;
_chemical_formula_sum "Si O2"
_cell_formula_units_Z 13
_cell_length_a 12.660342
_cell_length_b 7.785620
_cell_length_c 14.997289
_cell_angle_alpha 57.075474
_cell_angle_beta 152.079586
_cell_angle_gamma 130.978625
_cell_volume 519.867209
_symmetry_space_group_name_H-M "P -1"
_symmetry_group_IT_number 2
_symmetry_cell_setting 'triclinic'
loop_
_space_group_symop_operation_xyz
x,y,z
-x,-y,-z
loop_
_atom_site_type_symbol
_atom_site_label
_atom_site_fract_x
_atom_site_fract_y
_atom_site_fract_z
Si Si1 0.937960 0.892095 0.128452
Si Si2 0.500000 0.500000 0.000000
Si Si3 0.281512 0.825738 0.551942
Si Si4 0.059551 0.662264 0.612111
Si Si5 0.371972 0.725754 0.348680
Si Si6 0.351406 0.394919 0.560680
Si Si7 0.128564 0.361099 0.038611
O O1 0.138127 0.884022 0.350074
O O2 0.901136 0.745903 0.052086
O O3 0.671945 0.760895 0.017508
O O4 0.047464 0.154435 0.106392
O O5 0.255093 0.562946 0.812854
O O6 0.183749 0.837476 0.574950
O O7 0.192728 0.554413 0.554609
O O8 0.566401 0.009361 0.694267
O O9 0.928091 0.737180 0.570954
O O10 0.375949 0.639575 0.474842
O O11 0.583058 0.704722 0.451081
O O12 0.096889 0.565538 0.149866
O O13 0.588167 0.448802 0.786731
#
# Coordination Sequence:
#
# PCOD9106615 Si02
#       7
#     2   1   2   2   2   2   2
#     4  10  22  36  64  93 125 153 210 258 308 359
#     4  10  20  40  58  94 122 158 198 256 310 358
#     4  10  21  40  63  93 124 163 200 260 311 361
#     4  10  23  38  66  91 126 158 210 255 310 363
#     4  11  23  42  65  86 131 163 207 252 310 364
#     4  11  25  42  61  94 124 167 204 256 305 375
#     4  11  23  39  63  94 121 166 205 256 302 371
#
# _framework density 25.006387
#
# number of rings (size 3 to 8) (size 9 to 14) (size 15 to 20)
#    0.000    1.538    1.538    3.231   10.769    1.846 
#    0.000    0.000    0.000    4.615    0.000    0.000 
#    0.000    0.000    0.000    0.000    0.000    0.000 
#
# Total GULP energy -72369.710351 kJ/mol
# GULP energy per Si atom -5566.900796 kJ/mol
# Density = 2.494947 g / cm^3
# Si number density = 25.006387 Si / 1000 Ang^3
#
#
#
# Elastic Constant Matrix: (Units=GPa)
#
#
# Indices 1 2 3 4 5 6 
#
# 1 96.8640 11.5519 47.6674 -9.7895 12.6385 8.9682
# 2 11.5519 55.1696 7.3126 -1.7865 -3.3963 22.7904
# 3 47.6674 7.3126 118.0853 2.6795 18.2205 10.1140
# 4 -9.7895 -1.7865 2.6795 34.4618 4.4379 -1.4559
# 5 12.6385 -3.3963 18.2205 4.4379 40.0304 -3.8583
# 6 8.9682 22.7904 10.1140 -1.4559 -3.8583 41.2409
#
#
#
# Elastic Compliance Matrix: (Units=1/GPa)
#
#
# Indices 1 2 3 4 5 6 
#
# 1 0.013987 -0.001938 -0.005123 0.004602 -0.002838 -0.000818
# 2 -0.001938 0.023819 0.000187 -0.000037 0.001331 -0.012664
# 3 -0.005123 0.000187 0.011294 -0.001964 -0.003497 -0.002156
# 4 0.004602 -0.000037 -0.001964 0.030997 -0.003977 0.000223
# 5 -0.002838 0.001331 -0.003497 -0.003977 0.028336 0.003250
# 6 -0.000818 -0.012664 -0.002156 0.000223 0.003250 0.032265
#
#
# Mechanical properties :
#
#
# Convention : Reuss Voigt Hill
#
# Bulk Modulus (GPa) = 28.28572 44.79806 36.54189
# Shear Modulus (GPa) = 30.07929 36.71909 33.39919
#
# Velocity S-wave (km/s) = 3.47200 3.83611 3.65859
# Velocity P-wave (km/s) = 5.23536 6.12981 5.70015
#
# Compressibility (1/GPa) = 0.03535353
#
# Stress axis : x y z
#
# Youngs Moduli (GPa) = 71.49640 41.98310 88.54640
#
# Poissons Ratio (x) = 0.08135 0.45359
# Poissons Ratio (y) = 0.13853 -0.01659
# Poissons Ratio (z) = 0.36625 -0.00786
#
# Static dielectric constant tensor:
#      x y z
#    x 2.034820 -0.029340 0.033720 
#    y -0.029340 2.053990 -0.027670 
#    z 0.033720 -0.027670 2.002720 
# 
# From -- ./inp_files/443955.got.cif
#   From: 2010.05.17/outbox.cif.g08.bks.cpg/sg2_222_cif.got.tgz:443955.got - 2010.06.03 11:33:40.
