data_PCOD9106109
_publ_section_title
;
Structure prediction by ZEFSAII (Michael W. Deem and Ramdas Pophale) SiO2 
 PCOD9106109
Probable space group: P -1
;
_chemical_formula_sum "Si O2"
_cell_formula_units_Z 16
_cell_length_a 10.671420
_cell_length_b 7.760248
_cell_length_c 13.944787
_cell_angle_alpha 124.461008
_cell_angle_beta 129.513012
_cell_angle_gamma 79.583408
_cell_volume 704.808499
_symmetry_space_group_name_H-M "P -1"
_symmetry_group_IT_number 2
_symmetry_cell_setting 'triclinic'
loop_
_space_group_symop_operation_xyz
x,y,z
-x,-y,-z
loop_
_atom_site_type_symbol
_atom_site_label
_atom_site_fract_x
_atom_site_fract_y
_atom_site_fract_z
Si Si1 0.232236 0.215932 0.133598
Si Si2 0.132889 0.421013 0.600527
Si Si3 0.663889 0.295061 0.655811
Si Si4 0.576201 0.812675 0.158200
Si Si5 0.139770 0.796721 0.087732
Si Si6 0.213341 0.489828 0.871625
Si Si7 0.336713 0.134600 0.567060
Si Si8 0.455767 0.811796 0.839521
O O1 0.276333 0.458733 0.274097
O O2 0.372524 0.227760 0.125481
O O3 0.232893 0.021202 0.146740
O O4 0.047862 0.177282 0.984098
O O5 0.103062 0.426144 0.701738
O O6 0.161536 0.198432 0.503468
O O7 0.315263 0.595664 0.729285
O O8 0.000000 0.500000 0.500000
O O9 0.769361 0.248938 0.785952
O O10 0.469663 0.240410 0.581407
O O11 0.683223 0.119701 0.532980
O O12 0.708087 0.710984 0.135604
O O13 0.584600 0.776846 0.264186
O O14 0.616216 0.066939 0.241091
O O15 0.386024 0.683481 0.995263
O O16 0.130480 0.590833 0.948279
O O17 0.500000 0.000000 0.000000
#
# Coordination Sequence:
#
# PCOD9106109 Si02
#       8
#     2   2   2   2   2   2   2   2
#     4  11  24  40  66  99 130 172 224 269 333 396
#     4  11  24  43  65  96 136 169 213 277 336 388
#     4  11  22  42  65  94 132 178 215 269 329 398
#     4  10  20  39  67  94 123 169 221 270 321 386
#     4  11  23  43  66  98 136 166 221 281 327 389
#     4  10  20  40  67  93 125 171 208 273 332 375
#     4  10  22  42  65  91 132 175 220 261 331 397
#     4  12  22  40  68 100 124 168 232 269 326 403
#
# _framework density 22.701201999999999
#
# number of rings (size 3 to 8) (size 9 to 14) (size 15 to 20)
#    0.000    1.250    5.000    0.375    1.750    3.000 
#    6.750    3.125    0.000    0.000    0.000    0.000 
#    0.000    0.000    0.000    0.000    0.000    0.000 
#
# Total GULP energy -89396.911700 kJ/mol
# GULP energy per Si atom -5587.306981 kJ/mol
# Density = 2.264953 g / cm^3
# Si number density = 22.701202 Si / 1000 Ang^3
#
#
#
# Elastic Constant Matrix: (Units=GPa)
#
#
# Indices 1 2 3 4 5 6 
#
# 1 69.2822 23.4061 28.4404 6.2547 -5.8191 -18.9865
# 2 23.4061 69.6496 26.2064 8.7950 -17.2331 -23.0812
# 3 28.4404 26.2064 61.3874 8.4160 -17.9665 -17.3027
# 4 6.2547 8.7950 8.4160 38.3868 -3.0992 -2.2656
# 5 -5.8191 -17.2331 -17.9665 -3.0992 16.4956 8.3049
# 6 -18.9865 -23.0812 -17.3027 -2.2656 8.3049 28.9639
#
#
#
# Elastic Compliance Matrix: (Units=1/GPa)
#
#
# Indices 1 2 3 4 5 6 
#
# 1 0.020638 -0.003169 -0.008506 -0.001056 -0.009856 0.008666
# 2 -0.003169 0.024033 0.000092 -0.002891 0.017573 0.011864
# 3 -0.008506 0.000092 0.029572 -0.002714 0.026620 0.004318
# 4 -0.001056 -0.002891 -0.002714 0.027336 0.000041 -0.002491
# 5 -0.009856 0.017573 0.026620 0.000041 0.108340 -0.007615
# 6 0.008666 0.011864 0.004318 -0.002491 -0.007615 0.054229
#
#
# Mechanical properties :
#
#
# Convention : Reuss Voigt Hill
#
# Bulk Modulus (GPa) = 19.57798 39.60277 29.59038
# Shear Modulus (GPa) = 16.42901 24.92035 20.67468
#
# Velocity S-wave (km/s) = 2.69310 3.31683 3.02111
# Velocity P-wave (km/s) = 4.27940 5.67024 5.02319
#
# Compressibility (1/GPa) = 0.05107780
#
# Stress axis : x y z
#
# Youngs Moduli (GPa) = 48.45355 41.61010 33.81600
#
# Poissons Ratio (x) = 0.13184 0.28764
# Poissons Ratio (y) = 0.15353 -0.00312
# Poissons Ratio (z) = 0.41215 -0.00383
#
# Static dielectric constant tensor:
#      x y z
#    x 1.894950 0.043860 0.002010 
#    y 0.043860 1.947790 -0.033600 
#    z 0.002010 -0.033600 1.846510 
# 
# From -- ./inp_files/513739.got.cif
#   From: 2010.05.17/outbox.cif.g08.bks.cpg/sg2_257_cif.got.tgz:513739.got - 2010.06.03 11:33:40.
