data_PCOD9106195
_publ_section_title
;
Structure prediction by ZEFSAII (Michael W. Deem and Ramdas Pophale) SiO2 
 PCOD9106195
Probable space group: P -1
;
_chemical_formula_sum "Si O2"
_cell_formula_units_Z 14
_cell_length_a 4.946968
_cell_length_b 9.240656
_cell_length_c 12.709432
_cell_angle_alpha 87.077195
_cell_angle_beta 74.620447
_cell_angle_gamma 79.750376
_cell_volume 551.240112
_symmetry_space_group_name_H-M "P -1"
_symmetry_group_IT_number 2
_symmetry_cell_setting 'triclinic'
loop_
_space_group_symop_operation_xyz
x,y,z
-x,-y,-z
loop_
_atom_site_type_symbol
_atom_site_label
_atom_site_fract_x
_atom_site_fract_y
_atom_site_fract_z
Si Si1 0.140355 0.012554 0.748897
Si Si2 0.585000 0.332053 0.959864
Si Si3 0.965682 0.768647 0.921227
Si Si4 0.003759 0.636666 0.415929
Si Si5 0.416411 0.239458 0.388981
Si Si6 0.086252 0.600278 0.709188
Si Si7 0.419986 0.783694 0.265332
O O1 0.302795 0.144406 0.755980
O O2 0.843316 0.080445 0.724603
O O3 0.058386 0.913336 0.857217
O O4 0.364762 0.905343 0.657948
O O5 0.888256 0.270699 0.981153
O O6 0.366578 0.233984 0.035157
O O7 0.500000 0.500000 0.000000
O O8 0.569142 0.311965 0.838142
O O9 0.082375 0.638760 0.830699
O O10 0.767182 0.761412 0.486469
O O11 0.940339 0.563593 0.314746
O O12 0.000000 0.500000 0.500000
O O13 0.302086 0.691324 0.373180
O O14 0.624513 0.359591 0.368868
O O15 0.184263 0.291228 0.318802
#
# Coordination Sequence:
#
# PCOD9106195 Si02
#       7
#     2   2   2   2   2   2   2
#     4  11  25  44  66 100 134 177 221 261 328 394
#     4  12  26  44  69 102 132 172 220 273 330 384
#     4  11  23  44  72  95 138 181 211 265 331 396
#     4  10  24  44  69  98 131 176 221 275 340 385
#     4  10  21  40  67  94 130 171 216 268 321 393
#     4  10  20  39  68 100 125 166 224 267 319 393
#     4  12  27  43  66  99 136 168 224 282 313 395
#
# _framework density 25.397281
#
# number of rings (size 3 to 8) (size 9 to 14) (size 15 to 20)
#    0.000    1.143    0.000    6.857    0.000   12.571 
#    0.000    0.000    0.000    0.000    0.000    0.000 
#    0.000    0.000    0.000    0.000    0.000    0.000 
#
# Total GULP energy -78466.374978 kJ/mol
# GULP energy per Si atom -5604.741070 kJ/mol
# Density = 2.533948 g / cm^3
# Si number density = 25.397281 Si / 1000 Ang^3
#
#
#
# Elastic Constant Matrix: (Units=GPa)
#
#
# Indices 1 2 3 4 5 6 
#
# 1 105.8229 32.8028 9.7578 -15.1347 -9.9780 15.8033
# 2 32.8028 122.7798 35.9186 -6.8648 -9.1459 2.6791
# 3 9.7578 35.9186 106.2107 -1.6865 -25.9824 16.0723
# 4 -15.1347 -6.8648 -1.6865 35.6856 1.2489 -7.4561
# 5 -9.9780 -9.1459 -25.9824 1.2489 38.8143 -3.4075
# 6 15.8033 2.6791 16.0723 -7.4561 -3.4075 52.6002
#
#
#
# Elastic Compliance Matrix: (Units=1/GPa)
#
#
# Indices 1 2 3 4 5 6 
#
# 1 0.011459 -0.002913 0.001071 0.003646 0.002601 -0.002936
# 2 -0.002913 0.009899 -0.003445 0.000842 -0.000618 0.001503
# 3 0.001071 -0.003445 0.012944 -0.000641 0.007825 -0.003685
# 4 0.003646 0.000842 -0.000641 0.030403 0.000024 0.003369
# 5 0.002601 -0.000618 0.007825 0.000024 0.031428 -0.001102
# 6 -0.002936 0.001503 -0.003685 0.003369 -0.001102 0.021349
#
#
# Mechanical properties :
#
#
# Convention : Reuss Voigt Hill
#
# Bulk Modulus (GPa) = 42.14581 54.64131 48.39356
# Shear Modulus (GPa) = 36.77389 42.50898 39.64143
#
# Velocity S-wave (km/s) = 3.80932 4.09560 3.95505
# Velocity P-wave (km/s) = 5.99821 6.62771 6.32080
#
# Compressibility (1/GPa) = 0.02372715
#
# Stress axis : x y z
#
# Youngs Moduli (GPa) = 87.26626 101.01931 77.25728
#
# Poissons Ratio (x) = 0.29429 -0.08274
# Poissons Ratio (y) = 0.25422 0.26617
# Poissons Ratio (z) = -0.09346 0.34804
#
# Static dielectric constant tensor:
#      x y z
#    x 1.997490 -0.035900 0.044750 
#    y -0.035900 2.030370 0.020500 
#    z 0.044750 0.020500 2.012960 
# 
# From -- ./inp_files/478537.got.cif
#   From: 2010.05.17/outbox.cif.g08.bks.cpg/sg2_240_cif.got.tgz:478537.got - 2010.06.03 11:33:40.
