data_PCOD9106906
_publ_section_title
;
Structure prediction by ZEFSAII (Michael W. Deem and Ramdas Pophale) SiO2 
 PCOD9106906
Probable space group: P -1
;
_chemical_formula_sum "Si O2"
_cell_formula_units_Z 16
_cell_length_a 15.681537
_cell_length_b 7.989928
_cell_length_c 22.539840
_cell_angle_alpha 35.505265
_cell_angle_beta 22.812336
_cell_angle_gamma 45.962905
_cell_volume 616.473932
_symmetry_space_group_name_H-M "P -1"
_symmetry_group_IT_number 2
_symmetry_cell_setting 'triclinic'
loop_
_space_group_symop_operation_xyz
x,y,z
-x,-y,-z
loop_
_atom_site_type_symbol
_atom_site_label
_atom_site_fract_x
_atom_site_fract_y
_atom_site_fract_z
Si Si1 0.116061 0.769740 0.598656
Si Si2 0.910555 0.712972 0.949310
Si Si3 0.419709 0.272940 0.062391
Si Si4 0.364261 0.052953 0.512797
Si Si5 0.174990 0.411705 0.367567
Si Si6 0.934065 0.116104 0.925989
Si Si7 0.252025 0.689942 0.404933
Si Si8 0.706479 0.181600 0.163545
O O1 0.842573 0.735402 0.780578
O O2 0.107795 0.441359 0.722685
O O3 0.247936 0.784234 0.447912
O O4 0.210456 0.109357 0.461028
O O5 0.871202 0.979867 0.939802
O O6 0.725958 0.509593 0.083359
O O7 0.115579 0.846793 0.735537
O O8 0.000000 0.500000 0.000000
O O9 0.400769 0.942025 0.194796
O O10 0.500000 0.500000 0.000000
O O11 0.593935 0.371509 0.867271
O O12 0.327347 0.384181 0.441994
O O13 0.506529 0.978954 0.388108
O O14 0.500000 0.000000 0.500000
O O15 0.000000 0.500000 0.500000
O O16 0.011022 0.347829 0.433987
O O17 0.721772 0.138629 0.096336
O O18 0.064590 0.895623 0.936801
#
# Coordination Sequence:
#
# PCOD9106906 Si02
#       8
#     2   2   2   2   2   2   2   2
#     4  11  21  41  65  93 127 161 219 261 314 389
#     4  10  20  40  62  86 125 169 211 258 312 373
#     4  11  21  41  66  89 119 165 210 256 318 383
#     4  12  22  40  65  95 131 167 217 263 319 387
#     4  11  25  43  63  95 130 160 208 273 323 376
#     4  10  21  41  65  92 132 172 210 271 317 373
#     4  11  23  39  68  92 125 169 211 267 314 379
#     4  10  23  42  62  93 135 170 215 265 317 379
#
# _framework density 25.954056999999999
#
# number of rings (size 3 to 8) (size 9 to 14) (size 15 to 20)
#    0.000    1.250    6.250    0.750    0.000    7.000 
#    0.000    6.875    0.000    0.000    0.000    0.000 
#    0.000    0.000    0.000    0.000    0.000    0.000 
#
# Total GULP energy -89442.841233 kJ/mol
# GULP energy per Si atom -5590.177577 kJ/mol
# Density = 2.589498 g / cm^3
# Si number density = 25.954057 Si / 1000 Ang^3
#
#
#
# Elastic Constant Matrix: (Units=GPa)
#
#
# Indices 1 2 3 4 5 6 
#
# 1 47.1455 12.6193 20.5182 7.7570 3.9396 -0.1746
# 2 12.6193 119.5084 59.8358 -3.8082 18.8727 11.0573
# 3 20.5182 59.8358 201.0115 19.1802 24.8109 17.0116
# 4 7.7570 -3.8082 19.1802 58.1408 2.4039 18.4628
# 5 3.9396 18.8727 24.8109 2.4039 31.0923 13.2091
# 6 -0.1746 11.0573 17.0116 18.4628 13.2091 44.8559
#
#
#
# Elastic Compliance Matrix: (Units=1/GPa)
#
#
# Indices 1 2 3 4 5 6 
#
# 1 0.023106 -0.001814 -0.001534 -0.003608 -0.001634 0.003085
# 2 -0.001814 0.010687 -0.002645 0.002466 -0.003669 -0.001573
# 3 -0.001534 -0.002645 0.006508 -0.001961 -0.003213 -0.000069
# 4 -0.003608 0.002466 -0.001961 0.021401 0.002927 -0.009549
# 5 -0.001634 -0.003669 -0.003213 0.002927 0.041772 -0.011389
# 6 0.003085 -0.001573 -0.000069 -0.009549 -0.011389 0.030004
#
#
# Mechanical properties :
#
#
# Convention : Reuss Voigt Hill
#
# Bulk Modulus (GPa) = 35.31765 61.51244 48.41504
# Shear Modulus (GPa) = 32.27847 45.13061 38.70454
#
# Velocity S-wave (km/s) = 3.53041 4.17449 3.86589
# Velocity P-wave (km/s) = 5.50051 6.85472 6.21461
#
# Compressibility (1/GPa) = 0.02831446
#
# Stress axis : x y z
#
# Youngs Moduli (GPa) = 43.27966 93.57017 153.64908
#
# Poissons Ratio (x) = 0.16976 0.23563
# Poissons Ratio (y) = 0.07852 0.40647
# Poissons Ratio (z) = 0.06637 0.24754
#
# Static dielectric constant tensor:
#      x y z
#    x 2.175770 0.064920 0.017510 
#    y 0.064920 1.888860 -0.375330 
#    z 0.017510 -0.375330 1.434660 
# 
# From -- ./inp_files/620647.got.cif
#   From: 2010.05.17/outbox.cif.g08.bks.cpg/sg2_311_cif.got.tgz:620647.got - 2010.06.03 11:33:40.
