data_PCOD9106929
_publ_section_title
;
Structure prediction by ZEFSAII (Michael W. Deem and Ramdas Pophale) SiO2 
 PCOD9106929
Probable space group: P -1
;
_chemical_formula_sum "Si O2"
_cell_formula_units_Z 16
_cell_length_a 5.026760
_cell_length_b 12.985999
_cell_length_c 15.532060
_cell_angle_alpha 56.095194
_cell_angle_beta 55.211821
_cell_angle_gamma 61.961072
_cell_volume 673.734622
_symmetry_space_group_name_H-M "P -1"
_symmetry_group_IT_number 2
_symmetry_cell_setting 'triclinic'
loop_
_space_group_symop_operation_xyz
x,y,z
-x,-y,-z
loop_
_atom_site_type_symbol
_atom_site_label
_atom_site_fract_x
_atom_site_fract_y
_atom_site_fract_z
Si Si1 0.740034 0.363892 0.035240
Si Si2 0.791016 0.811322 0.520333
Si Si3 0.425741 0.610957 0.756909
Si Si4 0.534902 0.877100 0.840540
Si Si5 0.902936 0.557056 0.218637
Si Si6 0.340453 0.939049 0.398888
Si Si7 0.368529 0.757540 0.324750
Si Si8 0.195034 0.994306 0.120241
O O1 0.793038 0.360214 0.129678
O O2 0.538007 0.259840 0.094074
O O3 0.500000 0.500000 0.000000
O O4 0.039931 0.361097 0.914622
O O5 0.567559 0.732031 0.647014
O O6 0.580987 0.912084 0.446727
O O7 0.059433 0.720823 0.449438
O O8 0.006237 0.889347 0.499859
O O9 0.229446 0.561677 0.739368
O O10 0.746594 0.498765 0.773654
O O11 0.679951 0.926923 0.704732
O O12 0.773705 0.902271 0.860410
O O13 0.160088 0.965071 0.879016
O O14 0.641109 0.642789 0.290427
O O15 0.492793 0.839601 0.339051
O O16 0.247550 0.859979 0.223059
O O17 0.500000 0.000000 0.000000
#
# Coordination Sequence:
#
# PCOD9106929 Si02
#       8
#     2   2   2   2   2   2   2   2
#     4  10  25  46  64  89 125 164 213 259 295 359
#     4  10  20  40  62  87 132 155 202 256 306 361
#     4  11  25  42  62  88 121 170 214 255 299 353
#     4  11  21  40  63  89 123 164 201 245 314 365
#     4  11  24  40  63  91 123 164 208 252 312 364
#     4   9  19  38  60  92 126 155 193 254 308 375
#     4   9  22  36  63  91 131 153 197 252 314 366
#     4  11  22  36  61  96 126 161 199 249 310 376
#
# _framework density 23.748222999999999
#
# number of rings (size 3 to 8) (size 9 to 14) (size 15 to 20)
#    0.750    1.000    1.250    2.250    1.750    8.000 
#    0.000    1.250    0.000    0.000    0.000    0.000 
#    0.000    0.000    0.000    0.000    0.000    0.000 
#
# Total GULP energy -89495.716432 kJ/mol
# GULP energy per Si atom -5593.482277 kJ/mol
# Density = 2.369417 g / cm^3
# Si number density = 23.748223 Si / 1000 Ang^3
#
#
#
# Elastic Constant Matrix: (Units=GPa)
#
#
# Indices 1 2 3 4 5 6 
#
# 1 69.1772 -6.1870 -2.9379 7.3891 -10.7024 3.8726
# 2 -6.1870 49.9622 11.4923 0.8474 -8.3468 -3.8862
# 3 -2.9379 11.4923 117.0362 8.2995 -19.5950 6.1599
# 4 7.3891 0.8474 8.2995 39.2915 2.5450 -18.6872
# 5 -10.7024 -8.3468 -19.5950 2.5450 30.7526 -6.0423
# 6 3.8726 -3.8862 6.1599 -18.6872 -6.0423 32.2163
#
#
#
# Elastic Compliance Matrix: (Units=1/GPa)
#
#
# Indices 1 2 3 4 5 6 
#
# 1 0.016858 0.002646 0.002100 -0.006198 0.007595 -0.004280
# 2 0.002646 0.022115 -0.001247 0.000951 0.006922 0.004438
# 3 0.002100 -0.001247 0.010386 -0.004883 0.006632 -0.003977
# 4 -0.006198 0.000951 -0.004883 0.039210 -0.003565 0.023869
# 5 0.007595 0.006922 0.006632 -0.003565 0.042454 0.004548
# 6 -0.004280 0.004438 -0.003977 0.023869 0.004548 0.047549
#
#
# Mechanical properties :
#
#
# Convention : Reuss Voigt Hill
#
# Bulk Modulus (GPa) = 17.74460 26.76780 22.25620
# Shear Modulus (GPa) = 26.26588 36.03930 31.15259
#
# Velocity S-wave (km/s) = 3.32929 3.89981 3.62579
# Velocity P-wave (km/s) = 4.71880 5.61907 5.18850
#
# Compressibility (1/GPa) = 0.05635516
#
# Stress axis : x y z
#
# Youngs Moduli (GPa) = 59.31857 45.21797 96.28736
#
# Poissons Ratio (x) = -0.11963 -0.20218
# Poissons Ratio (y) = -0.15694 0.12010
# Poissons Ratio (z) = -0.12456 0.05640
#
# Static dielectric constant tensor:
#      x y z
#    x 1.866010 -0.028520 -0.002810 
#    y -0.028520 1.934720 0.052890 
#    z -0.002810 0.052890 1.926000 
# 
# From -- ./inp_files/482707.got.cif
#   From: 2010.05.17/outbox.cif.g08.bks.cpg/sg2_242_cif.got.tgz:482707.got - 2010.06.03 11:33:40.
