data_PCOD9106774
_publ_section_title
;
Structure prediction by ZEFSAII (Michael W. Deem and Ramdas Pophale) SiO2 
 PCOD9106774
Probable space group: P -1
;
_chemical_formula_sum "Si O2"
_cell_formula_units_Z 16
_cell_length_a 9.398300
_cell_length_b 22.626725
_cell_length_c 7.013089
_cell_angle_alpha 93.048496
_cell_angle_beta 133.343220
_cell_angle_gamma 55.744196
_cell_volume 746.155189
_symmetry_space_group_name_H-M "P -1"
_symmetry_group_IT_number 2
_symmetry_cell_setting 'triclinic'
loop_
_space_group_symop_operation_xyz
x,y,z
-x,-y,-z
loop_
_atom_site_type_symbol
_atom_site_label
_atom_site_fract_x
_atom_site_fract_y
_atom_site_fract_z
Si Si1 0.022539 0.831271 0.789501
Si Si2 0.345365 0.350335 0.754722
Si Si3 0.604114 0.410226 0.083984
Si Si4 0.900429 0.695611 0.200299
Si Si5 0.882893 0.685653 0.733096
Si Si6 0.598680 0.882458 0.085197
Si Si7 0.316586 0.885182 0.150663
Si Si8 0.539004 0.928649 0.625311
O O1 0.827124 0.862722 0.431165
O O2 0.852452 0.841927 0.816192
O O3 0.326416 0.737396 0.003485
O O4 0.084851 0.885913 0.906535
O O5 0.229400 0.332107 0.809970
O O6 0.173033 0.367673 0.412431
O O7 0.358301 0.415926 0.833957
O O8 0.787420 0.361218 0.436098
O O9 0.833886 0.353517 0.115048
O O10 0.500000 0.500000 0.000000
O O11 0.719284 0.793750 0.100228
O O12 0.897794 0.684732 0.972279
O O13 0.614098 0.783147 0.428367
O O14 0.342321 0.921197 0.995777
O O15 0.532084 0.934299 0.845760
O O16 0.323023 0.926438 0.346591
O O17 0.500000 0.000000 0.500000
#
# Coordination Sequence:
#
# PCOD9106774 Si02
#       8
#     2   2   2   2   2   2   2   2
#     4  10  21  38  63  88 113 153 202 243 287 350
#     4  10  21  39  60  91 114 152 201 243 293 339
#     4  11  23  41  60  87 128 158 188 241 298 351
#     4  11  21  37  63  89 113 155 202 247 286 345
#     4  10  21  38  61  91 118 151 201 249 286 342
#     4  11  20  38  62  85 115 153 200 242 293 346
#     4  10  20  40  61  86 117 152 200 249 288 345
#     4  11  25  39  58  89 125 156 190 245 303 350
#
# _framework density 21.443259999999999
#
# number of rings (size 3 to 8) (size 9 to 14) (size 15 to 20)
#    0.000    1.500    6.250    0.750    0.000    9.000 
#    0.000    2.500    0.000    0.000    0.000    0.000 
#    0.000    0.000    0.000    0.000    0.000    0.000 
#
# Total GULP energy -89408.660017 kJ/mol
# GULP energy per Si atom -5588.041251 kJ/mol
# Density = 2.139445 g / cm^3
# Si number density = 21.443260 Si / 1000 Ang^3
#
#
#
# Elastic Constant Matrix: (Units=GPa)
#
#
# Indices 1 2 3 4 5 6 
#
# 1 85.4537 17.5382 65.1335 34.3273 4.4738 -1.3243
# 2 17.5382 78.2456 17.6915 21.5862 5.0101 15.4926
# 3 65.1335 17.6915 84.2030 40.9037 -7.5885 -7.6051
# 4 34.3273 21.5862 40.9037 38.6565 3.8047 4.5485
# 5 4.4738 5.0101 -7.5885 3.8047 46.0578 19.6422
# 6 -1.3243 15.4926 -7.6051 4.5485 19.6422 33.9147
#
#
#
# Elastic Compliance Matrix: (Units=1/GPa)
#
#
# Indices 1 2 3 4 5 6 
#
# 1 0.030665 -0.000864 -0.023504 -0.001258 -0.006848 0.000456
# 2 -0.000864 0.016542 0.001087 -0.008971 0.002423 -0.007547
# 3 -0.023504 0.001087 0.046018 -0.030224 0.008920 0.007792
# 4 -0.001258 -0.008971 -0.030224 0.065507 -0.005820 -0.008143
# 5 -0.006848 0.002423 0.008920 -0.005820 0.031161 -0.016641
# 6 0.000456 -0.007547 0.007792 -0.008143 -0.016641 0.045428
#
#
# Mechanical properties :
#
#
# Convention : Reuss Voigt Hill
#
# Bulk Modulus (GPa) = 21.42930 49.84764 35.63847
# Shear Modulus (GPa) = 16.81031 33.56174 25.18603
#
# Velocity S-wave (km/s) = 2.80294 3.96048 3.43088
# Velocity P-wave (km/s) = 4.52664 6.64911 5.68775
#
# Compressibility (1/GPa) = 0.04666509
#
# Stress axis : x y z
#
# Youngs Moduli (GPa) = 32.61016 60.45180 21.73071
#
# Poissons Ratio (x) = 0.05222 0.51075
# Poissons Ratio (y) = 0.02817 -0.02363
# Poissons Ratio (z) = 0.76646 -0.06574
#
# Static dielectric constant tensor:
#      x y z
#    x 1.778150 0.004300 0.026820 
#    y 0.004300 1.884790 -0.023740 
#    z 0.026820 -0.023740 1.764510 
# 
# From -- ./inp_files/55533.got.cif
#   From: 2010.05.17/outbox.cif.g08.bks.cpg/sg2_28_cif.got.tgz:55533.got - 2010.06.03 11:33:40.
