data_PCOD9106771
_publ_section_title
;
Structure prediction by ZEFSAII (Michael W. Deem and Ramdas Pophale) SiO2 
 PCOD9106771
Probable space group: P -1
;
_chemical_formula_sum "Si O2"
_cell_formula_units_Z 16
_cell_length_a 10.521267
_cell_length_b 13.278524
_cell_length_c 8.807783
_cell_angle_alpha 65.569063
_cell_angle_beta 143.475030
_cell_angle_gamma 106.992920
_cell_volume 664.960312
_symmetry_space_group_name_H-M "P -1"
_symmetry_group_IT_number 2
_symmetry_cell_setting 'triclinic'
loop_
_space_group_symop_operation_xyz
x,y,z
-x,-y,-z
loop_
_atom_site_type_symbol
_atom_site_label
_atom_site_fract_x
_atom_site_fract_y
_atom_site_fract_z
Si Si1 0.727608 0.646028 0.215624
Si Si2 0.946909 0.480472 0.739568
Si Si3 0.596836 0.984451 0.932752
Si Si4 0.923481 0.833511 0.477467
Si Si5 0.991781 0.249925 0.836344
Si Si6 0.679725 0.570691 0.696749
Si Si7 0.695758 0.826430 0.579835
Si Si8 0.671267 0.213917 0.291754
O O1 0.824894 0.528990 0.444369
O O2 0.787676 0.735254 0.344955
O O3 0.860259 0.683684 0.176311
O O4 0.476942 0.671478 0.929121
O O5 0.852833 0.557459 0.736725
O O6 0.902327 0.350829 0.796652
O O7 0.202671 0.481823 0.008060
O O8 0.517182 0.092845 0.695449
O O9 0.484040 0.884958 0.805552
O O10 0.500000 0.000000 0.000000
O O11 0.840732 0.941428 0.230335
O O12 0.850302 0.846821 0.571712
O O13 0.167283 0.800511 0.687481
O O14 0.811380 0.206449 0.583385
O O15 0.151564 0.164214 0.133577
O O16 0.500000 0.500000 0.500000
O O17 0.628296 0.700285 0.593576
#
# Coordination Sequence:
#
# PCOD9106771 Si02
#       8
#     2   2   2   2   2   2   2   2
#     4  10  20  40  61  85 127 165 208 255 298 362
#     4  10  21  40  58  91 125 162 208 259 305 354
#     4   9  20  39  64  93 126 155 210 260 307 368
#     4   9  19  40  64  93 122 157 210 259 303 368
#     4  10  23  38  60  90 128 164 205 254 307 374
#     4  10  22  39  62  95 127 159 207 254 314 370
#     4  10  20  41  64  92 130 160 199 270 312 352
#     4  10  22  40  62  92 122 166 211 246 310 379
#
# _framework density 24.061589000000001
#
# number of rings (size 3 to 8) (size 9 to 14) (size 15 to 20)
#    0.000    2.250    1.250    0.375    0.000    7.000 
#    0.000   14.375    0.000    0.000    0.000    0.000 
#    0.000    0.000    0.000    0.000    0.000    0.000 
#
# Total GULP energy -89330.754766 kJ/mol
# GULP energy per Si atom -5583.172173 kJ/mol
# Density = 2.400682 g / cm^3
# Si number density = 24.061589 Si / 1000 Ang^3
#
#
#
# Elastic Constant Matrix: (Units=GPa)
#
#
# Indices 1 2 3 4 5 6 
#
# 1 22.5259 1.9388 39.7175 0.3761 -4.4829 -3.2615
# 2 1.9388 63.5765 51.2766 -5.9472 6.9738 2.6089
# 3 39.7175 51.2766 178.3324 -24.7374 -1.1666 14.8428
# 4 0.3761 -5.9472 -24.7374 50.1270 -6.5036 -3.0773
# 5 -4.4829 6.9738 -1.1666 -6.5036 32.4046 1.1044
# 6 -3.2615 2.6089 14.8428 -3.0773 1.1044 19.5297
#
#
#
# Elastic Compliance Matrix: (Units=1/GPa)
#
#
# Indices 1 2 3 4 5 6 
#
# 1 0.118168 0.023914 -0.038682 -0.013748 0.005568 0.043457
# 2 0.023914 0.026193 -0.014355 -0.004002 -0.004024 0.011001
# 3 -0.038682 -0.014355 0.021059 0.007888 0.000739 -0.019346
# 4 -0.013748 -0.004002 0.007888 0.023748 0.004154 -0.004249
# 5 0.005568 -0.004024 0.000739 0.004154 0.033368 -0.000326
# 6 0.043457 0.011001 -0.019346 -0.004249 -0.000326 0.071044
#
#
# Mechanical properties :
#
#
# Convention : Reuss Voigt Hill
#
# Bulk Modulus (GPa) = 9.33045 50.03341 29.68193
# Shear Modulus (GPa) = 12.90158 31.84572 22.37365
#
# Velocity S-wave (km/s) = 2.31809 3.64195 3.05265
# Velocity P-wave (km/s) = 3.32429 6.20678 4.97870
#
# Compressibility (1/GPa) = 0.10717600
#
# Stress axis : x y z
#
# Youngs Moduli (GPa) = 8.46254 38.17848 47.48515
#
# Poissons Ratio (x) = -0.91302 1.83681
# Poissons Ratio (y) = -0.20238 0.68163
# Poissons Ratio (z) = 0.32735 0.54804
#
# Static dielectric constant tensor:
#      x y z
#    x 2.003210 -0.035670 0.016090 
#    y -0.035670 1.989400 -0.015220 
#    z 0.016090 -0.015220 2.005610 
# 
# From -- ./inp_files/56920.got.cif
#   From: 2010.05.17/outbox.cif.g08.bks.cpg/sg2_29_cif.got.tgz:56920.got - 2010.06.03 11:33:40.
