data_PCOD9106909
_publ_section_title
;
Structure prediction by ZEFSAII (Michael W. Deem and Ramdas Pophale) SiO2 
 PCOD9106909
Probable space group: P -1
;
_chemical_formula_sum "Si O2"
_cell_formula_units_Z 16
_cell_length_a 17.132567
_cell_length_b 9.140633
_cell_length_c 19.111026
_cell_angle_alpha 37.803660
_cell_angle_beta 23.389288
_cell_angle_gamma 29.560942
_cell_volume 585.621198
_symmetry_space_group_name_H-M "P -1"
_symmetry_group_IT_number 2
_symmetry_cell_setting 'triclinic'
loop_
_space_group_symop_operation_xyz
x,y,z
-x,-y,-z
loop_
_atom_site_type_symbol
_atom_site_label
_atom_site_fract_x
_atom_site_fract_y
_atom_site_fract_z
Si Si1 0.116900 0.176970 0.492666
Si Si2 0.179746 0.221750 0.703825
Si Si3 0.619501 0.408385 0.243750
Si Si4 0.769248 0.242172 0.971646
Si Si5 0.131778 0.326436 0.856327
Si Si6 0.645182 0.211553 0.821619
Si Si7 0.883774 0.820185 0.660728
Si Si8 0.796184 0.215041 0.312703
O O1 0.886278 0.172393 0.665423
O O2 0.000000 0.500000 0.500000
O O3 0.241133 0.120613 0.334763
O O4 0.271967 0.919760 0.519457
O O5 0.096074 0.470667 0.621152
O O6 0.206334 0.322177 0.717812
O O7 0.944238 0.209827 0.902056
O O8 0.380176 0.877014 0.659999
O O9 0.470258 0.605622 0.225312
O O10 0.587059 0.418803 0.350583
O O11 0.864018 0.396142 0.048583
O O12 0.545116 0.587468 0.034983
O O13 0.699193 0.015864 0.125993
O O14 0.963917 0.085790 0.807022
O O15 0.122397 0.583030 0.805677
O O16 0.743431 0.895946 0.822667
O O17 0.000000 0.000000 0.500000
#
# Coordination Sequence:
#
# PCOD9106909 Si02
#       8
#     2   2   2   2   2   2   2   2
#     4  11  24  48  60  81 125 176 209 245 306 361
#     4  10  17  35  64  86 124 169 195 238 312 379
#     4  10  19  38  62  98 119 157 199 248 310 368
#     4  10  19  36  60  98 124 152 194 252 322 366
#     4  10  16  34  60  95 133 155 184 245 324 382
#     4  11  22  41  65  93 124 150 210 268 295 355
#     4  10  23  41  60  82 122 174 212 243 294 359
#     4  10  22  37  66  89 130 167 190 239 323 379
#
# _framework density 27.321415999999999
#
# number of rings (size 3 to 8) (size 9 to 14) (size 15 to 20)
#    0.000    2.000    2.500    5.250    0.000    1.000 
#    6.750    6.250    0.000    0.000    0.000    0.000 
#    0.000    0.000    0.000    0.000    0.000    0.000 
#
# Total GULP energy -89221.574476 kJ/mol
# GULP energy per Si atom -5576.348405 kJ/mol
# Density = 2.725923 g / cm^3
# Si number density = 27.321416 Si / 1000 Ang^3
#
#
#
# Elastic Constant Matrix: (Units=GPa)
#
#
# Indices 1 2 3 4 5 6 
#
# 1 105.2438 42.0242 23.1661 -1.0380 22.6140 23.5262
# 2 42.0242 140.1812 29.8750 -16.6922 8.7431 26.4272
# 3 23.1661 29.8750 90.7877 -8.7879 5.6609 17.9165
# 4 -1.0380 -16.6922 -8.7879 47.5657 6.6602 14.1809
# 5 22.6140 8.7431 5.6609 6.6602 37.1027 -4.8714
# 6 23.5262 26.4272 17.9165 14.1809 -4.8714 66.6235
#
#
#
# Elastic Compliance Matrix: (Units=1/GPa)
#
#
# Indices 1 2 3 4 5 6 
#
# 1 0.013492 -0.002184 -0.001099 0.001893 -0.008489 -0.004626
# 2 -0.002184 0.009400 -0.001258 0.004397 -0.001967 -0.003699
# 3 -0.001099 -0.001258 0.012811 0.003191 -0.002006 -0.003384
# 4 0.001893 0.004397 0.003191 0.027342 -0.008864 -0.009739
# 5 -0.008489 -0.001967 -0.002006 -0.008864 0.035643 0.008810
# 6 -0.004626 -0.003699 -0.003384 -0.009739 0.008810 0.021738
#
#
# Mechanical properties :
#
#
# Convention : Reuss Voigt Hill
#
# Bulk Modulus (GPa) = 37.56176 58.48259 48.02218
# Shear Modulus (GPa) = 36.13224 46.33487 41.23355
#
# Velocity S-wave (km/s) = 3.64055 4.12262 3.88906
# Velocity P-wave (km/s) = 5.60798 6.64178 6.14665
#
# Compressibility (1/GPa) = 0.02662282
#
# Stress axis : x y z
#
# Youngs Moduli (GPa) = 74.11606 106.38418 78.05954
#
# Poissons Ratio (x) = 0.23230 0.08577
# Poissons Ratio (y) = 0.16184 0.09818
# Poissons Ratio (z) = 0.08143 0.13380
#
# Static dielectric constant tensor:
#      x y z
#    x 2.088270 -0.011520 0.055420 
#    y -0.011520 2.269330 0.168990 
#    z 0.055420 0.168990 2.329430 
# 
# From -- ./inp_files/514370.got.cif
#   From: 2010.05.17/outbox.cif.g08.bks.cpg/sg2_258_cif.got.tgz:514370.got - 2010.06.03 11:33:40.
