data_PCOD9106021
_publ_section_title
;
Structure prediction by ZEFSAII (Michael W. Deem and Ramdas Pophale) SiO2 
 PCOD9106021
Probable space group: P -1
;
_chemical_formula_sum "Si O2"
_cell_formula_units_Z 16
_cell_length_a 19.277810
_cell_length_b 5.596506
_cell_length_c 7.971894
_cell_angle_alpha 115.249555
_cell_angle_beta 118.546101
_cell_angle_gamma 97.924598
_cell_volume 616.904958
_symmetry_space_group_name_H-M "P -1"
_symmetry_group_IT_number 2
_symmetry_cell_setting 'triclinic'
loop_
_space_group_symop_operation_xyz
x,y,z
-x,-y,-z
loop_
_atom_site_type_symbol
_atom_site_label
_atom_site_fract_x
_atom_site_fract_y
_atom_site_fract_z
Si Si1 0.466291 0.280416 0.737284
Si Si2 0.942908 0.788704 0.514636
Si Si3 0.258600 0.184663 0.861262
Si Si4 0.324253 0.792796 0.642074
Si Si5 0.120384 0.813830 0.843548
Si Si6 0.634937 0.217955 0.946904
Si Si7 0.055916 0.836257 0.100809
Si Si8 0.650716 0.693604 0.658194
O O1 0.541911 0.179213 0.761169
O O2 0.439579 0.411491 0.582141
O O3 0.379172 0.013822 0.625812
O O4 0.500000 0.500000 0.000000
O O5 0.872770 0.480834 0.280867
O O6 0.017325 0.732436 0.683570
O O7 0.905074 0.968995 0.633011
O O8 0.000000 0.000000 0.500000
O O9 0.290765 0.452066 0.852718
O O10 0.335533 0.349444 0.141718
O O11 0.254326 0.902634 0.668964
O O12 0.175541 0.065177 0.853397
O O13 0.301657 0.471925 0.443085
O O14 0.382524 0.868414 0.902127
O O15 0.131839 0.867918 0.069621
O O16 0.672943 0.038405 0.819596
O O17 0.000000 0.500000 0.000000
O O18 0.000000 0.000000 0.000000
#
# Coordination Sequence:
#
# PCOD9106021 Si02
#       8
#     2   2   2   2   2   2   2   2
#     4  12  22  41  69  92 125 171 223 282 332 382
#     4  10  20  39  70 100 125 165 222 269 325 391
#     4  11  25  44  62  93 136 176 218 263 339 401
#     4  11  23  43  64  92 129 170 224 275 328 394
#     4  10  23  41  65  96 132 172 211 273 329 400
#     4  11  24  42  64  96 129 170 221 280 332 397
#     4  10  20  39  67 101 137 167 220 280 332 398
#     4  11  25  40  66  93 128 168 222 272 332 395
#
# _framework density 25.935924
#
# number of rings (size 3 to 8) (size 9 to 14) (size 15 to 20)
#    0.000    1.250    3.750    1.500    0.000    4.000 
#    0.000    1.250    0.000    0.000    0.000    0.000 
#    0.000    0.000    0.000    0.000    0.000    0.000 
#
# Total GULP energy -89136.768931 kJ/mol
# GULP energy per Si atom -5571.048058 kJ/mol
# Density = 2.587689 g / cm^3
# Si number density = 25.935924 Si / 1000 Ang^3
#
#
#
# Elastic Constant Matrix: (Units=GPa)
#
#
# Indices 1 2 3 4 5 6 
#
# 1 117.0766 28.7450 43.0787 7.0194 -36.4858 6.4891
# 2 28.7450 60.4157 27.3571 7.8110 -16.3409 5.2843
# 3 43.0787 27.3571 107.4114 23.0939 -50.0657 -4.7635
# 4 7.0194 7.8110 23.0939 35.8522 -17.1451 -4.9983
# 5 -36.4858 -16.3409 -50.0657 -17.1451 56.4816 1.2106
# 6 6.4891 5.2843 -4.7635 -4.9983 1.2106 38.3404
#
#
#
# Elastic Compliance Matrix: (Units=1/GPa)
#
#
# Indices 1 2 3 4 5 6 
#
# 1 0.011763 -0.003396 -0.001664 0.002053 0.005800 -0.001645
# 2 -0.003396 0.020263 -0.003495 -0.001872 0.000065 -0.002898
# 3 -0.001664 -0.003495 0.017493 -0.004097 0.012133 0.002019
# 4 0.002053 -0.001872 -0.004097 0.034687 0.007603 0.003683
# 5 0.005800 0.000065 0.012133 0.007603 0.034524 0.000418
# 6 -0.001645 -0.002898 0.002019 0.003683 0.000418 0.027478
#
#
# Mechanical properties :
#
#
# Convention : Reuss Voigt Hill
#
# Bulk Modulus (GPa) = 30.85440 53.69615 42.27528
# Shear Modulus (GPa) = 28.71564 38.51638 33.61601
#
# Velocity S-wave (km/s) = 3.33104 3.85783 3.60407
# Velocity P-wave (km/s) = 5.16881 6.37119 5.80124
#
# Compressibility (1/GPa) = 0.03241029
#
# Stress axis : x y z
#
# Youngs Moduli (GPa) = 85.01286 49.35018 57.16467
#
# Poissons Ratio (x) = 0.16760 0.09510
# Poissons Ratio (y) = 0.28872 0.19978
# Poissons Ratio (z) = 0.14143 0.17247
#
# Static dielectric constant tensor:
#      x y z
#    x 2.098960 -0.119200 -0.024550 
#    y -0.119200 2.053000 -0.015720 
#    z -0.024550 -0.015720 2.108420 
# 
# From -- ./inp_files/339982.got.cif
#   From: 2010.05.17/outbox.cif.g08.bks.cpg/sg2_170_cif.got.tgz:339982.got - 2010.06.03 11:33:40.
