data_PCOD9106881
_publ_section_title
;
Structure prediction by ZEFSAII (Michael W. Deem and Ramdas Pophale) SiO2 
 PCOD9106881
Probable space group: P -1
;
_chemical_formula_sum "Si O2"
_cell_formula_units_Z 14
_cell_length_a 18.904477
_cell_length_b 7.499241
_cell_length_c 14.133429
_cell_angle_alpha 115.100377
_cell_angle_beta 160.870668
_cell_angle_gamma 57.733691
_cell_volume 531.468317
_symmetry_space_group_name_H-M "P -1"
_symmetry_group_IT_number 2
_symmetry_cell_setting 'triclinic'
loop_
_space_group_symop_operation_xyz
x,y,z
-x,-y,-z
loop_
_atom_site_type_symbol
_atom_site_label
_atom_site_fract_x
_atom_site_fract_y
_atom_site_fract_z
Si Si1 0.186901 0.069025 0.040597
Si Si2 0.510231 0.720725 0.140830
Si Si3 0.273031 0.001865 0.337016
Si Si4 0.013925 0.484275 0.189089
Si Si5 0.993093 0.088071 0.403261
Si Si6 0.555260 0.777965 0.803120
Si Si7 0.289269 0.333105 0.822457
O O1 0.468630 0.993698 0.354441
O O2 0.197394 0.955134 0.128060
O O3 0.047045 0.025224 0.767020
O O4 0.060653 0.333691 0.946058
O O5 0.744510 0.560298 0.458480
O O6 0.570197 0.671273 0.095993
O O7 0.461194 0.976398 0.150584
O O8 0.275586 0.707702 0.882461
O O9 0.080731 0.242879 0.180642
O O10 0.340324 0.826755 0.467991
O O11 0.796210 0.600988 0.015385
O O12 0.228268 0.120813 0.692221
O O13 0.000000 0.000000 0.500000
O O14 0.570657 0.689495 0.907656
O O15 0.000000 0.500000 0.500000
#
# Coordination Sequence:
#
# PCOD9106881 Si02
#       7
#     2   2   2   2   2   2   2
#     4  10  19  35  58  97 125 165 216 256 317 377
#     4  11  22  40  63  92 132 166 204 262 326 361
#     4   9  18  32  61  93 126 164 212 265 308 374
#     4  10  16  34  60  91 124 163 212 257 313 374
#     4  12  23  42  65  94 133 163 215 264 308 391
#     4  10  19  38  59  92 124 167 211 257 313 377
#     4  12  25  41  65  98 128 170 212 259 324 382
#
# _framework density 26.342116000000001
#
# number of rings (size 3 to 8) (size 9 to 14) (size 15 to 20)
#    0.000    1.429    7.143    0.857    0.000    0.571 
#    0.000    0.000    0.000    4.286    0.000    0.000 
#    0.000    0.000    0.000    0.000    0.000    0.000 
#
# Total GULP energy -78226.972228 kJ/mol
# GULP energy per Si atom -5587.640873 kJ/mol
# Density = 2.628216 g / cm^3
# Si number density = 26.342116 Si / 1000 Ang^3
#
#
#
# Elastic Constant Matrix: (Units=GPa)
#
#
# Indices 1 2 3 4 5 6 
#
# 1 174.7621 46.3597 89.6449 0.2688 -32.1506 3.4265
# 2 46.3597 46.9159 42.6289 -34.4548 5.1181 -13.4120
# 3 89.6449 42.6289 157.1081 -16.1100 -4.8921 0.5645
# 4 0.2688 -34.4548 -16.1100 46.1581 -4.5975 7.8201
# 5 -32.1506 5.1181 -4.8921 -4.5975 66.1135 0.7313
# 6 3.4265 -13.4120 0.5645 7.8201 0.7313 40.3972
#
#
#
# Elastic Compliance Matrix: (Units=1/GPa)
#
#
# Indices 1 2 3 4 5 6 
#
# 1 0.025184 -0.058022 -0.002301 -0.040543 0.013901 -0.013771
# 2 -0.058022 0.210002 -0.010639 0.141666 -0.035940 0.048018
# 3 -0.002301 -0.010639 0.010183 -0.003890 0.000218 -0.002730
# 4 -0.040543 0.141666 -0.003890 0.119282 -0.022984 0.027852
# 5 0.013901 -0.035940 0.000218 -0.022984 0.023186 -0.009085
# 6 -0.013771 0.048018 -0.002730 0.027852 -0.009085 0.036675
#
#
# Mechanical properties :
#
#
# Convention : Reuss Voigt Hill
#
# Bulk Modulus (GPa) = 9.66703 81.78369 45.72536
# Shear Modulus (GPa) = 8.32060 43.87727 26.09893
#
# Velocity S-wave (km/s) = 1.77919 4.08569 3.15106
# Velocity P-wave (km/s) = 2.81042 7.30557 5.53488
#
# Compressibility (1/GPa) = 0.10344435
#
# Stress axis : x y z
#
# Youngs Moduli (GPa) = 39.70789 4.76185 98.20579
#
# Poissons Ratio (x) = 0.27629 0.22601
# Poissons Ratio (y) = 2.30392 1.04483
# Poissons Ratio (z) = 0.09138 0.05066
#
# Static dielectric constant tensor:
#      x y z
#    x 2.046590 0.062460 -0.005520 
#    y 0.062460 2.454000 0.004640 
#    z -0.005520 0.004640 2.068830 
# 
# From -- ./inp_files/540523.got.cif
#   From: 2010.05.17/outbox.cif.g08.bks.cpg/sg2_271_cif.got.tgz:540523.got - 2010.06.03 11:33:40.
