data_PCOD9106225
_publ_section_title
;
Structure prediction by ZEFSAII (Michael W. Deem and Ramdas Pophale) SiO2 
 PCOD9106225
Probable space group: P -1
;
_chemical_formula_sum "Si O2"
_cell_formula_units_Z 16
_cell_length_a 8.256000
_cell_length_b 22.882094
_cell_length_c 13.820126
_cell_angle_alpha 161.242013
_cell_angle_beta 69.121234
_cell_angle_gamma 118.351707
_cell_volume 697.580542
_symmetry_space_group_name_H-M "P -1"
_symmetry_group_IT_number 2
_symmetry_cell_setting 'triclinic'
loop_
_space_group_symop_operation_xyz
x,y,z
-x,-y,-z
loop_
_atom_site_type_symbol
_atom_site_label
_atom_site_fract_x
_atom_site_fract_y
_atom_site_fract_z
Si Si1 0.331821 0.827241 0.702367
Si Si2 0.017756 0.467904 0.331763
Si Si3 0.611551 0.556918 0.332130
Si Si4 0.003084 0.230963 0.668405
Si Si5 0.966654 0.353132 0.656076
Si Si6 0.589168 0.707974 0.366308
Si Si7 0.198468 0.194236 0.910318
Si Si8 0.279289 0.367996 0.373402
O O1 0.142406 0.815228 0.666617
O O2 0.452538 0.816401 0.563853
O O3 0.210945 0.647179 0.523835
O O4 0.500000 0.000000 0.000000
O O5 0.833083 0.492788 0.369687
O O6 0.000000 0.500000 0.500000
O O7 0.052789 0.268013 0.005437
O O8 0.572168 0.657381 0.404478
O O9 0.688728 0.701037 0.635799
O O10 0.799426 0.532915 0.222585
O O11 0.416965 0.353279 0.080880
O O12 0.924285 0.258035 0.623001
O O13 0.185757 0.182450 0.537405
O O14 0.851736 0.039898 0.461390
O O15 0.081952 0.456422 0.050425
O O16 0.500000 0.500000 0.000000
O O17 0.182297 0.219405 0.070320
O O18 0.500000 0.500000 0.500000
#
# Coordination Sequence:
#
# PCOD9106225 Si02
#       8
#     2   2   2   2   2   2   2   2
#     4  12  25  42  68  99 130 175 233 273 339 404
#     4  10  21  41  64  93 139 166 212 280 337 391
#     4  10  20  39  68  88 133 172 220 277 336 398
#     4  10  23  42  67  92 133 174 226 267 338 402
#     4  10  22  44  64  92 131 176 216 286 328 390
#     4  11  23  42  64  92 133 181 221 276 333 398
#     4  10  21  39  65  99 129 173 219 275 340 405
#     4   9  19  36  63  94 130 168 207 270 340 388
#
# _framework density 22.936418
#
# number of rings (size 3 to 8) (size 9 to 14) (size 15 to 20)
#    0.000    1.750    3.750    0.000    3.500    1.500 
#    4.500    5.000    0.000    0.000    0.000    0.000 
#    0.000    0.000    0.000    0.000    0.000    0.000 
#
# Total GULP energy -89077.496725 kJ/mol
# GULP energy per Si atom -5567.343545 kJ/mol
# Density = 2.288421 g / cm^3
# Si number density = 22.936418 Si / 1000 Ang^3
#
#
#
# Elastic Constant Matrix: (Units=GPa)
#
#
# Indices 1 2 3 4 5 6 
#
# 1 92.7243 16.7196 34.9664 8.7956 10.7398 19.8918
# 2 16.7196 60.6449 13.5338 7.1868 0.8420 2.1938
# 3 34.9664 13.5338 96.3858 19.2741 4.7476 0.6357
# 4 8.7956 7.1868 19.2741 31.6500 -3.3869 5.8807
# 5 10.7398 0.8420 4.7476 -3.3869 23.7416 -9.6518
# 6 19.8918 2.1938 0.6357 5.8807 -9.6518 49.4229
#
#
#
# Elastic Compliance Matrix: (Units=1/GPa)
#
#
# Indices 1 2 3 4 5 6 
#
# 1 0.015971 -0.002864 -0.004793 -0.000390 -0.009491 -0.008047
# 2 -0.002864 0.017774 -0.000957 -0.002730 0.000817 0.000861
# 3 -0.004793 -0.000957 0.013727 -0.007345 -0.000549 0.002562
# 4 -0.000390 -0.002730 -0.007345 0.037988 0.005947 -0.002986
# 5 -0.009491 0.000817 -0.000549 0.005947 0.052787 0.013392
# 6 -0.008047 0.000861 0.002562 -0.002986 0.013392 0.026372
#
#
# Mechanical properties :
#
#
# Convention : Reuss Voigt Hill
#
# Bulk Modulus (GPa) = 33.06514 42.24387 37.65451
# Shear Modulus (GPa) = 26.05136 33.26525 29.65830
#
# Velocity S-wave (km/s) = 3.37383 3.81244 3.59982
# Velocity P-wave (km/s) = 5.44282 6.15121 5.80783
#
# Compressibility (1/GPa) = 0.03024333
#
# Stress axis : x y z
#
# Youngs Moduli (GPa) = 62.61258 56.26309 72.84874
#
# Poissons Ratio (x) = 0.16117 0.34918
# Poissons Ratio (y) = 0.17935 0.06968
# Poissons Ratio (z) = 0.30012 0.05382
#
# Static dielectric constant tensor:
#      x y z
#    x 2.058110 0.020820 -0.099830 
#    y 0.020820 1.878370 -0.079970 
#    z -0.099830 -0.079970 1.894000 
# 
# From -- ./inp_files/508643.got.cif
#   From: 2010.05.17/outbox.cif.g08.bks.cpg/sg2_255_cif.got.tgz:508643.got - 2010.06.03 11:33:40.
