data_PCOD9106220
_publ_section_title
;
Structure prediction by ZEFSAII (Michael W. Deem and Ramdas Pophale) SiO2 
 PCOD9106220
Probable space group: P -1
;
_chemical_formula_sum "Si O2"
_cell_formula_units_Z 16
_cell_length_a 14.004435
_cell_length_b 6.246048
_cell_length_c 14.499073
_cell_angle_alpha 68.951319
_cell_angle_beta 139.007578
_cell_angle_gamma 92.126888
_cell_volume 717.475080
_symmetry_space_group_name_H-M "P -1"
_symmetry_group_IT_number 2
_symmetry_cell_setting 'triclinic'
loop_
_space_group_symop_operation_xyz
x,y,z
-x,-y,-z
loop_
_atom_site_type_symbol
_atom_site_label
_atom_site_fract_x
_atom_site_fract_y
_atom_site_fract_z
Si Si1 0.919008 0.647023 0.275320
Si Si2 0.422399 0.108915 0.290001
Si Si3 0.040678 0.057068 0.258652
Si Si4 0.345292 0.955912 0.863158
Si Si5 0.873836 0.907991 0.473327
Si Si6 0.834570 0.093717 0.815564
Si Si7 0.276951 0.531133 0.981609
Si Si8 0.375208 0.370302 0.413782
O O1 0.799516 0.583508 0.133121
O O2 0.994324 0.819071 0.254357
O O3 0.055556 0.389219 0.441619
O O4 0.809019 0.817530 0.247637
O O5 0.400765 0.255322 0.348264
O O6 0.285890 0.996548 0.202584
O O7 0.580983 0.862170 0.449262
O O8 0.398248 0.311584 0.163193
O O9 0.150556 0.031152 0.255216
O O10 0.113807 0.049233 0.414764
O O11 0.875639 0.294959 0.097178
O O12 0.346834 0.711100 0.954058
O O13 0.296134 0.957339 0.719810
O O14 0.500000 0.000000 0.000000
O O15 0.000000 0.000000 0.500000
O O16 0.782313 0.391194 0.725292
O O17 0.000000 0.000000 0.000000
O O18 0.500000 0.500000 0.500000
#
# Coordination Sequence:
#
# PCOD9106220 Si02
#       8
#     2   2   2   2   2   2   2   2
#     4  10  20  39  68  86 125 165 213 258 333 388
#     4  10  21  41  66  85 128 175 208 263 317 392
#     4  10  22  36  63 100 124 164 221 265 326 392
#     4  11  24  41  63  95 128 165 215 279 331 382
#     4  11  20  42  67  91 124 177 216 263 332 397
#     4  11  22  38  64  99 134 162 213 276 318 373
#     4  10  21  39  63  93 120 166 221 256 330 396
#     4   9  21  40  61  85 123 175 212 248 331 384
#
# _framework density 22.300426000000002
#
# number of rings (size 3 to 8) (size 9 to 14) (size 15 to 20)
#    0.000    1.750    3.750    1.875    0.000    7.500 
#    0.000   10.000    0.000    0.000    0.000    0.000 
#    0.000    0.000    0.000    0.000    0.000    0.000 
#
# Total GULP energy -89399.930797 kJ/mol
# GULP energy per Si atom -5587.495675 kJ/mol
# Density = 2.224967 g / cm^3
# Si number density = 22.300426 Si / 1000 Ang^3
#
#
#
# Elastic Constant Matrix: (Units=GPa)
#
#
# Indices 1 2 3 4 5 6 
#
# 1 54.6282 27.8735 40.9751 -6.0373 -6.6542 0.2334
# 2 27.8735 114.7125 64.3787 -18.2324 -8.2295 12.9962
# 3 40.9751 64.3787 184.2478 -16.5953 -22.0270 6.7102
# 4 -6.0373 -18.2324 -16.5953 44.2429 10.9555 10.4682
# 5 -6.6542 -8.2295 -22.0270 10.9555 27.9448 1.6958
# 6 0.2334 12.9962 6.7102 10.4682 1.6958 22.9625
#
#
#
# Elastic Compliance Matrix: (Units=1/GPa)
#
#
# Indices 1 2 3 4 5 6 
#
# 1 0.023252 -0.003967 -0.003825 -0.001121 0.001579 0.003521
# 2 -0.003967 0.013376 -0.003029 0.006404 -0.001329 -0.009466
# 3 -0.003825 -0.003029 0.007931 0.000373 0.004366 -0.001057
# 4 -0.001121 0.006404 0.000373 0.031705 -0.009456 -0.017478
# 5 0.001579 -0.001329 0.004366 -0.009456 0.042881 0.000604
# 6 0.003521 -0.009466 -0.001057 -0.017478 0.000604 0.057103
#
#
# Mechanical properties :
#
#
# Convention : Reuss Voigt Hill
#
# Bulk Modulus (GPa) = 43.63627 68.89368 56.26497
# Shear Modulus (GPa) = 24.32727 33.72079 29.02403
#
# Velocity S-wave (km/s) = 3.30644 3.89281 3.61155
# Velocity P-wave (km/s) = 5.84694 7.15303 6.53271
#
# Compressibility (1/GPa) = 0.02291672
#
# Stress axis : x y z
#
# Youngs Moduli (GPa) = 43.00634 74.75986 126.09241
#
# Poissons Ratio (x) = 0.29656 0.48236
# Poissons Ratio (y) = 0.17060 0.38193
# Poissons Ratio (z) = 0.16452 0.22645
#
# Static dielectric constant tensor:
#      x y z
#    x 1.882670 -0.016950 0.009930 
#    y -0.016950 1.838850 -0.002790 
#    z 0.009930 -0.002790 1.842630 
# 
# From -- ./inp_files/39707.got.cif
#   From: 2010.05.17/outbox.cif.g08.bks.cpg/sg2_20_cif.got.tgz:39707.got - 2010.06.03 11:33:40.
