data_PCOD9106736
_publ_section_title
;
Structure prediction by ZEFSAII (Michael W. Deem and Ramdas Pophale) SiO2 
 PCOD9106736
Probable space group: P -1
;
_chemical_formula_sum "Si O2"
_cell_formula_units_Z 16
_cell_length_a 11.601550
_cell_length_b 8.724355
_cell_length_c 11.315721
_cell_angle_alpha 95.503595
_cell_angle_beta 57.655575
_cell_angle_gamma 124.687975
_cell_volume 758.941044
_symmetry_space_group_name_H-M "P -1"
_symmetry_group_IT_number 2
_symmetry_cell_setting 'triclinic'
loop_
_space_group_symop_operation_xyz
x,y,z
-x,-y,-z
loop_
_atom_site_type_symbol
_atom_site_label
_atom_site_fract_x
_atom_site_fract_y
_atom_site_fract_z
Si Si1 0.690505 0.572682 0.930919
Si Si2 0.476694 0.074225 0.696283
Si Si3 0.354371 0.798831 0.132045
Si Si4 0.458551 0.740844 0.568229
Si Si5 0.139963 0.909863 0.205109
Si Si6 0.174974 0.190626 0.355495
Si Si7 0.192103 0.092930 0.943041
Si Si8 0.739477 0.689993 0.434836
O O1 0.673326 0.380147 0.930837
O O2 0.821313 0.705652 0.759133
O O3 0.500000 0.500000 0.000000
O O4 0.737724 0.694729 0.033295
O O5 0.584398 0.175819 0.764471
O O6 0.574711 0.197459 0.533709
O O7 0.311323 0.074771 0.790716
O O8 0.437022 0.863865 0.683917
O O9 0.172944 0.761563 0.216071
O O10 0.500000 0.000000 0.000000
O O11 0.648103 0.791599 0.474383
O O12 0.342887 0.505006 0.611044
O O13 0.942127 0.825935 0.306976
O O14 0.250772 0.086672 0.251409
O O15 0.199965 0.991734 0.048036
O O16 0.275349 0.344171 0.417164
O O17 0.000000 0.000000 0.500000
O O18 0.000000 0.000000 0.000000
#
# Coordination Sequence:
#
# PCOD9106736 Si02
#       8
#     2   2   2   2   2   2   2   2
#     4  11  22  40  66  98 127 174 229 268 333 403
#     4  11  22  42  60  89 127 169 216 263 328 382
#     4  12  22  41  65  96 133 169 220 284 323 390
#     4  10  23  38  62  87 126 171 207 263 324 396
#     4  10  21  39  61  93 126 161 212 266 333 380
#     4   9  19  38  64  88 128 167 214 273 320 395
#     4  11  23  42  64  93 131 170 213 277 333 396
#     4  10  20  40  60  92 122 164 216 255 326 396
#
# _framework density 21.082007000000001
#
# number of rings (size 3 to 8) (size 9 to 14) (size 15 to 20)
#    0.000    1.500    2.500    3.000    0.000    1.000 
#    4.500   10.625    0.000    0.000    0.000    0.000 
#    0.000    0.000    0.000    0.000    0.000    0.000 
#
# Total GULP energy -89093.447107 kJ/mol
# GULP energy per Si atom -5568.340444 kJ/mol
# Density = 2.103402 g / cm^3
# Si number density = 21.082007 Si / 1000 Ang^3
#
#
#
# Elastic Constant Matrix: (Units=GPa)
#
#
# Indices 1 2 3 4 5 6 
#
# 1 66.8110 33.3751 13.8370 15.0784 -15.2729 -2.8047
# 2 33.3751 130.0310 26.1818 34.7779 -22.6043 -9.3906
# 3 13.8370 26.1818 67.3986 9.6469 -1.4135 -0.1899
# 4 15.0784 34.7779 9.6469 37.0602 -6.6103 -1.7331
# 5 -15.2729 -22.6043 -1.4135 -6.6103 21.9068 1.7251
# 6 -2.8047 -9.3906 -0.1899 -1.7331 1.7251 33.3568
#
#
#
# Elastic Compliance Matrix: (Units=1/GPa)
#
#
# Indices 1 2 3 4 5 6 
#
# 1 0.019643 -0.001580 -0.002636 -0.003897 0.010684 0.000437
# 2 -0.001580 0.012881 -0.003212 -0.008865 0.009107 0.002543
# 3 -0.002636 -0.003212 0.016686 -0.001069 -0.004330 -0.000863
# 4 -0.003897 -0.008865 -0.001069 0.037001 -0.000700 -0.000871
# 5 0.010684 0.009107 -0.004330 -0.000700 0.061987 0.000195
# 6 0.000437 0.002543 -0.000863 -0.000871 0.000195 0.030671
#
#
# Mechanical properties :
#
#
# Convention : Reuss Voigt Hill
#
# Bulk Modulus (GPa) = 29.10912 45.66981 37.38947
# Shear Modulus (GPa) = 24.36934 31.18787 27.77860
#
# Velocity S-wave (km/s) = 3.40359 3.85042 3.63388
# Velocity P-wave (km/s) = 5.41141 6.44031 5.94815
#
# Compressibility (1/GPa) = 0.03435349
#
# Stress axis : x y z
#
# Youngs Moduli (GPa) = 50.90886 77.63622 59.93091
#
# Poissons Ratio (x) = 0.12265 0.15797
# Poissons Ratio (y) = 0.08043 0.19251
# Poissons Ratio (z) = 0.13419 0.24939
#
# Static dielectric constant tensor:
#      x y z
#    x 1.793520 0.035280 0.024910 
#    y 0.035280 1.724170 0.032530 
#    z 0.024910 0.032530 1.881920 
# 
# From -- ./inp_files/419590.got.cif
#   From: 2010.05.17/outbox.cif.g08.bks.cpg/sg2_210_cif.got.tgz:419590.got - 2010.06.03 11:33:40.
