data_PCOD9106413
_publ_section_title
;
Structure prediction by ZEFSAII (Michael W. Deem and Ramdas Pophale) SiO2 
 PCOD9106413
Probable space group: P -1
;
_chemical_formula_sum "Si O2"
_cell_formula_units_Z 16
_cell_length_a 14.056177
_cell_length_b 17.863111
_cell_length_c 11.218358
_cell_angle_alpha 135.969885
_cell_angle_beta 30.268114
_cell_angle_gamma 151.582146
_cell_volume 665.914116
_symmetry_space_group_name_H-M "P -1"
_symmetry_group_IT_number 2
_symmetry_cell_setting 'triclinic'
loop_
_space_group_symop_operation_xyz
x,y,z
-x,-y,-z
loop_
_atom_site_type_symbol
_atom_site_label
_atom_site_fract_x
_atom_site_fract_y
_atom_site_fract_z
Si Si1 0.654273 0.642276 0.585297
Si Si2 0.826069 0.392603 0.681564
Si Si3 0.850374 0.772360 0.961079
Si Si4 0.667948 0.153140 0.165792
Si Si5 0.499147 0.519541 0.857223
Si Si6 0.575973 0.893496 0.364228
Si Si7 0.097748 0.516216 0.048021
Si Si8 0.813130 0.024748 0.704741
O O1 0.500000 0.500000 0.500000
O O2 0.652563 0.576467 0.633129
O O3 0.965738 0.803347 0.401190
O O4 0.436865 0.650981 0.831516
O O5 0.437271 0.875579 0.617292
O O6 0.000000 0.500000 0.500000
O O7 0.964803 0.438141 0.713403
O O8 0.639889 0.421460 0.929755
O O9 0.727629 0.630616 0.840754
O O10 0.740009 0.670687 0.084851
O O11 0.697511 0.823961 0.178745
O O12 0.166440 0.929954 0.764450
O O13 0.642123 0.216760 0.632776
O O14 0.944679 0.340261 0.052633
O O15 0.435527 0.099330 0.261837
O O16 0.710419 0.047098 0.957778
O O17 0.000000 0.500000 0.000000
O O18 0.000000 0.000000 0.500000
#
# Coordination Sequence:
#
# PCOD9106413 Si02
#       8
#     2   2   2   2   2   2   2   2
#     4  11  22  42  66  96 136 183 230 291 355 428
#     4  10  20  40  64  93 140 178 230 293 360 423
#     4   9  19  39  64  99 134 180 234 282 368 428
#     4  11  23  44  71 105 148 181 247 306 358 436
#     4   9  20  37  62  91 135 180 227 282 350 434
#     4  10  20  39  70 100 137 185 232 307 359 425
#     4  11  23  42  69 103 142 190 240 294 364 439
#     4  11  25  45  69 103 144 195 238 300 368 438
#
# _framework density 24.027123
#
# number of rings (size 3 to 8) (size 9 to 14) (size 15 to 20)
#    0.000    1.750    2.500    1.500    0.000    3.000 
#    2.250    4.375    0.000    0.000    0.000    0.000 
#    0.000    0.000    0.000    0.000    0.000    0.000 
#
# Total GULP energy -89357.521835 kJ/mol
# GULP energy per Si atom -5584.845115 kJ/mol
# Density = 2.397244 g / cm^3
# Si number density = 24.027123 Si / 1000 Ang^3
#
#
#
# Elastic Constant Matrix: (Units=GPa)
#
#
# Indices 1 2 3 4 5 6 
#
# 1 107.9332 41.1025 46.6872 14.5404 18.6193 9.6441
# 2 41.1025 112.1491 47.0170 -10.4133 17.8221 5.6246
# 3 46.6872 47.0170 93.3814 0.5621 15.3168 1.6933
# 4 14.5404 -10.4133 0.5621 48.4375 -5.8788 -2.5587
# 5 18.6193 17.8221 15.3168 -5.8788 48.9835 2.3609
# 6 9.6441 5.6246 1.6933 -2.5587 2.3609 38.5100
#
#
#
# Elastic Compliance Matrix: (Units=1/GPa)
#
#
# Indices 1 2 3 4 5 6 
#
# 1 0.014062 -0.002909 -0.004948 -0.005342 -0.003234 -0.003036
# 2 -0.002909 0.012502 -0.004592 0.003393 -0.001572 -0.000574
# 3 -0.004948 -0.004592 0.015698 0.000216 -0.001395 0.001320
# 4 -0.005342 0.003393 0.000216 0.023509 0.003445 0.002184
# 5 -0.003234 -0.001572 -0.001395 0.003445 0.023070 -0.000085
# 6 -0.003036 -0.000574 0.001320 0.002184 -0.000085 0.026904
#
#
# Mechanical properties :
#
#
# Convention : Reuss Voigt Hill
#
# Bulk Modulus (GPa) = 57.59302 64.78635 61.18968
# Shear Modulus (GPa) = 34.14563 39.09665 36.62114
#
# Velocity S-wave (km/s) = 3.77388 4.03822 3.90828
# Velocity P-wave (km/s) = 6.55832 6.98322 6.77410
#
# Compressibility (1/GPa) = 0.01736321
#
# Stress axis : x y z
#
# Youngs Moduli (GPa) = 71.11362 79.98853 63.70091
#
# Poissons Ratio (x) = 0.23269 0.31520
# Poissons Ratio (y) = 0.20688 0.29254
# Poissons Ratio (z) = 0.35187 0.36733
#
# Static dielectric constant tensor:
#      x y z
#    x 1.970440 0.005190 0.064240 
#    y 0.005190 1.878700 -0.024680 
#    z 0.064240 -0.024680 1.932860 
# 
# From -- ./inp_files/456973.got.cif
#   From: 2010.05.17/outbox.cif.g08.bks.cpg/sg2_229_cif.got.tgz:456973.got - 2010.06.03 11:33:40.
