data_PCOD9106670
_publ_section_title
;
Structure prediction by ZEFSAII (Michael W. Deem and Ramdas Pophale) SiO2 
 PCOD9106670
Probable space group: P -1
;
_chemical_formula_sum "Si O2"
_cell_formula_units_Z 10
_cell_length_a 9.832099
_cell_length_b 9.832327
_cell_length_c 8.538990
_cell_angle_alpha 58.174856
_cell_angle_beta 58.175636
_cell_angle_gamma 105.122629
_cell_volume 396.499925
_symmetry_space_group_name_H-M "P -1"
_symmetry_group_IT_number 2
_symmetry_cell_setting 'triclinic'
loop_
_space_group_symop_operation_xyz
x,y,z
-x,-y,-z
loop_
_atom_site_type_symbol
_atom_site_label
_atom_site_fract_x
_atom_site_fract_y
_atom_site_fract_z
Si Si1 0.294384 0.705612 0.000002
Si Si2 0.814064 0.814072 0.856642
Si Si3 0.226558 0.942595 0.676741
Si Si4 0.942581 0.226550 0.676747
Si Si5 0.361523 0.361520 0.505562
O O1 0.111108 0.423109 0.315373
O O2 0.231388 0.769212 0.149554
O O3 0.576889 0.888884 0.684630
O O4 0.230783 0.768615 0.850448
O O5 0.553865 0.553865 0.138299
O O6 0.000000 0.000000 0.500000
O O7 0.961590 0.791885 0.876738
O O8 0.791855 0.961586 0.876742
O O9 0.300952 0.131930 0.646124
O O10 0.131916 0.300925 0.646139
O O11 0.500000 0.500000 0.500000
#
# Coordination Sequence:
#
# PCOD9106670 Si02
#       5
#     2   2   2   2   2
#     4  10  20  40  60  82 120 154 180 238 296 328
#     4  11  22  39  62  86 112 153 196 233 280 340
#     4  10  22  40  60  84 118 150 190 238 282 338
#     4  10  22  40  60  84 118 150 190 238 282 338
#     4  11  22  39  62  86 112 153 196 233 280 340
#
# _framework density 25.220686000000001
#
# number of rings (size 3 to 8) (size 9 to 14) (size 15 to 20)
#    0.000    1.600    0.000    4.800    0.000    6.400 
#    0.000   40.000    0.000    0.000    0.000    0.000 
#    0.000    0.000    0.000    0.000    0.000    0.000 
#
# Total GULP energy -55948.332708 kJ/mol
# GULP energy per Si atom -5594.833271 kJ/mol
# Density = 2.516328 g / cm^3
# Si number density = 25.220686 Si / 1000 Ang^3
#
#
#
# Elastic Constant Matrix: (Units=GPa)
#
#
# Indices 1 2 3 4 5 6 
#
# 1 61.1234 27.1971 20.7127 -15.6825 11.6639 -12.3224
# 2 27.1971 49.5576 19.9433 7.0433 -15.5477 -3.9106
# 3 20.7127 19.9433 189.5698 0.9922 6.2281 -10.1747
# 4 -15.6825 7.0433 0.9922 38.9253 -6.4236 4.4259
# 5 11.6639 -15.5477 6.2281 -6.4236 41.9431 7.2952
# 6 -12.3224 -3.9106 -10.1747 4.4259 7.2952 27.3567
#
#
#
# Elastic Compliance Matrix: (Units=1/GPa)
#
#
# Indices 1 2 3 4 5 6 
#
# 1 0.044372 -0.033503 0.000461 0.017520 -0.025507 0.019336
# 2 -0.033503 0.049903 -0.003188 -0.016185 0.028255 -0.014059
# 3 0.000461 -0.003188 0.005789 -0.000121 -0.002645 0.002630
# 4 0.017520 -0.016185 -0.000121 0.034549 -0.005823 0.001496
# 5 -0.025507 0.028255 -0.002645 -0.005823 0.044266 -0.019296
# 6 0.019336 -0.014059 0.002630 0.001496 -0.019296 0.049136
#
#
# Mechanical properties :
#
#
# Convention : Reuss Voigt Hill
#
# Bulk Modulus (GPa) = 36.22671 48.43965 42.33318
# Shear Modulus (GPa) = 16.14591 37.13822 26.64206
#
# Velocity S-wave (km/s) = 2.53293 3.84152 3.25369
# Velocity P-wave (km/s) = 4.79055 6.23894 5.56209
#
# Compressibility (1/GPa) = 0.02760395
#
# Stress axis : x y z
#
# Youngs Moduli (GPa) = 22.53668 20.03890 172.74771
#
# Poissons Ratio (x) = 0.67136 -0.07956
# Poissons Ratio (y) = 0.75505 0.55063
# Poissons Ratio (z) = -0.01038 0.06387
#
# Static dielectric constant tensor:
#      x y z
#    x 1.996430 0.045460 0.092050 
#    y 0.045460 1.999600 0.108500 
#    z 0.092050 0.108500 2.036600 
# 
# From -- ./inp_files/715.got.cif
#   From: 2010.05.17/outbox.cif.g08.bks.cpg/sg2_1_cif.got.tgz:715.got - 2010.06.03 11:33:40.
