data_PCOD9106316
_publ_section_title
;
Structure prediction by ZEFSAII (Michael W. Deem and Ramdas Pophale) SiO2 
 PCOD9106316
Probable space group: P -1
;
_chemical_formula_sum "Si O2"
_cell_formula_units_Z 16
_cell_length_a 7.425339
_cell_length_b 11.737259
_cell_length_c 8.810109
_cell_angle_alpha 126.857582
_cell_angle_beta 98.586465
_cell_angle_gamma 80.113112
_cell_volume 604.192351
_symmetry_space_group_name_H-M "P -1"
_symmetry_group_IT_number 2
_symmetry_cell_setting 'triclinic'
loop_
_space_group_symop_operation_xyz
x,y,z
-x,-y,-z
loop_
_atom_site_type_symbol
_atom_site_label
_atom_site_fract_x
_atom_site_fract_y
_atom_site_fract_z
Si Si1 0.678412 0.058447 0.998485
Si Si2 0.458355 0.657625 0.245521
Si Si3 0.561799 0.900938 0.284692
Si Si4 0.861721 0.758578 0.838741
Si Si5 0.236004 0.858212 0.613514
Si Si6 0.114977 0.579464 0.952386
Si Si7 0.616184 0.541555 0.688811
Si Si8 0.990155 0.646599 0.442832
O O1 0.830180 0.922503 0.917266
O O2 0.609086 0.097804 0.852996
O O3 0.500000 0.000000 0.000000
O O4 0.738187 0.165954 0.220765
O O5 0.595180 0.741366 0.229092
O O6 0.393659 0.763323 0.463175
O O7 0.482228 0.504205 0.208743
O O8 0.280969 0.639495 0.106301
O O9 0.500000 0.000000 0.500000
O O10 0.726594 0.979021 0.291550
O O11 0.669088 0.702436 0.820548
O O12 0.002275 0.709205 0.950401
O O13 0.923778 0.674329 0.626355
O O14 0.042797 0.798291 0.503075
O O15 0.148324 0.449658 0.731925
O O16 0.000000 0.500000 0.000000
O O17 0.500000 0.500000 0.500000
O O18 0.815140 0.449683 0.627694
#
# Coordination Sequence:
#
# PCOD9106316 Si02
#       8
#     2   2   2   2   2   2   2   2
#     4  10  23  42  67  93 128 179 231 273 326 400
#     4  10  20  39  68  98 136 174 216 288 334 396
#     4   9  20  38  65  92 130 175 215 277 331 382
#     4  11  24  41  67  97 135 180 223 277 335 409
#     4   9  19  39  63  92 128 174 220 267 331 386
#     4  11  19  41  66  97 136 177 218 277 341 398
#     4  10  21  37  71  98 127 173 224 276 342 390
#     4  10  22  41  67  99 137 171 227 272 335 410
#
# _framework density 26.481632000000001
#
# number of rings (size 3 to 8) (size 9 to 14) (size 15 to 20)
#    0.000    2.000    3.750    1.500   10.500    0.500 
#    0.000    4.375    5.500    6.000    0.000    0.000 
#    0.000    0.000    0.000    0.000    0.000    0.000 
#
# Total GULP energy -89458.121786 kJ/mol
# GULP energy per Si atom -5591.132612 kJ/mol
# Density = 2.642136 g / cm^3
# Si number density = 26.481632 Si / 1000 Ang^3
#
#
#
# Elastic Constant Matrix: (Units=GPa)
#
#
# Indices 1 2 3 4 5 6 
#
# 1 68.1555 47.6779 26.4515 2.0161 10.8259 10.7448
# 2 47.6779 158.4167 31.9354 -4.3207 9.5550 13.9211
# 3 26.4515 31.9354 145.4077 -11.5567 1.5879 -20.5486
# 4 2.0161 -4.3207 -11.5567 45.0168 7.3701 12.9134
# 5 10.8259 9.5550 1.5879 7.3701 46.6836 3.1397
# 6 10.7448 13.9211 -20.5486 12.9134 3.1397 51.4033
#
#
#
# Elastic Compliance Matrix: (Units=1/GPa)
#
#
# Indices 1 2 3 4 5 6 
#
# 1 0.020578 -0.005026 -0.003197 -0.000576 -0.003283 -0.003873
# 2 -0.005026 0.008282 -0.001060 0.001398 -0.000584 -0.001931
# 3 -0.003197 -0.001060 0.008336 0.000986 0.000248 0.004025
# 4 -0.000576 0.001398 0.000986 0.024929 -0.003725 -0.005899
# 5 -0.003283 -0.000584 0.000248 -0.003725 0.022849 0.000484
# 6 -0.003873 -0.001931 0.004025 -0.005899 0.000484 0.023848
#
#
# Mechanical properties :
#
#
# Convention : Reuss Voigt Hill
#
# Bulk Modulus (GPa) = 53.67701 64.90105 59.28903
# Shear Modulus (GPa) = 37.42566 46.34842 41.88704
#
# Velocity S-wave (km/s) = 3.76343 4.18809 3.98142
# Velocity P-wave (km/s) = 6.26083 6.92445 6.60098
#
# Compressibility (1/GPa) = 0.01862995
#
# Stress axis : x y z
#
# Youngs Moduli (GPa) = 48.59504 120.74402 119.96141
#
# Poissons Ratio (x) = 0.60689 0.38349
# Poissons Ratio (y) = 0.24425 0.12717
# Poissons Ratio (z) = 0.15535 0.12800
#
# Static dielectric constant tensor:
#      x y z
#    x 2.097330 0.006340 0.015560 
#    y 0.006340 2.178780 0.055250 
#    z 0.015560 0.055250 2.117120 
# 
# From -- ./inp_files/182717.got.cif
#   From: 2010.05.17/outbox.cif.g08.bks.cpg/sg2_92_cif.got.tgz:182717.got - 2010.06.03 11:33:40.
