data_PCOD9106119
_publ_section_title
;
Structure prediction by ZEFSAII (Michael W. Deem and Ramdas Pophale) SiO2 
 PCOD9106119
Probable space group: P -1
;
_chemical_formula_sum "Si O2"
_cell_formula_units_Z 16
_cell_length_a 8.638262
_cell_length_b 12.853441
_cell_length_c 14.427364
_cell_angle_alpha 129.460380
_cell_angle_beta 135.807708
_cell_angle_gamma 76.726362
_cell_volume 782.346956
_symmetry_space_group_name_H-M "P -1"
_symmetry_group_IT_number 2
_symmetry_cell_setting 'triclinic'
loop_
_space_group_symop_operation_xyz
x,y,z
-x,-y,-z
loop_
_atom_site_type_symbol
_atom_site_label
_atom_site_fract_x
_atom_site_fract_y
_atom_site_fract_z
Si Si1 0.547459 0.389340 0.525418
Si Si2 0.181458 0.248648 0.672203
Si Si3 0.323267 0.246477 0.527945
Si Si4 0.717566 0.923974 0.866705
Si Si5 0.194437 0.742166 0.193109
Si Si6 0.684039 0.963772 0.268544
Si Si7 0.074144 0.464156 0.867474
Si Si8 0.100116 0.062522 0.851353
O O1 0.500000 0.500000 0.500000
O O2 0.430138 0.373000 0.568337
O O3 0.423177 0.226034 0.335848
O O4 0.834304 0.442218 0.693986
O O5 0.261616 0.294182 0.627406
O O6 0.312905 0.153029 0.720223
O O7 0.216956 0.390450 0.828102
O O8 0.896010 0.126423 0.478877
O O9 0.535846 0.189866 0.607755
O O10 0.079786 0.110795 0.312622
O O11 0.571865 0.025033 0.844105
O O12 0.718496 0.889182 0.956652
O O13 0.000000 0.000000 0.000000
O O14 0.018765 0.636859 0.137710
O O15 0.075062 0.851677 0.174941
O O16 0.197414 0.632517 0.050494
O O17 0.769130 0.922061 0.183066
#
# Coordination Sequence:
#
# PCOD9106119 Si02
#       8
#     2   2   2   2   2   2   2   2
#     4  11  23  44  64  88 128 174 214 261 326 393
#     4  10  20  39  67  94 130 169 207 268 331 369
#     4  10  23  37  64  94 131 158 219 275 314 371
#     4  12  24  39  66  98 131 167 219 265 311 381
#     4  10  21  36  64  96 122 172 216 260 316 379
#     4  10  22  39  63  97 131 170 204 262 332 383
#     4  10  20  40  64  90 128 168 219 253 317 392
#     4  11  21  39  63  95 133 166 214 262 326 373
#
# _framework density 20.451284999999999
#
# number of rings (size 3 to 8) (size 9 to 14) (size 15 to 20)
#    0.000    1.500    3.750    1.500    1.750    0.500 
#    0.000    0.625    0.000    0.000    0.000    0.000 
#    0.000    0.000    0.000    0.000    0.000    0.000 
#
# Total GULP energy -89426.418438 kJ/mol
# GULP energy per Si atom -5589.151152 kJ/mol
# Density = 2.040474 g / cm^3
# Si number density = 20.451285 Si / 1000 Ang^3
#
#
#
# Elastic Constant Matrix: (Units=GPa)
#
#
# Indices 1 2 3 4 5 6 
#
# 1 92.7957 45.0143 29.7939 3.8594 -12.9305 -1.0341
# 2 45.0143 103.6015 16.8278 -18.4495 -3.9730 -3.0515
# 3 29.7939 16.8278 77.6727 -14.1916 -3.9225 -0.6319
# 4 3.8594 -18.4495 -14.1916 25.4487 -4.0898 -5.7782
# 5 -12.9305 -3.9730 -3.9225 -4.0898 35.3703 -3.1500
# 6 -1.0341 -3.0515 -0.6319 -5.7782 -3.1500 26.5830
#
#
#
# Elastic Compliance Matrix: (Units=1/GPa)
#
#
# Indices 1 2 3 4 5 6 
#
# 1 0.018770 -0.009423 -0.007623 -0.014181 0.003028 -0.003256
# 2 -0.009423 0.016357 0.003173 0.016438 0.001117 0.005292
# 3 -0.007623 0.003173 0.017881 0.014555 0.001578 0.003843
# 4 -0.014181 0.016438 0.014555 0.066550 0.007488 0.017034
# 5 0.003028 0.001117 0.001578 0.007488 0.031043 0.005590
# 6 -0.003256 0.005292 0.003843 0.017034 0.005590 0.042555
#
#
# Mechanical properties :
#
#
# Convention : Reuss Voigt Hill
#
# Bulk Modulus (GPa) = 39.58223 50.81575 45.19899
# Shear Modulus (GPa) = 21.80328 29.64267 25.72297
#
# Velocity S-wave (km/s) = 3.26867 3.81127 3.55035
# Velocity P-wave (km/s) = 5.80018 6.65348 6.24143
#
# Compressibility (1/GPa) = 0.02526386
#
# Stress axis : x y z
#
# Youngs Moduli (GPa) = 53.27578 61.13607 55.92408
#
# Poissons Ratio (x) = 0.57606 0.42632
# Poissons Ratio (y) = 0.50200 -0.17747
# Poissons Ratio (z) = 0.40613 -0.19401
#
# Static dielectric constant tensor:
#      x y z
#    x 1.752610 0.008110 -0.006130 
#    y 0.008110 1.686980 -0.002890 
#    z -0.006130 -0.002890 1.730630 
# 
# From -- ./inp_files/177971.got.cif
#   From: 2010.05.17/outbox.cif.g08.bks.cpg/sg2_89_cif.got.tgz:177971.got - 2010.06.03 11:33:40.
