data_PCOD9106050
_publ_section_title
;
Structure prediction by ZEFSAII (Michael W. Deem and Ramdas Pophale) SiO2 
 PCOD9106050
Probable space group: P -1
;
_chemical_formula_sum "Si O2"
_cell_formula_units_Z 10
_cell_length_a 10.693966
_cell_length_b 6.515515
_cell_length_c 9.620624
_cell_angle_alpha 46.553139
_cell_angle_beta 125.336131
_cell_angle_gamma 129.604603
_cell_volume 363.029565
_symmetry_space_group_name_H-M "P -1"
_symmetry_group_IT_number 2
_symmetry_cell_setting 'triclinic'
loop_
_space_group_symop_operation_xyz
x,y,z
-x,-y,-z
loop_
_atom_site_type_symbol
_atom_site_label
_atom_site_fract_x
_atom_site_fract_y
_atom_site_fract_z
Si Si1 0.583386 0.135178 0.758449
Si Si2 0.406584 0.287589 0.328293
Si Si3 0.701966 0.520834 0.096211
Si Si4 0.174996 0.584196 0.500497
Si Si5 0.947663 0.373980 0.872313
O O1 0.551982 0.230828 0.535070
O O2 0.607970 0.428402 0.733586
O O3 0.760853 0.099503 0.903724
O O4 0.408611 0.854997 0.817390
O O5 0.251293 0.958861 0.390291
O O6 0.409869 0.366698 0.130748
O O7 0.734492 0.554308 0.267774
O O8 0.886436 0.640063 0.084003
O O9 0.117137 0.454774 0.367464
O O10 0.000000 0.500000 0.500000
O O11 0.000000 0.500000 0.000000
#
# Coordination Sequence:
#
# PCOD9106050 Si02
#       5
#     2   2   2   2   2
#     4  10  22  41  64  93 126 157 207 255 300 363
#     4  10  20  39  67  89 121 167 202 249 309 365
#     4  10  21  42  68  87 125 166 198 253 313 356
#     4   9  22  41  61  91 127 159 203 255 306 360
#     4  11  22  40  65  90 123 165 204 253 304 362
#
# _framework density 27.545967000000001
#
# number of rings (size 3 to 8) (size 9 to 14) (size 15 to 20)
#    0.000    2.000    2.000    0.600    0.000    6.400 
#    0.000   26.000    0.000    0.000    0.000    0.000 
#    0.000    0.000    0.000    0.000    0.000    0.000 
#
# Total GULP energy -55748.399973 kJ/mol
# GULP energy per Si atom -5574.839997 kJ/mol
# Density = 2.748327 g / cm^3
# Si number density = 27.545967 Si / 1000 Ang^3
#
#
#
# Elastic Constant Matrix: (Units=GPa)
#
#
# Indices 1 2 3 4 5 6 
#
# 1 63.9093 37.3240 27.8639 26.3476 21.2480 29.6506
# 2 37.3240 126.6647 75.3688 39.9353 -2.0454 14.7267
# 3 27.8639 75.3688 301.7056 41.7694 -5.4545 9.0458
# 4 26.3476 39.9353 41.7694 70.3677 -3.2713 6.2909
# 5 21.2480 -2.0454 -5.4545 -3.2713 51.6523 31.7926
# 6 29.6506 14.7267 9.0458 6.2909 31.7926 43.9329
#
#
#
# Elastic Compliance Matrix: (Units=1/GPa)
#
#
# Indices 1 2 3 4 5 6 
#
# 1 0.029363 -0.004684 -0.000196 -0.007116 -0.003888 -0.014374
# 2 -0.004684 0.011840 -0.001911 -0.003452 0.003472 -0.002433
# 3 -0.000196 -0.001911 0.003988 -0.001163 0.000504 -0.000246
# 4 -0.007116 -0.003452 -0.001163 0.019586 0.003279 0.001021
# 5 -0.003888 0.003472 0.000504 0.003279 0.037528 -0.026271
# 6 -0.014374 -0.002433 -0.000246 0.001021 -0.026271 0.052194
#
#
# Mechanical properties :
#
#
# Convention : Reuss Voigt Hill
#
# Bulk Modulus (GPa) = 31.63769 85.93257 58.78513
# Shear Modulus (GPa) = 27.99270 56.63877 42.31573
#
# Velocity S-wave (km/s) = 3.19128 4.53940 3.92367
# Velocity P-wave (km/s) = 5.00893 7.66412 6.47410
#
# Compressibility (1/GPa) = 0.03160787
#
# Stress axis : x y z
#
# Youngs Moduli (GPa) = 34.05609 84.46170 250.77485
#
# Poissons Ratio (x) = 0.39562 0.04914
# Poissons Ratio (y) = 0.15952 0.47935
# Poissons Ratio (z) = 0.00667 0.16144
#
# Static dielectric constant tensor:
#      x y z
#    x 0.170840 0.787070 -0.743040 
#    y 0.787070 2.005070 0.114010 
#    z -0.743040 0.114010 1.955930 
# 
# From -- ./inp_files/161480.got.cif
#   From: 2010.05.17/outbox.cif.g08.bks.cpg/sg2_81_cif.got.tgz:161480.got - 2010.06.03 11:33:40.
