data_PCOD9106483
_publ_section_title
;
Structure prediction by ZEFSAII (Michael W. Deem and Ramdas Pophale) SiO2 
 PCOD9106483
Probable space group: P -1
;
_chemical_formula_sum "Si O2"
_cell_formula_units_Z 14
_cell_length_a 9.458255
_cell_length_b 9.411450
_cell_length_c 8.529764
_cell_angle_alpha 96.980120
_cell_angle_beta 99.864944
_cell_angle_gamma 61.211593
_cell_volume 654.931438
_symmetry_space_group_name_H-M "P -1"
_symmetry_group_IT_number 2
_symmetry_cell_setting 'triclinic'
loop_
_space_group_symop_operation_xyz
x,y,z
-x,-y,-z
loop_
_atom_site_type_symbol
_atom_site_label
_atom_site_fract_x
_atom_site_fract_y
_atom_site_fract_z
Si Si1 0.855805 0.005882 0.579854
Si Si2 0.640169 0.043801 0.075913
Si Si3 0.544574 0.685718 0.131548
Si Si4 0.948342 0.869253 0.925734
Si Si5 0.842550 0.466616 0.944156
Si Si6 0.627828 0.395987 0.651843
Si Si7 0.377244 0.065689 0.628977
O O1 0.726244 0.199832 0.604029
O O2 0.894773 0.920243 0.745080
O O3 0.796279 0.890225 0.465745
O O4 0.000000 0.000000 0.500000
O O5 0.613616 0.066254 0.258357
O O6 0.609521 0.197300 0.988036
O O7 0.500000 0.000000 0.000000
O O8 0.805367 0.897017 0.024794
O O9 0.489843 0.584922 0.220759
O O10 0.593807 0.797447 0.264891
O O11 0.689960 0.598845 0.027018
O O12 0.095014 0.696321 0.964981
O O13 0.000000 0.000000 0.000000
O O14 0.764948 0.443849 0.758480
O O15 0.000000 0.500000 0.000000
O O16 0.500000 0.500000 0.500000
O O17 0.500000 0.000000 0.500000
#
# Coordination Sequence:
#
# PCOD9106483 Si02
#       7
#     2   2   2   2   2   2   2
#     4  12  26  43  73 105 145 190 246 308 372 430
#     4  10  20  39  70  97 136 183 237 285 345 439
#     4  11  24  46  70 105 143 195 245 292 367 447
#     4  12  23  47  71 102 141 190 247 293 357 444
#     4  12  28  47  75 109 149 190 245 307 370 435
#     4  12  28  49  71 106 149 193 245 305 374 432
#     4  11  22  41  70 107 140 184 242 301 364 435
#
# _framework density 21.376283000000001
#
# number of rings (size 3 to 8) (size 9 to 14) (size 15 to 20)
#    0.000    0.571    4.286    3.857    6.000    1.143 
#    0.000    1.429    0.000    0.000    0.000    0.000 
#    0.000    0.000    0.000    0.000    0.000    0.000 
#
# Total GULP energy -77940.421388 kJ/mol
# GULP energy per Si atom -5567.172956 kJ/mol
# Density = 2.132763 g / cm^3
# Si number density = 21.376283 Si / 1000 Ang^3
#
#
#
# Elastic Constant Matrix: (Units=GPa)
#
#
# Indices 1 2 3 4 5 6 
#
# 1 111.9396 -0.4465 30.2548 10.5132 7.0914 10.0782
# 2 -0.4465 79.3908 31.6265 -2.4132 12.6387 -6.0441
# 3 30.2548 31.6265 148.4846 -17.8122 4.3542 7.8799
# 4 10.5132 -2.4132 -17.8122 41.8437 0.5110 -3.1414
# 5 7.0914 12.6387 4.3542 0.5110 43.0823 7.8637
# 6 10.0782 -6.0441 7.8799 -3.1414 7.8637 37.9200
#
#
#
# Elastic Compliance Matrix: (Units=1/GPa)
#
#
# Indices 1 2 3 4 5 6 
#
# 1 0.010268 0.001037 -0.002618 -0.003773 -0.001309 -0.002061
# 2 0.001037 0.015075 -0.003548 -0.000553 -0.004929 0.003841
# 3 -0.002618 -0.003548 0.008555 0.003973 0.000832 -0.001491
# 4 -0.003773 -0.000553 0.003973 0.026689 -0.000369 0.002376
# 5 -0.001309 -0.004929 0.000832 -0.000369 0.025890 -0.006010
# 6 -0.002061 0.003841 -0.001491 0.002376 -0.006010 0.029284
#
#
# Mechanical properties :
#
#
# Convention : Reuss Voigt Hill
#
# Bulk Modulus (GPa) = 42.29856 51.40940 46.85398
# Shear Modulus (GPa) = 37.34150 43.12788 40.23469
#
# Velocity S-wave (km/s) = 4.18409 4.49660 4.34315
# Velocity P-wave (km/s) = 6.57059 7.14571 6.86417
#
# Compressibility (1/GPa) = 0.02364147
#
# Stress axis : x y z
#
# Youngs Moduli (GPa) = 97.39049 66.33285 116.88846
#
# Poissons Ratio (x) = -0.06882 0.30602
# Poissons Ratio (y) = -0.10104 0.41472
# Poissons Ratio (z) = 0.25497 0.23535
#
# Static dielectric constant tensor:
#      x y z
#    x 1.781050 0.019080 0.046560 
#    y 0.019080 1.768560 0.003540 
#    z 0.046560 0.003540 1.863340 
# 
# From -- ./inp_files/158784.got.cif
#   From: 2010.05.17/outbox.cif.g08.bks.cpg/sg2_80_cif.got.tgz:158784.got - 2010.06.03 11:33:40.
