data_PCOD9106153
_publ_section_title
;
Structure prediction by ZEFSAII (Michael W. Deem and Ramdas Pophale) SiO2 
 PCOD9106153
Probable space group: P -1
;
_chemical_formula_sum "Si O2"
_cell_formula_units_Z 16
_cell_length_a 12.649696
_cell_length_b 9.069646
_cell_length_c 11.300521
_cell_angle_alpha 126.189523
_cell_angle_beta 117.552133
_cell_angle_gamma 46.390032
_cell_volume 754.216743
_symmetry_space_group_name_H-M "P -1"
_symmetry_group_IT_number 2
_symmetry_cell_setting 'triclinic'
loop_
_space_group_symop_operation_xyz
x,y,z
-x,-y,-z
loop_
_atom_site_type_symbol
_atom_site_label
_atom_site_fract_x
_atom_site_fract_y
_atom_site_fract_z
Si Si1 0.606233 0.406692 0.623523
Si Si2 0.655621 0.926389 0.896585
Si Si3 0.803826 0.022226 0.857701
Si Si4 0.831275 0.761353 0.302541
Si Si5 0.906169 0.326216 0.003701
Si Si6 0.345439 0.033712 0.460221
Si Si7 0.116198 0.600723 0.248015
Si Si8 0.413988 0.894038 0.797045
O O1 0.500000 0.500000 0.500000
O O2 0.609010 0.208812 0.589203
O O3 0.767575 0.339748 0.648556
O O4 0.522992 0.635094 0.765752
O O5 0.788750 0.668971 0.823075
O O6 0.509980 0.949272 0.794889
O O7 0.680750 0.095497 0.927383
O O8 0.640984 0.965879 0.046296
O O9 0.756166 0.918530 0.684125
O O10 0.814049 0.219453 0.909487
O O11 0.955191 0.839475 0.917504
O O12 0.828909 0.573701 0.137124
O O13 0.993781 0.692633 0.329110
O O14 0.763065 0.790360 0.410686
O O15 0.728503 0.009196 0.308426
O O16 0.943807 0.329256 0.885813
O O17 0.500000 0.000000 0.500000
#
# Coordination Sequence:
#
# PCOD9106153 Si02
#       8
#     2   2   2   2   2   2   2   2
#     4  11  24  46  67 100 137 182 232 286 336 407
#     4  10  20  39  67  96 130 177 225 285 337 399
#     4  11  24  43  64  98 147 181 215 282 355 405
#     4  12  23  42  72 105 132 183 232 282 351 401
#     4  11  23  42  69 105 140 171 226 292 344 407
#     4  12  28  48  68  97 145 191 229 276 350 426
#     4  11  22  43  74 100 137 174 236 295 331 404
#     4  10  21  37  69 100 125 171 240 281 335 394
#
# _framework density 21.214058999999999
#
# number of rings (size 3 to 8) (size 9 to 14) (size 15 to 20)
#    0.000    1.000    5.000    1.875    1.750    2.000 
#    0.000    1.875    0.000    0.000    0.000    0.000 
#    0.000    0.000    0.000    0.000    0.000    0.000 
#
# Total GULP energy -89223.658532 kJ/mol
# GULP energy per Si atom -5576.478658 kJ/mol
# Density = 2.116577 g / cm^3
# Si number density = 21.214059 Si / 1000 Ang^3
#
#
#
# Elastic Constant Matrix: (Units=GPa)
#
#
# Indices 1 2 3 4 5 6 
#
# 1 177.6237 38.1737 60.4575 13.2199 3.6071 -3.5003
# 2 38.1737 52.0385 27.0182 -1.3553 -2.2068 -5.5351
# 3 60.4575 27.0182 85.1807 -14.4143 9.2322 -12.4403
# 4 13.2199 -1.3553 -14.4143 34.8681 2.1860 3.2537
# 5 3.6071 -2.2068 9.2322 2.1860 30.7507 5.9970
# 6 -3.5003 -5.5351 -12.4403 3.2537 5.9970 38.4206
#
#
#
# Elastic Compliance Matrix: (Units=1/GPa)
#
#
# Indices 1 2 3 4 5 6 
#
# 1 0.009104 -0.003387 -0.006858 -0.006366 0.001508 -0.001575
# 2 -0.003387 0.025007 -0.005909 -0.000504 0.003841 0.000824
# 3 -0.006858 -0.005909 0.022208 0.011507 -0.008281 0.006033
# 4 -0.006366 -0.000504 0.011507 0.036093 -0.005480 0.000872
# 5 0.001508 0.003841 -0.008281 -0.005480 0.036916 -0.007289
# 6 -0.001575 0.000824 0.006033 0.000872 -0.007289 0.029020
#
#
# Mechanical properties :
#
#
# Convention : Reuss Voigt Hill
#
# Bulk Modulus (GPa) = 41.65003 62.90464 52.27733
# Shear Modulus (GPa) = 25.16869 33.42077 29.29473
#
# Velocity S-wave (km/s) = 3.44818 3.97345 3.72009
# Velocity P-wave (km/s) = 5.96063 7.12515 6.56874
#
# Compressibility (1/GPa) = 0.02400959
#
# Stress axis : x y z
#
# Youngs Moduli (GPa) = 109.83779 39.98936 45.02957
#
# Poissons Ratio (x) = 0.13546 0.30882
# Poissons Ratio (y) = 0.37205 0.26608
# Poissons Ratio (z) = 0.75330 0.23630
#
# Static dielectric constant tensor:
#      x y z
#    x 1.806970 -0.021130 0.043740 
#    y -0.021130 1.788500 -0.010630 
#    z 0.043740 -0.010630 1.869880 
# 
# From -- ./inp_files/419772.got.cif
#   From: 2010.05.17/outbox.cif.g08.bks.cpg/sg2_210_cif.got.tgz:419772.got - 2010.06.03 11:33:40.
