data_PCOD9106755
_publ_section_title
;
Structure prediction by ZEFSAII (Michael W. Deem and Ramdas Pophale) SiO2 
 PCOD9106755
Probable space group: P -1
;
_chemical_formula_sum "Si O2"
_cell_formula_units_Z 15
_cell_length_a 10.121801
_cell_length_b 7.895151
_cell_length_c 15.002801
_cell_angle_alpha 79.338095
_cell_angle_beta 48.537278
_cell_angle_gamma 112.650686
_cell_volume 639.694178
_symmetry_space_group_name_H-M "P -1"
_symmetry_group_IT_number 2
_symmetry_cell_setting 'triclinic'
loop_
_space_group_symop_operation_xyz
x,y,z
-x,-y,-z
loop_
_atom_site_type_symbol
_atom_site_label
_atom_site_fract_x
_atom_site_fract_y
_atom_site_fract_z
Si Si1 0.031879 0.870317 0.566520
Si Si2 0.429397 0.690075 0.145070
Si Si3 0.657385 0.437518 0.454134
Si Si4 0.791660 0.033091 0.343639
Si Si5 0.098979 0.594021 0.151455
Si Si6 0.917304 0.838418 0.966973
Si Si7 0.271912 0.721356 0.388497
Si Si8 0.000000 0.500000 0.000000
O O1 0.102028 0.997876 0.617463
O O2 0.247589 0.885381 0.436275
O O3 0.784305 0.593753 0.712588
O O4 0.000000 0.000000 0.500000
O O5 0.425520 0.814755 0.220493
O O6 0.339831 0.719976 0.090604
O O7 0.684670 0.764498 0.028705
O O8 0.500000 0.500000 0.500000
O O9 0.927936 0.619090 0.274820
O O10 0.666620 0.385406 0.557695
O O11 0.496162 0.180670 0.502946
O O12 0.934984 0.309309 0.261064
O O13 0.866132 0.016735 0.215409
O O14 0.109822 0.629570 0.038077
O O15 0.880074 0.613556 0.030927
O O16 0.000000 0.000000 0.000000
O O17 0.000000 0.500000 0.500000
#
# Coordination Sequence:
#
# PCOD9106755 Si02
#       8
#     2   2   2   2   2   2   2   1
#     4  10  22  39  65 102 134 169 223 279 345 407
#     4  10  22  44  71  91 140 182 215 284 348 403
#     4  12  24  37  70  96 134 175 220 285 340 409
#     4  10  23  41  63  94 133 172 223 276 336 398
#     4  10  22  44  66  98 133 175 226 280 347 402
#     4  11  25  49  70  97 137 185 233 280 345 407
#     4  10  20  40  60  98 131 168 217 272 340 397
#     4  10  26  44  70 100 134 174 238 278 330 426
#
# _framework density 23.448703999999999
#
# number of rings (size 3 to 8) (size 9 to 14) (size 15 to 20)
#    0.000    1.600    4.000    1.200    7.467    4.800 
#    4.800    0.667    0.000    0.000    0.000    0.000 
#    0.000    0.000    0.000    0.000    0.000    0.000 
#
# Total GULP energy -83510.914256 kJ/mol
# GULP energy per Si atom -5567.394284 kJ/mol
# Density = 2.339533 g / cm^3
# Si number density = 23.448704 Si / 1000 Ang^3
#
#
#
# Elastic Constant Matrix: (Units=GPa)
#
#
# Indices 1 2 3 4 5 6 
#
# 1 201.8008 42.0994 35.8051 13.6667 -9.7931 13.2402
# 2 42.0994 71.6128 21.3073 11.4083 -2.8489 6.5875
# 3 35.8051 21.3073 33.4713 7.8367 -14.3121 3.1843
# 4 13.6667 11.4083 7.8367 37.0737 5.7689 -4.7897
# 5 -9.7931 -2.8489 -14.3121 5.7689 40.8408 10.4356
# 6 13.2402 6.5875 3.1843 -4.7897 10.4356 35.8688
#
#
#
# Elastic Compliance Matrix: (Units=1/GPa)
#
#
# Indices 1 2 3 4 5 6 
#
# 1 0.006474 -0.001930 -0.005246 -0.000932 0.000155 -0.001739
# 2 -0.001930 0.018509 -0.009583 -0.002923 -0.001673 -0.001740
# 3 -0.005246 -0.009583 0.053729 -0.010779 0.020598 -0.008505
# 4 -0.000932 -0.002923 -0.010779 0.033513 -0.011399 0.009629
# 5 0.000155 -0.001673 0.020598 -0.011399 0.036759 -0.013796
# 6 -0.001739 -0.001740 -0.008505 0.009629 -0.013796 0.034895
#
#
# Mechanical properties :
#
#
# Convention : Reuss Voigt Hill
#
# Bulk Modulus (GPa) = 22.12738 56.14539 39.13639
# Shear Modulus (GPa) = 21.50878 36.60153 29.05516
#
# Velocity S-wave (km/s) = 3.03193 3.95513 3.52390
# Velocity P-wave (km/s) = 4.65981 6.69726 5.76919
#
# Compressibility (1/GPa) = 0.04519287
#
# Stress axis : x y z
#
# Youngs Moduli (GPa) = 154.47255 54.02744 18.61177
#
# Poissons Ratio (x) = 0.10428 0.09764
# Poissons Ratio (y) = 0.29814 0.17836
# Poissons Ratio (z) = 0.81040 0.51776
#
# Static dielectric constant tensor:
#      x y z
#    x 1.876380 -0.037010 0.014530 
#    y -0.037010 1.941420 0.033300 
#    z 0.014530 0.033300 1.931920 
# 
# From -- ./inp_files/333056.got.cif
#   From: 2010.05.17/outbox.cif.g08.bks.cpg/sg2_167_cif.got.tgz:333056.got - 2010.06.03 11:33:40.
