data_PCOD9106437
_publ_section_title
;
Structure prediction by ZEFSAII (Michael W. Deem and Ramdas Pophale) SiO2 
 PCOD9106437
Probable space group: P -1
;
_chemical_formula_sum "Si O2"
_cell_formula_units_Z 14
_cell_length_a 11.115930
_cell_length_b 8.614598
_cell_length_c 11.137718
_cell_angle_alpha 126.278917
_cell_angle_beta 101.857428
_cell_angle_gamma 48.944413
_cell_volume 618.213320
_symmetry_space_group_name_H-M "P -1"
_symmetry_group_IT_number 2
_symmetry_cell_setting 'triclinic'
loop_
_space_group_symop_operation_xyz
x,y,z
-x,-y,-z
loop_
_atom_site_type_symbol
_atom_site_label
_atom_site_fract_x
_atom_site_fract_y
_atom_site_fract_z
Si Si1 0.807760 0.250530 0.138950
Si Si2 0.719192 0.414252 0.913337
Si Si3 0.448557 0.758329 0.336607
Si Si4 0.976547 0.690513 0.181392
Si Si5 0.610910 0.191509 0.384681
Si Si6 0.559820 0.007179 0.788948
Si Si7 0.921314 0.746942 0.832455
O O1 0.632939 0.476090 0.268048
O O2 0.944844 0.261428 0.214455
O O3 0.775651 0.324120 0.022421
O O4 0.865646 0.967184 0.021567
O O5 0.650102 0.293951 0.786389
O O6 0.868012 0.335312 0.825240
O O7 0.565091 0.726317 0.037524
O O8 0.366790 0.880875 0.502928
O O9 0.465849 0.917369 0.322431
O O10 0.992745 0.537926 0.232400
O O11 0.799210 0.986054 0.279058
O O12 0.000000 0.500000 0.000000
O O13 0.500000 0.500000 0.500000
O O14 0.501480 0.144029 0.274999
O O15 0.749731 0.858468 0.789466
#
# Coordination Sequence:
#
# PCOD9106437 Si02
#       7
#     2   2   2   2   2   2   2
#     4  10  20  39  70 107 131 172 228 284 329 401
#     4  11  21  42  74 100 138 178 232 276 335 409
#     4  11  23  45  69 100 140 177 224 287 343 397
#     4  12  25  45  69  98 140 181 228 279 336 407
#     4  12  30  48  67  97 142 187 225 280 352 402
#     4  11  22  45  71 104 133 186 228 277 338 414
#     4  11  22  37  72 106 131 171 236 273 335 395
#
# _framework density 22.645902
#
# number of rings (size 3 to 8) (size 9 to 14) (size 15 to 20)
#    0.000    0.857    5.714    2.143    4.000    1.143 
#    0.000    1.429    0.000    0.000    0.000    0.000 
#    0.000    0.000    0.000    0.000    0.000    0.000 
#
# Total GULP energy -78249.571485 kJ/mol
# GULP energy per Si atom -5589.255106 kJ/mol
# Density = 2.259436 g / cm^3
# Si number density = 22.645902 Si / 1000 Ang^3
#
#
#
# Elastic Constant Matrix: (Units=GPa)
#
#
# Indices 1 2 3 4 5 6 
#
# 1 115.7903 38.5550 30.2737 10.5211 -2.2846 -15.4397
# 2 38.5550 81.9960 30.0529 32.0068 -0.1197 -10.9987
# 3 30.2737 30.0529 59.1292 5.2504 -12.0903 -7.4773
# 4 10.5211 32.0068 5.2504 30.6792 -1.1131 0.3104
# 5 -2.2846 -0.1197 -12.0903 -1.1131 42.9324 5.2125
# 6 -15.4397 -10.9987 -7.4773 0.3104 5.2125 38.4803
#
#
#
# Elastic Compliance Matrix: (Units=1/GPa)
#
#
# Indices 1 2 3 4 5 6 
#
# 1 0.011148 -0.003827 -0.003632 0.000736 -0.000758 0.002770
# 2 -0.003827 0.029652 -0.010846 -0.027990 -0.004591 0.005680
# 3 -0.003632 -0.010846 0.024879 0.008569 0.007096 -0.000754
# 4 0.000736 -0.027990 0.008569 0.060325 0.004810 -0.007178
# 5 -0.000758 -0.004591 0.007096 0.004810 0.025821 -0.003774
# 6 0.002770 0.005680 -0.000754 -0.007178 -0.003774 0.029145
#
#
# Mechanical properties :
#
#
# Convention : Reuss Voigt Hill
#
# Bulk Modulus (GPa) = 34.40302 50.51985 42.46144
# Shear Modulus (GPa) = 22.00020 32.95395 27.47707
#
# Velocity S-wave (km/s) = 3.12025 3.81883 3.48708
# Velocity P-wave (km/s) = 5.31093 6.46542 5.91640
#
# Compressibility (1/GPa) = 0.02906721
#
# Stress axis : x y z
#
# Youngs Moduli (GPa) = 89.70292 33.72483 40.19385
#
# Poissons Ratio (x) = 0.12908 0.14600
# Poissons Ratio (y) = 0.34333 0.43595
# Poissons Ratio (z) = 0.32583 0.36579
#
# Static dielectric constant tensor:
#      x y z
#    x 1.894020 0.061950 0.017410 
#    y 0.061950 1.938940 0.003880 
#    z 0.017410 0.003880 1.815500 
# 
# From -- ./inp_files/185296.got.cif
#   From: 2010.05.17/outbox.cif.g08.bks.cpg/sg2_93_cif.got.tgz:185296.got - 2010.06.03 11:33:40.
