data_PCOD9106915
_publ_section_title
;
Structure prediction by ZEFSAII (Michael W. Deem and Ramdas Pophale) SiO2 
 PCOD9106915
Probable space group: P -1
;
_chemical_formula_sum "Si O2"
_cell_formula_units_Z 16
_cell_length_a 8.455503
_cell_length_b 7.801420
_cell_length_c 16.428812
_cell_angle_alpha 113.206953
_cell_angle_beta 91.061727
_cell_angle_gamma 131.650811
_cell_volume 679.379744
_symmetry_space_group_name_H-M "P -1"
_symmetry_group_IT_number 2
_symmetry_cell_setting 'triclinic'
loop_
_space_group_symop_operation_xyz
x,y,z
-x,-y,-z
loop_
_atom_site_type_symbol
_atom_site_label
_atom_site_fract_x
_atom_site_fract_y
_atom_site_fract_z
Si Si1 0.963609 0.110759 0.446532
Si Si2 0.900563 0.344017 0.717192
Si Si3 0.667718 0.760061 0.609424
Si Si4 0.487927 0.210478 0.701046
Si Si5 0.512526 0.756036 0.111206
Si Si6 0.101299 0.134504 0.937843
Si Si7 0.719662 0.361874 0.351182
Si Si8 0.843922 0.244366 0.888968
O O1 0.098322 0.159550 0.375033
O O2 0.093922 0.404355 0.536769
O O3 0.693504 0.875879 0.381595
O O4 0.000000 0.000000 0.500000
O O5 0.915157 0.342874 0.814617
O O6 0.141543 0.544745 0.712283
O O7 0.760210 0.038876 0.629456
O O8 0.743620 0.388270 0.704403
O O9 0.500000 0.500000 0.500000
O O10 0.496056 0.680001 0.663982
O O11 0.379562 0.917067 0.670240
O O12 0.496320 0.317661 0.808259
O O13 0.768287 0.931890 0.112462
O O14 0.410539 0.879521 0.127835
O O15 0.316358 0.464656 0.009789
O O16 0.902368 0.078960 0.877896
O O17 0.000000 0.000000 0.000000
O O18 0.000000 0.500000 0.000000
#
# Coordination Sequence:
#
# PCOD9106915 Si02
#       8
#     2   2   2   2   2   2   2   2
#     4  11  21  39  61  87 124 165 200 257 313 359
#     4  10  20  40  62  87 118 160 210 245 315 367
#     4   9  20  37  58  85 121 150 204 253 297 360
#     4  10  23  39  59  86 124 160 204 255 302 373
#     4   9  21  41  59  90 127 157 206 259 307 369
#     4  10  21  39  66  91 123 161 205 255 314 372
#     4  10  21  40  61  84 118 165 204 255 299 371
#     4   9  20  39  65  89 124 163 197 257 311 372
#
# _framework density 23.550896000000002
#
# number of rings (size 3 to 8) (size 9 to 14) (size 15 to 20)
#    0.000    2.250    1.250    0.375    1.750    4.000 
#    6.750   15.000    0.000    0.000    0.000    0.000 
#    0.000    0.000    0.000    0.000    0.000    0.000 
#
# Total GULP energy -89252.807261 kJ/mol
# GULP energy per Si atom -5578.300454 kJ/mol
# Density = 2.349729 g / cm^3
# Si number density = 23.550896 Si / 1000 Ang^3
#
#
#
# Elastic Constant Matrix: (Units=GPa)
#
#
# Indices 1 2 3 4 5 6 
#
# 1 176.5543 49.2223 75.1111 -32.7819 -4.2543 36.2894
# 2 49.2223 70.3792 3.8813 -8.8541 -6.0493 23.4765
# 3 75.1111 3.8813 73.2775 -10.2055 9.6623 15.0037
# 4 -32.7819 -8.8541 -10.2055 29.1134 10.7564 -8.6225
# 5 -4.2543 -6.0493 9.6623 10.7564 46.3563 -12.1249
# 6 36.2894 23.4765 15.0037 -8.6225 -12.1249 35.5245
#
#
#
# Elastic Compliance Matrix: (Units=1/GPa)
#
#
# Indices 1 2 3 4 5 6 
#
# 1 0.016954 -0.008889 -0.015062 0.010190 0.000536 -0.002427
# 2 -0.008889 0.023460 0.010473 -0.001819 -0.002710 -0.012213
# 3 -0.015062 0.010473 0.030862 -0.002341 -0.007960 -0.007855
# 4 0.010190 -0.001819 -0.002341 0.048152 -0.009970 0.000066
# 5 0.000536 -0.002710 -0.007960 -0.009970 0.028342 0.011858
# 6 -0.002427 -0.012213 -0.007855 0.000066 0.011858 0.046081
#
#
# Mechanical properties :
#
#
# Convention : Reuss Voigt Hill
#
# Bulk Modulus (GPa) = 22.56217 64.07114 43.31666
# Shear Modulus (GPa) = 21.22435 34.99859 28.11147
#
# Velocity S-wave (km/s) = 3.00528 3.85916 3.45867
# Velocity P-wave (km/s) = 4.65223 6.86454 5.86367
#
# Compressibility (1/GPa) = 0.04432197
#
# Stress axis : x y z
#
# Youngs Moduli (GPa) = 58.98479 42.62532 32.40195
#
# Poissons Ratio (x) = 0.37889 0.48802
# Poissons Ratio (y) = 0.52431 -0.33936
# Poissons Ratio (z) = 0.88840 -0.44643
#
# Static dielectric constant tensor:
#      x y z
#    x 2.000360 -0.009800 -0.055530 
#    y -0.009800 1.879350 0.034030 
#    z -0.055530 0.034030 2.013170 
# 
# From -- ./inp_files/350188.got.cif
#   From: 2010.05.17/outbox.cif.g08.bks.cpg/sg2_176_cif.got.tgz:350188.got - 2010.06.03 11:33:40.
