data_PCOD9106930
_publ_section_title
;
Structure prediction by ZEFSAII (Michael W. Deem and Ramdas Pophale) SiO2 
 PCOD9106930
Probable space group: P -1
;
_chemical_formula_sum "Si O2"
_cell_formula_units_Z 16
_cell_length_a 9.001483
_cell_length_b 17.671487
_cell_length_c 16.030684
_cell_angle_alpha 32.275857
_cell_angle_beta 53.733867
_cell_angle_gamma 76.355974
_cell_volume 866.795337
_symmetry_space_group_name_H-M "P -1"
_symmetry_group_IT_number 2
_symmetry_cell_setting 'triclinic'
loop_
_space_group_symop_operation_xyz
x,y,z
-x,-y,-z
loop_
_atom_site_type_symbol
_atom_site_label
_atom_site_fract_x
_atom_site_fract_y
_atom_site_fract_z
Si Si1 0.911380 0.321385 0.858151
Si Si2 0.180392 0.123618 0.111309
Si Si3 0.573447 0.376063 0.618891
Si Si4 0.819826 0.951507 0.259053
Si Si5 0.390301 0.878650 0.566673
Si Si6 0.512552 0.231733 0.593741
Si Si7 0.594147 0.954811 0.758767
Si Si8 0.968728 0.623303 0.045424
O O1 0.148605 0.493900 0.580607
O O2 0.919229 0.363434 0.914531
O O3 0.660980 0.239408 0.979613
O O4 0.921566 0.153867 0.010480
O O5 0.222410 0.049679 0.247117
O O6 0.424941 0.261630 0.854141
O O7 0.083622 0.233096 0.065476
O O8 0.007496 0.975454 0.237212
O O9 0.500000 0.500000 0.500000
O O10 0.507926 0.253547 0.673489
O O11 0.588530 0.875334 0.461822
O O12 0.722115 0.834895 0.316184
O O13 0.500000 0.000000 0.500000
O O14 0.339507 0.972739 0.425430
O O15 0.156329 0.689673 0.848948
O O16 0.728246 0.424707 0.306220
O O17 0.557505 0.088464 0.692157
#
# Coordination Sequence:
#
# PCOD9106930 Si02
#       8
#     2   2   2   2   2   2   2   2
#     4   8  16  33  52  75 103 137 179 209 253 324
#     4  11  21  34  53  82 112 136 180 228 264 305
#     4  11  18  34  60  79 100 143 186 222 253 314
#     4   9  18  33  52  79 109 137 182 218 258 318
#     4  10  16  34  61  78 102 148 180 211 264 326
#     4   9  20  36  55  78 105 140 185 213 262 324
#     4  10  22  35  51  84 114 136 173 226 272 314
#     4  10  17  34  60  80 100 140 188 218 249 322
#
# _framework density 18.458798000000002
#
# number of rings (size 3 to 8) (size 9 to 14) (size 15 to 20)
#    0.000    2.500    7.500    0.000    0.000    4.000 
#    0.000    2.500    0.000    1.500    0.000    0.000 
#    0.000    0.000    0.000    0.000    0.000    0.000 
#
# Total GULP energy -89140.516702 kJ/mol
# GULP energy per Si atom -5571.282294 kJ/mol
# Density = 1.841678 g / cm^3
# Si number density = 18.458798 Si / 1000 Ang^3
#
#
#
# Elastic Constant Matrix: (Units=GPa)
#
#
# Indices 1 2 3 4 5 6 
#
# 1 73.9093 1.6900 10.3906 -9.2345 -4.9635 18.8982
# 2 1.6900 52.9417 8.4135 -6.1249 -0.0004 9.8378
# 3 10.3906 8.4135 79.3009 9.4557 -12.1407 10.5780
# 4 -9.2345 -6.1249 9.4557 30.2519 9.5002 -8.3773
# 5 -4.9635 -0.0004 -12.1407 9.5002 20.7550 -2.3844
# 6 18.8982 9.8378 10.5780 -8.3773 -2.3844 20.7959
#
#
#
# Elastic Compliance Matrix: (Units=1/GPa)
#
#
# Indices 1 2 3 4 5 6 
#
# 1 0.018092 0.002722 -0.000187 0.000807 0.001884 -0.017092
# 2 0.002722 0.021577 -0.002419 0.004385 -0.003935 -0.010135
# 3 -0.000187 -0.002419 0.018870 -0.015065 0.016457 -0.012466
# 4 0.000807 0.004385 -0.015065 0.055205 -0.031187 0.023518
# 5 0.001884 -0.003935 0.016457 -0.031187 0.071082 -0.012635
# 6 -0.017092 -0.010135 -0.012466 0.023518 -0.012635 0.082779
#
#
# Mechanical properties :
#
#
# Convention : Reuss Voigt Hill
#
# Bulk Modulus (GPa) = 17.01569 27.46003 22.23786
# Shear Modulus (GPa) = 17.42374 26.73773 22.08074
#
# Velocity S-wave (km/s) = 3.07567 3.81006 3.46239
# Velocity P-wave (km/s) = 4.67453 5.85355 5.29695
#
# Compressibility (1/GPa) = 0.05876929
#
# Stress axis : x y z
#
# Youngs Moduli (GPa) = 55.27336 46.34605 52.99382
#
# Poissons Ratio (x) = -0.12614 0.00992
# Poissons Ratio (y) = -0.15044 0.12821
# Poissons Ratio (z) = 0.01035 0.11212
#
# Static dielectric constant tensor:
#      x y z
#    x 1.650390 0.015630 -0.030520 
#    y 0.015630 1.661130 -0.005350 
#    z -0.030520 -0.005350 1.660690 
# 
# From -- ./inp_files/507002.got.cif
#   From: 2010.05.17/outbox.cif.g08.bks.cpg/sg2_254_cif.got.tgz:507002.got - 2010.06.03 11:33:40.
