data_PCOD9106693
_publ_section_title
;
Structure prediction by ZEFSAII (Michael W. Deem and Ramdas Pophale) SiO2 
 PCOD9106693
Probable space group: P -1
;
_chemical_formula_sum "Si O2"
_cell_formula_units_Z 14
_cell_length_a 9.913946
_cell_length_b 15.662247
_cell_length_c 8.395144
_cell_angle_alpha 31.638400
_cell_angle_beta 68.653641
_cell_angle_gamma 65.700255
_cell_volume 622.953138
_symmetry_space_group_name_H-M "P -1"
_symmetry_group_IT_number 2
_symmetry_cell_setting 'triclinic'
loop_
_space_group_symop_operation_xyz
x,y,z
-x,-y,-z
loop_
_atom_site_type_symbol
_atom_site_label
_atom_site_fract_x
_atom_site_fract_y
_atom_site_fract_z
Si Si1 0.159324 0.938774 0.702500
Si Si2 0.840221 0.454117 0.629875
Si Si3 0.892110 0.069822 0.789116
Si Si4 0.537342 0.603281 0.672968
Si Si5 0.352103 0.966235 0.260781
Si Si6 0.322356 0.619336 0.463836
Si Si7 0.429405 0.912368 0.813173
O O1 0.249164 0.950590 0.483634
O O2 0.258006 0.990255 0.724141
O O3 0.141703 0.746337 0.033486
O O4 0.001264 0.058247 0.608624
O O5 0.712570 0.556201 0.637130
O O6 0.765191 0.489887 0.430286
O O7 0.000000 0.500000 0.500000
O O8 0.761044 0.981168 0.921146
O O9 0.803149 0.249721 0.594875
O O10 0.000000 0.000000 0.000000
O O11 0.460545 0.791951 0.448671
O O12 0.444632 0.551256 0.648682
O O13 0.500000 0.500000 0.000000
O O14 0.467368 0.072677 0.104633
O O15 0.405850 0.724868 0.139915
O O16 0.500000 0.000000 0.500000
#
# Coordination Sequence:
#
# PCOD9106693 Si02
#       7
#     2   2   2   2   2   2   2
#     4  10  20  40  60  86 130 157 200 262 317 359
#     4  11  23  40  65  89 124 170 211 253 309 372
#     4  11  20  36  62  87 122 157 195 261 318 352
#     4  11  23  42  67  88 129 173 209 254 301 376
#     4  10  22  37  65  91 120 165 210 246 316 376
#     4  10  23  42  64  90 127 165 208 259 317 363
#     4   9  19  37  62  92 120 155 206 260 310 369
#
# _framework density 22.473600000000001
#
# number of rings (size 3 to 8) (size 9 to 14) (size 15 to 20)
#    0.000    1.714    4.286    0.857    0.000    5.714 
#    0.000    0.714    0.000    0.000    0.000    0.000 
#    0.000    0.000    0.000    0.000    0.000    0.000 
#
# Total GULP energy -77958.867901 kJ/mol
# GULP energy per Si atom -5568.490564 kJ/mol
# Density = 2.242245 g / cm^3
# Si number density = 22.473600 Si / 1000 Ang^3
#
#
#
# Elastic Constant Matrix: (Units=GPa)
#
#
# Indices 1 2 3 4 5 6 
#
# 1 220.1340 59.6183 44.0414 5.4110 -24.6291 4.2515
# 2 59.6183 139.4661 30.3943 2.9178 -16.2015 -39.7403
# 3 44.0414 30.3943 65.1601 25.3495 -5.2447 -3.6873
# 4 5.4110 2.9178 25.3495 28.8667 -0.9636 -2.0075
# 5 -24.6291 -16.2015 -5.2447 -0.9636 33.0962 4.2582
# 6 4.2515 -39.7403 -3.6873 -2.0075 4.2582 57.4042
#
#
#
# Elastic Compliance Matrix: (Units=1/GPa)
#
#
# Indices 1 2 3 4 5 6 
#
# 1 0.006310 -0.002128 -0.004158 0.002632 0.003376 -0.002366
# 2 -0.002128 0.011586 -0.004968 0.004216 0.002416 0.007827
# 3 -0.004158 -0.004968 0.030126 -0.025354 -0.001234 -0.001992
# 4 0.002632 0.004216 -0.025354 0.056235 0.001260 0.002968
# 5 0.003376 0.002416 -0.001234 0.001260 0.033896 -0.001127
# 6 -0.002366 0.007827 -0.001992 0.002968 -0.001127 0.023074
#
#
# Mechanical properties :
#
#
# Convention : Reuss Voigt Hill
#
# Bulk Modulus (GPa) = 39.19733 76.98534 58.09134
# Shear Modulus (GPa) = 26.00920 43.25384 34.63152
#
# Velocity S-wave (km/s) = 3.40563 4.39184 3.92980
# Velocity P-wave (km/s) = 5.73967 7.74906 6.81879
#
# Compressibility (1/GPa) = 0.02551194
#
# Stress axis : x y z
#
# Youngs Moduli (GPa) = 158.48807 86.31464 33.19375
#
# Poissons Ratio (x) = 0.18369 0.13802
# Poissons Ratio (y) = 0.33728 0.16492
# Poissons Ratio (z) = 0.65900 0.42885
#
# Static dielectric constant tensor:
#      x y z
#    x 1.945870 0.072430 -0.050690 
#    y 0.072430 1.947670 -0.014400 
#    z -0.050690 -0.014400 1.975550 
# 
# From -- ./inp_files/198944.got.cif
#   From: 2010.05.17/outbox.cif.g08.bks.cpg/sg2_100_cif.got.tgz:198944.got - 2010.06.03 11:33:40.
