data_PCOD9106957
_publ_section_title
;
Structure prediction by ZEFSAII (Michael W. Deem and Ramdas Pophale) SiO2 
 PCOD9106957
Probable space group: P -1
;
_chemical_formula_sum "Si O2"
_cell_formula_units_Z 15
_cell_length_a 12.180856
_cell_length_b 8.572267
_cell_length_c 11.602267
_cell_angle_alpha 141.189350
_cell_angle_beta 68.007714
_cell_angle_gamma 93.977957
_cell_volume 650.432040
_symmetry_space_group_name_H-M "P -1"
_symmetry_group_IT_number 2
_symmetry_cell_setting 'triclinic'
loop_
_space_group_symop_operation_xyz
x,y,z
-x,-y,-z
loop_
_atom_site_type_symbol
_atom_site_label
_atom_site_fract_x
_atom_site_fract_y
_atom_site_fract_z
Si Si1 0.862206 0.239231 0.836533
Si Si2 0.654360 0.664391 0.498489
Si Si3 0.000000 0.500000 0.000000
Si Si4 0.466893 0.505856 0.330263
Si Si5 0.413412 0.725437 0.077701
Si Si6 0.071967 0.722563 0.748666
Si Si7 0.799312 0.114617 0.425291
Si Si8 0.946817 0.345478 0.642501
O O1 0.914585 0.321030 0.976768
O O2 0.714672 0.323560 0.930470
O O3 0.931359 0.399846 0.818811
O O4 0.935080 0.931345 0.593005
O O5 0.584138 0.574406 0.371921
O O6 0.585791 0.617208 0.614948
O O7 0.803375 0.485461 0.354998
O O8 0.627807 0.978431 0.683056
O O9 0.132451 0.202311 0.767199
O O10 0.348624 0.772536 0.487312
O O11 0.511343 0.305838 0.089924
O O12 0.500000 0.500000 0.000000
O O13 0.127323 0.784125 0.643438
O O14 0.969729 0.579494 0.701608
O O15 0.000000 0.000000 0.000000
O O16 0.824126 0.276196 0.618524
#
# Coordination Sequence:
#
# PCOD9106957 Si02
#       8
#     2   2   1   2   2   2   2   2
#     4  10  22  39  61  92 128 173 215 266 340 392
#     4  10  24  48  70  97 140 173 233 284 332 408
#     4  10  22  40  64  90 134 164 212 278 330 398
#     4  10  24  47  70  98 133 186 224 280 340 400
#     4  12  25  43  69 103 135 182 225 277 344 407
#     4  11  22  41  67  98 125 172 225 277 338 401
#     4  10  22  41  64  98 128 170 222 272 341 403
#     4  10  20  40  62  88 133 165 209 279 328 397
#
# _framework density 23.061596999999999
#
# number of rings (size 3 to 8) (size 9 to 14) (size 15 to 20)
#    0.000    1.600    1.333    2.400    1.867    3.733 
#   19.200    0.000    0.000    0.000    0.000    0.000 
#    0.000    0.000    0.000    0.000    0.000    0.000 
#
# Total GULP energy -83678.656866 kJ/mol
# GULP energy per Si atom -5578.577124 kJ/mol
# Density = 2.300911 g / cm^3
# Si number density = 23.061597 Si / 1000 Ang^3
#
#
#
# Elastic Constant Matrix: (Units=GPa)
#
#
# Indices 1 2 3 4 5 6 
#
# 1 100.7688 3.3030 17.6645 29.3796 -3.0083 -11.3792
# 2 3.3030 60.7479 37.2500 7.0078 4.3042 -10.3325
# 3 17.6645 37.2500 103.2016 20.4673 9.1866 -0.0955
# 4 29.3796 7.0078 20.4673 48.5526 -0.7723 -2.1840
# 5 -3.0083 4.3042 9.1866 -0.7723 29.8972 9.0854
# 6 -11.3792 -10.3325 -0.0955 -2.1840 9.0854 32.6977
#
#
#
# Elastic Compliance Matrix: (Units=1/GPa)
#
#
# Indices 1 2 3 4 5 6 
#
# 1 0.012702 0.001755 -0.001374 -0.007158 -0.000112 0.004524
# 2 0.001755 0.023238 -0.008268 -0.000587 -0.003322 0.008814
# 3 -0.001374 -0.008268 0.013927 -0.004004 -0.002537 -0.002613
# 4 -0.007158 -0.000587 -0.004004 0.026665 0.001703 -0.001381
# 5 -0.000112 -0.003322 -0.002537 0.001703 0.038268 -0.011616
# 6 0.004524 0.008814 -0.002613 -0.001381 -0.011616 0.038070
#
#
# Mechanical properties :
#
#
# Convention : Reuss Voigt Hill
#
# Bulk Modulus (GPa) = 29.33138 42.35036 35.84087
# Shear Modulus (GPa) = 27.77665 35.99622 31.88644
#
# Velocity S-wave (km/s) = 3.47429 3.95507 3.72245
# Velocity P-wave (km/s) = 5.37034 6.26584 5.83529
#
# Compressibility (1/GPa) = 0.03409317
#
# Stress axis : x y z
#
# Youngs Moduli (GPa) = 78.73073 43.03314 71.80528
#
# Poissons Ratio (x) = -0.07552 0.09863
# Poissons Ratio (y) = -0.13816 0.59366
# Poissons Ratio (z) = 0.10815 0.35578
#
# Static dielectric constant tensor:
#      x y z
#    x 0.021700 0.744310 -1.290130 
#    y 0.744310 1.560270 0.486650 
#    z -1.290130 0.486650 0.924020 
# 
# From -- ./inp_files/258754.got.cif
#   From: 2010.05.17/outbox.cif.g08.bks.cpg/sg2_130_cif.got.tgz:258754.got - 2010.06.03 11:33:40.
