data_PCOD9106554
_publ_section_title
;
Structure prediction by ZEFSAII (Michael W. Deem and Ramdas Pophale) SiO2 
 PCOD9106554
Probable space group: P -1
;
_chemical_formula_sum "Si O2"
_cell_formula_units_Z 16
_cell_length_a 7.714105
_cell_length_b 12.571503
_cell_length_c 7.082467
_cell_angle_alpha 96.112768
_cell_angle_beta 66.448571
_cell_angle_gamma 113.933266
_cell_volume 574.224590
_symmetry_space_group_name_H-M "P -1"
_symmetry_group_IT_number 2
_symmetry_cell_setting 'triclinic'
loop_
_space_group_symop_operation_xyz
x,y,z
-x,-y,-z
loop_
_atom_site_type_symbol
_atom_site_label
_atom_site_fract_x
_atom_site_fract_y
_atom_site_fract_z
Si Si1 0.848727 0.143749 0.771241
Si Si2 0.740333 0.653020 0.276019
Si Si3 0.654427 0.927975 0.562264
Si Si4 0.766931 0.057051 0.191499
Si Si5 0.135669 0.412485 0.206438
Si Si6 0.310406 0.597659 0.630670
Si Si7 0.793838 0.793792 0.791522
Si Si8 0.638935 0.324452 0.936382
O O1 0.772859 0.062746 0.607549
O O2 0.085261 0.224193 0.717928
O O3 0.773497 0.053930 0.962781
O O4 0.752276 0.239677 0.834672
O O5 0.517071 0.653125 0.426666
O O6 0.743213 0.539844 0.362573
O O7 0.808675 0.623869 0.032111
O O8 0.699943 0.940510 0.322695
O O9 0.258985 0.139243 0.343810
O O10 0.410545 0.893709 0.685788
O O11 0.994987 0.135480 0.178821
O O12 0.194884 0.327839 0.298277
O O13 0.896786 0.386773 0.333364
O O14 0.265331 0.551038 0.185879
O O15 0.347249 0.642831 0.840094
O O16 0.599334 0.752470 0.007059
#
# Coordination Sequence:
#
# PCOD9106554 Si02
#       8
#     2   2   2   2   2   2   2   2
#     4  12  22  49  81 114 157 209 264 335 403 473
#     4  10  20  39  75 115 154 214 265 317 402 474
#     4  11  28  48  77 116 151 203 283 329 395 488
#     4  11  25  51  75 109 156 205 264 345 398 451
#     4  11  21  45  71 116 161 210 259 325 398 481
#     4  10  20  39  74 113 160 208 263 323 391 481
#     4  12  25  45  76 111 153 213 261 322 404 472
#     4  11  22  41  75 112 159 202 263 324 398 482
#
# _framework density 27.863665000000001
#
# number of rings (size 3 to 8) (size 9 to 14) (size 15 to 20)
#    0.000    1.000    5.000    1.875    1.750    0.500 
#    0.000    2.500    0.000    5.250    0.000    0.000 
#    0.000    0.000    0.000    0.000    0.000    0.000 
#
# Total GULP energy -89785.388920 kJ/mol
# GULP energy per Si atom -5611.586808 kJ/mol
# Density = 2.780025 g / cm^3
# Si number density = 27.863665 Si / 1000 Ang^3
#
#
#
# Elastic Constant Matrix: (Units=GPa)
#
#
# Indices 1 2 3 4 5 6 
#
# 1 195.1469 65.1468 65.6410 -8.6400 -35.7854 -18.4005
# 2 65.1468 119.6058 43.3130 7.8717 -10.7147 -4.3920
# 3 65.6410 43.3130 139.9503 -2.1415 -25.7829 -1.2279
# 4 -8.6400 7.8717 -2.1415 44.9829 6.5576 -1.3414
# 5 -35.7854 -10.7147 -25.7829 6.5576 55.7837 -4.2587
# 6 -18.4005 -4.3920 -1.2279 -1.3414 -4.2587 54.9872
#
#
#
# Elastic Compliance Matrix: (Units=1/GPa)
#
#
# Indices 1 2 3 4 5 6 
#
# 1 0.007830 -0.003240 -0.001977 0.001544 0.003506 0.002626
# 2 -0.003240 0.010959 -0.002032 -0.002554 -0.000640 -0.000366
# 3 -0.001977 -0.002032 0.009167 0.000029 0.002543 -0.000422
# 4 0.001544 -0.002554 0.000029 0.023314 -0.002173 0.000714
# 5 0.003506 -0.000640 0.002543 -0.002173 0.021697 0.002806
# 6 0.002626 -0.000366 -0.000422 0.000714 0.002806 0.019261
#
#
# Mechanical properties :
#
#
# Convention : Reuss Voigt Hill
#
# Bulk Modulus (GPa) = 74.31229 89.21162 81.76196
# Shear Modulus (GPa) = 44.95937 49.85758 47.40847
#
# Velocity S-wave (km/s) = 4.02126 4.23465 4.12933
# Velocity P-wave (km/s) = 6.94900 7.48307 7.22097
#
# Compressibility (1/GPa) = 0.01345672
#
# Stress axis : x y z
#
# Youngs Moduli (GPa) = 127.71617 91.25150 109.08816
#
# Poissons Ratio (x) = 0.29564 0.21569
# Poissons Ratio (y) = 0.41378 0.22170
# Poissons Ratio (z) = 0.25252 0.18545
#
# Static dielectric constant tensor:
#      x y z
#    x 2.143910 -0.012780 0.011850 
#    y -0.012780 2.142670 -0.011980 
#    z 0.011850 -0.011980 2.184060 
# 
# From -- ./inp_files/214956.got.cif
#   From: 2010.05.17/outbox.cif.g08.bks.cpg/sg2_108_cif.got.tgz:214956.got - 2010.06.03 11:33:40.
