data_PCOD9106311
_publ_section_title
;
Structure prediction by ZEFSAII (Michael W. Deem and Ramdas Pophale) SiO2 
 PCOD9106311
Probable space group: P -1
;
_chemical_formula_sum "Si O2"
_cell_formula_units_Z 14
_cell_length_a 9.430304
_cell_length_b 9.074448
_cell_length_c 12.054048
_cell_angle_alpha 127.711318
_cell_angle_beta 127.555153
_cell_angle_gamma 61.105983
_cell_volume 636.836160
_symmetry_space_group_name_H-M "P -1"
_symmetry_group_IT_number 2
_symmetry_cell_setting 'triclinic'
loop_
_space_group_symop_operation_xyz
x,y,z
-x,-y,-z
loop_
_atom_site_type_symbol
_atom_site_label
_atom_site_fract_x
_atom_site_fract_y
_atom_site_fract_z
Si Si1 0.757757 0.789553 0.563212
Si Si2 0.836627 0.675666 0.982728
Si Si3 0.144968 0.892128 0.763490
Si Si4 0.704403 0.546537 0.633757
Si Si5 0.471179 0.086101 0.679347
Si Si6 0.187640 0.858273 0.520689
Si Si7 0.507081 0.174901 0.994753
O O1 0.755461 0.633356 0.583383
O O2 0.637213 0.759809 0.384676
O O3 0.958916 0.813382 0.637868
O O4 0.654629 0.982795 0.661860
O O5 0.745892 0.672201 0.815270
O O6 0.666445 0.672393 0.982495
O O7 0.000000 0.500000 0.000000
O O8 0.893425 0.881404 0.126128
O O9 0.242155 0.850512 0.671719
O O10 0.290656 0.788033 0.871769
O O11 0.500000 0.500000 0.500000
O O12 0.832530 0.346306 0.622914
O O13 0.492242 0.137085 0.840107
O O14 0.336680 0.932252 0.552144
O O15 0.000000 0.000000 0.500000
O O16 0.500000 0.000000 0.000000
#
# Coordination Sequence:
#
# PCOD9106311 Si02
#       7
#     2   2   2   2   2   2   2
#     4  11  25  42  68 106 138 178 228 293 337 397
#     4  11  24  41  70 103 134 179 230 277 333 409
#     4  11  23  42  70  99 137 176 231 273 344 401
#     4  12  26  44  70 101 138 177 233 282 340 407
#     4  11  22  41  70 101 135 179 229 275 341 407
#     4  12  22  42  72  98 131 185 226 275 340 417
#     4  10  20  39  68  98 131 180 227 268 334 410
#
# _framework density 21.983677
#
# number of rings (size 3 to 8) (size 9 to 14) (size 15 to 20)
#    0.000    0.857    5.714    3.429    0.000    2.857 
#    0.000    0.000    0.000    5.143    0.000    0.000 
#    0.000    0.000    0.000    0.000    0.000    0.000 
#
# Total GULP energy -78188.640148 kJ/mol
# GULP energy per Si atom -5584.902868 kJ/mol
# Density = 2.193364 g / cm^3
# Si number density = 21.983677 Si / 1000 Ang^3
#
#
#
# Elastic Constant Matrix: (Units=GPa)
#
#
# Indices 1 2 3 4 5 6 
#
# 1 92.0719 20.2863 1.6013 -15.1076 -4.2785 -9.7104
# 2 20.2863 55.0514 7.9980 -15.4346 -5.6688 -12.5299
# 3 1.6013 7.9980 63.0357 -23.0229 -20.7404 7.5238
# 4 -15.1076 -15.4346 -23.0229 38.0284 3.0092 -5.9372
# 5 -4.2785 -5.6688 -20.7404 3.0092 38.2252 -9.7274
# 6 -9.7104 -12.5299 7.5238 -5.9372 -9.7274 43.8108
#
#
#
# Elastic Compliance Matrix: (Units=1/GPa)
#
#
# Indices 1 2 3 4 5 6 
#
# 1 0.012801 -0.002414 0.002767 0.006041 0.002898 0.003134
# 2 -0.002414 0.024507 0.001801 0.011018 0.005747 0.008934
# 3 0.002767 0.001801 0.026034 0.016807 0.013893 0.002020
# 4 0.006041 0.011018 0.016807 0.044060 0.010481 0.009902
# 5 0.002898 0.005747 0.013893 0.010481 0.036446 0.009413
# 6 0.003134 0.008934 0.002020 0.009902 0.009413 0.029160
#
#
# Mechanical properties :
#
#
# Convention : Reuss Voigt Hill
#
# Bulk Modulus (GPa) = 14.78195 29.99224 22.38710
# Shear Modulus (GPa) = 26.14371 36.03112 31.08741
#
# Velocity S-wave (km/s) = 3.45227 4.05284 3.76455
# Velocity P-wave (km/s) = 4.75705 5.96433 5.39457
#
# Compressibility (1/GPa) = 0.06765008
#
# Stress axis : x y z
#
# Youngs Moduli (GPa) = 78.11768 40.80458 38.41116
#
# Poissons Ratio (x) = 0.09849 -0.10628
# Poissons Ratio (y) = 0.18856 -0.06917
# Poissons Ratio (z) = -0.21615 -0.07348
#
# Static dielectric constant tensor:
#      x y z
#    x 1.777750 -0.005820 0.003150 
#    y -0.005820 1.949210 -0.054820 
#    z 0.003150 -0.054820 1.880350 
# 
# From -- ./inp_files/207951.got.cif
#   From: 2010.05.17/outbox.cif.g08.bks.cpg/sg2_104_cif.got.tgz:207951.got - 2010.06.03 11:33:40.
