data_PCOD9106506
_publ_section_title
;
Structure prediction by ZEFSAII (Michael W. Deem and Ramdas Pophale) SiO2 
 PCOD9106506
Probable space group: P -1
;
_chemical_formula_sum "Si O2"
_cell_formula_units_Z 16
_cell_length_a 10.797366
_cell_length_b 9.641160
_cell_length_c 12.500778
_cell_angle_alpha 122.813417
_cell_angle_beta 45.996160
_cell_angle_gamma 91.323887
_cell_volume 638.288843
_symmetry_space_group_name_H-M "P -1"
_symmetry_group_IT_number 2
_symmetry_cell_setting 'triclinic'
loop_
_space_group_symop_operation_xyz
x,y,z
-x,-y,-z
loop_
_atom_site_type_symbol
_atom_site_label
_atom_site_fract_x
_atom_site_fract_y
_atom_site_fract_z
Si Si1 0.361208 0.434308 0.112884
Si Si2 0.340219 0.708364 0.400307
Si Si3 0.956039 0.788861 0.993695
Si Si4 0.344644 0.505835 0.511434
Si Si5 0.099403 0.123292 0.598099
Si Si6 0.751847 0.087070 0.043023
Si Si7 0.800517 0.552560 0.009779
Si Si8 0.757671 0.027652 0.775440
O O1 0.249218 0.607872 0.341652
O O2 0.238243 0.423126 0.085131
O O3 0.500000 0.500000 0.000000
O O4 0.514219 0.216032 0.983424
O O5 0.278103 0.689641 0.547495
O O6 0.264669 0.918953 0.479108
O O7 0.596558 0.573932 0.189714
O O8 0.180658 0.271733 0.889929
O O9 0.133898 0.584552 0.735853
O O10 0.089274 0.843379 0.008736
O O11 0.808261 0.958079 0.063739
O O12 0.500000 0.500000 0.500000
O O13 0.503627 0.282912 0.271126
O O14 0.180801 0.114749 0.425136
O O15 0.011911 0.327936 0.798681
O O16 0.894312 0.118017 0.709959
O O17 0.793598 0.972884 0.856695
#
# Coordination Sequence:
#
# PCOD9106506 Si02
#       8
#     2   2   2   2   2   2   2   2
#     4  10  16  34  58  87 124 158 195 244 307 364
#     4  11  20  37  65  91 122 166 200 246 309 370
#     4  10  24  42  64  89 121 166 211 256 300 362
#     4  10  21  40  65  88 115 163 211 247 293 364
#     4  11  20  32  61  95 125 153 204 252 306 364
#     4  10  21  43  66  81 119 170 215 246 303 371
#     4  11  22  39  59  97 132 153 200 261 310 357
#     4  11  18  34  62  94 115 164 207 249 301 370
#
# _framework density 25.067022000000001
#
# number of rings (size 3 to 8) (size 9 to 14) (size 15 to 20)
#    0.000    1.500    6.250    1.500    0.000    1.000 
#    0.000    8.750    0.000   10.500    0.000    0.000 
#    0.000    0.000    0.000    0.000    0.000    0.000 
#
# Total GULP energy -89384.518769 kJ/mol
# GULP energy per Si atom -5586.532423 kJ/mol
# Density = 2.500997 g / cm^3
# Si number density = 25.067022 Si / 1000 Ang^3
#
#
#
# Elastic Constant Matrix: (Units=GPa)
#
#
# Indices 1 2 3 4 5 6 
#
# 1 78.2094 39.9950 1.5033 -7.6509 -0.2369 -14.2922
# 2 39.9950 73.4269 15.5120 15.7922 3.7012 -35.9230
# 3 1.5033 15.5120 68.7793 17.2966 -6.6675 -13.9021
# 4 -7.6509 15.7922 17.2966 34.8260 -6.6365 3.3941
# 5 -0.2369 3.7012 -6.6675 -6.6365 10.6462 -7.5123
# 6 -14.2922 -35.9230 -13.9021 3.3941 -7.5123 45.3339
#
#
#
# Elastic Compliance Matrix: (Units=1/GPa)
#
#
# Indices 1 2 3 4 5 6 
#
# 1 0.024889 -0.023386 -0.001155 0.020177 0.013230 -0.010357
# 2 -0.023386 0.050924 0.003717 -0.036119 -0.014074 0.034492
# 3 -0.001155 0.003717 0.019969 -0.010548 0.012811 0.011617
# 4 0.020177 -0.036119 -0.010548 0.062453 0.027225 -0.025659
# 5 0.013230 -0.014074 0.012811 0.027225 0.136477 0.017525
# 6 -0.010357 0.034492 0.011617 -0.025659 0.017525 0.054513
#
#
# Mechanical properties :
#
#
# Convention : Reuss Voigt Hill
#
# Bulk Modulus (GPa) = 18.47268 37.15957 27.81613
# Shear Modulus (GPa) = 12.22739 29.05492 20.64116
#
# Velocity S-wave (km/s) = 2.21099 3.40823 2.87268
# Velocity P-wave (km/s) = 3.72871 5.50857 4.70360
#
# Compressibility (1/GPa) = 0.05413399
#
# Stress axis : x y z
#
# Youngs Moduli (GPa) = 40.17859 19.63693 50.07814
#
# Poissons Ratio (x) = 0.45923 0.05782
# Poissons Ratio (y) = 0.93963 -0.18612
# Poissons Ratio (z) = 0.04639 -0.07298
#
# Static dielectric constant tensor:
#      x y z
#    x 1.962040 -0.024340 0.039940 
#    y -0.024340 2.017590 0.037970 
#    z 0.039940 0.037970 2.105870 
# 
# From -- ./inp_files/464579.got.cif
#   From: 2010.05.17/outbox.cif.g08.bks.cpg/sg2_233_cif.got.tgz:464579.got - 2010.06.03 11:33:40.
