data_PCOD9106365
_publ_section_title
;
Structure prediction by ZEFSAII (Michael W. Deem and Ramdas Pophale) SiO2 
 PCOD9106365
Probable space group: P -1
;
_chemical_formula_sum "Si O2"
_cell_formula_units_Z 14
_cell_length_a 9.223997
_cell_length_b 28.050847
_cell_length_c 5.407923
_cell_angle_alpha 41.939415
_cell_angle_beta 53.758913
_cell_angle_gamma 33.045383
_cell_volume 507.945603
_symmetry_space_group_name_H-M "P -1"
_symmetry_group_IT_number 2
_symmetry_cell_setting 'triclinic'
loop_
_space_group_symop_operation_xyz
x,y,z
-x,-y,-z
loop_
_atom_site_type_symbol
_atom_site_label
_atom_site_fract_x
_atom_site_fract_y
_atom_site_fract_z
Si Si1 0.325208 0.949146 0.241647
Si Si2 0.612920 0.885506 0.699217
Si Si3 0.763416 0.477158 0.723324
Si Si4 0.200482 0.663555 0.469203
Si Si5 0.308758 0.385723 0.336585
Si Si6 0.687672 0.735498 0.493356
Si Si7 0.886196 0.180803 0.750164
O O1 0.436680 0.945196 0.401795
O O2 0.439540 0.835896 0.521420
O O3 0.473004 0.943532 0.878626
O O4 0.019440 0.063531 0.085958
O O5 0.898392 0.837750 0.557787
O O6 0.639843 0.791710 0.068197
O O7 0.510523 0.566515 0.453686
O O8 0.712794 0.531422 0.829731
O O9 0.042793 0.424766 0.553785
O O10 0.783479 0.387182 0.096995
O O11 0.404460 0.726654 0.427445
O O12 0.122830 0.768109 0.189814
O O13 0.297591 0.353532 0.197402
O O14 0.038010 0.307897 0.531810
#
# Coordination Sequence:
#
# PCOD9106365 Si02
#       7
#     2   2   2   2   2   2   2
#     4  10  23  39  70  98 138 166 232 262 322 393
#     4  10  21  41  66  97 134 176 219 273 306 400
#     4   9  21  42  64  92 132 169 229 276 329 388
#     4  10  20  39  69  93 125 179 223 274 324 393
#     4  10  22  39  62  95 134 172 215 278 338 390
#     4  10  23  38  67  96 131 171 217 270 326 393
#     4  11  20  39  65  94 134 174 216 264 338 388
#
# _framework density 27.562006
#
# number of rings (size 3 to 8) (size 9 to 14) (size 15 to 20)
#    0.857    1.143    1.429    1.714    0.000    1.714 
#    0.000    7.857    0.000    0.000    0.000    0.000 
#    0.000    0.000    0.000    0.000    0.000    0.000 
#
# Total GULP energy -78182.635323 kJ/mol
# GULP energy per Si atom -5584.473952 kJ/mol
# Density = 2.749927 g / cm^3
# Si number density = 27.562006 Si / 1000 Ang^3
#
#
#
# Elastic Constant Matrix: (Units=GPa)
#
#
# Indices 1 2 3 4 5 6 
#
# 1 120.3482 59.5870 9.0044 -14.5792 2.6606 -15.3880
# 2 59.5870 171.1289 28.6007 -23.2161 12.5175 -9.4631
# 3 9.0044 28.6007 52.2408 -7.5001 8.0872 -8.8668
# 4 -14.5792 -23.2161 -7.5001 43.7582 -0.6403 -4.3544
# 5 2.6606 12.5175 8.0872 -0.6403 45.9700 -6.5410
# 6 -15.3880 -9.4631 -8.8668 -4.3544 -6.5410 65.8974
#
#
#
# Elastic Compliance Matrix: (Units=1/GPa)
#
#
# Indices 1 2 3 4 5 6 
#
# 1 0.010458 -0.003390 0.000637 0.002025 0.000551 0.002230
# 2 -0.003390 0.008007 -0.003228 0.002541 -0.001387 -0.000046
# 3 0.000637 -0.003228 0.021996 0.002485 -0.002630 0.002548
# 4 0.002025 0.002541 0.002485 0.025574 -0.000490 0.002813
# 5 0.000551 -0.001387 -0.002630 -0.000490 0.022812 0.001808
# 6 0.002230 -0.000046 0.002548 0.002813 0.001808 0.016397
#
#
# Mechanical properties :
#
#
# Convention : Reuss Voigt Hill
#
# Bulk Modulus (GPa) = 35.08795 59.78914 47.43855
# Shear Modulus (GPa) = 39.46128 47.56017 43.51073
#
# Velocity S-wave (km/s) = 3.78792 4.15850 3.97753
# Velocity P-wave (km/s) = 5.64706 6.69307 6.19220
#
# Compressibility (1/GPa) = 0.02849981
#
# Stress axis : x y z
#
# Youngs Moduli (GPa) = 95.61681 124.88862 45.46331
#
# Poissons Ratio (x) = 0.42343 -0.02898
# Poissons Ratio (y) = 0.32419 0.14674
# Poissons Ratio (z) = -0.06094 0.40309
#
# Static dielectric constant tensor:
#      x y z
#    x 2.103020 0.068130 0.008360 
#    y 0.068130 2.261320 -0.022880 
#    z 0.008360 -0.022880 2.297930 
# 
# From -- ./inp_files/84669.got.cif
#   From: 2010.05.17/outbox.cif.g08.bks.cpg/sg2_43_cif.got.tgz:84669.got - 2010.06.03 11:33:40.
