data_PCOD9106869
_publ_section_title
;
Structure prediction by ZEFSAII (Michael W. Deem and Ramdas Pophale) SiO2 
 PCOD9106869
Probable space group: P -1
;
_chemical_formula_sum "Si O2"
_cell_formula_units_Z 16
_cell_length_a 11.704711
_cell_length_b 11.616981
_cell_length_c 8.467193
_cell_angle_alpha 96.668132
_cell_angle_beta 114.770704
_cell_angle_gamma 42.349699
_cell_volume 668.047018
_symmetry_space_group_name_H-M "P -1"
_symmetry_group_IT_number 2
_symmetry_cell_setting 'triclinic'
loop_
_space_group_symop_operation_xyz
x,y,z
-x,-y,-z
loop_
_atom_site_type_symbol
_atom_site_label
_atom_site_fract_x
_atom_site_fract_y
_atom_site_fract_z
Si Si1 0.306343 0.684512 0.489481
Si Si2 0.864339 0.548968 0.292114
Si Si3 0.094100 0.020696 0.691650
Si Si4 0.777359 0.254712 0.038101
Si Si5 0.135000 0.159217 0.224162
Si Si6 0.207119 0.291388 0.043439
Si Si7 0.395425 0.458125 0.773588
Si Si8 0.383500 0.901516 0.617686
O O1 0.500000 0.500000 0.500000
O O2 0.273445 0.624895 0.613078
O O3 0.364372 0.776336 0.568818
O O4 0.102520 0.807787 0.301600
O O5 0.678558 0.619246 0.277223
O O6 0.000000 0.500000 0.500000
O O7 0.996567 0.355774 0.254439
O O8 0.790758 0.691042 0.140563
O O9 0.218537 0.851796 0.849721
O O10 0.219327 0.031658 0.681761
O O11 0.000000 0.000000 0.500000
O O12 0.661489 0.448256 0.073154
O O13 0.995179 0.145999 0.118250
O O14 0.621078 0.314577 0.835143
O O15 0.201823 0.167682 0.098796
O O16 0.304254 0.012923 0.426814
O O17 0.400427 0.214271 0.220832
O O18 0.000000 0.500000 0.000000
#
# Coordination Sequence:
#
# PCOD9106869 Si02
#       8
#     2   2   2   2   2   2   2   2
#     4  11  23  36  59  99 135 162 202 269 343 381
#     4  10  22  41  62  90 129 173 218 270 322 381
#     4  10  16  34  60  89 122 163 211 253 302 398
#     4  10  17  33  63  92 121 157 220 260 304 383
#     4  10  20  37  64  95 128 168 216 264 322 384
#     4  10  23  38  62  98 123 171 222 270 317 384
#     4  10  20  34  60  94 122 163 210 262 319 383
#     4  11  20  39  67  94 130 172 224 259 317 401
#
# _framework density 23.950410000000002
#
# number of rings (size 3 to 8) (size 9 to 14) (size 15 to 20)
#    0.000    1.750    5.000    1.875    5.250    2.000 
#    0.000    1.250    0.000    1.500    0.000    0.000 
#    0.000    0.000    0.000    0.000    0.000    0.000 
#
# Total GULP energy -89242.585565 kJ/mol
# GULP energy per Si atom -5577.661598 kJ/mol
# Density = 2.389590 g / cm^3
# Si number density = 23.950410 Si / 1000 Ang^3
#
#
#
# Elastic Constant Matrix: (Units=GPa)
#
#
# Indices 1 2 3 4 5 6 
#
# 1 161.5160 25.3589 84.1111 -22.6247 6.1532 11.1778
# 2 25.3589 38.7194 16.6881 -16.6107 2.4168 -8.9366
# 3 84.1111 16.6881 164.3992 -40.1373 1.9135 13.1797
# 4 -22.6247 -16.6107 -40.1373 29.7783 0.5230 3.3333
# 5 6.1532 2.4168 1.9135 0.5230 48.3052 -21.7659
# 6 11.1778 -8.9366 13.1797 3.3333 -21.7659 31.9499
#
#
#
# Elastic Compliance Matrix: (Units=1/GPa)
#
#
# Indices 1 2 3 4 5 6 
#
# 1 0.009620 -0.005963 -0.004027 -0.000773 -0.003236 -0.005496
# 2 -0.005963 0.039774 0.002791 0.019902 0.004245 0.012876
# 3 -0.004027 0.002791 0.012351 0.015974 -0.003390 -0.006881
# 4 -0.000773 0.019902 0.015974 0.067277 -0.008312 -0.013434
# 5 -0.003236 0.004245 -0.003390 -0.008312 0.033464 0.027382
# 6 -0.005496 0.012876 -0.006881 -0.013434 0.027382 0.059718
#
#
# Mechanical properties :
#
#
# Convention : Reuss Voigt Hill
#
# Bulk Modulus (GPa) = 21.12102 68.55008 44.83555
# Shear Modulus (GPa) = 19.81103 37.90509 28.85806
#
# Velocity S-wave (km/s) = 2.87917 3.98257 3.47495
# Velocity P-wave (km/s) = 4.45989 7.05915 5.90433
#
# Compressibility (1/GPa) = 0.04734619
#
# Stress axis : x y z
#
# Youngs Moduli (GPa) = 103.95004 25.14191 80.96488
#
# Poissons Ratio (x) = 0.14992 0.32605
# Poissons Ratio (y) = 0.61986 -0.22594
# Poissons Ratio (z) = 0.41861 -0.07016
#
# Static dielectric constant tensor:
#      x y z
#    x 2.507530 -0.554120 -0.304650 
#    y -0.554120 2.460600 0.283230 
#    z -0.304650 0.283230 2.061080 
# 
# From -- ./inp_files/262561.got.cif
#   From: 2010.05.17/outbox.cif.g08.bks.cpg/sg2_132_cif.got.tgz:262561.got - 2010.06.03 11:33:40.
