data_PCOD9106931
_publ_section_title
;
Structure prediction by ZEFSAII (Michael W. Deem and Ramdas Pophale) SiO2 
 PCOD9106931
Probable space group: P -1
;
_chemical_formula_sum "Si O2"
_cell_formula_units_Z 16
_cell_length_a 18.414182
_cell_length_b 24.694356
_cell_length_c 15.315012
_cell_angle_alpha 161.115571
_cell_angle_beta 30.016541
_cell_angle_gamma 158.586143
_cell_volume 816.310162
_symmetry_space_group_name_H-M "P -1"
_symmetry_group_IT_number 2
_symmetry_cell_setting 'triclinic'
loop_
_space_group_symop_operation_xyz
x,y,z
-x,-y,-z
loop_
_atom_site_type_symbol
_atom_site_label
_atom_site_fract_x
_atom_site_fract_y
_atom_site_fract_z
Si Si1 0.073163 0.300519 0.357176
Si Si2 0.296428 0.272392 0.824357
Si Si3 0.311090 0.946773 0.996575
Si Si4 0.355074 0.922772 0.614283
Si Si5 0.371814 0.231501 0.201332
Si Si6 0.504787 0.792492 0.615933
Si Si7 0.974068 0.054256 0.252992
Si Si8 0.103241 0.461220 0.262532
O O1 0.280815 0.559310 0.520082
O O2 0.035222 0.249992 0.422792
O O3 0.867303 0.205208 0.384833
O O4 0.104808 0.149932 0.043774
O O5 0.359910 0.239742 0.618473
O O6 0.500000 0.500000 0.000000
O O7 0.158525 0.326119 0.038828
O O8 0.191776 0.058423 0.672070
O O9 0.455055 0.900100 0.762589
O O10 0.340038 0.103920 0.129457
O O11 0.380395 0.061825 0.194615
O O12 0.076490 0.712057 0.882996
O O13 0.299938 0.711529 0.403812
O O14 0.500000 0.000000 0.500000
O O15 0.434582 0.138108 0.921728
O O16 0.500000 0.500000 0.500000
O O17 0.168417 0.141095 0.233090
O O18 0.000000 0.500000 0.500000
#
# Coordination Sequence:
#
# PCOD9106931 Si02
#       8
#     2   2   2   2   2   2   2   2
#     4  10  20  40  62  87 132 168 213 262 331 395
#     4  12  24  38  67 104 129 164 227 278 325 393
#     4  11  23  43  68  92 132 181 219 267 339 399
#     4  11  25  40  67  99 128 173 223 279 328 392
#     4  11  23  43  66  93 131 179 219 264 339 405
#     4  11  24  41  66  98 130 173 221 276 331 394
#     4  10  21  37  61  91 124 168 211 267 321 389
#     4  12  22  44  71  94 130 176 219 271 332 398
#
# _framework density 19.600393
#
# number of rings (size 3 to 8) (size 9 to 14) (size 15 to 20)
#    0.000    1.000    5.000    2.250    1.750    2.500 
#    2.250    0.000    0.000    3.750    0.000    0.000 
#    0.000    0.000    0.000    0.000    0.000    0.000 
#
# Total GULP energy -89239.774872 kJ/mol
# GULP energy per Si atom -5577.485929 kJ/mol
# Density = 1.955578 g / cm^3
# Si number density = 19.600393 Si / 1000 Ang^3
#
#
#
# Elastic Constant Matrix: (Units=GPa)
#
#
# Indices 1 2 3 4 5 6 
#
# 1 98.6067 22.6127 32.1017 11.1861 1.7825 -2.7012
# 2 22.6127 94.0712 45.6240 6.9738 14.9382 -18.4813
# 3 32.1017 45.6240 94.8147 12.9929 12.0392 -5.0591
# 4 11.1861 6.9738 12.9929 31.2298 2.3361 -3.7439
# 5 1.7825 14.9382 12.0392 2.3361 31.8452 8.7793
# 6 -2.7012 -18.4813 -5.0591 -3.7439 8.7793 35.2157
#
#
#
# Elastic Compliance Matrix: (Units=1/GPa)
#
#
# Indices 1 2 3 4 5 6 
#
# 1 0.011784 -0.001626 -0.003109 -0.002837 0.001803 -0.001147
# 2 -0.001626 0.017422 -0.006350 0.001225 -0.008635 0.010389
# 3 -0.003109 -0.006350 0.015374 -0.003865 -0.002027 -0.001268
# 4 -0.002837 0.001225 -0.003865 0.035086 -0.002707 0.004275
# 5 0.001803 -0.008635 -0.002027 -0.002707 0.040468 -0.015061
# 6 -0.001147 0.010389 -0.001268 0.004275 -0.015061 0.037788
#
#
# Mechanical properties :
#
#
# Convention : Reuss Voigt Hill
#
# Bulk Modulus (GPa) = 44.62126 54.24103 49.43115
# Shear Modulus (GPa) = 26.65765 32.13510 29.39638
#
# Velocity S-wave (km/s) = 3.69190 4.05348 3.87691
# Velocity P-wave (km/s) = 6.40222 7.04565 6.73162
#
# Compressibility (1/GPa) = 0.02241084
#
# Stress axis : x y z
#
# Youngs Moduli (GPa) = 84.86040 57.39748 65.04379
#
# Poissons Ratio (x) = 0.09335 0.20219
# Poissons Ratio (y) = 0.13802 0.41303
# Poissons Ratio (z) = 0.26379 0.36447
#
# Static dielectric constant tensor:
#      x y z
#    x 1.705380 -0.010820 -0.040760 
#    y -0.010820 1.637090 0.033330 
#    z -0.040760 0.033330 1.718380 
# 
# From -- ./inp_files/331659.got.cif
#   From: 2010.05.17/outbox.cif.g08.bks.cpg/sg2_166_cif.got.tgz:331659.got - 2010.06.03 11:33:40.
