data_PCOD9106162
_publ_section_title
;
Structure prediction by ZEFSAII (Michael W. Deem and Ramdas Pophale) SiO2 
 PCOD9106162
Probable space group: P -1
;
_chemical_formula_sum "Si O2"
_cell_formula_units_Z 14
_cell_length_a 9.831537
_cell_length_b 9.720587
_cell_length_c 8.465548
_cell_angle_alpha 119.453587
_cell_angle_beta 105.410740
_cell_angle_gamma 57.177879
_cell_volume 592.009108
_symmetry_space_group_name_H-M "P -1"
_symmetry_group_IT_number 2
_symmetry_cell_setting 'triclinic'
loop_
_space_group_symop_operation_xyz
x,y,z
-x,-y,-z
loop_
_atom_site_type_symbol
_atom_site_label
_atom_site_fract_x
_atom_site_fract_y
_atom_site_fract_z
Si Si1 0.489655 0.779811 0.082898
Si Si2 0.207717 0.187248 0.732887
Si Si3 0.092024 0.539825 0.410714
Si Si4 0.951731 0.156739 0.232251
Si Si5 0.616337 0.518311 0.677168
Si Si6 0.748002 0.140044 0.656583
Si Si7 0.796996 0.926591 0.978920
O O1 0.657111 0.752387 0.187709
O O2 0.384864 0.781934 0.201604
O O3 0.524501 0.641818 0.870895
O O4 0.382115 0.983654 0.094797
O O5 0.044525 0.343746 0.693758
O O6 0.268158 0.001596 0.545859
O O7 0.183972 0.149415 0.884847
O O8 0.264419 0.406877 0.309285
O O9 0.000000 0.500000 0.500000
O O10 0.141650 0.673768 0.591335
O O11 0.833064 0.096120 0.086454
O O12 0.079083 0.987361 0.280775
O O13 0.059360 0.199515 0.166236
O O14 0.500000 0.500000 0.500000
O O15 0.730304 0.314826 0.662437
#
# Coordination Sequence:
#
# PCOD9106162 Si02
#       7
#     2   2   2   2   2   2   2
#     4  11  24  40  65 103 135 167 211 273 336 386
#     4  11  23  42  68  93 132 173 219 269 326 384
#     4  11  26  44  63  93 134 175 217 268 328 383
#     4   9  20  41  67  90 125 168 222 268 317 383
#     4  12  26  43  68  97 134 176 217 271 326 390
#     4  10  22  43  67  95 127 173 223 266 323 387
#     4  10  20  39  67  97 123 167 220 269 317 392
#
# _framework density 23.648284
#
# number of rings (size 3 to 8) (size 9 to 14) (size 15 to 20)
#    0.000    1.429    0.000    4.714    4.000    2.857 
#   10.286    0.000    0.000    0.000    0.000    0.000 
#    0.000    0.000    0.000    0.000    0.000    0.000 
#
# Total GULP energy -78235.892477 kJ/mol
# GULP energy per Si atom -5588.278034 kJ/mol
# Density = 2.359446 g / cm^3
# Si number density = 23.648284 Si / 1000 Ang^3
#
#
#
# Elastic Constant Matrix: (Units=GPa)
#
#
# Indices 1 2 3 4 5 6 
#
# 1 100.0699 29.8706 17.4952 -6.5798 -22.0186 -9.3450
# 2 29.8706 53.9029 31.9264 -4.1705 -16.5211 4.0166
# 3 17.4952 31.9264 111.2093 7.8884 -11.3315 -6.2933
# 4 -6.5798 -4.1705 7.8884 38.5672 1.5995 -6.5731
# 5 -22.0186 -16.5211 -11.3315 1.5995 45.8982 -11.9463
# 6 -9.3450 4.0166 -6.2933 -6.5731 -11.9463 31.1806
#
#
#
# Elastic Compliance Matrix: (Units=1/GPa)
#
#
# Indices 1 2 3 4 5 6 
#
# 1 0.014320 -0.006661 0.000627 0.002753 0.006726 0.008434
# 2 -0.006661 0.028175 -0.007111 0.002335 0.003776 -0.005122
# 3 0.000627 -0.007111 0.011469 -0.002477 0.001569 0.003498
# 4 0.002753 0.002335 -0.002477 0.028232 0.002356 0.006879
# 5 0.006726 0.003776 0.001569 0.002356 0.030311 0.013956
# 6 0.008434 -0.005122 0.003498 0.006879 0.013956 0.042762
#
#
# Mechanical properties :
#
#
# Convention : Reuss Voigt Hill
#
# Bulk Modulus (GPa) = 36.13685 47.08517 41.61101
# Shear Modulus (GPa) = 26.20771 35.52184 30.86478
#
# Velocity S-wave (km/s) = 3.33262 3.87988 3.61662
# Velocity P-wave (km/s) = 5.48841 6.32655 5.92232
#
# Compressibility (1/GPa) = 0.02767258
#
# Stress axis : x y z
#
# Youngs Moduli (GPa) = 69.83127 35.49283 87.19519
#
# Poissons Ratio (x) = 0.23641 -0.05464
# Poissons Ratio (y) = 0.46513 0.62008
# Poissons Ratio (z) = -0.04376 0.25240
#
# Static dielectric constant tensor:
#      x y z
#    x 1.934550 0.030490 -0.032440 
#    y 0.030490 1.867610 0.038380 
#    z -0.032440 0.038380 1.939570 
# 
# From -- ./inp_files/190201.got.cif
#   From: 2010.05.17/outbox.cif.g08.bks.cpg/sg2_96_cif.got.tgz:190201.got - 2010.06.03 11:33:40.
