data_PCOD9106965
_publ_section_title
;
Structure prediction by ZEFSAII (Michael W. Deem and Ramdas Pophale) SiO2 
 PCOD9106965
Probable space group: P -1
;
_chemical_formula_sum "Si O2"
_cell_formula_units_Z 12
_cell_length_a 12.688155
_cell_length_b 11.802240
_cell_length_c 7.948282
_cell_angle_alpha 99.402253
_cell_angle_beta 59.170541
_cell_angle_gamma 52.943823
_cell_volume 591.117080
_symmetry_space_group_name_H-M "P -1"
_symmetry_group_IT_number 2
_symmetry_cell_setting 'triclinic'
loop_
_space_group_symop_operation_xyz
x,y,z
-x,-y,-z
loop_
_atom_site_type_symbol
_atom_site_label
_atom_site_fract_x
_atom_site_fract_y
_atom_site_fract_z
Si Si1 0.135670 0.034161 0.525742
Si Si2 0.848476 0.621534 0.895045
Si Si3 0.498049 0.863974 0.983078
Si Si4 0.797587 0.489469 0.457602
Si Si5 0.737788 0.318246 0.701081
Si Si6 0.069226 0.281914 0.871330
O O1 0.161081 0.095544 0.681368
O O2 0.897183 0.217818 0.700952
O O3 0.204054 0.851964 0.455524
O O4 0.277773 0.979162 0.246674
O O5 0.659127 0.716355 0.968147
O O6 0.000110 0.592129 0.659813
O O7 0.994671 0.413633 0.806085
O O8 0.783633 0.751189 0.138443
O O9 0.598056 0.722254 0.708412
O O10 0.500000 0.000000 0.000000
O O11 0.769722 0.393622 0.556958
O O12 0.867417 0.416962 0.190423
O O13 0.500000 0.500000 0.000000
#
# Coordination Sequence:
#
# PCOD9106965 Si02
#       6
#     2   2   2   2   2   2
#     4  11  24  40  64  92 119 162 216 246 309 367
#     4   9  20  39  63  88 134 157 194 248 320 365
#     4  12  22  35  64  98 122 162 205 252 305 375
#     4  10  20  40  62  89 123 166 200 250 306 358
#     4  11  23  44  64  85 124 166 210 258 298 359
#     4   9  21  40  61  92 125 161 199 252 314 366
#
# _framework density 20.300545
#
# number of rings (size 3 to 8) (size 9 to 14) (size 15 to 20)
#    1.000    0.667    1.667    3.500    0.000    1.333 
#    0.000    0.833    0.000    0.000    0.000    0.000 
#    0.000    0.000    0.000    0.000    0.000    0.000 
#
# Total GULP energy -66951.067593 kJ/mol
# GULP energy per Si atom -5579.255633 kJ/mol
# Density = 2.025434 g / cm^3
# Si number density = 20.300545 Si / 1000 Ang^3
#
#
#
# Elastic Constant Matrix: (Units=GPa)
#
#
# Indices 1 2 3 4 5 6 
#
# 1 45.3688 4.0331 14.7792 3.4887 -1.2124 14.3110
# 2 4.0331 85.3388 24.8589 -15.1721 -8.0683 32.8777
# 3 14.7792 24.8589 94.1219 -0.1197 -8.1951 6.9599
# 4 3.4887 -15.1721 -0.1197 26.1752 5.8384 -3.9779
# 5 -1.2124 -8.0683 -8.1951 5.8384 42.0331 8.5160
# 6 14.3110 32.8777 6.9599 -3.9779 8.5160 39.1642
#
#
#
# Elastic Compliance Matrix: (Units=1/GPa)
#
#
# Indices 1 2 3 4 5 6 
#
# 1 0.028431 0.005861 -0.004412 -0.003927 0.004869 -0.015983
# 2 0.005861 0.023149 -0.004837 0.007814 0.006926 -0.021428
# 3 -0.004412 -0.004837 0.012457 -0.001925 0.001024 0.003041
# 4 -0.003927 0.007814 -0.001925 0.044584 -0.005366 0.000913
# 5 0.004869 0.006926 0.001024 -0.005366 0.029177 -0.014664
# 6 -0.015983 -0.021428 0.003041 0.000913 -0.014664 0.052103
#
#
# Mechanical properties :
#
#
# Convention : Reuss Voigt Hill
#
# Bulk Modulus (GPa) = 17.46345 34.68578 26.07461
# Shear Modulus (GPa) = 23.17361 33.55172 28.36266
#
# Velocity S-wave (km/s) = 3.38231 4.06981 3.74189
# Velocity P-wave (km/s) = 4.88616 6.26161 5.61615
#
# Compressibility (1/GPa) = 0.05726247
#
# Stress axis : x y z
#
# Youngs Moduli (GPa) = 35.17243 43.19806 80.27854
#
# Poissons Ratio (x) = -0.25319 0.35416
# Poissons Ratio (y) = -0.20615 0.38830
# Poissons Ratio (z) = 0.15517 0.20895
#
# Static dielectric constant tensor:
#      x y z
#    x 1.739060 0.014550 0.021190 
#    y 0.014550 1.718570 0.020170 
#    z 0.021190 0.020170 1.763950 
# 
# From -- ./inp_files/70948.got.cif
#   From: 2010.05.17/outbox.cif.g08.bks.cpg/sg2_36_cif.got.tgz:70948.got - 2010.06.03 11:33:40.
