data_PCOD9106780
_publ_section_title
;
Structure prediction by ZEFSAII (Michael W. Deem and Ramdas Pophale) SiO2 
 PCOD9106780
Probable space group: P -1
;
_chemical_formula_sum "Si O2"
_cell_formula_units_Z 14
_cell_length_a 11.304023
_cell_length_b 7.006838
_cell_length_c 14.199918
_cell_angle_alpha 89.982924
_cell_angle_beta 39.754968
_cell_angle_gamma 110.708978
_cell_volume 599.120845
_symmetry_space_group_name_H-M "P -1"
_symmetry_group_IT_number 2
_symmetry_cell_setting 'triclinic'
loop_
_space_group_symop_operation_xyz
x,y,z
-x,-y,-z
loop_
_atom_site_type_symbol
_atom_site_label
_atom_site_fract_x
_atom_site_fract_y
_atom_site_fract_z
Si Si1 0.937310 0.817462 0.206147
Si Si2 0.830540 0.123716 0.349404
Si Si3 0.649341 0.337699 0.328582
Si Si4 0.553490 0.313854 0.991736
Si Si5 0.863227 0.171000 0.737809
Si Si6 0.863431 0.239800 0.543103
Si Si7 0.360491 0.841778 0.867862
O O1 0.720544 0.598607 0.292518
O O2 0.935561 0.741708 0.315516
O O3 0.965380 0.059467 0.199104
O O4 0.151364 0.849452 0.025163
O O5 0.790769 0.296422 0.318086
O O6 0.912153 0.203610 0.406534
O O7 0.600768 0.873118 0.498298
O O8 0.693610 0.290696 0.196534
O O9 0.600001 0.289559 0.072704
O O10 0.330644 0.072886 0.103492
O O11 0.500000 0.500000 0.000000
O O12 0.750331 0.315421 0.816675
O O13 0.912802 0.132950 0.602201
O O14 0.000000 0.500000 0.500000
O O15 0.591605 0.092867 0.713591
#
# Coordination Sequence:
#
# PCOD9106780 Si02
#       7
#     2   2   2   2   2   2   2
#     4  11  21  38  61  89 123 158 202 258 303 348
#     4  10  23  39  63  89 117 165 210 242 301 374
#     4  10  21  42  61  86 126 162 202 252 301 359
#     4   9  18  37  60  85 120 156 192 247 307 356
#     4   9  20  35  56  89 121 151 199 248 295 365
#     4  10  20  40  61  86 125 165 199 247 308 361
#     4   9  21  39  62  93 124 157 208 255 298 368
#
# _framework density 23.367574000000001
#
# number of rings (size 3 to 8) (size 9 to 14) (size 15 to 20)
#    0.000    2.286    0.000    2.571    0.000    4.571 
#    0.000   16.429    0.000    0.000    0.000    0.000 
#    0.000    0.000    0.000    0.000    0.000    0.000 
#
# Total GULP energy -78094.016335 kJ/mol
# GULP energy per Si atom -5578.144024 kJ/mol
# Density = 2.331439 g / cm^3
# Si number density = 23.367574 Si / 1000 Ang^3
#
#
#
# Elastic Constant Matrix: (Units=GPa)
#
#
# Indices 1 2 3 4 5 6 
#
# 1 67.2535 30.2049 19.9540 13.0400 16.7434 22.5126
# 2 30.2049 131.3760 37.9409 1.7426 -6.1052 10.2659
# 3 19.9540 37.9409 62.6217 5.7934 17.1456 2.1108
# 4 13.0400 1.7426 5.7934 32.2431 10.6504 -4.9359
# 5 16.7434 -6.1052 17.1456 10.6504 29.8982 12.0502
# 6 22.5126 10.2659 2.1108 -4.9359 12.0502 46.8866
#
#
#
# Elastic Compliance Matrix: (Units=1/GPa)
#
#
# Indices 1 2 3 4 5 6 
#
# 1 0.023860 -0.004208 -0.002319 -0.008566 -0.005881 -0.009821
# 2 -0.004208 0.012013 -0.008933 -0.001836 0.011990 -0.003482
# 3 -0.002319 -0.008933 0.027137 0.004599 -0.020822 0.007683
# 4 -0.008566 -0.001836 0.004599 0.041966 -0.018609 0.013508
# 5 -0.005881 0.011990 -0.020822 -0.018609 0.064803 -0.017478
# 6 -0.009821 -0.003482 0.007683 0.013508 -0.017478 0.032374
#
#
# Mechanical properties :
#
#
# Convention : Reuss Voigt Hill
#
# Bulk Modulus (GPa) = 31.16371 48.60564 39.88467
# Shear Modulus (GPa) = 20.51125 33.34902 26.93013
#
# Velocity S-wave (km/s) = 2.96592 3.78186 3.39847
# Velocity P-wave (km/s) = 5.00941 6.31788 5.70131
#
# Compressibility (1/GPa) = 0.03208861
#
# Stress axis : x y z
#
# Youngs Moduli (GPa) = 41.91166 83.24576 36.85045
#
# Poissons Ratio (x) = 0.35031 0.08547
# Poissons Ratio (y) = 0.17637 0.32918
# Poissons Ratio (z) = 0.09721 0.74362
#
# Static dielectric constant tensor:
#      x y z
#    x 1.914210 -0.021890 0.002180 
#    y -0.021890 1.950410 -0.028120 
#    z 0.002180 -0.028120 2.035670 
# 
# From -- ./inp_files/511070.got.cif
#   From: 2010.05.17/outbox.cif.g08.bks.cpg/sg2_256_cif.got.tgz:511070.got - 2010.06.03 11:33:40.
