data_PCOD9106611
_publ_section_title
;
Structure prediction by ZEFSAII (Michael W. Deem and Ramdas Pophale) SiO2 
 PCOD9106611
Probable space group: P -1
;
_chemical_formula_sum "Si O2"
_cell_formula_units_Z 13
_cell_length_a 9.586928
_cell_length_b 23.503912
_cell_length_c 5.422224
_cell_angle_alpha 121.063013
_cell_angle_beta 51.992570
_cell_angle_gamma 146.785724
_cell_volume 527.331876
_symmetry_space_group_name_H-M "P -1"
_symmetry_group_IT_number 2
_symmetry_cell_setting 'triclinic'
loop_
_space_group_symop_operation_xyz
x,y,z
-x,-y,-z
loop_
_atom_site_type_symbol
_atom_site_label
_atom_site_fract_x
_atom_site_fract_y
_atom_site_fract_z
Si Si1 0.798236 0.550701 0.295525
Si Si2 0.810206 0.699846 0.123276
Si Si3 0.500000 0.000000 0.500000
Si Si4 0.099602 0.104148 0.138890
Si Si5 0.102789 0.775033 0.476650
Si Si6 0.071295 0.417063 0.278726
Si Si7 0.571869 0.764043 0.423680
O O1 0.500000 0.500000 0.500000
O O2 0.037289 0.677053 0.328129
O O3 0.832993 0.520213 0.437779
O O4 0.846138 0.526284 0.938648
O O5 0.896076 0.736421 0.393802
O O6 0.585507 0.688373 0.266662
O O7 0.040150 0.779513 0.836524
O O8 0.773388 0.610257 0.945708
O O9 0.822285 0.069330 0.344893
O O10 0.603765 0.108948 0.648037
O O11 0.258058 0.160904 0.354334
O O12 0.286923 0.174170 0.850177
O O13 0.000000 0.000000 0.000000
O O14 0.746726 0.307526 0.383761
#
# Coordination Sequence:
#
# PCOD9106611 Si02
#       7
#     2   2   1   2   2   2   2
#     4  10  21  42  68  98 124 168 215 263 324 379
#     4  10  20  40  58  91 118 171 201 256 307 374
#     4  12  24  44  64  92 132 170 216 252 332 356
#     4  12  29  38  61  93 130 171 221 265 307 391
#     4  10  22  37  65  88 124 168 204 265 304 382
#     4  10  23  37  71  91 127 164 210 269 316 381
#     4  12  23  43  61  92 127 172 211 263 325 369
#
# _framework density 24.652408000000001
#
# number of rings (size 3 to 8) (size 9 to 14) (size 15 to 20)
#    0.000    1.231    3.077    1.846    8.615    2.462 
#    0.000    0.000    0.000   22.154    0.000    0.000 
#    0.000    0.000    0.000    0.000    0.000    0.000 
#
# Total GULP energy -72377.377872 kJ/mol
# GULP energy per Si atom -5567.490606 kJ/mol
# Density = 2.459630 g / cm^3
# Si number density = 24.652408 Si / 1000 Ang^3
#
#
#
# Elastic Constant Matrix: (Units=GPa)
#
#
# Indices 1 2 3 4 5 6 
#
# 1 123.3717 40.6711 79.6674 -2.2180 13.9772 13.6617
# 2 40.6711 140.7345 45.0140 -12.2344 1.7146 17.4356
# 3 79.6674 45.0140 113.8780 -1.9385 34.5597 35.5841
# 4 -2.2180 -12.2344 -1.9385 19.4399 1.5985 -4.3659
# 5 13.9772 1.7146 34.5597 1.5985 58.6358 13.2714
# 6 13.6617 17.4356 35.5841 -4.3659 13.2714 41.5714
#
#
#
# Elastic Compliance Matrix: (Units=1/GPa)
#
#
# Indices 1 2 3 4 5 6 
#
# 1 0.016370 -0.001019 -0.013788 0.000972 0.002861 0.006039
# 2 -0.001019 0.008860 -0.002973 0.004810 0.001811 -0.000909
# 3 -0.013788 -0.002973 0.026885 -0.003318 -0.009057 -0.014692
# 4 0.000972 0.004810 -0.003318 0.055909 -0.001492 0.006851
# 5 0.002861 0.001811 -0.009057 -0.001492 0.021950 -0.001111
# 6 0.006039 -0.000909 -0.014692 0.006851 -0.001111 0.036102
#
#
# Mechanical properties :
#
#
# Convention : Reuss Voigt Hill
#
# Bulk Modulus (GPa) = 60.40276 78.74326 69.57301
# Shear Modulus (GPa) = 24.13678 38.10486 31.12082
#
# Velocity S-wave (km/s) = 3.13243 3.93579 3.55686
# Velocity P-wave (km/s) = 6.13496 7.25704 6.71946
#
# Compressibility (1/GPa) = 0.01655553
#
# Stress axis : x y z
#
# Youngs Moduli (GPa) = 61.08858 112.87190 37.19547
#
# Poissons Ratio (x) = 0.11503 0.51284
# Poissons Ratio (y) = 0.06226 0.11056
# Poissons Ratio (z) = 0.84227 0.33551
#
# Static dielectric constant tensor:
#      x y z
#    x 2.027240 -0.037780 0.020790 
#    y -0.037780 1.898910 -0.000790 
#    z 0.020790 -0.000790 2.021310 
# 
# From -- ./inp_files/31290.got.cif
#   From: 2010.05.17/outbox.cif.g08.bks.cpg/sg2_16_cif.got.tgz:31290.got - 2010.06.03 11:33:40.
