data_PCOD9106275
_publ_section_title
;
Structure prediction by ZEFSAII (Michael W. Deem and Ramdas Pophale) SiO2 
 PCOD9106275
Probable space group: P -1
;
_chemical_formula_sum "Si O2"
_cell_formula_units_Z 16
_cell_length_a 8.346397
_cell_length_b 11.539653
_cell_length_c 18.990245
_cell_angle_alpha 34.595779
_cell_angle_beta 134.474703
_cell_angle_gamma 143.546670
_cell_volume 613.014175
_symmetry_space_group_name_H-M "P -1"
_symmetry_group_IT_number 2
_symmetry_cell_setting 'triclinic'
loop_
_space_group_symop_operation_xyz
x,y,z
-x,-y,-z
loop_
_atom_site_type_symbol
_atom_site_label
_atom_site_fract_x
_atom_site_fract_y
_atom_site_fract_z
Si Si1 0.417536 0.028643 0.348140
Si Si2 0.161537 0.960713 0.628946
Si Si3 0.916147 0.195770 0.815970
Si Si4 0.784038 0.371074 0.411447
Si Si5 0.152492 0.340487 0.109267
Si Si6 0.642245 0.488900 0.769854
Si Si7 0.819411 0.681023 0.020730
Si Si8 0.383050 0.079261 0.776738
O O1 0.581247 0.019994 0.337169
O O2 0.653853 0.173587 0.406711
O O3 0.283759 0.181462 0.219784
O O4 0.189348 0.768673 0.444838
O O5 0.931879 0.694670 0.722534
O O6 0.269887 0.139025 0.642123
O O7 0.000000 0.000000 0.500000
O O8 0.621225 0.064746 0.825262
O O9 0.982628 0.378344 0.680296
O O10 0.942318 0.973446 0.913155
O O11 0.112158 0.357173 0.860646
O O12 0.550054 0.409710 0.343194
O O13 0.340583 0.544632 0.123842
O O14 0.083394 0.379354 0.990157
O O15 0.869098 0.169418 0.146122
O O16 0.505525 0.261757 0.788675
O O17 0.500000 0.500000 0.000000
#
# Coordination Sequence:
#
# PCOD9106275 Si02
#       8
#     2   2   2   2   2   2   2   2
#     4  10  20  39  68  96 136 184 225 271 339 400
#     4  11  22  40  61  94 136 180 229 273 330 403
#     4  11  25  45  70 105 135 178 232 283 343 408
#     4  10  20  39  68  95 136 181 223 276 331 405
#     4  10  23  43  68  97 134 180 230 278 339 407
#     4  10  21  40  62  94 138 179 223 275 335 406
#     4  11  24  46  76 101 131 174 231 290 345 408
#     4  11  25  43  64  96 141 174 222 287 338 405
#
# _framework density 26.100536999999999
#
# number of rings (size 3 to 8) (size 9 to 14) (size 15 to 20)
#    0.000    1.500    1.250    3.750    1.750    4.000 
#    2.250    3.125    0.000    0.000    0.000    0.000 
#    0.000    0.000    0.000    0.000    0.000    0.000 
#
# Total GULP energy -89541.930907 kJ/mol
# GULP energy per Si atom -5596.370682 kJ/mol
# Density = 2.604113 g / cm^3
# Si number density = 26.100537 Si / 1000 Ang^3
#
#
#
# Elastic Constant Matrix: (Units=GPa)
#
#
# Indices 1 2 3 4 5 6 
#
# 1 137.0928 32.3045 44.5325 12.5050 -10.6165 -10.6878
# 2 32.3045 102.0934 41.9267 29.3107 -16.0361 -12.6232
# 3 44.5325 41.9267 128.0044 32.0745 -22.9686 -24.3113
# 4 12.5050 29.3107 32.0745 46.9375 -15.2891 -18.1688
# 5 -10.6165 -16.0361 -22.9686 -15.2891 36.1018 12.5051
# 6 -10.6878 -12.6232 -24.3113 -18.1688 12.5051 59.3574
#
#
#
# Elastic Compliance Matrix: (Units=1/GPa)
#
#
# Indices 1 2 3 4 5 6 
#
# 1 0.008493 -0.001815 -0.002429 0.000768 0.000365 0.000307
# 2 -0.001815 0.013097 -0.001950 -0.006024 0.001678 -0.000538
# 3 -0.002429 -0.001950 0.011238 -0.004058 0.003216 0.001831
# 4 0.000768 -0.006024 -0.004058 0.031934 0.006557 0.005589
# 5 0.000365 0.001678 0.003216 0.006557 0.034603 -0.003543
# 6 0.000307 -0.000538 0.001831 0.005589 -0.003543 0.019995
#
#
# Mechanical properties :
#
#
# Convention : Reuss Voigt Hill
#
# Bulk Modulus (GPa) = 48.92471 67.19091 58.05781
# Shear Modulus (GPa) = 36.08552 45.04113 40.56332
#
# Velocity S-wave (km/s) = 3.72231 4.15864 3.94651
# Velocity P-wave (km/s) = 6.10406 6.98985 6.56192
#
# Compressibility (1/GPa) = 0.02043957
#
# Stress axis : x y z
#
# Youngs Moduli (GPa) = 117.74149 76.35583 88.98699
#
# Poissons Ratio (x) = 0.13860 0.21615
# Poissons Ratio (y) = 0.21373 0.17350
# Poissons Ratio (z) = 0.28599 0.14887
#
# Static dielectric constant tensor:
#      x y z
#    x 2.064750 -0.032890 0.018270 
#    y -0.032890 2.060150 0.024360 
#    z 0.018270 0.024360 2.125550 
# 
# From -- ./inp_files/559803.got.cif
#   From: 2010.05.17/outbox.cif.g08.bks.cpg/sg2_280_cif.got.tgz:559803.got - 2010.06.03 11:33:40.
