data_PCOD9106877
_publ_section_title
;
Structure prediction by ZEFSAII (Michael W. Deem and Ramdas Pophale) SiO2 
 PCOD9106877
Probable space group: P -1
;
_chemical_formula_sum "Si O2"
_cell_formula_units_Z 15
_cell_length_a 10.607576
_cell_length_b 18.441074
_cell_length_c 4.879555
_cell_angle_alpha 85.759546
_cell_angle_beta 94.903974
_cell_angle_gamma 36.970610
_cell_volume 555.600212
_symmetry_space_group_name_H-M "P -1"
_symmetry_group_IT_number 2
_symmetry_cell_setting 'triclinic'
loop_
_space_group_symop_operation_xyz
x,y,z
-x,-y,-z
loop_
_atom_site_type_symbol
_atom_site_label
_atom_site_fract_x
_atom_site_fract_y
_atom_site_fract_z
Si Si1 0.497363 0.873994 0.984516
Si Si2 0.028172 0.220818 0.553915
Si Si3 0.151979 0.369583 0.197950
Si Si4 0.092910 0.100168 0.111268
Si Si5 0.753526 0.470036 0.220468
Si Si6 0.500000 0.000000 0.500000
Si Si7 0.181586 0.887235 0.769345
Si Si8 0.565039 0.632620 0.619287
O O1 0.727789 0.731101 0.993157
O O2 0.334115 0.883028 0.888238
O O3 0.490822 0.944988 0.762361
O O4 0.357112 0.971278 0.191409
O O5 0.042027 0.141326 0.401507
O O6 0.257360 0.148061 0.526732
O O7 0.816900 0.360839 0.365706
O O8 0.030351 0.196116 0.876821
O O9 0.321630 0.340479 0.401235
O O10 0.983691 0.402486 0.334693
O O11 0.000000 0.500000 0.000000
O O12 0.944252 0.100159 0.024554
O O13 0.571335 0.590545 0.342163
O O14 0.691213 0.519511 0.884453
O O15 0.343618 0.757165 0.681547
O O16 0.000000 0.000000 0.500000
#
# Coordination Sequence:
#
# PCOD9106877 Si02
#       8
#     2   2   2   2   2   1   2   2
#     4  10  21  39  67 100 135 175 218 281 341 403
#     4  11  24  43  68  97 142 179 224 279 340 403
#     4   9  19  38  62  98 134 175 217 273 334 412
#     4  11  25  44  65  99 135 180 231 279 331 401
#     4  11  21  44  64  99 136 180 217 278 339 411
#     4  10  20  40  62 102 130 172 220 268 344 402
#     4  11  24  46  71  99 134 179 231 290 338 392
#     4  10  24  40  68  97 132 175 233 272 338 406
#
# _framework density 26.997831000000001
#
# number of rings (size 3 to 8) (size 9 to 14) (size 15 to 20)
#    0.000    1.600    1.333    3.200    0.000    7.467 
#    4.800    4.000    0.000    0.000    0.000    0.000 
#    0.000    0.000    0.000    0.000    0.000    0.000 
#
# Total GULP energy -83680.154839 kJ/mol
# GULP energy per Si atom -5578.676989 kJ/mol
# Density = 2.693638 g / cm^3
# Si number density = 26.997831 Si / 1000 Ang^3
#
#
#
# Elastic Constant Matrix: (Units=GPa)
#
#
# Indices 1 2 3 4 5 6 
#
# 1 78.3280 2.6154 1.1852 -5.6349 -29.3685 -21.2665
# 2 2.6154 155.1849 7.3383 -0.1571 -16.2516 10.2440
# 3 1.1852 7.3383 77.4334 2.0115 -12.6667 -0.0939
# 4 -5.6349 -0.1571 2.0115 35.7809 -5.3127 -5.0430
# 5 -29.3685 -16.2516 -12.6667 -5.3127 27.6234 3.3202
# 6 -21.2665 10.2440 -0.0939 -5.0430 3.3202 38.0471
#
#
#
# Elastic Compliance Matrix: (Units=1/GPa)
#
#
# Indices 1 2 3 4 5 6 
#
# 1 0.032308 0.002222 0.005304 0.012763 0.038645 0.015793
# 2 0.002222 0.007217 0.000423 0.001261 0.007184 -0.001160
# 3 0.005304 0.000423 0.014844 0.002204 0.012871 0.002056
# 4 0.012763 0.001261 0.002204 0.034266 0.020767 0.009530
# 5 0.038645 0.007184 0.012871 0.020767 0.089653 0.014627
# 6 0.015793 -0.001160 0.002056 0.009530 0.014627 0.035415
#
#
# Mechanical properties :
#
#
# Convention : Reuss Voigt Hill
#
# Bulk Modulus (GPa) = 14.23128 37.02491 25.62809
# Shear Modulus (GPa) = 22.60131 40.27744 31.43937
#
# Velocity S-wave (km/s) = 2.89650 3.86667 3.41620
# Velocity P-wave (km/s) = 4.05820 5.80333 5.00738
#
# Compressibility (1/GPa) = 0.07026773
#
# Stress axis : x y z
#
# Youngs Moduli (GPa) = 30.95180 138.56826 67.36811
#
# Poissons Ratio (x) = -0.30792 -0.35733
# Poissons Ratio (y) = -0.06878 -0.02850
# Poissons Ratio (z) = -0.16417 -0.05863
#
# Static dielectric constant tensor:
#      x y z
#    x 2.424010 0.114760 0.211520 
#    y 0.114760 2.145150 0.049760 
#    z 0.211520 0.049760 2.106420 
# 
# From -- ./inp_files/83178.got.cif
#   From: 2010.05.17/outbox.cif.g08.bks.cpg/sg2_42_cif.got.tgz:83178.got - 2010.06.03 11:33:40.
