data_PCOD9106617
_publ_section_title
;
Structure prediction by ZEFSAII (Michael W. Deem and Ramdas Pophale) SiO2 
 PCOD9106617
Probable space group: P -1
;
_chemical_formula_sum "Si O2"
_cell_formula_units_Z 15
_cell_length_a 22.018185
_cell_length_b 10.055882
_cell_length_c 8.500672
_cell_angle_alpha 54.986963
_cell_angle_beta 46.592541
_cell_angle_gamma 25.902152
_cell_volume 591.438943
_symmetry_space_group_name_H-M "P -1"
_symmetry_group_IT_number 2
_symmetry_cell_setting 'triclinic'
loop_
_space_group_symop_operation_xyz
x,y,z
-x,-y,-z
loop_
_atom_site_type_symbol
_atom_site_label
_atom_site_fract_x
_atom_site_fract_y
_atom_site_fract_z
Si Si1 0.139533 0.626130 0.702153
Si Si2 0.116143 0.935320 0.748282
Si Si3 0.943079 0.721206 0.818735
Si Si4 0.500000 0.500000 0.500000
Si Si5 0.816723 0.810423 0.494742
Si Si6 0.384231 0.407319 0.865868
Si Si7 0.282893 0.133597 0.021959
Si Si8 0.396895 0.220982 0.261170
O O1 0.131236 0.828309 0.624861
O O2 0.978991 0.829980 0.767829
O O3 0.283073 0.360428 0.507736
O O4 0.184976 0.440216 0.899978
O O5 0.283221 0.634994 0.743611
O O6 0.096739 0.160117 0.636992
O O7 0.000000 0.000000 0.000000
O O8 0.065694 0.490745 0.613868
O O9 0.774094 0.938140 0.911604
O O10 0.000000 0.500000 0.000000
O O11 0.455078 0.461408 0.758062
O O12 0.333320 0.883357 0.549302
O O13 0.762292 0.811707 0.750963
O O14 0.506002 0.083315 0.788303
O O15 0.303582 0.453331 0.122781
O O16 0.465377 0.884240 0.854981
#
# Coordination Sequence:
#
# PCOD9106617 Si02
#       8
#     2   2   2   1   2   2   2   2
#     4  11  24  42  68  99 133 171 224 281 327 383
#     4  11  24  43  65  96 135 175 216 268 340 403
#     4  10  23  42  67  98 128 172 223 280 324 383
#     4  10  20  40  58  96 122 174 202 266 320 398
#     4  11  23  42  69  94 133 175 221 267 335 402
#     4  10  22  38  68  91 133 165 224 266 334 390
#     4  11  22  41  67  99 129 174 224 272 328 395
#     4  11  22  41  67 101 125 171 226 283 323 383
#
# _framework density 25.361871000000001
#
# number of rings (size 3 to 8) (size 9 to 14) (size 15 to 20)
#    0.000    1.333    2.667    3.200    1.867    1.067 
#    2.400   10.000    0.000    0.000    0.000    0.000 
#    0.000    0.000    0.000    0.000    0.000    0.000 
#
# Total GULP energy -83546.255595 kJ/mol
# GULP energy per Si atom -5569.750373 kJ/mol
# Density = 2.530415 g / cm^3
# Si number density = 25.361871 Si / 1000 Ang^3
#
#
#
# Elastic Constant Matrix: (Units=GPa)
#
#
# Indices 1 2 3 4 5 6 
#
# 1 120.8265 16.7110 6.8704 -6.9700 -8.4129 7.9295
# 2 16.7110 69.3323 10.4913 -0.0253 7.3435 -1.8184
# 3 6.8704 10.4913 127.1408 -8.4767 13.5892 7.2433
# 4 -6.9700 -0.0253 -8.4767 18.6597 -3.6659 -0.3664
# 5 -8.4129 7.3435 13.5892 -3.6659 39.1116 -4.5751
# 6 7.9295 -1.8184 7.2433 -0.3664 -4.5751 22.1780
#
#
#
# Elastic Compliance Matrix: (Units=1/GPa)
#
#
# Indices 1 2 3 4 5 6 
#
# 1 0.009221 -0.002543 -0.000141 0.003818 0.002532 -0.002874
# 2 -0.002543 0.015570 -0.001057 -0.001976 -0.003070 0.001865
# 3 -0.000141 -0.001057 0.008687 0.003246 -0.002947 -0.003428
# 4 0.003818 -0.001976 0.003246 0.057539 0.005396 -0.000523
# 5 0.002532 -0.003070 -0.002947 0.005396 0.028904 0.005857
# 6 -0.002874 0.001865 -0.003428 -0.000523 0.005857 0.048589
#
#
# Mechanical properties :
#
#
# Convention : Reuss Voigt Hill
#
# Bulk Modulus (GPa) = 38.46875 42.82722 40.64798
# Shear Modulus (GPa) = 27.07715 34.87166 30.97440
#
# Velocity S-wave (km/s) = 3.27101 3.71207 3.49850
# Velocity P-wave (km/s) = 5.42834 5.94102 5.69046
#
# Compressibility (1/GPa) = 0.02599512
#
# Stress axis : x y z
#
# Youngs Moduli (GPa) = 108.44523 64.22738 115.11746
#
# Poissons Ratio (x) = 0.16336 0.01620
# Poissons Ratio (y) = 0.27582 0.12170
# Poissons Ratio (z) = 0.01526 0.06790
#
# Static dielectric constant tensor:
#      x y z
#    x 1.928910 -0.051730 -0.079920 
#    y -0.051730 1.986100 0.031590 
#    z -0.079920 0.031590 2.015280 
# 
# From -- ./inp_files/343408.got.cif
#   From: 2010.05.17/outbox.cif.g08.bks.cpg/sg2_172_cif.got.tgz:343408.got - 2010.06.03 11:33:40.
