data_PCOD9106834
_publ_section_title
;
Structure prediction by ZEFSAII (Michael W. Deem and Ramdas Pophale) SiO2 
 PCOD9106834
Probable space group: P -1
;
_chemical_formula_sum "Si O2"
_cell_formula_units_Z 16
_cell_length_a 17.226625
_cell_length_b 11.743954
_cell_length_c 9.365246
_cell_angle_alpha 72.587690
_cell_angle_beta 120.147683
_cell_angle_gamma 149.984425
_cell_volume 778.249872
_symmetry_space_group_name_H-M "P -1"
_symmetry_group_IT_number 2
_symmetry_cell_setting 'triclinic'
loop_
_space_group_symop_operation_xyz
x,y,z
-x,-y,-z
loop_
_atom_site_type_symbol
_atom_site_label
_atom_site_fract_x
_atom_site_fract_y
_atom_site_fract_z
Si Si1 0.223253 0.891828 0.503629
Si Si2 0.266168 0.895731 0.068621
Si Si3 0.314554 0.250256 0.345182
Si Si4 0.967994 0.938263 0.326222
Si Si5 0.059800 0.526708 0.267116
Si Si6 0.670922 0.750393 0.977455
Si Si7 0.575956 0.085827 0.195880
Si Si8 0.873072 0.572289 0.427116
O O1 0.100234 0.657351 0.390175
O O2 0.384518 0.001158 0.678579
O O3 0.086339 0.792225 0.526790
O O4 0.290485 0.079686 0.402336
O O5 0.145578 0.705377 0.155741
O O6 0.322689 0.098155 0.063131
O O7 0.435050 0.002121 0.184717
O O8 0.141831 0.734195 0.873535
O O9 0.500000 0.500000 0.500000
O O10 0.325731 0.287082 0.171763
O O11 0.145651 0.115392 0.326498
O O12 0.848232 0.680100 0.323721
O O13 0.851466 0.907680 0.158989
O O14 0.000000 0.000000 0.500000
O O15 0.162511 0.522826 0.412116
O O16 0.500000 0.500000 0.000000
O O17 0.761046 0.369919 0.283261
O O18 0.500000 0.000000 0.000000
#
# Coordination Sequence:
#
# PCOD9106834 Si02
#       8
#     2   2   2   2   2   2   2   2
#     4  10  21  41  63  90 130 166 209 266 329 390
#     4  11  23  39  64  94 127 165 212 266 323 388
#     4  11  25  46  66  98 133 180 228 280 330 396
#     4  11  24  44  70 100 130 177 225 276 339 400
#     4  10  20  40  61  90 127 162 204 258 329 380
#     4  12  25  46  69  97 138 180 228 280 330 397
#     4  11  22  37  60  96 124 164 212 257 327 388
#     4  10  21  38  65  89 127 164 205 262 326 390
#
# _framework density 20.558949999999999
#
# number of rings (size 3 to 8) (size 9 to 14) (size 15 to 20)
#    0.000    1.250    1.250    5.625    0.000    6.000 
#    9.000    0.000    0.000    0.000    0.000    0.000 
#    0.000    0.000    0.000    0.000    0.000    0.000 
#
# Total GULP energy -89208.710402 kJ/mol
# GULP energy per Si atom -5575.544400 kJ/mol
# Density = 2.051216 g / cm^3
# Si number density = 20.558950 Si / 1000 Ang^3
#
#
#
# Elastic Constant Matrix: (Units=GPa)
#
#
# Indices 1 2 3 4 5 6 
#
# 1 79.3086 26.5888 38.6192 -0.5233 6.8234 8.9077
# 2 26.5888 93.3246 27.8814 -3.9326 -6.2842 5.2040
# 3 38.6192 27.8814 129.1564 2.8896 -10.1323 15.8070
# 4 -0.5233 -3.9326 2.8896 33.5229 1.8679 1.6794
# 5 6.8234 -6.2842 -10.1323 1.8679 37.6981 1.7655
# 6 8.9077 5.2040 15.8070 1.6794 1.7655 19.0960
#
#
#
# Elastic Compliance Matrix: (Units=1/GPa)
#
#
# Indices 1 2 3 4 5 6 
#
# 1 0.016590 -0.003594 -0.004206 0.000603 -0.004626 -0.002903
# 2 -0.003594 0.012409 -0.001338 0.001432 0.002332 -0.000939
# 3 -0.004206 -0.001338 0.010401 -0.000997 0.003689 -0.006536
# 4 0.000603 0.001432 -0.000997 0.030298 -0.001529 -0.002369
# 5 -0.004626 0.002332 0.003689 -0.001529 0.029011 -0.004079
# 6 -0.002903 -0.000939 -0.006536 -0.002369 -0.004079 0.059973
#
#
# Mechanical properties :
#
#
# Convention : Reuss Voigt Hill
#
# Bulk Modulus (GPa) = 47.34168 54.21872 50.78020
# Shear Modulus (GPa) = 27.17406 31.97673 29.57540
#
# Velocity S-wave (km/s) = 3.63955 3.94809 3.79696
# Velocity P-wave (km/s) = 6.38271 6.87116 6.63144
#
# Compressibility (1/GPa) = 0.02112304
#
# Stress axis : x y z
#
# Youngs Moduli (GPa) = 60.27692 80.58739 96.14777
#
# Poissons Ratio (x) = 0.28966 0.40438
# Poissons Ratio (y) = 0.21666 0.12866
# Poissons Ratio (z) = 0.25351 0.10784
#
# Static dielectric constant tensor:
#      x y z
#    x 1.805830 0.041800 0.004930 
#    y 0.041800 1.751440 -0.023340 
#    z 0.004930 -0.023340 1.763720 
# 
# From -- ./inp_files/245465.got.cif
#   From: 2010.05.17/outbox.cif.g08.bks.cpg/sg2_123_cif.got.tgz:245465.got - 2010.06.03 11:33:40.
