data_PCOD9106340
_publ_section_title
;
Structure prediction by ZEFSAII (Michael W. Deem and Ramdas Pophale) SiO2 
 PCOD9106340
Probable space group: P -1
;
_chemical_formula_sum "Si O2"
_cell_formula_units_Z 16
_cell_length_a 12.865023
_cell_length_b 13.426980
_cell_length_c 12.097363
_cell_angle_alpha 46.180331
_cell_angle_beta 68.514632
_cell_angle_gamma 35.255038
_cell_volume 764.366220
_symmetry_space_group_name_H-M "P -1"
_symmetry_group_IT_number 2
_symmetry_cell_setting 'triclinic'
loop_
_space_group_symop_operation_xyz
x,y,z
-x,-y,-z
loop_
_atom_site_type_symbol
_atom_site_label
_atom_site_fract_x
_atom_site_fract_y
_atom_site_fract_z
Si Si1 0.024596 0.634078 0.357536
Si Si2 0.498401 0.465333 0.654781
Si Si3 0.495643 0.777348 0.508951
Si Si4 0.281263 0.600824 0.948424
Si Si5 0.105622 0.116353 0.016124
Si Si6 0.146369 0.216689 0.165300
Si Si7 0.888272 0.261798 0.327615
Si Si8 0.318486 0.889221 0.720945
O O1 0.263344 0.433582 0.418908
O O2 0.000000 0.500000 0.500000
O O3 0.889015 0.852957 0.335144
O O4 0.927715 0.762015 0.175390
O O5 0.500000 0.500000 0.500000
O O6 0.470024 0.641475 0.591205
O O7 0.314909 0.543978 0.672055
O O8 0.703761 0.184332 0.836652
O O9 0.388914 0.899953 0.576871
O O10 0.375941 0.990732 0.298321
O O11 0.197157 0.634774 0.840894
O O12 0.307743 0.736540 0.818284
O O13 0.105068 0.751410 0.989546
O O14 0.488258 0.307237 0.121229
O O15 0.146023 0.153751 0.089012
O O16 0.048357 0.218816 0.297664
O O17 0.000000 0.500000 0.000000
O O18 0.000000 0.000000 0.500000
#
# Coordination Sequence:
#
# PCOD9106340 Si02
#       8
#     2   2   2   2   2   2   2   2
#     4  12  30  47  68 101 145 193 241 290 353 433
#     4  12  22  41  72 110 141 176 237 306 359 413
#     4  12  25  48  73 105 141 186 238 295 355 427
#     4  10  20  39  69 102 130 173 228 293 357 408
#     4  11  24  45  68 103 143 184 233 301 354 420
#     4  11  26  46  72 101 142 194 235 288 362 432
#     4  11  20  40  67 100 136 179 235 286 351 416
#     4  11  23  42  72 101 136 180 232 288 356 418
#
# _framework density 20.932373999999999
#
# number of rings (size 3 to 8) (size 9 to 14) (size 15 to 20)
#    0.000    0.750    5.000    2.250    3.500    5.500 
#    0.000    1.250    0.000    0.000    0.000    0.000 
#    0.000    0.000    0.000    0.000    0.000    0.000 
#
# Total GULP energy -89279.682566 kJ/mol
# GULP energy per Si atom -5579.980160 kJ/mol
# Density = 2.088473 g / cm^3
# Si number density = 20.932374 Si / 1000 Ang^3
#
#
#
# Elastic Constant Matrix: (Units=GPa)
#
#
# Indices 1 2 3 4 5 6 
#
# 1 35.4014 20.5711 35.2573 -1.6903 5.6580 -12.2923
# 2 20.5711 119.8397 58.0191 6.3346 4.9068 -22.7811
# 3 35.2573 58.0191 152.6306 -7.9131 6.7436 -11.9947
# 4 -1.6903 6.3346 -7.9131 41.1801 -4.3382 -1.2910
# 5 5.6580 4.9068 6.7436 -4.3382 35.9593 -3.7238
# 6 -12.2923 -22.7811 -11.9947 -1.2910 -3.7238 31.4955
#
#
#
# Elastic Compliance Matrix: (Units=1/GPa)
#
#
# Indices 1 2 3 4 5 6 
#
# 1 0.041682 -0.000719 -0.008224 0.000242 -0.003626 0.012197
# 2 -0.000719 0.011747 -0.003890 -0.002416 -0.000369 0.006592
# 3 -0.008224 -0.003890 0.009867 0.002089 0.000001 -0.002180
# 4 0.000242 -0.002416 0.002089 0.025402 0.003020 0.000540
# 5 -0.003626 -0.000369 0.000001 0.003020 0.028988 0.001869
# 6 0.012197 0.006592 -0.002180 0.000540 0.001869 0.040692
#
#
# Mechanical properties :
#
#
# Convention : Reuss Voigt Hill
#
# Bulk Modulus (GPa) = 26.57455 59.50742 43.04098
# Shear Modulus (GPa) = 25.43392 34.66192 30.04792
#
# Velocity S-wave (km/s) = 3.48954 4.07369 3.79288
# Velocity P-wave (km/s) = 5.38134 7.11454 6.30776
#
# Compressibility (1/GPa) = 0.03762998
#
# Stress axis : x y z
#
# Youngs Moduli (GPa) = 23.99122 85.12571 101.34607
#
# Poissons Ratio (x) = 0.06122 0.83345
# Poissons Ratio (y) = 0.01725 0.39427
# Poissons Ratio (z) = 0.19730 0.33116
#
# Static dielectric constant tensor:
#      x y z
#    x 1.902780 -0.127960 0.003930 
#    y -0.127960 1.873050 -0.001900 
#    z 0.003930 -0.001900 1.733750 
# 
# From -- ./inp_files/455543.got.cif
#   From: 2010.05.17/outbox.cif.g08.bks.cpg/sg2_228_cif.got.tgz:455543.got - 2010.06.03 11:33:40.
