data_PCOD9106007
_publ_section_title
;
Structure prediction by ZEFSAII (Michael W. Deem and Ramdas Pophale) SiO2 
 PCOD9106007
Probable space group: P -1
;
_chemical_formula_sum "Si O2"
_cell_formula_units_Z 14
_cell_length_a 8.606479
_cell_length_b 9.129660
_cell_length_c 12.279804
_cell_angle_alpha 99.287435
_cell_angle_beta 132.110576
_cell_angle_gamma 65.467647
_cell_volume 641.312136
_symmetry_space_group_name_H-M "P -1"
_symmetry_group_IT_number 2
_symmetry_cell_setting 'triclinic'
loop_
_space_group_symop_operation_xyz
x,y,z
-x,-y,-z
loop_
_atom_site_type_symbol
_atom_site_label
_atom_site_fract_x
_atom_site_fract_y
_atom_site_fract_z
Si Si1 0.082793 0.996902 0.379053
Si Si2 0.250100 0.148935 0.893765
Si Si3 0.162627 0.251783 0.324552
Si Si4 0.196569 0.321750 0.097191
Si Si5 0.732851 0.570482 0.421378
Si Si6 0.672505 0.557175 0.151221
Si Si7 0.690882 0.251588 0.371902
O O1 0.285143 0.872637 0.534154
O O2 0.925441 0.905770 0.257957
O O3 0.167254 0.076648 0.332064
O O4 0.915882 0.150161 0.392893
O O5 0.277612 0.301327 0.867868
O O6 0.160867 0.201298 0.980372
O O7 0.500000 0.000000 0.000000
O O8 0.199035 0.276996 0.218850
O O9 0.312550 0.293831 0.491637
O O10 0.907749 0.393660 0.243355
O O11 0.458375 0.301294 0.199657
O O12 0.000000 0.500000 0.000000
O O13 0.599450 0.615137 0.248598
O O14 0.696921 0.417937 0.435641
O O15 0.000000 0.500000 0.500000
O O16 0.500000 0.500000 0.000000
#
# Coordination Sequence:
#
# PCOD9106007 Si02
#       7
#     2   2   2   2   2   2   2
#     4  11  23  42  71 100 138 178 238 286 343 414
#     4  12  24  43  70 101 137 186 231 282 351 414
#     4  11  24  42  66  99 142 180 227 285 348 412
#     4  12  27  46  68 100 147 181 229 292 353 413
#     4  10  20  39  67 100 130 174 236 277 335 408
#     4  11  21  39  68 103 133 181 236 284 330 416
#     4  11  23  42  70 102 134 183 230 289 343 415
#
# _framework density 21.830244
#
# number of rings (size 3 to 8) (size 9 to 14) (size 15 to 20)
#    0.000    0.857    5.714    3.429    2.000    1.714 
#    0.000    0.000    0.000    0.000    0.000    0.000 
#    0.000    0.000    0.000    0.000    0.000    0.000 
#
# Total GULP energy -78243.332854 kJ/mol
# GULP energy per Si atom -5588.809490 kJ/mol
# Density = 2.178056 g / cm^3
# Si number density = 21.830244 Si / 1000 Ang^3
#
#
#
# Elastic Constant Matrix: (Units=GPa)
#
#
# Indices 1 2 3 4 5 6 
#
# 1 49.5435 35.1658 33.4114 -3.6726 -33.4637 11.3699
# 2 35.1658 101.5949 55.6012 4.6730 -6.6887 23.5985
# 3 33.4114 55.6012 131.3075 2.2693 -14.2529 5.2944
# 4 -3.6726 4.6730 2.2693 42.9242 -3.8119 -2.9302
# 5 -33.4637 -6.6887 -14.2529 -3.8119 45.0829 -1.4013
# 6 11.3699 23.5985 5.2944 -2.9302 -1.4013 44.4638
#
#
#
# Elastic Compliance Matrix: (Units=1/GPa)
#
#
# Indices 1 2 3 4 5 6 
#
# 1 0.073869 -0.018425 -0.005406 0.012756 0.051280 -0.006010
# 2 -0.018425 0.019495 -0.004641 -0.004992 -0.012854 -0.005817
# 3 -0.005406 -0.004641 0.010726 -0.000467 -0.001272 0.002498
# 4 0.012756 -0.004992 -0.000467 0.026020 0.010827 0.001499
# 5 0.051280 -0.012854 -0.001272 0.010827 0.058740 -0.003575
# 6 -0.006010 -0.005817 0.002498 0.001499 -0.003575 0.026803
#
#
# Mechanical properties :
#
#
# Convention : Reuss Voigt Hill
#
# Bulk Modulus (GPa) = 21.21082 58.97807 40.09444
# Shear Modulus (GPa) = 17.34225 37.04536 27.19380
#
# Velocity S-wave (km/s) = 2.82159 4.12390 3.53327
# Velocity P-wave (km/s) = 4.51138 7.05342 5.92044
#
# Compressibility (1/GPa) = 0.04714575
#
# Stress axis : x y z
#
# Youngs Moduli (GPa) = 13.53741 51.29495 93.23234
#
# Poissons Ratio (x) = 0.94510 0.50403
# Poissons Ratio (y) = 0.24942 0.43272
# Poissons Ratio (z) = 0.07319 0.23807
#
# Static dielectric constant tensor:
#      x y z
#    x 1.847130 0.079800 0.024270 
#    y 0.079800 0.412600 -0.579380 
#    z 0.024270 -0.579380 1.579940 
# 
# From -- ./inp_files/156924.got.cif
#   From: 2010.05.17/outbox.cif.g08.bks.cpg/sg2_79_cif.got.tgz:156924.got - 2010.06.03 11:33:40.
