data_PCOD9106820
_publ_section_title
;
Structure prediction by ZEFSAII (Michael W. Deem and Ramdas Pophale) SiO2 
 PCOD9106820
Probable space group: P -1
;
_chemical_formula_sum "Si O2"
_cell_formula_units_Z 16
_cell_length_a 11.287613
_cell_length_b 14.781646
_cell_length_c 11.087680
_cell_angle_alpha 66.999550
_cell_angle_beta 154.290654
_cell_angle_gamma 114.519068
_cell_volume 729.496632
_symmetry_space_group_name_H-M "P -1"
_symmetry_group_IT_number 2
_symmetry_cell_setting 'triclinic'
loop_
_space_group_symop_operation_xyz
x,y,z
-x,-y,-z
loop_
_atom_site_type_symbol
_atom_site_label
_atom_site_fract_x
_atom_site_fract_y
_atom_site_fract_z
Si Si1 0.650398 0.740391 0.038332
Si Si2 0.832267 0.275625 0.815056
Si Si3 0.082481 0.822870 0.808783
Si Si4 0.886666 0.168883 0.431661
Si Si5 0.745787 0.050324 0.783126
Si Si6 0.408361 0.358482 0.227900
Si Si7 0.726975 0.530916 0.292685
Si Si8 0.393699 0.051129 0.694461
O O1 0.366963 0.774991 0.797582
O O2 0.610293 0.705227 0.881128
O O3 0.732251 0.648422 0.240166
O O4 0.902842 0.823763 0.266389
O O5 0.836458 0.169839 0.806149
O O6 0.549945 0.307267 0.493039
O O7 0.867508 0.253753 0.000079
O O8 0.089317 0.356963 0.967450
O O9 0.997778 0.788696 0.613643
O O10 0.834139 0.881669 0.591434
O O11 0.389147 0.889145 0.044689
O O12 0.780768 0.052433 0.373950
O O13 0.607280 0.030030 0.797585
O O14 0.500000 0.000000 0.500000
O O15 0.000000 0.000000 0.000000
O O16 0.603911 0.463162 0.326514
O O17 0.000000 0.500000 0.500000
O O18 0.500000 0.500000 0.000000
#
# Coordination Sequence:
#
# PCOD9106820 Si02
#       8
#     2   2   2   2   2   2   2   2
#     4  11  24  38  61  98 123 149 199 259 326 353
#     4  11  23  38  60  87 118 165 209 239 293 374
#     4  11  23  44  61  85 123 167 220 246 297 348
#     4  12  24  39  66  90 121 162 208 270 290 358
#     4  11  23  36  53  83 127 159 188 252 305 349
#     4  11  22  39  64  90 122 158 198 244 303 399
#     4  10  20  40  61  89 126 159 189 245 317 379
#     4  11  23  40  60  86 118 171 214 248 301 355
#
# _framework density 21.932932999999998
#
# number of rings (size 3 to 8) (size 9 to 14) (size 15 to 20)
#    0.000    1.000    0.000    9.750    5.250    0.000 
#    0.000    0.000    0.000    4.500    0.000    0.000 
#    0.000    0.000    0.000    0.000    0.000    0.000 
#
# Total GULP energy -89304.991707 kJ/mol
# GULP energy per Si atom -5581.561982 kJ/mol
# Density = 2.188301 g / cm^3
# Si number density = 21.932933 Si / 1000 Ang^3
#
#
#
# Elastic Constant Matrix: (Units=GPa)
#
#
# Indices 1 2 3 4 5 6 
#
# 1 60.1752 -1.9507 28.5778 -6.6686 -13.5224 8.9703
# 2 -1.9507 38.6445 5.3114 2.0937 -2.3511 20.7382
# 3 28.5778 5.3114 147.6961 -2.2527 8.2176 0.8359
# 4 -6.6686 2.0937 -2.2527 32.7528 4.9301 1.5122
# 5 -13.5224 -2.3511 8.2176 4.9301 33.0838 -1.5544
# 6 8.9703 20.7382 0.8359 1.5122 -1.5544 21.4590
#
#
#
# Elastic Compliance Matrix: (Units=1/GPa)
#
#
# Indices 1 2 3 4 5 6 
#
# 1 0.027530 0.017718 -0.006438 0.003460 0.012292 -0.027733
# 2 0.017718 0.065739 -0.005941 0.000726 0.009991 -0.070033
# 3 -0.006438 -0.005941 0.008453 0.000013 -0.004791 0.007755
# 4 0.003460 0.000726 0.000013 0.031935 -0.003515 -0.004653
# 5 0.012292 0.009991 -0.004791 -0.003515 0.037126 -0.011670
# 6 -0.027733 -0.070033 0.007755 -0.004653 -0.011670 0.125055
#
#
# Mechanical properties :
#
#
# Convention : Reuss Voigt Hill
#
# Bulk Modulus (GPa) = 8.89684 34.48808 21.69246
# Shear Modulus (GPa) = 15.49783 31.76429 23.63106
#
# Velocity S-wave (km/s) = 2.66108 3.80971 3.28597
# Velocity P-wave (km/s) = 3.67519 5.92540 4.93038
#
# Compressibility (1/GPa) = 0.11239948
#
# Stress axis : x y z
#
# Youngs Moduli (GPa) = 36.32424 15.21167 118.30294
#
# Poissons Ratio (x) = -0.26952 0.76165
# Poissons Ratio (y) = -0.64358 0.70280
# Poissons Ratio (z) = 0.23386 0.09037
#
# Static dielectric constant tensor:
#      x y z
#    x 1.355120 0.604640 0.407740 
#    y 0.604640 1.276860 -0.507940 
#    z 0.407740 -0.507940 1.356910 
# 
# From -- ./inp_files/437276.got.cif
#   From: 2010.05.17/outbox.cif.g08.bks.cpg/sg2_219_cif.got.tgz:437276.got - 2010.06.03 11:33:40.
