data_PCOD9106576
_publ_section_title
;
Structure prediction by ZEFSAII (Michael W. Deem and Ramdas Pophale) SiO2 
 PCOD9106576
Probable space group: P -1
;
_chemical_formula_sum "Si O2"
_cell_formula_units_Z 16
_cell_length_a 10.967606
_cell_length_b 19.526326
_cell_length_c 14.821432
_cell_angle_alpha 31.995546
_cell_angle_beta 150.871990
_cell_angle_gamma 137.960959
_cell_volume 818.623290
_symmetry_space_group_name_H-M "P -1"
_symmetry_group_IT_number 2
_symmetry_cell_setting 'triclinic'
loop_
_space_group_symop_operation_xyz
x,y,z
-x,-y,-z
loop_
_atom_site_type_symbol
_atom_site_label
_atom_site_fract_x
_atom_site_fract_y
_atom_site_fract_z
Si Si1 0.790269 0.121056 0.481463
Si Si2 0.859655 0.739296 0.784272
Si Si3 0.022516 0.145426 0.080818
Si Si4 0.525735 0.442929 0.180674
Si Si5 0.140968 0.881913 0.672359
Si Si6 0.701536 0.709701 0.053154
Si Si7 0.409855 0.938732 0.235644
Si Si8 0.885879 0.199234 0.654012
O O1 0.931052 0.128757 0.467573
O O2 0.909016 0.169851 0.596762
O O3 0.767385 0.966783 0.653865
O O4 0.545774 0.206704 0.214756
O O5 0.995132 0.802762 0.887706
O O6 0.731751 0.607655 0.883786
O O7 0.621097 0.827151 0.502791
O O8 0.055927 0.753657 0.813704
O O9 0.121041 0.258182 0.953584
O O10 0.774018 0.086072 0.940171
O O11 0.640938 0.558450 0.185107
O O12 0.703873 0.320101 0.419920
O O13 0.500000 0.500000 0.000000
O O14 0.429962 0.929330 0.810251
O O15 0.000000 0.000000 0.500000
O O16 0.852504 0.761231 0.178086
O O17 0.240847 0.917588 0.239676
#
# Coordination Sequence:
#
# PCOD9106576 Si02
#       8
#     2   2   2   2   2   2   2   2
#     4  12  23  35  58  87 119 152 187 232 287 342
#     4  10  20  40  56  83 115 151 193 235 272 338
#     4  11  21  33  59  88 119 146 183 234 287 344
#     4  11  19  40  65  83 111 151 192 233 289 330
#     4  10  21  39  55  78 119 158 189 226 282 340
#     4  11  23  37  59  89 117 149 185 239 290 333
#     4   9  20  35  55  86 114 151 184 224 291 339
#     4  10  23  36  59  90 118 145 187 239 284 339
#
# _framework density 19.545010000000001
#
# number of rings (size 3 to 8) (size 9 to 14) (size 15 to 20)
#    0.000    1.500    5.000    1.500    3.500    1.500 
#    0.000    0.625    0.000    0.750    0.000    0.000 
#    0.000    0.000    0.000    0.000    0.000    0.000 
#
# Total GULP energy -89252.698510 kJ/mol
# GULP energy per Si atom -5578.293657 kJ/mol
# Density = 1.950052 g / cm^3
# Si number density = 19.545010 Si / 1000 Ang^3
#
#
#
# Elastic Constant Matrix: (Units=GPa)
#
#
# Indices 1 2 3 4 5 6 
#
# 1 116.4621 73.9716 29.3714 7.0383 -28.6113 -1.5698
# 2 73.9716 126.6768 31.7191 4.0237 -23.2322 12.4521
# 3 29.3714 31.7191 46.2213 6.7412 -7.2425 4.7443
# 4 7.0383 4.0237 6.7412 30.5394 -2.5104 -13.5420
# 5 -28.6113 -23.2322 -7.2425 -2.5104 23.4195 -0.8492
# 6 -1.5698 12.4521 4.7443 -13.5420 -0.8492 32.0523
#
#
#
# Elastic Compliance Matrix: (Units=1/GPa)
#
#
# Indices 1 2 3 4 5 6 
#
# 1 0.017653 -0.007215 -0.004954 0.001439 0.013226 0.005359
# 2 -0.007215 0.014432 -0.003834 -0.001743 0.003912 -0.006025
# 3 -0.004954 -0.003834 0.028876 -0.007698 -0.001980 -0.006332
# 4 0.001439 -0.001743 -0.007698 0.043643 0.003067 0.020407
# 5 0.013226 0.003912 -0.001980 0.003067 0.062540 0.002374
# 6 0.005359 -0.006025 -0.006332 0.020407 0.002374 0.043425
#
#
# Mechanical properties :
#
#
# Convention : Reuss Voigt Hill
#
# Bulk Modulus (GPa) = 34.53494 62.16492 48.34993
# Shear Modulus (GPa) = 19.82350 27.48877 23.65613
#
# Velocity S-wave (km/s) = 3.18818 3.75431 3.48277
# Velocity P-wave (km/s) = 5.59111 7.11816 6.40034
#
# Compressibility (1/GPa) = 0.02895618
#
# Stress axis : x y z
#
# Youngs Moduli (GPa) = 56.64850 69.29065 34.63025
#
# Poissons Ratio (x) = 0.49990 0.17156
# Poissons Ratio (y) = 0.40870 0.13276
# Poissons Ratio (z) = 0.28064 0.26564
#
# Static dielectric constant tensor:
#      x y z
#    x 1.717020 0.008180 0.001300 
#    y 0.008180 1.733370 -0.024940 
#    z 0.001300 -0.024940 1.730450 
# 
# From -- ./inp_files/518836.got.cif
#   From: 2010.05.17/outbox.cif.g08.bks.cpg/sg2_260_cif.got.tgz:518836.got - 2010.06.03 11:33:40.
