data_PCOD9106266
_publ_section_title
;
Structure prediction by ZEFSAII (Michael W. Deem and Ramdas Pophale) SiO2 
 PCOD9106266
Probable space group: P -1
;
_chemical_formula_sum "Si O2"
_cell_formula_units_Z 16
_cell_length_a 7.685766
_cell_length_b 20.120478
_cell_length_c 12.966878
_cell_angle_alpha 22.508906
_cell_angle_beta 119.371181
_cell_angle_gamma 119.766781
_cell_volume 663.300538
_symmetry_space_group_name_H-M "P -1"
_symmetry_group_IT_number 2
_symmetry_cell_setting 'triclinic'
loop_
_space_group_symop_operation_xyz
x,y,z
-x,-y,-z
loop_
_atom_site_type_symbol
_atom_site_label
_atom_site_fract_x
_atom_site_fract_y
_atom_site_fract_z
Si Si1 0.120426 0.090312 0.642461
Si Si2 0.201418 0.922703 0.599371
Si Si3 0.788396 0.543825 0.929165
Si Si4 0.962983 0.430161 0.838533
Si Si5 0.201324 0.385721 0.765387
Si Si6 0.515698 0.769675 0.778244
Si Si7 0.963628 0.185283 0.674187
Si Si8 0.811347 0.239959 0.755401
O O1 0.251335 0.273001 0.392541
O O2 0.969954 0.138578 0.621972
O O3 0.997781 0.037231 0.577214
O O4 0.238852 0.939369 0.939487
O O5 0.339537 0.873813 0.616019
O O6 0.323457 0.099116 0.426297
O O7 0.171816 0.747117 0.910301
O O8 0.600796 0.399052 0.066661
O O9 0.000000 0.500000 0.000000
O O10 0.850044 0.558282 0.044896
O O11 0.894340 0.623867 0.552172
O O12 0.045136 0.400832 0.792080
O O13 0.277693 0.589425 0.472788
O O14 0.056231 0.283714 0.784929
O O15 0.371587 0.287019 0.005144
O O16 0.786992 0.225369 0.645307
O O17 0.000000 0.000000 0.000000
#
# Coordination Sequence:
#
# PCOD9106266 Si02
#       8
#     2   2   2   2   2   2   2   2
#     4  10  16  34  57  85 105 147 188 226 272 336
#     4  10  20  33  58  86 114 140 185 234 279 327
#     4  11  19  34  58  83 113 143 179 232 288 332
#     4  10  19  36  55  84 112 152 180 220 283 343
#     4  10  21  35  57  79 119 148 187 223 272 337
#     4  11  20  34  54  88 114 143 181 236 280 322
#     4   9  16  27  56  82 104 138 200 224 250 318
#     4   9  19  35  52  83 106 157 188 219 270 332
#
# _framework density 24.121796
#
# number of rings (size 3 to 8) (size 9 to 14) (size 15 to 20)
#    0.000    2.000    5.000    0.000    0.000    1.000 
#    0.000    0.625    0.000   12.000    0.000    0.000 
#    0.000    0.000    0.000    0.000    0.000    0.000 
#
# Total GULP energy -89160.976866 kJ/mol
# GULP energy per Si atom -5572.561054 kJ/mol
# Density = 2.406689 g / cm^3
# Si number density = 24.121796 Si / 1000 Ang^3
#
#
#
# Elastic Constant Matrix: (Units=GPa)
#
#
# Indices 1 2 3 4 5 6 
#
# 1 51.4602 28.5918 26.2340 -7.3248 -8.9116 0.5378
# 2 28.5918 71.9091 45.6651 -24.1595 -20.6472 10.3316
# 3 26.2340 45.6651 205.0753 -37.7494 -29.2572 9.4944
# 4 -7.3248 -24.1595 -37.7494 48.1138 2.8588 -7.0078
# 5 -8.9116 -20.6472 -29.2572 2.8588 38.4975 -3.1341
# 6 0.5378 10.3316 9.4944 -7.0078 -3.1341 24.6747
#
#
#
# Elastic Compliance Matrix: (Units=1/GPa)
#
#
# Indices 1 2 3 4 5 6 
#
# 1 0.025703 -0.010604 -0.001543 -0.002037 -0.000446 0.003838
# 2 -0.010604 0.025272 -0.001060 0.008786 0.009130 -0.006288
# 3 -0.001543 -0.001060 0.006631 0.004151 0.003772 -0.000416
# 4 -0.002037 0.008786 0.004151 0.028324 0.005578 0.003521
# 5 -0.000446 0.009130 0.003772 0.005578 0.033265 0.000545
# 6 0.003838 -0.006288 -0.000416 0.003521 0.000545 0.044306
#
#
# Mechanical properties :
#
#
# Convention : Reuss Voigt Hill
#
# Bulk Modulus (GPa) = 32.05885 58.82517 45.44201
# Shear Modulus (GPa) = 24.96084 37.45413 31.20748
#
# Velocity S-wave (km/s) = 3.22030 3.94472 3.60077
# Velocity P-wave (km/s) = 5.21021 6.72216 6.01389
#
# Compressibility (1/GPa) = 0.03119263
#
# Stress axis : x y z
#
# Youngs Moduli (GPa) = 38.90525 39.56877 150.80398
#
# Poissons Ratio (x) = 0.41958 0.23271
# Poissons Ratio (y) = 0.41255 0.15989
# Poissons Ratio (z) = 0.06004 0.04195
#
# Static dielectric constant tensor:
#      x y z
#    x 1.940060 -0.038670 -0.001700 
#    y -0.038670 2.002310 -0.066900 
#    z -0.001700 -0.066900 2.009120 
# 
# From -- ./inp_files/508708.got.cif
#   From: 2010.05.17/outbox.cif.g08.bks.cpg/sg2_255_cif.got.tgz:508708.got - 2010.06.03 11:33:40.
