data_PCOD9106879
_publ_section_title
;
Structure prediction by ZEFSAII (Michael W. Deem and Ramdas Pophale) SiO2 
 PCOD9106879
Probable space group: P -1
;
_chemical_formula_sum "Si O2"
_cell_formula_units_Z 14
_cell_length_a 17.476789
_cell_length_b 9.180306
_cell_length_c 5.228676
_cell_angle_alpha 99.830811
_cell_angle_beta 103.295362
_cell_angle_gamma 129.836100
_cell_volume 567.294906
_symmetry_space_group_name_H-M "P -1"
_symmetry_group_IT_number 2
_symmetry_cell_setting 'triclinic'
loop_
_space_group_symop_operation_xyz
x,y,z
-x,-y,-z
loop_
_atom_site_type_symbol
_atom_site_label
_atom_site_fract_x
_atom_site_fract_y
_atom_site_fract_z
Si Si1 0.301206 0.402125 0.400480
Si Si2 0.435295 0.859568 0.655570
Si Si3 0.004682 0.164124 0.198357
Si Si4 0.888349 0.406957 0.765230
Si Si5 0.184428 0.377014 0.805226
Si Si6 0.257138 0.774595 0.794025
Si Si7 0.234576 0.003030 0.128954
O O1 0.409322 0.651506 0.553756
O O2 0.239453 0.364785 0.602423
O O3 0.229223 0.351917 0.079628
O O4 0.309179 0.236531 0.354603
O O5 0.317367 0.782477 0.598821
O O6 0.500000 0.000000 0.500000
O O7 0.500000 0.000000 0.000000
O O8 0.087407 0.383025 0.165073
O O9 0.058876 0.224656 0.544084
O O10 0.882096 0.075764 0.075927
O O11 0.000000 0.000000 0.000000
O O12 0.866979 0.351564 0.432305
O O13 0.802574 0.175834 0.758953
O O14 0.000000 0.500000 0.000000
O O15 0.240944 0.616033 0.924110
O O16 0.303541 0.992168 0.981677
#
# Coordination Sequence:
#
# PCOD9106879 Si02
#       7
#     2   2   2   2   2   2   2
#     4  11  24  44  70 104 132 182 231 292 347 413
#     4  11  25  49  77 101 129 175 236 298 364 426
#     4  10  20  40  62 103 143 200 241 278 319 409
#     4   9  22  39  62  97 148 185 228 265 347 399
#     4  10  23  41  66  97 143 185 240 272 332 402
#     4  10  24  41  67 101 132 186 226 293 346 413
#     4  11  24  39  65  98 147 185 230 286 343 408
#
# _framework density 24.678519999999999
#
# number of rings (size 3 to 8) (size 9 to 14) (size 15 to 20)
#    0.000    1.714    1.429    1.714   10.000    5.714 
#    2.571    1.429    0.000    0.000    0.000    0.000 
#    0.000    0.000    0.000    0.000    0.000    0.000 
#
# Total GULP energy -78059.557155 kJ/mol
# GULP energy per Si atom -5575.682654 kJ/mol
# Density = 2.462235 g / cm^3
# Si number density = 24.678520 Si / 1000 Ang^3
#
#
#
# Elastic Constant Matrix: (Units=GPa)
#
#
# Indices 1 2 3 4 5 6 
#
# 1 62.1503 60.8099 18.5990 12.8783 -28.2579 -26.5724
# 2 60.8099 208.0725 62.2044 35.7461 -27.1338 -33.4783
# 3 18.5990 62.2044 129.2764 4.7974 -10.8656 -19.5573
# 4 12.8783 35.7461 4.7974 45.4507 -9.7535 -17.0252
# 5 -28.2579 -27.1338 -10.8656 -9.7535 35.5796 13.5348
# 6 -26.5724 -33.4783 -19.5573 -17.0252 13.5348 55.2328
#
#
#
# Elastic Compliance Matrix: (Units=1/GPa)
#
#
# Indices 1 2 3 4 5 6 
#
# 1 0.035064 -0.007100 0.001328 0.003259 0.020282 0.009070
# 2 -0.007100 0.008330 -0.003006 -0.004710 -0.001279 -0.000569
# 3 0.001328 -0.003006 0.009396 0.002212 0.001283 0.002511
# 4 0.003259 -0.004710 0.002212 0.028197 0.004727 0.007029
# 5 0.020282 -0.001279 0.001283 0.004727 0.044975 -0.000127
# 6 0.009070 -0.000569 0.002511 0.007029 -0.000127 0.025211
#
#
# Mechanical properties :
#
#
# Convention : Reuss Voigt Hill
#
# Bulk Modulus (GPa) = 28.38124 75.85843 52.11983
# Shear Modulus (GPa) = 27.70465 44.44502 36.07483
#
# Velocity S-wave (km/s) = 3.35419 4.24838 3.82749
# Velocity P-wave (km/s) = 5.15035 7.40745 6.37952
#
# Compressibility (1/GPa) = 0.03523454
#
# Stress axis : x y z
#
# Youngs Moduli (GPa) = 28.51923 120.04092 106.42481
#
# Poissons Ratio (x) = 0.85230 -0.14129
# Poissons Ratio (y) = 0.20249 0.31988
# Poissons Ratio (z) = -0.03786 0.36081
#
# Static dielectric constant tensor:
#      x y z
#    x 2.159580 0.055380 0.033050 
#    y 0.055380 1.973770 -0.044230 
#    z 0.033050 -0.044230 2.211150 
# 
# From -- ./inp_files/105462.got.cif
#   From: 2010.05.17/outbox.cif.g08.bks.cpg/sg2_53_cif.got.tgz:105462.got - 2010.06.03 11:33:40.
