data_PCOD9106682
_publ_section_title
;
Structure prediction by ZEFSAII (Michael W. Deem and Ramdas Pophale) SiO2 
 PCOD9106682
Probable space group: P -1
;
_chemical_formula_sum "Si O2"
_cell_formula_units_Z 16
_cell_length_a 17.101395
_cell_length_b 7.404709
_cell_length_c 7.479060
_cell_angle_alpha 56.982592
_cell_angle_beta 93.548968
_cell_angle_gamma 62.327096
_cell_volume 636.899790
_symmetry_space_group_name_H-M "P -1"
_symmetry_group_IT_number 2
_symmetry_cell_setting 'triclinic'
loop_
_space_group_symop_operation_xyz
x,y,z
-x,-y,-z
loop_
_atom_site_type_symbol
_atom_site_label
_atom_site_fract_x
_atom_site_fract_y
_atom_site_fract_z
Si Si1 0.079324 0.862426 0.844893
Si Si2 0.088583 0.128317 0.057228
Si Si3 0.789049 0.195546 0.400194
Si Si4 0.071447 0.543414 0.594286
Si Si5 0.545859 0.139801 0.357073
Si Si6 0.399908 0.669324 0.158216
Si Si7 0.407094 0.511015 0.629514
Si Si8 0.259861 0.131921 0.670133
O O1 0.994431 0.139400 0.584896
O O2 0.162596 0.723088 0.781507
O O3 0.110060 0.945442 0.982739
O O4 0.023333 0.745568 0.972984
O O5 0.154676 0.954855 0.328150
O O6 0.094922 0.365403 0.868561
O O7 0.170786 0.422041 0.564528
O O8 0.681105 0.450432 0.300927
O O9 0.780572 0.980945 0.410929
O O10 0.000000 0.500000 0.500000
O O11 0.448528 0.441935 0.132031
O O12 0.592270 0.233614 0.454792
O O13 0.637609 0.944142 0.347940
O O14 0.500000 0.000000 0.500000
O O15 0.392393 0.535221 0.403855
O O16 0.481199 0.721518 0.180043
O O17 0.298109 0.932857 0.951405
#
# Coordination Sequence:
#
# PCOD9106682 Si02
#       8
#     2   2   2   2   2   2   2   2
#     4  10  22  41  59  90 125 158 206 257 302 367
#     4  10  21  38  63  84 122 162 199 254 309 355
#     4  11  20  35  62  89 118 159 210 247 302 377
#     4  10  20  40  60  85 122 159 201 254 306 356
#     4   9  19  36  57  87 118 150 198 259 304 356
#     4   9  18  37  60  81 116 159 208 241 305 372
#     4   8  19  34  62  85 114 159 211 239 305 382
#     4  11  20  36  62  85 116 162 204 244 302 379
#
# _framework density 25.121690999999998
#
# number of rings (size 3 to 8) (size 9 to 14) (size 15 to 20)
#    0.750    1.500    2.500    1.500    0.000    0.500 
#    4.500    0.625    8.250    0.000    0.000    0.000 
#    0.000    0.000    0.000    0.000    0.000    0.000 
#
# Total GULP energy -89311.858100 kJ/mol
# GULP energy per Si atom -5581.991131 kJ/mol
# Density = 2.506451 g / cm^3
# Si number density = 25.121691 Si / 1000 Ang^3
#
#
#
# Elastic Constant Matrix: (Units=GPa)
#
#
# Indices 1 2 3 4 5 6 
#
# 1 121.6234 37.7145 43.5585 14.9698 -11.5982 -32.1078
# 2 37.7145 85.8951 28.4919 19.1405 1.2526 -28.4064
# 3 43.5585 28.4919 91.6545 24.4616 9.4709 1.1986
# 4 14.9698 19.1405 24.4616 36.2151 0.4007 -5.1232
# 5 -11.5982 1.2526 9.4709 0.4007 51.0189 11.7552
# 6 -32.1078 -28.4064 1.1986 -5.1232 11.7552 50.3669
#
#
#
# Elastic Compliance Matrix: (Units=1/GPa)
#
#
# Indices 1 2 3 4 5 6 
#
# 1 0.012914 -0.001456 -0.006189 0.000580 0.002495 0.007035
# 2 -0.001456 0.017532 -0.003275 -0.005151 -0.002193 0.009025
# 3 -0.006189 -0.003275 0.017511 -0.008404 -0.003048 -0.006353
# 4 0.000580 -0.005151 -0.008404 0.035901 0.001303 0.001012
# 5 0.002495 -0.002193 -0.003048 0.001303 0.021822 -0.004534
# 6 0.007035 0.009025 -0.006353 0.001012 -0.004534 0.030742
#
#
# Mechanical properties :
#
#
# Convention : Reuss Voigt Hill
#
# Bulk Modulus (GPa) = 38.28935 57.63365 47.96150
# Shear Modulus (GPa) = 29.94600 40.14739 35.04670
#
# Velocity S-wave (km/s) = 3.45634 4.00198 3.73913
# Velocity P-wave (km/s) = 5.58596 6.65928 6.14610
#
# Compressibility (1/GPa) = 0.02611692
#
# Stress axis : x y z
#
# Youngs Moduli (GPa) = 77.43488 57.03715 57.10789
#
# Poissons Ratio (x) = 0.08306 0.35345
# Poissons Ratio (y) = 0.11277 0.18701
# Poissons Ratio (z) = 0.47926 0.18678
#
# Static dielectric constant tensor:
#      x y z
#    x 2.031330 0.004960 -0.019880 
#    y 0.004960 2.052330 0.027050 
#    z -0.019880 0.027050 2.002620 
# 
# From -- ./inp_files/297405.got.cif
#   From: 2010.05.17/outbox.cif.g08.bks.cpg/sg2_149_cif.got.tgz:297405.got - 2010.06.03 11:33:40.
