data_PCOD9106548
_publ_section_title
;
Structure prediction by ZEFSAII (Michael W. Deem and Ramdas Pophale) SiO2 
 PCOD9106548
Probable space group: P -1
;
_chemical_formula_sum "Si O2"
_cell_formula_units_Z 14
_cell_length_a 11.625761
_cell_length_b 6.998539
_cell_length_c 8.774388
_cell_angle_alpha 94.612590
_cell_angle_beta 129.963071
_cell_angle_gamma 86.829658
_cell_volume 545.406711
_symmetry_space_group_name_H-M "P -1"
_symmetry_group_IT_number 2
_symmetry_cell_setting 'triclinic'
loop_
_space_group_symop_operation_xyz
x,y,z
-x,-y,-z
loop_
_atom_site_type_symbol
_atom_site_label
_atom_site_fract_x
_atom_site_fract_y
_atom_site_fract_z
Si Si1 0.139174 0.522164 0.486934
Si Si2 0.889570 0.513332 0.049366
Si Si3 0.388070 0.919073 0.535036
Si Si4 0.312818 0.662999 0.920425
Si Si5 0.847566 0.894927 0.412941
Si Si6 0.673991 0.484047 0.635528
Si Si7 0.421205 0.220568 0.018856
O O1 0.222285 0.657278 0.684680
O O2 0.100996 0.322221 0.519333
O O3 0.264493 0.453897 0.468990
O O4 0.998364 0.597517 0.274763
O O5 0.811141 0.328134 0.050885
O O6 0.751183 0.601399 0.843741
O O7 0.000000 0.500000 0.000000
O O8 0.300594 0.745127 0.365420
O O9 0.495810 0.839522 0.758856
O O10 0.500000 0.000000 0.500000
O O11 0.254838 0.030044 0.524665
O O12 0.456990 0.791914 0.018645
O O13 0.377064 0.447177 0.990381
O O14 0.730537 0.883043 0.170630
O O15 0.000000 0.000000 0.500000
O O16 0.500000 0.500000 0.500000
#
# Coordination Sequence:
#
# PCOD9106548 Si02
#       7
#     2   2   2   2   2   2   2
#     4  10  22  43  66  96 131 179 228 281 337 407
#     4  10  23  36  62 102 136 171 216 290 347 390
#     4  12  26  44  68 103 139 183 229 285 350 415
#     4  10  20  39  74 100 125 173 244 289 327 403
#     4  11  27  45  67 101 142 181 228 287 353 413
#     4  11  23  42  68  98 138 176 235 281 336 413
#     4  10  23  43  71  96 130 183 235 282 342 412
#
# _framework density 25.668918000000001
#
# number of rings (size 3 to 8) (size 9 to 14) (size 15 to 20)
#    0.000    1.429    1.429    2.571    8.000    6.857 
#    0.000    1.429    0.000    0.000    0.000    0.000 
#    0.000    0.000    0.000    0.000    0.000    0.000 
#
# Total GULP energy -78058.059233 kJ/mol
# GULP energy per Si atom -5575.575659 kJ/mol
# Density = 2.561049 g / cm^3
# Si number density = 25.668918 Si / 1000 Ang^3
#
#
#
# Elastic Constant Matrix: (Units=GPa)
#
#
# Indices 1 2 3 4 5 6 
#
# 1 209.7822 26.0706 74.9284 5.9007 -1.5278 48.1525
# 2 26.0706 73.3033 26.5437 12.1964 5.4915 17.6019
# 3 74.9284 26.5437 179.6869 4.0335 9.7036 10.9323
# 4 5.9007 12.1964 4.0335 25.5692 9.0490 8.3495
# 5 -1.5278 5.4915 9.7036 9.0490 55.2189 -0.1352
# 6 48.1525 17.6019 10.9323 8.3495 -0.1352 64.8392
#
#
#
# Elastic Compliance Matrix: (Units=1/GPa)
#
#
# Indices 1 2 3 4 5 6 
#
# 1 0.006753 -0.000516 -0.002507 0.000334 0.000613 -0.004494
# 2 -0.000516 0.016264 -0.001854 -0.006297 -0.000281 -0.002909
# 3 -0.002507 -0.001854 0.006868 0.000413 -0.001157 0.001151
# 4 0.000334 -0.006297 0.000413 0.045920 -0.006973 -0.004536
# 5 0.000613 -0.000281 -0.001157 -0.006973 0.019503 0.000755
# 6 -0.004494 -0.002909 0.001151 -0.004536 0.000755 0.019941
#
#
# Mechanical properties :
#
#
# Convention : Reuss Voigt Hill
#
# Bulk Modulus (GPa) = 49.67523 79.76199 64.71861
# Shear Modulus (GPa) = 37.96136 51.47410 44.71773
#
# Velocity S-wave (km/s) = 3.84980 4.48293 4.17837
# Velocity P-wave (km/s) = 6.25744 7.61159 6.96749
#
# Compressibility (1/GPa) = 0.02013076
#
# Stress axis : x y z
#
# Youngs Moduli (GPa) = 148.08234 61.48512 145.61197
#
# Poissons Ratio (x) = 0.03175 0.36503
# Poissons Ratio (y) = 0.07646 0.26993
# Poissons Ratio (z) = 0.37122 0.11398
#
# Static dielectric constant tensor:
#      x y z
#    x 2.291580 -0.101460 0.106490 
#    y -0.101460 2.146380 -0.076860 
#    z 0.106490 -0.076860 2.154310 
# 
# From -- ./inp_files/244243.got.cif
#   From: 2010.05.17/outbox.cif.g08.bks.cpg/sg2_123_cif.got.tgz:244243.got - 2010.06.03 11:33:40.
