data_PCOD9106299
_publ_section_title
;
Structure prediction by ZEFSAII (Michael W. Deem and Ramdas Pophale) SiO2 
 PCOD9106299
Probable space group: P -1
;
_chemical_formula_sum "Si O2"
_cell_formula_units_Z 12
_cell_length_a 9.240821
_cell_length_b 5.372812
_cell_length_c 18.393136
_cell_angle_alpha 117.063584
_cell_angle_beta 133.406080
_cell_angle_gamma 85.609355
_cell_volume 550.055344
_symmetry_space_group_name_H-M "P -1"
_symmetry_group_IT_number 2
_symmetry_cell_setting 'triclinic'
loop_
_space_group_symop_operation_xyz
x,y,z
-x,-y,-z
loop_
_atom_site_type_symbol
_atom_site_label
_atom_site_fract_x
_atom_site_fract_y
_atom_site_fract_z
Si Si1 0.919847 0.659626 0.831754
Si Si2 0.658293 0.326585 0.026138
Si Si3 0.593010 0.316080 0.164844
Si Si4 0.824300 0.651314 0.955489
Si Si5 0.993982 0.330025 0.552745
Si Si6 0.354109 0.679681 0.444770
O O1 0.777024 0.635540 0.850155
O O2 0.793518 0.517692 0.697407
O O3 0.096998 0.509368 0.889946
O O4 0.059681 0.015009 0.927756
O O5 0.685607 0.263364 0.112647
O O6 0.500000 0.500000 0.000000
O O7 0.547979 0.019759 0.903810
O O8 0.416441 0.470104 0.113141
O O9 0.786187 0.482753 0.305420
O O10 0.000000 0.500000 0.000000
O O11 0.797213 0.301048 0.536826
O O12 0.000000 0.500000 0.500000
O O13 0.000000 0.000000 0.500000
O O14 0.500000 0.500000 0.500000
O O15 0.500000 0.000000 0.500000
#
# Coordination Sequence:
#
# PCOD9106299 Si02
#       6
#     2   2   2   2   2   2
#     4  10  23  42  64 103 139 179 242 288 364 436
#     4  10  20  39  68  97 131 180 227 300 361 426
#     4  10  23  40  65 102 136 177 241 292 362 431
#     4  10  22  40  68 102 139 182 225 301 365 433
#     4  12  29  51  75 108 150 200 252 308 366 436
#     4  12  29  50  77 108 147 203 251 306 366 440
#
# _framework density 21.815985999999999
#
# number of rings (size 3 to 8) (size 9 to 14) (size 15 to 20)
#    0.000    1.333    1.667    2.000    9.333    1.333 
#    0.000    0.000    0.000    0.000    0.000    0.000 
#    0.000    0.000    0.000    0.000    0.000    0.000 
#
# Total GULP energy -66879.976984 kJ/mol
# GULP energy per Si atom -5573.331415 kJ/mol
# Density = 2.176633 g / cm^3
# Si number density = 21.815986 Si / 1000 Ang^3
#
#
#
# Elastic Constant Matrix: (Units=GPa)
#
#
# Indices 1 2 3 4 5 6 
#
# 1 198.9665 66.8372 72.5341 -8.8780 -13.6759 -8.1198
# 2 66.8372 130.5710 56.6925 3.3190 -1.9090 -15.3868
# 3 72.5341 56.6925 170.0396 1.1315 -8.2455 -11.8377
# 4 -8.8780 3.3190 1.1315 16.2976 -5.2149 0.7578
# 5 -13.6759 -1.9090 -8.2455 -5.2149 37.6010 -7.5691
# 6 -8.1198 -15.3868 -11.8377 0.7578 -7.5691 48.7792
#
#
#
# Elastic Compliance Matrix: (Units=1/GPa)
#
#
# Indices 1 2 3 4 5 6 
#
# 1 0.007166 -0.002888 -0.001983 0.005525 0.002822 0.000153
# 2 -0.002888 0.010395 -0.002109 -0.003998 -0.001101 0.002178
# 3 -0.001983 -0.002109 0.007549 -0.000934 0.000897 0.000990
# 4 0.005525 -0.003998 -0.000934 0.068816 0.011165 0.000096
# 5 0.002822 -0.001101 0.000897 0.011165 0.030290 0.004867
# 6 0.000153 0.002178 0.000990 0.000096 0.004867 0.022207
#
#
# Mechanical properties :
#
#
# Convention : Reuss Voigt Hill
#
# Bulk Modulus (GPa) = 89.69466 99.07830 94.38648
# Shear Modulus (GPa) = 30.46940 40.76979 35.61960
#
# Velocity S-wave (km/s) = 3.74124 4.32766 4.04509
# Velocity P-wave (km/s) = 7.73731 8.39557 8.07315
#
# Compressibility (1/GPa) = 0.01114894
#
# Stress axis : x y z
#
# Youngs Moduli (GPa) = 139.55029 96.20094 132.47352
#
# Poissons Ratio (x) = 0.27785 0.26271
# Poissons Ratio (y) = 0.40306 0.27937
# Poissons Ratio (z) = 0.27674 0.20288
#
# Static dielectric constant tensor:
#      x y z
#    x 1.888210 0.067010 0.003690 
#    y 0.067010 1.971860 -0.053420 
#    z 0.003690 -0.053420 1.727970 
# 
# From -- ./inp_files/59600.got.cif
#   From: 2010.05.17/outbox.cif.g08.bks.cpg/sg2_30_cif.got.tgz:59600.got - 2010.06.03 11:33:40.
