data_PCOD9106396
_publ_section_title
;
Structure prediction by ZEFSAII (Michael W. Deem and Ramdas Pophale) SiO2 
 PCOD9106396
Probable space group: P -1
;
_chemical_formula_sum "Si O2"
_cell_formula_units_Z 16
_cell_length_a 14.968879
_cell_length_b 12.311772
_cell_length_c 10.049130
_cell_angle_alpha 127.984277
_cell_angle_beta 138.872264
_cell_angle_gamma 40.109964
_cell_volume 781.394285
_symmetry_space_group_name_H-M "P -1"
_symmetry_group_IT_number 2
_symmetry_cell_setting 'triclinic'
loop_
_space_group_symop_operation_xyz
x,y,z
-x,-y,-z
loop_
_atom_site_type_symbol
_atom_site_label
_atom_site_fract_x
_atom_site_fract_y
_atom_site_fract_z
Si Si1 0.840081 0.495392 0.987157
Si Si2 0.546765 0.845690 0.029508
Si Si3 0.757527 0.109852 0.414774
Si Si4 0.100745 0.767417 0.537096
Si Si5 0.187193 0.420892 0.291801
Si Si6 0.207779 0.787287 0.198042
Si Si7 0.582490 0.966637 0.709475
Si Si8 0.183124 0.912844 0.980938
O O1 0.721328 0.676599 0.059662
O O2 0.826944 0.520946 0.832755
O O3 0.782227 0.380742 0.887594
O O4 0.033218 0.417909 0.167885
O O5 0.397495 0.829993 0.809139
O O6 0.500000 0.000000 0.000000
O O7 0.538218 0.906117 0.214983
O O8 0.850683 0.186037 0.511458
O O9 0.706540 0.179340 0.559986
O O10 0.898614 0.905991 0.422711
O O11 0.170915 0.572046 0.469022
O O12 0.180527 0.806760 0.776844
O O13 0.343061 0.227106 0.322005
O O14 0.257463 0.804645 0.118807
O O15 0.011418 0.938618 0.103578
O O16 0.500000 0.000000 0.500000
O O17 0.724193 0.001090 0.887057
#
# Coordination Sequence:
#
# PCOD9106396 Si02
#       8
#     2   2   2   2   2   2   2   2
#     4  11  23  40  70 101 131 167 224 283 323 379
#     4  12  25  42  63 101 135 171 219 278 332 387
#     4  10  21  37  67  96 134 168 221 267 328 389
#     4  10  20  39  69  98 123 179 219 266 323 393
#     4  11  23  43  70  99 131 170 228 271 328 392
#     4  10  21  40  67  97 127 173 222 270 317 389
#     4  12  27  47  66  94 138 181 213 266 343 399
#     4  10  22  43  65  92 136 175 217 261 330 399
#
# _framework density 20.476216999999998
#
# number of rings (size 3 to 8) (size 9 to 14) (size 15 to 20)
#    0.000    1.250    5.000    0.750    3.500    1.500 
#    4.500    2.500    0.000    0.000    0.000    0.000 
#    0.000    0.000    0.000    0.000    0.000    0.000 
#
# Total GULP energy -89346.459012 kJ/mol
# GULP energy per Si atom -5584.153688 kJ/mol
# Density = 2.042961 g / cm^3
# Si number density = 20.476217 Si / 1000 Ang^3
#
#
#
# Elastic Constant Matrix: (Units=GPa)
#
#
# Indices 1 2 3 4 5 6 
#
# 1 49.4301 17.1507 7.5297 12.4545 -16.2623 2.0221
# 2 17.1507 77.8273 28.1775 32.6663 -6.5072 2.2464
# 3 7.5297 28.1775 94.7758 15.0448 -26.1513 -9.3250
# 4 12.4545 32.6663 15.0448 30.0201 1.6970 0.7010
# 5 -16.2623 -6.5072 -26.1513 1.6970 31.2078 2.9475
# 6 2.0221 2.2464 -9.3250 0.7010 2.9475 31.8936
#
#
#
# Elastic Compliance Matrix: (Units=1/GPa)
#
#
# Indices 1 2 3 4 5 6 
#
# 1 0.031178 0.000127 0.006351 -0.017497 0.022721 -0.001844
# 2 0.000127 0.025341 -0.002040 -0.026852 0.005317 -0.002290
# 3 0.006351 -0.002040 0.017544 -0.010295 0.017819 0.003450
# 4 -0.017497 -0.026852 -0.010295 0.076488 -0.027584 0.000859
# 5 0.022721 0.005317 0.017819 -0.027584 0.061583 -0.001690
# 6 -0.001844 -0.002290 0.003450 0.000859 -0.001690 0.032779
#
#
# Mechanical properties :
#
#
# Convention : Reuss Voigt Hill
#
# Bulk Modulus (GPa) = 12.05719 36.41654 24.23686
# Shear Modulus (GPa) = 18.96224 29.90266 24.43245
#
# Velocity S-wave (km/s) = 3.04643 3.82561 3.45804
# Velocity P-wave (km/s) = 4.27498 6.11041 5.27317
#
# Compressibility (1/GPa) = 0.08293806
#
# Stress axis : x y z
#
# Youngs Moduli (GPa) = 32.07373 39.46228 57.00105
#
# Poissons Ratio (x) = -0.00501 -0.36199
# Poissons Ratio (y) = -0.00407 0.11626
# Poissons Ratio (z) = -0.20368 0.08049
#
# Static dielectric constant tensor:
#      x y z
#    x 1.768220 0.013350 0.044740 
#    y 0.013350 1.750770 -0.012550 
#    z 0.044740 -0.012550 1.769830 
# 
# From -- ./inp_files/299275.got.cif
#   From: 2010.05.17/outbox.cif.g08.bks.cpg/sg2_150_cif.got.tgz:299275.got - 2010.06.03 11:33:40.
