data_PCOD9106028
_publ_section_title
;
Structure prediction by ZEFSAII (Michael W. Deem and Ramdas Pophale) SiO2 
 PCOD9106028
Probable space group: P -1
;
_chemical_formula_sum "Si O2"
_cell_formula_units_Z 14
_cell_length_a 12.067529
_cell_length_b 21.884817
_cell_length_c 9.552615
_cell_angle_alpha 143.271472
_cell_angle_beta 52.160426
_cell_angle_gamma 152.106462
_cell_volume 663.961517
_symmetry_space_group_name_H-M "P -1"
_symmetry_group_IT_number 2
_symmetry_cell_setting 'triclinic'
loop_
_space_group_symop_operation_xyz
x,y,z
-x,-y,-z
loop_
_atom_site_type_symbol
_atom_site_label
_atom_site_fract_x
_atom_site_fract_y
_atom_site_fract_z
Si Si1 0.776186 0.335072 0.759059
Si Si2 0.215011 0.375411 0.138853
Si Si3 0.309438 0.886315 0.807736
Si Si4 0.571353 0.394122 0.346016
Si Si5 0.352850 0.521220 0.995538
Si Si6 0.456166 0.097174 0.818002
Si Si7 0.874266 0.730453 0.544883
O O1 0.792776 0.278198 0.497117
O O2 0.660170 0.373285 0.866210
O O3 0.602022 0.162152 0.680682
O O4 0.000000 0.500000 0.000000
O O5 0.378836 0.549233 0.428711
O O6 0.226123 0.431200 0.079466
O O7 0.938371 0.205381 0.108878
O O8 0.366822 0.359336 0.993636
O O9 0.462189 0.035281 0.840019
O O10 0.500000 0.000000 0.000000
O O11 0.784806 0.584077 0.444767
O O12 0.307686 0.285788 0.306857
O O13 0.565820 0.273320 0.098256
O O14 0.194848 0.352338 0.705776
O O15 0.162199 0.929213 0.702803
#
# Coordination Sequence:
#
# PCOD9106028 Si02
#       7
#     2   2   2   2   2   2   2
#     4  12  27  47  72 103 140 191 240 291 356 424
#     4  10  23  46  69  99 142 184 230 286 353 424
#     4  12  29  45  66 103 147 184 235 295 355 424
#     4  10  20  39  68 102 136 176 226 289 352 410
#     4  10  23  44  74  99 136 186 233 287 349 420
#     4  12  24  42  69  97 137 185 236 284 351 418
#     4  10  20  39  67 104 136 171 230 293 343 414
#
# _framework density 21.085560000000001
#
# number of rings (size 3 to 8) (size 9 to 14) (size 15 to 20)
#    0.000    1.143    2.857    2.571    6.000    1.714 
#    0.000    0.714    0.000    0.000    0.000    0.000 
#    0.000    0.000    0.000    0.000    0.000    0.000 
#
# Total GULP energy -78106.525284 kJ/mol
# GULP energy per Si atom -5579.037520 kJ/mol
# Density = 2.103757 g / cm^3
# Si number density = 21.085560 Si / 1000 Ang^3
#
#
#
# Elastic Constant Matrix: (Units=GPa)
#
#
# Indices 1 2 3 4 5 6 
#
# 1 116.1018 48.5514 43.4235 -5.1094 10.3462 -13.8417
# 2 48.5514 117.0314 40.4341 -9.4399 10.6240 -12.2460
# 3 43.4235 40.4341 84.7775 -17.5414 9.7021 -6.2823
# 4 -5.1094 -9.4399 -17.5414 30.5151 2.4250 9.6983
# 5 10.3462 10.6240 9.7021 2.4250 34.3403 -2.8666
# 6 -13.8417 -12.2460 -6.2823 9.6983 -2.8666 35.1187
#
#
#
# Elastic Compliance Matrix: (Units=1/GPa)
#
#
# Indices 1 2 3 4 5 6 
#
# 1 0.012138 -0.003105 -0.004972 -0.002846 -0.000796 0.003533
# 2 -0.003105 0.011390 -0.003413 0.000571 -0.001509 0.001856
# 3 -0.004972 -0.003413 0.018177 0.009754 -0.003511 -0.002879
# 4 -0.002846 0.000571 0.009754 0.042148 -0.005995 -0.011306
# 5 -0.000796 -0.001509 -0.003511 -0.005995 0.031472 0.002757
# 6 0.003533 0.001856 -0.002879 -0.011306 0.002757 0.033347
#
#
# Mechanical properties :
#
#
# Convention : Reuss Voigt Hill
#
# Bulk Modulus (GPa) = 53.40918 64.74763 59.07840
# Shear Modulus (GPa) = 28.10654 32.36159 30.23407
#
# Velocity S-wave (km/s) = 3.65496 3.92187 3.79076
# Velocity P-wave (km/s) = 6.57239 7.16113 6.87307
#
# Compressibility (1/GPa) = 0.01872337
#
# Stress axis : x y z
#
# Youngs Moduli (GPa) = 82.38406 87.79994 55.01476
#
# Poissons Ratio (x) = 0.27266 0.27354
# Poissons Ratio (y) = 0.25584 0.18777
# Poissons Ratio (z) = 0.40963 0.29967
#
# Static dielectric constant tensor:
#      x y z
#    x 1.808930 0.013910 0.027080 
#    y 0.013910 1.845930 -0.109860 
#    z 0.027080 -0.109860 1.865500 
# 
# From -- ./inp_files/260414.got.cif
#   From: 2010.05.17/outbox.cif.g08.bks.cpg/sg2_131_cif.got.tgz:260414.got - 2010.06.03 11:33:40.
