data_PCOD9106358
_publ_section_title
;
Structure prediction by ZEFSAII (Michael W. Deem and Ramdas Pophale) SiO2 
 PCOD9106358
Probable space group: P -1
;
_chemical_formula_sum "Si O2"
_cell_formula_units_Z 16
_cell_length_a 4.986290
_cell_length_b 16.963306
_cell_length_c 12.346838
_cell_angle_alpha 51.773796
_cell_angle_beta 113.991342
_cell_angle_gamma 129.894397
_cell_volume 629.359176
_symmetry_space_group_name_H-M "P -1"
_symmetry_group_IT_number 2
_symmetry_cell_setting 'triclinic'
loop_
_space_group_symop_operation_xyz
x,y,z
-x,-y,-z
loop_
_atom_site_type_symbol
_atom_site_label
_atom_site_fract_x
_atom_site_fract_y
_atom_site_fract_z
Si Si1 0.305486 0.545642 0.663383
Si Si2 0.074468 0.470633 0.916287
Si Si3 0.091544 0.244900 0.122159
Si Si4 0.083880 0.901586 0.578366
Si Si5 0.668198 0.666833 0.211144
Si Si6 0.834081 0.077709 0.655723
Si Si7 0.887715 0.665610 0.476075
Si Si8 0.706390 0.864898 0.932004
O O1 0.156657 0.404276 0.741394
O O2 0.663498 0.611879 0.595385
O O3 0.302995 0.561446 0.779765
O O4 0.077679 0.596444 0.541804
O O5 0.694356 0.398500 0.857621
O O6 0.204468 0.380196 0.021104
O O7 0.000000 0.500000 0.000000
O O8 0.097660 0.204823 0.277606
O O9 0.686086 0.169634 0.078106
O O10 0.303541 0.206615 0.116476
O O11 0.949027 0.861637 0.469090
O O12 0.486452 0.971711 0.627345
O O13 0.000000 0.000000 0.500000
O O14 0.636845 0.647074 0.350707
O O15 0.834944 0.806388 0.090054
O O16 0.834655 0.190232 0.605002
O O17 0.923524 0.004993 0.815158
#
# Coordination Sequence:
#
# PCOD9106358 Si02
#       8
#     2   2   2   2   2   2   2   2
#     4  12  26  48  72 106 141 190 236 293 354 423
#     4  11  26  47  71 107 144 184 239 294 356 423
#     4  10  21  39  64  98 132 177 226 281 347 411
#     4  10  20  39  69  91 139 183 224 286 348 413
#     4  11  25  49  74 101 141 192 237 295 355 413
#     4  10  24  43  61 108 135 181 237 284 350 415
#     4  12  29  44  75 104 145 186 241 292 348 425
#     4  10  21  41  70  94 134 177 227 285 342 411
#
# _framework density 25.422685999999999
#
# number of rings (size 3 to 8) (size 9 to 14) (size 15 to 20)
#    0.000    1.250    3.750    0.750    5.250    1.000 
#    4.500    0.000    0.000    4.500    0.000    0.000 
#    0.000    0.000    0.000    0.000    0.000    0.000 
#
# Total GULP energy -89284.395393 kJ/mol
# GULP energy per Si atom -5580.274712 kJ/mol
# Density = 2.536482 g / cm^3
# Si number density = 25.422686 Si / 1000 Ang^3
#
#
#
# Elastic Constant Matrix: (Units=GPa)
#
#
# Indices 1 2 3 4 5 6 
#
# 1 97.7177 15.4908 38.7784 -5.4955 3.8011 -17.9400
# 2 15.4908 72.9199 48.4031 -15.3135 0.4865 -10.9683
# 3 38.7784 48.4031 205.0577 -29.6941 8.1139 -14.3735
# 4 -5.4955 -15.3135 -29.6941 46.1461 -15.1375 7.9573
# 5 3.8011 0.4865 8.1139 -15.1375 45.3722 -6.5683
# 6 -17.9400 -10.9683 -14.3735 7.9573 -6.5683 22.7257
#
#
#
# Elastic Compliance Matrix: (Units=1/GPa)
#
#
# Indices 1 2 3 4 5 6 
#
# 1 0.012624 -0.000353 -0.001864 -0.001336 0.000155 0.009129
# 2 -0.000353 0.017513 -0.003265 0.003493 0.002399 0.005578
# 3 -0.001864 -0.003265 0.006409 0.002810 -0.000015 0.000018
# 4 -0.001336 0.003493 0.002810 0.028037 0.008196 -0.005039
# 5 0.000155 0.002399 -0.000015 0.008196 0.025577 0.005794
# 6 0.009129 0.005578 0.000018 -0.005039 0.005794 0.057352
#
#
# Mechanical properties :
#
#
# Convention : Reuss Voigt Hill
#
# Bulk Modulus (GPa) = 39.09084 64.56001 51.82542
# Shear Modulus (GPa) = 29.93972 41.05032 35.49502
#
# Velocity S-wave (km/s) = 3.43545 4.02271 3.74062
# Velocity P-wave (km/s) = 5.58088 6.85755 6.25189
#
# Compressibility (1/GPa) = 0.02558144
#
# Stress axis : x y z
#
# Youngs Moduli (GPa) = 79.21438 57.10137 156.03932
#
# Poissons Ratio (x) = 0.02017 0.29081
# Poissons Ratio (y) = 0.02798 0.50947
# Poissons Ratio (z) = 0.14763 0.18644
#
# Static dielectric constant tensor:
#      x y z
#    x 2.060980 0.089210 -0.084580 
#    y 0.089210 2.272000 0.005270 
#    z -0.084580 0.005270 2.080030 
# 
# From -- ./inp_files/368928.got.cif
#   From: 2010.05.17/outbox.cif.g08.bks.cpg/sg2_185_cif.got.tgz:368928.got - 2010.06.03 11:33:40.
