data_PCOD9106948
_publ_section_title
;
Structure prediction by ZEFSAII (Michael W. Deem and Ramdas Pophale) SiO2 
 PCOD9106948
Probable space group: P -1
;
_chemical_formula_sum "Si O2"
_cell_formula_units_Z 14
_cell_length_a 7.862536
_cell_length_b 12.945360
_cell_length_c 20.434836
_cell_angle_alpha 153.673475
_cell_angle_beta 127.868005
_cell_angle_gamma 43.586901
_cell_volume 631.698544
_symmetry_space_group_name_H-M "P -1"
_symmetry_group_IT_number 2
_symmetry_cell_setting 'triclinic'
loop_
_space_group_symop_operation_xyz
x,y,z
-x,-y,-z
loop_
_atom_site_type_symbol
_atom_site_label
_atom_site_fract_x
_atom_site_fract_y
_atom_site_fract_z
Si Si1 0.331908 0.940484 0.878512
Si Si2 0.075568 0.649511 0.728362
Si Si3 0.623212 0.133930 0.851459
Si Si4 0.385655 0.150834 0.435223
Si Si5 0.122614 0.310092 0.659375
Si Si6 0.401118 0.546845 0.429822
Si Si7 0.877387 0.475301 0.082526
O O1 0.212020 0.797744 0.813103
O O2 0.485603 0.735575 0.741750
O O3 0.500000 0.000000 0.000000
O O4 0.114151 0.228737 0.966451
O O5 0.156306 0.387309 0.553445
O O6 0.150935 0.535010 0.753603
O O7 0.786482 0.869638 0.781988
O O8 0.327087 0.289123 0.876695
O O9 0.678367 0.029946 0.729707
O O10 0.724225 0.340200 0.001091
O O11 0.492632 0.287262 0.488979
O O12 0.613213 0.960689 0.428425
O O13 0.050082 0.400471 0.768856
O O14 0.896247 0.301431 0.565076
O O15 0.500000 0.500000 0.500000
#
# Coordination Sequence:
#
# PCOD9106948 Si02
#       7
#     2   2   2   2   2   2   2
#     4  10  20  40  62  88 126 161 202 249 307 365
#     4  10  21  35  61  92 117 161 203 252 303 358
#     4   9  18  34  57  85 118 149 206 243 298 354
#     4  10  21  38  59  87 123 166 195 253 310 357
#     4  11  21  37  60  88 124 157 214 246 298 368
#     4  11  23  39  62  92 123 161 204 250 307 363
#     4   9  19  35  59  87 115 165 195 249 304 355
#
# _framework density 22.162469000000002
#
# number of rings (size 3 to 8) (size 9 to 14) (size 15 to 20)
#    0.000    2.000    1.429    2.143    0.000    4.571 
#    2.571    1.429    0.000    9.429    0.000    0.000 
#    0.000    0.000    0.000    0.000    0.000    0.000 
#
# Total GULP energy -78214.753903 kJ/mol
# GULP energy per Si atom -5586.768136 kJ/mol
# Density = 2.211203 g / cm^3
# Si number density = 22.162469 Si / 1000 Ang^3
#
#
#
# Elastic Constant Matrix: (Units=GPa)
#
#
# Indices 1 2 3 4 5 6 
#
# 1 51.8913 33.0193 8.7512 -0.5437 1.8029 7.5921
# 2 33.0193 170.5980 38.8871 16.4204 -7.3853 -7.6974
# 3 8.7512 38.8871 90.9459 -2.0098 -2.0135 -5.6057
# 4 -0.5437 16.4204 -2.0098 44.0414 -13.2261 -3.5263
# 5 1.8029 -7.3853 -2.0135 -13.2261 14.4638 -4.8746
# 6 7.5921 -7.6974 -5.6057 -3.5263 -4.8746 19.3537
#
#
#
# Elastic Compliance Matrix: (Units=1/GPa)
#
#
# Indices 1 2 3 4 5 6 
#
# 1 0.026416 -0.005892 -0.001563 -0.003788 -0.016009 -0.017881
# 2 -0.005892 0.008182 -0.002454 -0.001046 0.005668 0.006092
# 3 -0.001563 -0.002454 0.012749 0.003710 0.005965 0.005508
# 4 -0.003788 -0.001046 0.003710 0.036979 0.040719 0.019138
# 5 -0.016009 0.005668 0.005965 0.040719 0.129002 0.050172
# 6 -0.017881 0.006092 0.005508 0.019138 0.050172 0.078826
#
#
# Mechanical properties :
#
#
# Convention : Reuss Voigt Hill
#
# Bulk Modulus (GPa) = 36.32374 52.75004 44.53689
# Shear Modulus (GPa) = 15.56914 31.09028 23.32971
#
# Velocity S-wave (km/s) = 2.65335 3.74951 3.24800
# Velocity P-wave (km/s) = 5.08058 6.52673 5.84853
#
# Compressibility (1/GPa) = 0.02753021
#
# Stress axis : x y z
#
# Youngs Moduli (GPa) = 37.85544 122.21501 78.43920
#
# Poissons Ratio (x) = 0.72007 0.12259
# Poissons Ratio (y) = 0.22304 0.19248
# Poissons Ratio (z) = 0.05916 0.29990
#
# Static dielectric constant tensor:
#      x y z
#    x 1.793930 -0.029240 0.015170 
#    y -0.029240 1.831560 0.023490 
#    z 0.015170 0.023490 1.816760 
# 
# From -- ./inp_files/175044.got.cif
#   From: 2010.05.17/outbox.cif.g08.bks.cpg/sg2_88_cif.got.tgz:175044.got - 2010.06.03 11:33:40.
