data_PCOD9106159
_publ_section_title
;
Structure prediction by ZEFSAII (Michael W. Deem and Ramdas Pophale) SiO2 
 PCOD9106159
Probable space group: P -1
;
_chemical_formula_sum "Si O2"
_cell_formula_units_Z 15
_cell_length_a 14.100902
_cell_length_b 4.849372
_cell_length_c 9.089217
_cell_angle_alpha 86.000580
_cell_angle_beta 57.070912
_cell_angle_gamma 89.104135
_cell_volume 520.218939
_symmetry_space_group_name_H-M "P -1"
_symmetry_group_IT_number 2
_symmetry_cell_setting 'triclinic'
loop_
_space_group_symop_operation_xyz
x,y,z
-x,-y,-z
loop_
_atom_site_type_symbol
_atom_site_label
_atom_site_fract_x
_atom_site_fract_y
_atom_site_fract_z
Si Si1 0.000000 0.500000 0.500000
Si Si2 0.375314 0.946404 0.410160
Si Si3 0.595811 0.827283 0.303219
Si Si4 0.737041 0.736116 0.740675
Si Si5 0.837737 0.422989 0.394725
Si Si6 0.067123 0.099062 0.273840
Si Si7 0.841203 0.582686 0.072690
Si Si8 0.719673 0.225354 0.972985
O O1 0.940074 0.295024 0.408196
O O2 0.981402 0.203207 0.635691
O O3 0.475619 0.724513 0.345572
O O4 0.252917 0.813824 0.559351
O O5 0.408237 0.123967 0.520440
O O6 0.361773 0.068701 0.254730
O O7 0.710441 0.665623 0.192239
O O8 0.624649 0.089934 0.161592
O O9 0.769053 0.620557 0.550096
O O10 0.685365 0.483971 0.894159
O O11 0.880931 0.657896 0.664295
O O12 0.883718 0.549218 0.201640
O O13 0.221155 0.004968 0.175330
O O14 0.084774 0.200001 0.089844
O O15 0.820266 0.318636 0.996808
#
# Coordination Sequence:
#
# PCOD9106159 Si02
#       8
#     1   2   2   2   2   2   2   2
#     4  10  24  46  72 102 132 170 226 282 340 400
#     4  11  22  38  64 102 136 179 230 271 326 393
#     4  10  22  38  64 100 139 179 225 271 326 398
#     4  10  21  39  63  92 137 181 222 277 322 387
#     4  11  22  41  67  97 135 176 221 281 339 395
#     4   9  21  42  66  96 134 170 224 281 330 403
#     4  10  20  39  67  96 138 175 218 278 336 392
#     4  10  20  41  65  94 136 187 216 271 334 392
#
# _framework density 28.834008999999998
#
# number of rings (size 3 to 8) (size 9 to 14) (size 15 to 20)
#    0.000    1.867    2.667    0.800    0.000    2.667 
#    0.000   26.667    0.000    9.600    0.000    0.000 
#    0.000    0.000    0.000    0.000    0.000    0.000 
#
# Total GULP energy -83830.630127 kJ/mol
# GULP energy per Si atom -5588.708675 kJ/mol
# Density = 2.876838 g / cm^3
# Si number density = 28.834009 Si / 1000 Ang^3
#
#
#
# Elastic Constant Matrix: (Units=GPa)
#
#
# Indices 1 2 3 4 5 6 
#
# 1 198.0292 29.0764 52.2704 -8.1844 35.1836 -5.9515
# 2 29.0764 160.5932 66.4527 -12.1834 13.1728 -12.0861
# 3 52.2704 66.4527 200.1032 -23.1010 41.2786 -2.9628
# 4 -8.1844 -12.1834 -23.1010 52.5282 -4.0838 -6.5491
# 5 35.1836 13.1728 41.2786 -4.0838 59.9551 4.3232
# 6 -5.9515 -12.0861 -2.9628 -6.5491 4.3232 29.4311
#
#
#
# Elastic Compliance Matrix: (Units=1/GPa)
#
#
# Indices 1 2 3 4 5 6 
#
# 1 0.005885 -0.000374 -0.000729 0.000467 -0.002945 0.001500
# 2 -0.000374 0.007530 -0.002222 0.001086 -0.000051 0.003042
# 3 -0.000729 -0.002222 0.006974 0.002230 -0.003784 0.000694
# 4 0.000467 0.001086 0.002230 0.020959 -0.001023 0.005579
# 5 -0.002945 -0.000051 -0.003784 -0.001023 0.021268 -0.004349
# 6 0.001500 0.003042 0.000694 0.005579 -0.004349 0.037481
#
#
# Mechanical properties :
#
#
# Convention : Reuss Voigt Hill
#
# Bulk Modulus (GPa) = 72.78884 94.92496 83.85690
# Shear Modulus (GPa) = 44.91338 55.77794 50.34566
#
# Velocity S-wave (km/s) = 3.95099 4.40301 4.18311
# Velocity P-wave (km/s) = 6.79063 7.67081 7.24410
#
# Compressibility (1/GPa) = 0.01373837
#
# Stress axis : x y z
#
# Youngs Moduli (GPa) = 169.92751 132.81050 143.38738
#
# Poissons Ratio (x) = 0.04964 0.10457
# Poissons Ratio (y) = 0.06351 0.31861
# Poissons Ratio (z) = 0.12393 0.29510
#
# Static dielectric constant tensor:
#      x y z
#    x 2.449130 -0.191960 -0.184450 
#    y -0.191960 2.411880 0.207650 
#    z -0.184450 0.207650 2.279190 
# 
# From -- ./inp_files/34443.got.cif
#   From: 2010.05.17/outbox.cif.g08.bks.cpg/sg2_18_cif.got.tgz:34443.got - 2010.06.03 11:33:40.
