data_PCOD9106222
_publ_section_title
;
Structure prediction by ZEFSAII (Michael W. Deem and Ramdas Pophale) SiO2 
 PCOD9106222
Probable space group: P -1
;
_chemical_formula_sum "Si O2"
_cell_formula_units_Z 16
_cell_length_a 11.690127
_cell_length_b 9.321337
_cell_length_c 8.871009
_cell_angle_alpha 85.825681
_cell_angle_beta 112.218213
_cell_angle_gamma 119.150378
_cell_volume 774.083287
_symmetry_space_group_name_H-M "P -1"
_symmetry_group_IT_number 2
_symmetry_cell_setting 'triclinic'
loop_
_space_group_symop_operation_xyz
x,y,z
-x,-y,-z
loop_
_atom_site_type_symbol
_atom_site_label
_atom_site_fract_x
_atom_site_fract_y
_atom_site_fract_z
Si Si1 0.633588 0.079903 0.450676
Si Si2 0.340606 0.524854 0.112508
Si Si3 0.194365 0.669284 0.224700
Si Si4 0.346930 0.215730 0.445020
Si Si5 0.401692 0.513864 0.637698
Si Si6 0.695103 0.312933 0.213542
Si Si7 0.891195 0.832640 0.876606
Si Si8 0.069845 0.694550 0.853699
O O1 0.754852 0.221657 0.607318
O O2 0.601433 0.148477 0.277559
O O3 0.500000 0.000000 0.500000
O O4 0.662592 0.929324 0.445959
O O5 0.307728 0.615306 0.226894
O O6 0.480863 0.509858 0.207339
O O7 0.202066 0.337682 0.058470
O O8 0.354919 0.634849 0.966101
O O9 0.047821 0.499276 0.189576
O O10 0.159554 0.743549 0.052339
O O11 0.324499 0.351263 0.511199
O O12 0.497425 0.326853 0.426982
O O13 0.226707 0.138902 0.264946
O O14 0.293238 0.546628 0.676003
O O15 0.826841 0.290530 0.230826
O O16 0.982866 0.791469 0.807303
O O17 0.000000 0.000000 0.000000
#
# Coordination Sequence:
#
# PCOD9106222 Si02
#       8
#     2   2   2   2   2   2   2   2
#     4  12  23  39  61  93 126 162 203 252 311 365
#     4   9  20  39  65  92 117 160 209 252 300 367
#     4   9  19  38  65  84 119 161 203 249 300 368
#     4  10  22  38  62  90 118 164 210 247 300 367
#     4  10  20  40  63  86 123 161 204 251 306 365
#     4  11  23  38  63  94 126 159 204 256 308 363
#     4  10  20  39  68  87 123 163 207 248 302 366
#     4   9  20  40  61  91 116 158 210 247 300 362
#
# _framework density 20.669612000000001
#
# number of rings (size 3 to 8) (size 9 to 14) (size 15 to 20)
#    0.000    2.000    1.250    2.625    5.250    0.500 
#    2.250    6.250    0.000    0.000    0.000    0.000 
#    0.000    0.000    0.000    0.000    0.000    0.000 
#
# Total GULP energy -89186.748435 kJ/mol
# GULP energy per Si atom -5574.171777 kJ/mol
# Density = 2.062257 g / cm^3
# Si number density = 20.669612 Si / 1000 Ang^3
#
#
#
# Elastic Constant Matrix: (Units=GPa)
#
#
# Indices 1 2 3 4 5 6 
#
# 1 64.4515 10.0504 17.1889 -2.1357 -13.0618 -2.3781
# 2 10.0504 93.7273 42.4068 -11.7796 5.0362 -4.6246
# 3 17.1889 42.4068 71.4513 -8.3069 8.0797 14.0701
# 4 -2.1357 -11.7796 -8.3069 45.0045 2.9845 0.0128
# 5 -13.0618 5.0362 8.0797 2.9845 31.1286 4.8779
# 6 -2.3781 -4.6246 14.0701 0.0128 4.8779 21.8396
#
#
#
# Elastic Compliance Matrix: (Units=1/GPa)
#
#
# Indices 1 2 3 4 5 6 
#
# 1 0.019329 0.000861 -0.007259 -0.000806 0.009162 0.004917
# 2 0.000861 0.017078 -0.012269 0.002330 -0.001306 0.011905
# 3 -0.007259 -0.012269 0.027811 0.001936 -0.005312 -0.020120
# 4 -0.000806 0.002330 0.001936 0.023377 -0.003446 -0.000086
# 5 0.009162 -0.001306 -0.005312 -0.003446 0.038591 -0.004474
# 6 0.004917 0.011905 -0.020120 -0.000086 -0.004474 0.062806
#
#
# Mechanical properties :
#
#
# Convention : Reuss Voigt Hill
#
# Bulk Modulus (GPa) = 37.19647 40.99139 39.09393
# Shear Modulus (GPa) = 21.25055 30.26015 25.75535
#
# Velocity S-wave (km/s) = 3.20989 3.83037 3.53377
# Velocity P-wave (km/s) = 5.63672 6.27989 5.96698
#
# Compressibility (1/GPa) = 0.02688427
#
# Stress axis : x y z
#
# Youngs Moduli (GPa) = 51.73642 58.55370 35.95678
#
# Poissons Ratio (x) = -0.05039 0.26100
# Poissons Ratio (y) = -0.04452 0.44115
# Poissons Ratio (z) = 0.37554 0.71838
#
# Static dielectric constant tensor:
#      x y z
#    x 1.760130 -0.020540 0.014790 
#    y -0.020540 1.754350 -0.012720 
#    z 0.014790 -0.012720 1.779830 
# 
# From -- ./inp_files/239278.got.cif
#   From: 2010.05.17/outbox.cif.g08.bks.cpg/sg2_120_cif.got.tgz:239278.got - 2010.06.03 11:33:40.
