data_PCOD9106070
_publ_section_title
;
Structure prediction by ZEFSAII (Michael W. Deem and Ramdas Pophale) SiO2 
 PCOD9106070
Probable space group: P -1
;
_chemical_formula_sum "Si O2"
_cell_formula_units_Z 16
_cell_length_a 10.402983
_cell_length_b 8.260218
_cell_length_c 22.338804
_cell_angle_alpha 150.333669
_cell_angle_beta 128.306829
_cell_angle_gamma 64.415532
_cell_volume 716.814777
_symmetry_space_group_name_H-M "P -1"
_symmetry_group_IT_number 2
_symmetry_cell_setting 'triclinic'
loop_
_space_group_symop_operation_xyz
x,y,z
-x,-y,-z
loop_
_atom_site_type_symbol
_atom_site_label
_atom_site_fract_x
_atom_site_fract_y
_atom_site_fract_z
Si Si1 0.619126 0.680890 0.367770
Si Si2 0.950696 0.393691 0.048345
Si Si3 0.806007 0.271368 0.371469
Si Si4 0.665671 0.320230 0.151966
Si Si5 0.981717 0.033224 0.173955
Si Si6 0.273666 0.782999 0.334605
Si Si7 0.676234 0.586868 0.541839
Si Si8 0.315644 0.493749 0.920550
O O1 0.702345 0.417460 0.339569
O O2 0.634192 0.613241 0.280431
O O3 0.425093 0.613948 0.311566
O O4 0.712188 0.049488 0.541669
O O5 0.947029 0.702999 0.101275
O O6 0.768482 0.274402 0.988771
O O7 0.093597 0.539775 0.186286
O O8 0.999077 0.108342 0.931753
O O9 0.714336 0.298962 0.417176
O O10 0.000000 0.500000 0.500000
O O11 0.800483 0.891960 0.231507
O O12 0.688461 0.425529 0.123843
O O13 0.828305 0.205670 0.185370
O O14 0.500000 0.000000 0.000000
O O15 0.160650 0.283605 0.326685
O O16 0.314304 0.102106 0.402071
O O17 0.500000 0.500000 0.500000
O O18 0.500000 0.500000 0.000000
#
# Coordination Sequence:
#
# PCOD9106070 Si02
#       8
#     2   2   2   2   2   2   2   2
#     4  10  20  39  67  91 130 169 224 265 332 387
#     4  10  21  42  68  92 131 170 222 267 334 401
#     4  11  23  45  67  93 136 180 224 275 338 404
#     4  12  25  43  65  98 135 176 223 282 331 398
#     4  10  22  42  67  95 130 178 215 274 333 397
#     4   9  20  39  65  96 126 178 213 270 335 392
#     4  10  22  38  63  97 137 171 219 274 335 399
#     4  12  27  42  68  99 131 176 223 275 337 406
#
# _framework density 22.320968000000001
#
# number of rings (size 3 to 8) (size 9 to 14) (size 15 to 20)
#    0.000    1.500    0.000    6.000    3.500    1.500 
#    9.000    3.125    0.000    0.000    0.000    0.000 
#    0.000    0.000    0.000    0.000    0.000    0.000 
#
# Total GULP energy -89537.652510 kJ/mol
# GULP energy per Si atom -5596.103282 kJ/mol
# Density = 2.227016 g / cm^3
# Si number density = 22.320968 Si / 1000 Ang^3
#
#
#
# Elastic Constant Matrix: (Units=GPa)
#
#
# Indices 1 2 3 4 5 6 
#
# 1 151.8855 23.4049 54.3952 -16.1713 -34.4688 -15.4643
# 2 23.4049 77.4735 18.5460 -17.9673 6.4579 -18.8565
# 3 54.3952 18.5460 76.3578 -27.2112 -11.1299 -5.9227
# 4 -16.1713 -17.9673 -27.2112 32.9773 -4.0020 4.4523
# 5 -34.4688 6.4579 -11.1299 -4.0020 41.8513 -3.1460
# 6 -15.4643 -18.8565 -5.9227 4.4523 -3.1460 32.8816
#
#
#
# Elastic Compliance Matrix: (Units=1/GPa)
#
#
# Indices 1 2 3 4 5 6 
#
# 1 0.011328 -0.001641 -0.006132 0.000055 0.008263 0.004065
# 2 -0.001641 0.017233 -0.000380 0.006865 -0.002866 0.007839
# 3 -0.006132 -0.000380 0.024007 0.017064 0.002964 -0.000804
# 4 0.000055 0.006865 0.017064 0.049018 0.008301 0.001193
# 5 0.008263 -0.002866 0.002964 0.008301 0.033086 0.004818
# 6 0.004065 0.007839 -0.000804 0.001193 0.004818 0.036974
#
#
# Mechanical properties :
#
#
# Convention : Reuss Voigt Hill
#
# Bulk Modulus (GPa) = 27.57619 55.37880 41.47749
# Shear Modulus (GPa) = 24.99521 35.50009 30.24765
#
# Velocity S-wave (km/s) = 3.34998 3.99235 3.68519
# Velocity P-wave (km/s) = 5.22919 6.79087 6.06054
#
# Compressibility (1/GPa) = 0.03626317
#
# Stress axis : x y z
#
# Youngs Moduli (GPa) = 88.28000 58.02753 41.65410
#
# Poissons Ratio (x) = 0.09521 0.25540
# Poissons Ratio (y) = 0.14485 0.01583
# Poissons Ratio (z) = 0.54129 0.02205
#
# Static dielectric constant tensor:
#      x y z
#    x 1.890590 0.063790 -0.002620 
#    y 0.063790 1.845890 0.038780 
#    z -0.002620 0.038780 1.833690 
# 
# From -- ./inp_files/606957.got.cif
#   From: 2010.05.17/outbox.cif.g08.bks.cpg/sg2_304_cif.got.tgz:606957.got - 2010.06.03 11:33:40.
