data_PCOD9106172
_publ_section_title
;
Structure prediction by ZEFSAII (Michael W. Deem and Ramdas Pophale) SiO2 
 PCOD9106172
Probable space group: P -1
;
_chemical_formula_sum "Si O2"
_cell_formula_units_Z 15
_cell_length_a 11.211943
_cell_length_b 11.375081
_cell_length_c 10.250852
_cell_angle_alpha 129.398482
_cell_angle_beta 91.634660
_cell_angle_gamma 53.764234
_cell_volume 677.213235
_symmetry_space_group_name_H-M "P -1"
_symmetry_group_IT_number 2
_symmetry_cell_setting 'triclinic'
loop_
_space_group_symop_operation_xyz
x,y,z
-x,-y,-z
loop_
_atom_site_type_symbol
_atom_site_label
_atom_site_fract_x
_atom_site_fract_y
_atom_site_fract_z
Si Si1 0.680002 0.250266 0.877062
Si Si2 0.998190 0.388917 0.301457
Si Si3 0.462254 0.169255 0.784098
Si Si4 0.000000 0.000000 0.500000
Si Si5 0.190819 0.896410 0.941370
Si Si6 0.382723 0.315087 0.597162
Si Si7 0.724093 0.135066 0.366604
Si Si8 0.862786 0.659298 0.993030
O O1 0.625475 0.124312 0.786125
O O2 0.720367 0.251161 0.029043
O O3 0.500000 0.500000 0.000000
O O4 0.842158 0.130195 0.700186
O O5 0.805430 0.496089 0.347198
O O6 0.000000 0.500000 0.500000
O O7 0.146403 0.117125 0.120477
O O8 0.039308 0.447781 0.215588
O O9 0.369203 0.323036 0.758926
O O10 0.303764 0.297874 0.973135
O O11 0.539166 0.928175 0.598157
O O12 0.148079 0.901130 0.552356
O O13 0.281161 0.793169 0.729791
O O14 0.000000 0.000000 0.000000
O O15 0.531026 0.289918 0.531893
O O16 0.801664 0.890840 0.175123
O O17 0.000000 0.500000 0.000000
#
# Coordination Sequence:
#
# PCOD9106172 Si02
#       8
#     2   2   2   1   2   2   2   2
#     4  12  28  46  70 100 139 184 239 291 348 424
#     4  11  24  41  68 100 135 178 231 288 348 419
#     4  10  21  39  64  99 129 171 227 286 332 408
#     4  12  24  44  70 100 136 182 240 278 336 430
#     4  11  25  46  66  96 144 183 222 289 357 415
#     4  10  20  39  67  97 132 171 226 286 343 409
#     4  10  23  42  66  96 138 182 223 286 347 414
#     4  10  21  37  66  94 130 174 222 277 346 399
#
# _framework density 22.149595999999999
#
# number of rings (size 3 to 8) (size 9 to 14) (size 15 to 20)
#    0.000    1.333    4.000    0.800    3.733    2.133 
#    2.400    5.333    0.000    0.000    0.000    0.000 
#    0.000    0.000    0.000    0.000    0.000    0.000 
#
# Total GULP energy -83605.160266 kJ/mol
# GULP energy per Si atom -5573.677351 kJ/mol
# Density = 2.209918 g / cm^3
# Si number density = 22.149596 Si / 1000 Ang^3
#
#
#
# Elastic Constant Matrix: (Units=GPa)
#
#
# Indices 1 2 3 4 5 6 
#
# 1 128.3189 43.7889 70.4830 -16.6338 -38.0892 -22.0740
# 2 43.7889 141.8014 64.5555 -31.3468 -13.8770 -15.5020
# 3 70.4830 64.5555 133.6132 -40.8876 -26.6312 -9.5548
# 4 -16.6338 -31.3468 -40.8876 39.1297 0.0074 3.6118
# 5 -38.0892 -13.8770 -26.6312 0.0074 47.8619 -0.0044
# 6 -22.0740 -15.5020 -9.5548 3.6118 -0.0044 37.0571
#
#
#
# Elastic Compliance Matrix: (Units=1/GPa)
#
#
# Indices 1 2 3 4 5 6 
#
# 1 0.014630 -0.000566 -0.005416 -0.000554 0.008466 0.007136
# 2 -0.000566 0.009841 -0.002677 0.004602 0.000913 0.002641
# 3 -0.005416 -0.002677 0.016157 0.012565 0.003902 -0.001404
# 4 -0.000554 0.004602 0.012565 0.042067 0.007878 0.000736
# 5 0.008466 0.000913 0.003902 0.007878 0.030066 0.005666
# 6 0.007136 0.002641 -0.001404 0.000736 0.005666 0.031908
#
#
# Mechanical properties :
#
#
# Convention : Reuss Voigt Hill
#
# Bulk Modulus (GPa) = 42.90016 84.59871 63.74944
# Shear Modulus (GPa) = 29.45407 39.80349 34.62878
#
# Velocity S-wave (km/s) = 3.65057 4.24374 3.95828
# Velocity P-wave (km/s) = 6.09748 7.89237 7.05226
#
# Compressibility (1/GPa) = 0.02330993
#
# Stress axis : x y z
#
# Youngs Moduli (GPa) = 68.35384 101.61618 61.89296
#
# Poissons Ratio (x) = 0.05751 0.33519
# Poissons Ratio (y) = 0.03869 0.16570
# Poissons Ratio (z) = 0.37018 0.27204
#
# Static dielectric constant tensor:
#      x y z
#    x 1.830860 0.032560 0.027110 
#    y 0.032560 1.778040 -0.015170 
#    z 0.027110 -0.015170 1.794330 
# 
# From -- ./inp_files/199821.got.cif
#   From: 2010.05.17/outbox.cif.g08.bks.cpg/sg2_100_cif.got.tgz:199821.got - 2010.06.03 11:33:40.
