data_PCOD9106399
_publ_section_title
;
Structure prediction by ZEFSAII (Michael W. Deem and Ramdas Pophale) SiO2 
 PCOD9106399
Probable space group: P -1
;
_chemical_formula_sum "Si O2"
_cell_formula_units_Z 14
_cell_length_a 14.972880
_cell_length_b 8.922002
_cell_length_c 8.664712
_cell_angle_alpha 95.621237
_cell_angle_beta 43.940000
_cell_angle_gamma 125.428307
_cell_volume 540.006896
_symmetry_space_group_name_H-M "P -1"
_symmetry_group_IT_number 2
_symmetry_cell_setting 'triclinic'
loop_
_space_group_symop_operation_xyz
x,y,z
-x,-y,-z
loop_
_atom_site_type_symbol
_atom_site_label
_atom_site_fract_x
_atom_site_fract_y
_atom_site_fract_z
Si Si1 0.123525 0.407251 0.874258
Si Si2 0.882059 0.788942 0.865299
Si Si3 0.206501 0.954711 0.961047
Si Si4 0.953305 0.288101 0.580014
Si Si5 0.688818 0.511181 0.644908
Si Si6 0.521152 0.679204 0.819063
Si Si7 0.468491 0.821635 0.619219
O O1 0.274341 0.545106 0.562562
O O2 0.240071 0.600514 0.876957
O O3 0.922596 0.250691 0.022903
O O4 0.107909 0.239063 0.969246
O O5 0.038753 0.819689 0.585970
O O6 0.895356 0.978409 0.854385
O O7 0.673843 0.564574 0.032679
O O8 0.219538 0.876977 0.099177
O O9 0.392591 0.164948 0.655885
O O10 0.132465 0.384473 0.465563
O O11 0.000000 0.500000 0.500000
O O12 0.669489 0.669309 0.635657
O O13 0.515718 0.322638 0.954583
O O14 0.542104 0.844319 0.702074
O O15 0.500000 0.000000 0.500000
#
# Coordination Sequence:
#
# PCOD9106399 Si02
#       7
#     2   2   2   2   2   2   2
#     4  10  22  41  66  96 136 166 226 277 332 388
#     4  10  20  39  69  98 130 178 226 273 335 405
#     4  11  23  40  69  96 133 176 229 272 334 407
#     4  10  23  40  65  97 137 178 220 280 344 395
#     4   9  18  37  65  91 128 175 218 266 336 387
#     4   9  19  37  66  94 135 174 219 278 328 389
#     4  11  25  42  65 100 139 180 225 275 343 402
#
# _framework density 25.925594
#
# number of rings (size 3 to 8) (size 9 to 14) (size 15 to 20)
#    0.000    2.000    0.000    2.571    6.000    4.000 
#    2.571    3.571    0.000    0.000    0.000    0.000 
#    0.000    0.000    0.000    0.000    0.000    0.000 
#
# Total GULP energy -78025.806945 kJ/mol
# GULP energy per Si atom -5573.271925 kJ/mol
# Density = 2.586659 g / cm^3
# Si number density = 25.925594 Si / 1000 Ang^3
#
#
#
# Elastic Constant Matrix: (Units=GPa)
#
#
# Indices 1 2 3 4 5 6 
#
# 1 159.0232 46.0811 18.2338 -7.1930 18.7330 -21.2232
# 2 46.0811 63.4969 7.7862 -3.9745 0.1358 -14.5408
# 3 18.2338 7.7862 59.1472 9.5580 23.5715 2.8376
# 4 -7.1930 -3.9745 9.5580 35.8010 -0.2575 -2.1518
# 5 18.7330 0.1358 23.5715 -0.2575 51.1829 -17.8309
# 6 -21.2232 -14.5408 2.8376 -2.1518 -17.8309 52.2251
#
#
#
# Elastic Compliance Matrix: (Units=1/GPa)
#
#
# Indices 1 2 3 4 5 6 
#
# 1 0.008570 -0.005625 -0.001432 0.001549 -0.001972 0.001385
# 2 -0.005625 0.021996 -0.004435 0.002922 0.006266 0.006339
# 3 -0.001432 -0.004435 0.025229 -0.008116 -0.014018 -0.008308
# 4 0.001549 0.002922 -0.008116 0.031064 0.005018 0.004877
# 5 -0.001972 0.006266 -0.014018 0.005018 0.031087 0.012526
# 6 0.001385 0.006339 -0.008308 0.004877 0.012526 0.026404
#
#
# Mechanical properties :
#
#
# Convention : Reuss Voigt Hill
#
# Bulk Modulus (GPa) = 30.47856 47.31886 38.89871
# Shear Modulus (GPa) = 28.04702 41.81290 34.92996
#
# Velocity S-wave (km/s) = 3.29268 4.02033 3.67456
# Velocity P-wave (km/s) = 5.12224 6.31206 5.74802
#
# Compressibility (1/GPa) = 0.03280995
#
# Stress axis : x y z
#
# Youngs Moduli (GPa) = 116.68765 45.46234 39.63724
#
# Poissons Ratio (x) = 0.25575 0.05677
# Poissons Ratio (y) = 0.65642 0.17578
# Poissons Ratio (z) = 0.16712 0.20162
#
# Static dielectric constant tensor:
#      x y z
#    x 2.055810 0.044350 -0.051070 
#    y 0.044350 2.128540 0.031830 
#    z -0.051070 0.031830 2.282730 
# 
# From -- ./inp_files/239770.got.cif
#   From: 2010.05.17/outbox.cif.g08.bks.cpg/sg2_120_cif.got.tgz:239770.got - 2010.06.03 11:33:40.
