data_PCOD9106702
_publ_section_title
;
Structure prediction by ZEFSAII (Michael W. Deem and Ramdas Pophale) SiO2 
 PCOD9106702
Probable space group: P -1
;
_chemical_formula_sum "Si O2"
_cell_formula_units_Z 14
_cell_length_a 9.883033
_cell_length_b 9.528409
_cell_length_c 10.372315
_cell_angle_alpha 50.812627
_cell_angle_beta 111.283495
_cell_angle_gamma 123.725110
_cell_volume 629.549606
_symmetry_space_group_name_H-M "P -1"
_symmetry_group_IT_number 2
_symmetry_cell_setting 'triclinic'
loop_
_space_group_symop_operation_xyz
x,y,z
-x,-y,-z
loop_
_atom_site_type_symbol
_atom_site_label
_atom_site_fract_x
_atom_site_fract_y
_atom_site_fract_z
Si Si1 0.672569 0.686871 0.428560
Si Si2 0.621959 0.906463 0.508677
Si Si3 0.999881 0.119036 0.061819
Si Si4 0.936691 0.706054 0.371494
Si Si5 0.259894 0.693770 0.555935
Si Si6 0.356625 0.277091 0.099604
Si Si7 0.647060 0.953383 0.031372
O O1 0.500000 0.500000 0.500000
O O2 0.709822 0.839922 0.470390
O O3 0.815133 0.619093 0.500618
O O4 0.650546 0.789533 0.229799
O O5 0.428462 0.791335 0.479845
O O6 0.630527 0.822253 0.702659
O O7 0.693524 0.149300 0.400408
O O8 0.183642 0.285325 0.043564
O O9 0.976716 0.940093 0.256471
O O10 0.832950 0.138468 0.994930
O O11 0.000000 0.000000 0.000000
O O12 0.819321 0.549601 0.312748
O O13 0.109471 0.707967 0.426395
O O14 0.500000 0.500000 0.000000
O O15 0.366230 0.141470 0.061259
O O16 0.500000 0.000000 0.000000
#
# Coordination Sequence:
#
# PCOD9106702 Si02
#       7
#     2   2   2   2   2   2   2
#     4  11  22  40  62  89 125 165 201 248 308 370
#     4  11  23  38  62  94 126 154 206 261 303 353
#     4   9  20  39  62  83 119 166 205 236 302 383
#     4  10  20  40  60  88 122 163 204 244 308 369
#     4  10  22  36  60  92 123 158 201 258 301 361
#     4  11  23  42  64  89 121 165 206 253 311 368
#     4  10  24  42  63  89 123 165 205 253 306 369
#
# _framework density 22.238121
#
# number of rings (size 3 to 8) (size 9 to 14) (size 15 to 20)
#    0.000    1.714    2.857    0.857    8.000    0.571 
#    0.000    0.714    0.000    0.000    0.000    0.000 
#    0.000    0.000    0.000    0.000    0.000    0.000 
#
# Total GULP energy -77942.628200 kJ/mol
# GULP energy per Si atom -5567.330586 kJ/mol
# Density = 2.218751 g / cm^3
# Si number density = 22.238121 Si / 1000 Ang^3
#
#
#
# Elastic Constant Matrix: (Units=GPa)
#
#
# Indices 1 2 3 4 5 6 
#
# 1 193.2030 57.2886 25.2336 4.1691 2.4980 23.4681
# 2 57.2886 122.5096 13.5205 -7.1354 -7.9039 16.0774
# 3 25.2336 13.5205 58.6896 13.2210 -8.1398 -3.8433
# 4 4.1691 -7.1354 13.2210 25.5855 -3.6955 -15.5845
# 5 2.4980 -7.9039 -8.1398 -3.6955 21.6620 -1.4755
# 6 23.4681 16.0774 -3.8433 -15.5845 -1.4755 54.6489
#
#
#
# Elastic Compliance Matrix: (Units=1/GPa)
#
#
# Indices 1 2 3 4 5 6 
#
# 1 0.006852 -0.002946 -0.002226 -0.003277 -0.003483 -0.003261
# 2 -0.002946 0.010311 -0.001561 0.004480 0.004247 -0.000486
# 3 -0.002226 -0.001561 0.021503 -0.010201 0.006039 0.000181
# 4 -0.003277 0.004480 -0.010201 0.057130 0.009009 0.015908
# 5 -0.003483 0.004247 0.006039 0.009009 0.052238 0.004650
# 6 -0.003261 -0.000486 0.000181 0.015908 0.004650 0.024517
#
#
# Mechanical properties :
#
#
# Convention : Reuss Voigt Hill
#
# Bulk Modulus (GPa) = 39.68077 62.94305 51.31191
# Shear Modulus (GPa) = 25.71808 38.93658 32.32733
#
# Velocity S-wave (km/s) = 3.40440 4.18891 3.81686
# Velocity P-wave (km/s) = 5.77370 7.19455 6.52293
#
# Compressibility (1/GPa) = 0.02520112
#
# Stress axis : x y z
#
# Youngs Moduli (GPa) = 145.94201 96.98155 46.50586
#
# Poissons Ratio (x) = 0.28573 0.10350
# Poissons Ratio (y) = 0.42997 0.07258
# Poissons Ratio (z) = 0.32480 0.15135
#
# Static dielectric constant tensor:
#      x y z
#    x 1.930550 0.000320 0.040150 
#    y 0.000320 1.853580 0.001750 
#    z 0.040150 0.001750 1.751540 
# 
# From -- ./inp_files/353424.got.cif
#   From: 2010.05.17/outbox.cif.g08.bks.cpg/sg2_177_cif.got.tgz:353424.got - 2010.06.03 11:33:40.
