data_PCOD9106244
_publ_section_title
;
Structure prediction by ZEFSAII (Michael W. Deem and Ramdas Pophale) SiO2 
 PCOD9106244
Probable space group: P -1
;
_chemical_formula_sum "Si O2"
_cell_formula_units_Z 16
_cell_length_a 25.754787
_cell_length_b 5.401541
_cell_length_c 6.453985
_cell_angle_alpha 78.790953
_cell_angle_beta 77.503825
_cell_angle_gamma 48.575109
_cell_volume 655.669147
_symmetry_space_group_name_H-M "P -1"
_symmetry_group_IT_number 2
_symmetry_cell_setting 'triclinic'
loop_
_space_group_symop_operation_xyz
x,y,z
-x,-y,-z
loop_
_atom_site_type_symbol
_atom_site_label
_atom_site_fract_x
_atom_site_fract_y
_atom_site_fract_z
Si Si1 0.600333 0.584630 0.120217
Si Si2 0.008306 0.694417 0.638443
Si Si3 0.331232 0.407077 0.568467
Si Si4 0.546888 0.126280 0.719927
Si Si5 0.867764 0.178316 0.906276
Si Si6 0.151890 0.296814 0.830963
Si Si7 0.229541 0.392972 0.448386
Si Si8 0.643779 0.180795 0.796690
O O1 0.652314 0.577833 0.215744
O O2 0.533183 0.686131 0.283764
O O3 0.642716 0.233181 0.030765
O O4 0.571847 0.844644 0.915182
O O5 0.000000 0.500000 0.500000
O O6 0.082620 0.461517 0.726265
O O7 0.947924 0.864385 0.836577
O O8 0.000000 0.000000 0.500000
O O9 0.257975 0.505187 0.570466
O O10 0.336959 0.636925 0.384640
O O11 0.400232 0.042918 0.489989
O O12 0.566077 0.329629 0.780250
O O13 0.835177 0.351925 0.683689
O O14 0.859950 0.437070 0.033516
O O15 0.832887 0.020119 0.028095
O O16 0.210359 0.211848 0.633434
O O17 0.295230 0.189521 0.267421
#
# Coordination Sequence:
#
# PCOD9106244 Si02
#       8
#     2   2   2   2   2   2   2   2
#     4  10  20  39  68  92 131 175 235 291 370 431
#     4  12  24  48  83 113 159 189 242 319 367 422
#     4  10  23  40  63  95 136 180 234 294 362 435
#     4   9  20  39  61  98 130 173 227 300 362 438
#     4  12  28  49  79 111 151 200 251 303 364 448
#     4  12  28  48  80 113 147 206 247 300 377 436
#     4  11  28  48  66 100 152 186 252 296 365 436
#     4  10  23  40  62  94 134 179 233 295 358 436
#
# _framework density 24.402553000000001
#
# number of rings (size 3 to 8) (size 9 to 14) (size 15 to 20)
#    0.000    1.250    1.250    3.000    3.500    6.500 
#    0.000    0.000    0.000    0.000    0.000    0.000 
#    0.000    0.000    0.000    0.000    0.000    0.000 
#
# Total GULP energy -89471.744524 kJ/mol
# GULP energy per Si atom -5591.984033 kJ/mol
# Density = 2.434701 g / cm^3
# Si number density = 24.402553 Si / 1000 Ang^3
#
#
#
# Elastic Constant Matrix: (Units=GPa)
#
#
# Indices 1 2 3 4 5 6 
#
# 1 147.7917 32.2554 46.9026 10.5248 11.4763 17.1080
# 2 32.2554 47.0236 28.5591 11.0488 9.3302 16.7244
# 3 46.9026 28.5591 90.9116 22.4028 10.7155 10.8101
# 4 10.5248 11.0488 22.4028 35.3069 11.6134 -0.0009
# 5 11.4763 9.3302 10.7155 11.6134 55.8239 -1.3396
# 6 17.1080 16.7244 10.8101 -0.0009 -1.3396 42.2611
#
#
#
# Elastic Compliance Matrix: (Units=1/GPa)
#
#
# Indices 1 2 3 4 5 6 
#
# 1 0.008761 -0.003551 -0.003380 0.000900 -0.000777 -0.001301
# 2 -0.003551 0.032344 -0.005690 -0.004504 -0.002887 -0.009999
# 3 -0.003380 -0.005690 0.016491 -0.007698 0.000067 -0.000596
# 4 0.000900 -0.004504 -0.007698 0.036122 -0.005392 0.003217
# 5 -0.000777 -0.002887 0.000067 -0.005392 0.019714 0.002065
# 6 -0.001301 -0.009999 -0.000596 0.003217 0.002065 0.028364
#
#
# Mechanical properties :
#
#
# Convention : Reuss Voigt Hill
#
# Bulk Modulus (GPa) = 30.90732 55.68457 43.29594
# Shear Modulus (GPa) = 28.11801 38.54570 33.33185
#
# Velocity S-wave (km/s) = 3.39817 3.97870 3.69984
# Velocity P-wave (km/s) = 5.29999 6.63140 6.00272
#
# Compressibility (1/GPa) = 0.03235480
#
# Stress axis : x y z
#
# Youngs Moduli (GPa) = 114.14508 30.91726 60.64091
#
# Poissons Ratio (x) = 0.10979 0.20494
# Poissons Ratio (y) = 0.40535 0.34502
# Poissons Ratio (z) = 0.38577 0.17591
#
# Static dielectric constant tensor:
#      x y z
#    x 1.960120 0.037290 0.023540 
#    y 0.037290 2.032150 0.051060 
#    z 0.023540 0.051060 1.953240 
# 
# From -- ./inp_files/11034.got.cif
#   From: 2010.05.17/outbox.cif.g08.bks.cpg/sg2_6_cif.got.tgz:11034.got - 2010.06.03 11:33:40.
