data_PCOD9106530
_publ_section_title
;
Structure prediction by ZEFSAII (Michael W. Deem and Ramdas Pophale) SiO2 
 PCOD9106530
Probable space group: P -1
;
_chemical_formula_sum "Si O2"
_cell_formula_units_Z 12
_cell_length_a 7.195048
_cell_length_b 10.243824
_cell_length_c 13.624864
_cell_angle_alpha 48.652600
_cell_angle_beta 42.088148
_cell_angle_gamma 51.325530
_cell_volume 486.884222
_symmetry_space_group_name_H-M "P -1"
_symmetry_group_IT_number 2
_symmetry_cell_setting 'triclinic'
loop_
_space_group_symop_operation_xyz
x,y,z
-x,-y,-z
loop_
_atom_site_type_symbol
_atom_site_label
_atom_site_fract_x
_atom_site_fract_y
_atom_site_fract_z
Si Si1 0.459680 0.745230 0.794185
Si Si2 0.162434 0.910129 0.330178
Si Si3 0.057951 0.555616 0.136277
Si Si4 0.769065 0.267649 0.401601
Si Si5 0.755067 0.905081 0.174240
Si Si6 0.195585 0.298738 0.521004
O O1 0.603144 0.733479 0.638321
O O2 0.686903 0.612995 0.843129
O O3 0.401188 0.947865 0.755835
O O4 0.181097 0.665918 0.951030
O O5 0.149855 0.778887 0.493366
O O6 0.494807 0.910817 0.195695
O O7 0.013727 0.832916 0.337806
O O8 0.966240 0.105866 0.340896
O O9 0.811274 0.458318 0.256414
O O10 0.945620 0.696584 0.198036
O O11 0.437293 0.270460 0.523331
O O12 0.000000 0.000000 0.000000
O O13 0.000000 0.500000 0.500000
#
# Coordination Sequence:
#
# PCOD9106530 Si02
#       6
#     2   2   2   2   2   2
#     4  10  21  42  63 100 131 166 219 270 321 387
#     4  11  22  43  64  92 137 171 221 272 322 388
#     4  10  20  39  72  92 128 175 214 265 329 386
#     4  11  23  42  67  95 131 179 214 272 329 383
#     4  10  21  38  70  98 122 172 221 264 328 388
#     4  12  26  41  64  99 132 174 223 266 330 393
#
# _framework density 24.646515999999998
#
# number of rings (size 3 to 8) (size 9 to 14) (size 15 to 20)
#    0.000    1.333    3.333    2.500    2.333    2.000 
#    0.000    0.000    0.000    4.000    0.000    0.000 
#    0.000    0.000    0.000    0.000    0.000    0.000 
#
# Total GULP energy -67084.795265 kJ/mol
# GULP energy per Si atom -5590.399605 kJ/mol
# Density = 2.459042 g / cm^3
# Si number density = 24.646516 Si / 1000 Ang^3
#
#
#
# Elastic Constant Matrix: (Units=GPa)
#
#
# Indices 1 2 3 4 5 6 
#
# 1 60.2578 26.5059 13.7797 -9.6306 -22.8881 -5.7414
# 2 26.5059 173.7264 45.5451 -11.1973 -13.7744 13.0020
# 3 13.7797 45.5451 140.9945 -12.1977 -34.0573 11.2958
# 4 -9.6306 -11.1973 -12.1977 45.4467 12.9913 -4.5275
# 5 -22.8881 -13.7744 -34.0573 12.9913 42.8843 3.5263
# 6 -5.7414 13.0020 11.2958 -4.5275 3.5263 35.8501
#
#
#
# Elastic Compliance Matrix: (Units=1/GPa)
#
#
# Indices 1 2 3 4 5 6 
#
# 1 0.022510 -0.003052 0.001408 0.001458 0.011436 0.003327
# 2 -0.003052 0.006852 -0.001916 0.000577 -0.000944 -0.002204
# 3 0.001408 -0.001916 0.009779 -0.000193 0.008207 -0.002992
# 4 0.001458 0.000577 -0.000193 0.024800 -0.007024 0.003908
# 5 0.011436 -0.000944 0.008207 -0.007024 0.038180 -0.005055
# 6 0.003327 -0.002204 -0.002992 0.003908 -0.005055 0.031160
#
#
# Mechanical properties :
#
#
# Convention : Reuss Voigt Hill
#
# Bulk Modulus (GPa) = 31.23020 60.73780 45.98400
# Shear Modulus (GPa) = 33.09606 44.11276 38.60441
#
# Velocity S-wave (km/s) = 3.66844 4.23521 3.96197
# Velocity P-wave (km/s) = 5.53552 6.97231 6.29504
#
# Compressibility (1/GPa) = 0.03202029
#
# Stress axis : x y z
#
# Youngs Moduli (GPa) = 44.42490 145.95235 102.25642
#
# Poissons Ratio (x) = 0.44541 -0.14397
# Poissons Ratio (y) = 0.13557 0.19596
# Poissons Ratio (z) = -0.06255 0.27970
#
# Static dielectric constant tensor:
#      x y z
#    x 2.174150 -0.045000 0.134920 
#    y -0.045000 1.888900 -0.026470 
#    z 0.134920 -0.026470 2.152310 
# 
# From -- ./inp_files/588927.got.cif
#   From: 2010.05.17/outbox.cif.g08.bks.cpg/sg2_295_cif.got.tgz:588927.got - 2010.06.03 11:33:40.
