data_PCOD9106239
_publ_section_title
;
Structure prediction by ZEFSAII (Michael W. Deem and Ramdas Pophale) SiO2 
 PCOD9106239
Probable space group: P -1
;
_chemical_formula_sum "Si O2"
_cell_formula_units_Z 14
_cell_length_a 9.473113
_cell_length_b 10.203874
_cell_length_c 9.070608
_cell_angle_alpha 124.339050
_cell_angle_beta 81.111071
_cell_angle_gamma 125.272060
_cell_volume 571.685256
_symmetry_space_group_name_H-M "P -1"
_symmetry_group_IT_number 2
_symmetry_cell_setting 'triclinic'
loop_
_space_group_symop_operation_xyz
x,y,z
-x,-y,-z
loop_
_atom_site_type_symbol
_atom_site_label
_atom_site_fract_x
_atom_site_fract_y
_atom_site_fract_z
Si Si1 0.242748 0.151601 0.319945
Si Si2 0.662523 0.150576 0.284220
Si Si3 0.915037 0.159577 0.445008
Si Si4 0.515038 0.251132 0.123775
Si Si5 0.662626 0.488339 0.963882
Si Si6 0.552128 0.812814 0.427972
Si Si7 0.024867 0.707177 0.144339
O O1 0.189463 0.926814 0.198126
O O2 0.360997 0.257447 0.223459
O O3 0.368907 0.258867 0.511101
O O4 0.068149 0.142550 0.356032
O O5 0.854108 0.244375 0.384908
O O6 0.638475 0.280820 0.259462
O O7 0.521956 0.091313 0.401414
O O8 0.596321 0.962141 0.074494
O O9 0.973027 0.260855 0.660399
O O10 0.721564 0.950533 0.380819
O O11 0.640784 0.391772 0.063774
O O12 0.617511 0.351761 0.744603
O O13 0.500000 0.500000 0.000000
O O14 0.863537 0.678518 0.059683
O O15 0.000000 0.500000 0.000000
#
# Coordination Sequence:
#
# PCOD9106239 Si02
#       7
#     2   2   2   2   2   2   2
#     4  10  23  44  67  95 132 174 222 265 322 393
#     4  10  21  38  67  93 122 166 231 255 307 383
#     4  11  20  40  67  97 125 176 223 267 315 396
#     4  10  24  41  68  94 128 175 219 261 317 402
#     4  12  24  43  66  99 130 167 218 274 328 379
#     4  10  20  39  68  92 124 176 224 254 312 403
#     4  11  25  39  65 100 139 163 215 283 332 365
#
# _framework density 24.488997999999999
#
# number of rings (size 3 to 8) (size 9 to 14) (size 15 to 20)
#    0.000    1.429    1.429    4.714    8.000    0.571 
#    0.000    7.143    0.000    0.000    0.000    0.000 
#    0.000    0.000    0.000    0.000    0.000    0.000 
#
# Total GULP energy -78194.687337 kJ/mol
# GULP energy per Si atom -5585.334810 kJ/mol
# Density = 2.443326 g / cm^3
# Si number density = 24.488998 Si / 1000 Ang^3
#
#
#
# Elastic Constant Matrix: (Units=GPa)
#
#
# Indices 1 2 3 4 5 6 
#
# 1 156.1194 15.1917 58.9431 -9.2212 11.8758 10.7186
# 2 15.1917 41.8277 27.6705 0.3555 2.0444 14.8254
# 3 58.9431 27.6705 118.4105 -3.2553 20.3406 17.0909
# 4 -9.2212 0.3555 -3.2553 34.5637 5.0704 0.0056
# 5 11.8758 2.0444 20.3406 5.0704 50.8299 -1.2491
# 6 10.7186 14.8254 17.0909 0.0056 -1.2491 19.0371
#
#
#
# Elastic Compliance Matrix: (Units=1/GPa)
#
#
# Indices 1 2 3 4 5 6 
#
# 1 0.008033 -0.000046 -0.003645 0.001894 -0.000636 -0.001257
# 2 -0.000046 0.035383 -0.004953 -0.000852 0.000088 -0.023076
# 3 -0.003645 -0.004953 0.013091 0.000963 -0.004434 -0.006134
# 4 0.001894 -0.000852 0.000963 0.030099 -0.003834 -0.001528
# 5 -0.000636 0.000088 -0.004434 -0.003834 0.022116 0.005723
# 6 -0.001257 -0.023076 -0.006134 -0.001528 0.005723 0.077091
#
#
# Mechanical properties :
#
#
# Convention : Reuss Voigt Hill
#
# Bulk Modulus (GPa) = 25.49826 57.77423 41.63625
# Shear Modulus (GPa) = 23.12954 35.18961 29.15957
#
# Velocity S-wave (km/s) = 3.07658 3.79483 3.45443
# Velocity P-wave (km/s) = 4.80159 6.54554 5.74018
#
# Compressibility (1/GPa) = 0.03921836
#
# Stress axis : x y z
#
# Youngs Moduli (GPa) = 124.49384 28.26197 76.38971
#
# Poissons Ratio (x) = 0.00129 0.27845
# Poissons Ratio (y) = 0.00566 0.37840
# Poissons Ratio (z) = 0.45379 0.14000
#
# Static dielectric constant tensor:
#      x y z
#    x 1.991960 -0.050520 -0.072250 
#    y -0.050520 1.972660 0.085830 
#    z -0.072250 0.085830 1.921990 
# 
# From -- ./inp_files/190727.got.cif
#   From: 2010.05.17/outbox.cif.g08.bks.cpg/sg2_96_cif.got.tgz:190727.got - 2010.06.03 11:33:40.
