data_PCOD9106183
_publ_section_title
;
Structure prediction by ZEFSAII (Michael W. Deem and Ramdas Pophale) SiO2 
 PCOD9106183
Probable space group: P -1
;
_chemical_formula_sum "Si O2"
_cell_formula_units_Z 16
_cell_length_a 10.271851
_cell_length_b 18.860218
_cell_length_c 9.166593
_cell_angle_alpha 30.876420
_cell_angle_beta 51.414856
_cell_angle_gamma 41.944920
_cell_volume 608.593941
_symmetry_space_group_name_H-M "P -1"
_symmetry_group_IT_number 2
_symmetry_cell_setting 'triclinic'
loop_
_space_group_symop_operation_xyz
x,y,z
-x,-y,-z
loop_
_atom_site_type_symbol
_atom_site_label
_atom_site_fract_x
_atom_site_fract_y
_atom_site_fract_z
Si Si1 0.943875 0.907391 0.964443
Si Si2 0.826716 0.220500 0.226688
Si Si3 0.595920 0.243734 0.638946
Si Si4 0.672803 0.882030 0.980479
Si Si5 0.973520 0.684971 0.548654
Si Si6 0.502204 0.580141 0.102183
Si Si7 0.928789 0.405672 0.024715
Si Si8 0.514725 0.885123 0.564087
O O1 0.059016 0.775875 0.239796
O O2 0.843573 0.832337 0.066499
O O3 0.065966 0.921375 0.720897
O O4 0.784272 0.074029 0.858396
O O5 0.677553 0.226275 0.444094
O O6 0.969114 0.264402 0.136643
O O7 0.683471 0.367709 0.960375
O O8 0.557519 0.411429 0.436813
O O9 0.398470 0.240903 0.794455
O O10 0.630620 0.999579 0.663937
O O11 0.500000 0.000000 0.000000
O O12 0.738534 0.797319 0.508595
O O13 0.026365 0.659232 0.727011
O O14 0.025911 0.512574 0.750868
O O15 0.696110 0.522922 0.970776
O O16 0.476344 0.744906 0.894838
O O17 0.500000 0.000000 0.500000
#
# Coordination Sequence:
#
# PCOD9106183 Si02
#       8
#     2   2   2   2   2   2   2   2
#     4  11  23  38  66 103 137 172 230 281 328 397
#     4  11  23  39  68 102 132 174 227 280 333 394
#     4  10  20  40  66  95 134 177 215 274 339 392
#     4  10  20  39  67  98 131 176 226 272 325 399
#     4  10  21  42  63  94 137 179 220 274 343 391
#     4  10  22  43  67  92 131 180 221 270 344 402
#     4   9  21  40  67  92 131 181 222 273 334 405
#     4  11  23  42  71  98 129 179 234 276 330 412
#
# _framework density 26.290106999999999
#
# number of rings (size 3 to 8) (size 9 to 14) (size 15 to 20)
#    0.000    1.750    2.500    3.375    5.250    0.500 
#    2.250    6.250    0.000    0.000    0.000    0.000 
#    0.000    0.000    0.000    0.000    0.000    0.000 
#
# Total GULP energy -89222.059510 kJ/mol
# GULP energy per Si atom -5576.378719 kJ/mol
# Density = 2.623027 g / cm^3
# Si number density = 26.290107 Si / 1000 Ang^3
#
#
#
# Elastic Constant Matrix: (Units=GPa)
#
#
# Indices 1 2 3 4 5 6 
#
# 1 89.7297 34.0496 37.5270 -15.9876 -4.7766 23.8985
# 2 34.0496 87.7864 33.6021 -17.8247 -5.5297 25.9340
# 3 37.5270 33.6021 142.3758 -18.5147 -25.2396 31.0084
# 4 -15.9876 -17.8247 -18.5147 29.7743 7.1608 -11.8089
# 5 -4.7766 -5.5297 -25.2396 7.1608 36.1627 -16.3589
# 6 23.8985 25.9340 31.0084 -11.8089 -16.3589 36.5286
#
#
#
# Elastic Compliance Matrix: (Units=1/GPa)
#
#
# Indices 1 2 3 4 5 6 
#
# 1 0.015269 -0.002614 -0.002109 0.003482 -0.003643 -0.006849
# 2 -0.002614 0.016262 -0.001236 0.004946 -0.003702 -0.008845
# 3 -0.002109 -0.001236 0.009605 0.001706 0.004365 -0.003390
# 4 0.003482 0.004946 0.001706 0.042267 -0.003832 0.004710
# 5 -0.003643 -0.003702 0.004365 -0.003832 0.038175 0.017164
# 6 -0.006849 -0.008845 -0.003390 0.004710 0.017164 0.050224
#
#
# Mechanical properties :
#
#
# Convention : Reuss Voigt Hill
#
# Bulk Modulus (GPa) = 34.22398 58.91657 46.57028
# Shear Modulus (GPa) = 25.84507 34.80735 30.32621
#
# Velocity S-wave (km/s) = 3.13880 3.64259 3.40004
# Velocity P-wave (km/s) = 5.11685 6.33641 5.75900
#
# Compressibility (1/GPa) = 0.02921928
#
# Stress axis : x y z
#
# Youngs Moduli (GPa) = 65.49079 61.49165 104.11033
#
# Poissons Ratio (x) = 0.16076 0.21955
# Poissons Ratio (y) = 0.17121 0.12864
# Poissons Ratio (z) = 0.13811 0.07598
#
# Static dielectric constant tensor:
#      x y z
#    x 2.314580 -0.228470 -0.035760 
#    y -0.228470 2.396630 -0.126330 
#    z -0.035760 -0.126330 2.255270 
# 
# From -- ./inp_files/282626.got.cif
#   From: 2010.05.17/outbox.cif.g08.bks.cpg/sg2_142_cif.got.tgz:282626.got - 2010.06.03 11:33:40.
