data_PCOD9106095
_publ_section_title
;
Structure prediction by ZEFSAII (Michael W. Deem and Ramdas Pophale) SiO2 
 PCOD9106095
Probable space group: P -1
;
_chemical_formula_sum "Si O2"
_cell_formula_units_Z 16
_cell_length_a 20.640577
_cell_length_b 5.889663
_cell_length_c 5.225824
_cell_angle_alpha 76.507685
_cell_angle_beta 99.334299
_cell_angle_gamma 85.716967
_cell_volume 605.363806
_symmetry_space_group_name_H-M "P -1"
_symmetry_group_IT_number 2
_symmetry_cell_setting 'triclinic'
loop_
_space_group_symop_operation_xyz
x,y,z
-x,-y,-z
loop_
_atom_site_type_symbol
_atom_site_label
_atom_site_fract_x
_atom_site_fract_y
_atom_site_fract_z
Si Si1 0.640817 0.519557 0.437347
Si Si2 0.374625 0.774316 0.995625
Si Si3 0.507189 0.780359 0.360508
Si Si4 0.915350 0.336221 0.653984
Si Si5 0.818818 0.524438 0.885283
Si Si6 0.859598 0.056302 0.314550
Si Si7 0.059920 0.290267 0.874305
Si Si8 0.741050 0.802207 0.179468
O O1 0.642291 0.416761 0.751130
O O2 0.582985 0.737432 0.332195
O O3 0.708412 0.608938 0.370801
O O4 0.624679 0.331038 0.261929
O O5 0.447819 0.830380 0.107381
O O6 0.316888 0.984794 0.937985
O O7 0.500000 0.500000 0.500000
O O8 0.500000 0.000000 0.500000
O O9 0.837676 0.386625 0.673492
O O10 0.910855 0.095415 0.557207
O O11 0.929512 0.532939 0.402190
O O12 0.982835 0.299729 0.872010
O O13 0.821538 0.304859 0.138921
O O14 0.890046 0.627702 0.907693
O O15 0.766099 0.713100 0.937712
O O16 0.905364 0.957116 0.136800
O O17 0.802855 0.886034 0.349588
#
# Coordination Sequence:
#
# PCOD9106095 Si02
#       8
#     2   2   2   2   2   2   2   2
#     4  11  27  52  78 116 155 203 262 321 385 467
#     4  11  27  52  79 115 152 207 258 322 387 465
#     4  10  25  49  84 123 163 205 267 335 402 464
#     4  10  20  39  67  93 129 172 237 295 375 445
#     4  10  22  43  59  99 132 181 237 300 366 457
#     4  10  22  43  58  97 133 180 237 296 371 451
#     4   9  20  38  64  95 128 173 225 303 374 449
#     4  11  26  48  70 100 153 198 253 301 386 455
#
# _framework density 26.430385000000001
#
# number of rings (size 3 to 8) (size 9 to 14) (size 15 to 20)
#    0.000    1.750    0.000    1.875    7.000    3.000 
#   29.250    0.000    0.000    0.000    0.000    0.000 
#    0.000    0.000    0.000    0.000    0.000    0.000 
#
# Total GULP energy -89411.691132 kJ/mol
# GULP energy per Si atom -5588.230696 kJ/mol
# Density = 2.637023 g / cm^3
# Si number density = 26.430385 Si / 1000 Ang^3
#
#
#
# Elastic Constant Matrix: (Units=GPa)
#
#
# Indices 1 2 3 4 5 6 
#
# 1 171.7958 40.4851 3.3973 9.2224 -0.3181 -13.5742
# 2 40.4851 104.0346 -9.6528 6.5649 5.8384 -30.5334
# 3 3.3973 -9.6528 38.2081 -4.3110 -3.2093 0.3211
# 4 9.2224 6.5649 -4.3110 35.7653 -2.4892 -7.5156
# 5 -0.3181 5.8384 -3.2093 -2.4892 45.7029 3.0518
# 6 -13.5742 -30.5334 0.3211 -7.5156 3.0518 71.3649
#
#
#
# Elastic Compliance Matrix: (Units=1/GPa)
#
#
# Indices 1 2 3 4 5 6 
#
# 1 0.006533 -0.002600 -0.001374 -0.001362 0.000208 -0.000016
# 2 -0.002600 0.012462 0.003155 -0.000335 -0.001731 0.004862
# 3 -0.001374 0.003155 0.027611 0.003482 0.001632 0.001261
# 4 -0.001362 -0.000335 0.003482 0.029460 0.001708 0.002611
# 5 0.000208 -0.001731 0.001632 0.001708 0.022410 -0.001487
# 6 -0.000016 0.004862 0.001261 0.002611 -0.001487 0.016422
#
#
# Mechanical properties :
#
#
# Convention : Reuss Voigt Hill
#
# Bulk Modulus (GPa) = 22.23755 42.49974 32.36864
# Shear Modulus (GPa) = 38.01537 49.22054 43.61795
#
# Velocity S-wave (km/s) = 3.79663 4.32009 4.06679
# Velocity P-wave (km/s) = 5.25843 6.40304 5.85876
#
# Compressibility (1/GPa) = 0.04496899
#
# Stress axis : x y z
#
# Youngs Moduli (GPa) = 153.06841 80.24326 36.21728
#
# Poissons Ratio (x) = 0.20865 0.04976
# Poissons Ratio (y) = 0.39802 -0.11428
# Poissons Ratio (z) = 0.21029 -0.25320
#
# Static dielectric constant tensor:
#      x y z
#    x 2.046710 0.042660 0.027410 
#    y 0.042660 2.221980 -0.019490 
#    z 0.027410 -0.019490 2.174700 
# 
# From -- ./inp_files/13297.got.cif
#   From: 2010.05.17/outbox.cif.g08.bks.cpg/sg2_7_cif.got.tgz:13297.got - 2010.06.03 11:33:40.
