data_PCOD9106987
_publ_section_title
;
Structure prediction by ZEFSAII (Michael W. Deem and Ramdas Pophale) SiO2 
 PCOD9106987
Probable space group: P -1
;
_chemical_formula_sum "Si O2"
_cell_formula_units_Z 16
_cell_length_a 8.117794
_cell_length_b 14.514930
_cell_length_c 6.062481
_cell_angle_alpha 103.559139
_cell_angle_beta 83.728648
_cell_angle_gamma 76.038827
_cell_volume 663.424693
_symmetry_space_group_name_H-M "P -1"
_symmetry_group_IT_number 2
_symmetry_cell_setting 'triclinic'
loop_
_space_group_symop_operation_xyz
x,y,z
-x,-y,-z
loop_
_atom_site_type_symbol
_atom_site_label
_atom_site_fract_x
_atom_site_fract_y
_atom_site_fract_z
Si Si1 0.357590 0.822281 0.126788
Si Si2 0.730277 0.790143 0.963046
Si Si3 0.052005 0.342042 0.821203
Si Si4 0.828834 0.478235 0.607387
Si Si5 0.274392 0.698349 0.695236
Si Si6 0.044368 0.838825 0.494484
Si Si7 0.830701 0.978471 0.911134
Si Si8 0.642400 0.668897 0.538070
O O1 0.558980 0.799908 0.141010
O O2 0.208691 0.851650 0.346953
O O3 0.315448 0.918834 0.028924
O O4 0.324361 0.729360 0.945788
O O5 0.885784 0.696716 0.967144
O O6 0.776066 0.893267 0.004492
O O7 0.677044 0.760998 0.713334
O O8 0.218234 0.362258 0.691431
O O9 0.887351 0.428941 0.811793
O O10 0.022150 0.243028 0.666844
O O11 0.777197 0.399937 0.410533
O O12 0.680343 0.579290 0.660553
O O13 0.000000 0.500000 0.500000
O O14 0.119480 0.787978 0.684991
O O15 0.444063 0.691423 0.518390
O O16 0.891764 0.932515 0.634702
O O17 0.000000 0.000000 0.000000
#
# Coordination Sequence:
#
# PCOD9106987 Si02
#       8
#     2   2   2   2   2   2   2   2
#     4  11  24  41  63  91 126 163 204 254 306 364
#     4  11  24  41  62  91 128 162 204 252 310 362
#     4  10  21  38  62  90 123 162 203 252 304 366
#     4   9  20  36  64  92 123 161 205 254 305 363
#     4  10  21  39  62  90 126 163 200 254 310 360
#     4  11  22  40  63  91 122 163 207 251 303 363
#     4  12  23  42  64  91 123 163 208 254 301 364
#     4  10  20  40  62  90 128 160 202 255 310 361
#
# _framework density 24.117283
#
# number of rings (size 3 to 8) (size 9 to 14) (size 15 to 20)
#    0.000    1.500    2.500    2.625    0.000    0.500 
#    0.000    5.000    0.000   13.500    0.000    0.000 
#    0.000    0.000    0.000    0.000    0.000    0.000 
#
# Total GULP energy -89395.359289 kJ/mol
# GULP energy per Si atom -5587.209956 kJ/mol
# Density = 2.406239 g / cm^3
# Si number density = 24.117283 Si / 1000 Ang^3
#
#
#
# Elastic Constant Matrix: (Units=GPa)
#
#
# Indices 1 2 3 4 5 6 
#
# 1 95.8732 37.6425 22.3159 0.6816 5.0030 12.3194
# 2 37.6425 116.3704 10.9089 3.9251 12.1901 2.7510
# 3 22.3159 10.9089 32.9100 3.5658 -7.0399 16.5779
# 4 0.6816 3.9251 3.5658 31.0788 4.4753 1.8870
# 5 5.0030 12.1901 -7.0399 4.4753 38.6384 2.9081
# 6 12.3194 2.7510 16.5779 1.8870 2.9081 47.8410
#
#
#
# Elastic Compliance Matrix: (Units=1/GPa)
#
#
# Indices 1 2 3 4 5 6 
#
# 1 0.014030 -0.003483 -0.008952 0.001534 -0.002510 -0.000218
# 2 -0.003483 0.010268 -0.002353 -0.000564 -0.003253 0.001342
# 3 -0.008952 -0.002353 0.047935 -0.005903 0.012425 -0.014692
# 4 0.001534 -0.000564 -0.005903 0.033576 -0.005035 0.000665
# 5 -0.002510 -0.003253 0.012425 -0.005035 0.030465 -0.005125
# 6 -0.000218 0.001342 -0.014692 0.000665 -0.005125 0.026258
#
#
# Mechanical properties :
#
#
# Convention : Reuss Voigt Hill
#
# Bulk Modulus (GPa) = 23.44255 42.98757 33.21506
# Shear Modulus (GPa) = 24.23346 35.13072 29.68209
#
# Velocity S-wave (km/s) = 3.17332 3.82076 3.51200
# Velocity P-wave (km/s) = 4.81331 6.10962 5.49979
#
# Compressibility (1/GPa) = 0.04265748
#
# Stress axis : x y z
#
# Youngs Moduli (GPa) = 71.27734 97.38607 20.86173
#
# Poissons Ratio (x) = 0.33916 0.18676
# Poissons Ratio (y) = 0.24823 0.04908
# Poissons Ratio (z) = 0.63809 0.22913
#
# Static dielectric constant tensor:
#      x y z
#    x 1.909960 0.012990 0.013330 
#    y 0.012990 1.945040 -0.069560 
#    z 0.013330 -0.069560 2.014710 
# 
# From -- ./inp_files/39825.got.cif
#   From: 2010.05.17/outbox.cif.g08.bks.cpg/sg2_20_cif.got.tgz:39825.got - 2010.06.03 11:33:40.
