data_PCOD9106171
_publ_section_title
;
Structure prediction by ZEFSAII (Michael W. Deem and Ramdas Pophale) SiO2 
 PCOD9106171
Probable space group: P -1
;
_chemical_formula_sum "Si O2"
_cell_formula_units_Z 16
_cell_length_a 9.132507
_cell_length_b 11.232069
_cell_length_c 12.549456
_cell_angle_alpha 87.227672
_cell_angle_beta 131.848672
_cell_angle_gamma 123.930817
_cell_volume 677.505391
_symmetry_space_group_name_H-M "P -1"
_symmetry_group_IT_number 2
_symmetry_cell_setting 'triclinic'
loop_
_space_group_symop_operation_xyz
x,y,z
-x,-y,-z
loop_
_atom_site_type_symbol
_atom_site_label
_atom_site_fract_x
_atom_site_fract_y
_atom_site_fract_z
Si Si1 0.768552 0.213943 0.899552
Si Si2 0.090015 0.790841 0.797559
Si Si3 0.671011 0.593463 0.914967
Si Si4 0.880710 0.740759 0.244150
Si Si5 0.214345 0.065322 0.696942
Si Si6 0.413990 0.309514 0.329856
Si Si7 0.025727 0.621445 0.590126
Si Si8 0.565831 0.104534 0.393391
O O1 0.523057 0.204550 0.791278
O O2 0.664877 0.080194 0.761522
O O3 0.772046 0.155562 0.021473
O O4 0.086978 0.385836 0.020211
O O5 0.132588 0.681833 0.761789
O O6 0.786609 0.708974 0.686863
O O7 0.179086 0.926535 0.748113
O O8 0.348506 0.416763 0.779837
O O9 0.685310 0.714517 0.839519
O O10 0.776108 0.663003 0.080923
O O11 0.842731 0.862071 0.244292
O O12 0.204090 0.846415 0.414485
O O13 0.000000 0.000000 0.500000
O O14 0.455454 0.186365 0.374085
O O15 0.703791 0.504283 0.462926
O O16 0.229887 0.788200 0.612946
O O17 0.000000 0.500000 0.500000
#
# Coordination Sequence:
#
# PCOD9106171 Si02
#       8
#     2   2   2   2   2   2   2   2
#     4  11  25  44  68  99 137 170 230 288 327 404
#     4  11  24  42  66 105 133 175 228 283 338 392
#     4  10  25  44  67  99 135 174 225 285 332 404
#     4  11  24  45  68  96 138 183 223 270 346 404
#     4  12  25  43  67  94 135 185 218 280 338 405
#     4  10  23  40  71  98 135 175 226 286 328 397
#     4  10  20  39  67  97 132 171 220 278 338 394
#     4  11  22  41  69  98 134 179 226 274 334 410
#
# _framework density 23.616047999999999
#
# number of rings (size 3 to 8) (size 9 to 14) (size 15 to 20)
#    0.000    1.250    3.750    0.750    3.500    4.000 
#    2.250    0.000    0.000    0.000    0.000    0.000 
#    0.000    0.000    0.000    0.000    0.000    0.000 
#
# Total GULP energy -89135.929731 kJ/mol
# GULP energy per Si atom -5570.995608 kJ/mol
# Density = 2.356230 g / cm^3
# Si number density = 23.616048 Si / 1000 Ang^3
#
#
#
# Elastic Constant Matrix: (Units=GPa)
#
#
# Indices 1 2 3 4 5 6 
#
# 1 124.7061 32.3752 43.9160 -3.1011 6.2021 5.4538
# 2 32.3752 45.1358 23.2381 6.6511 -8.5597 8.6014
# 3 43.9160 23.2381 100.2359 1.6480 3.3768 4.8484
# 4 -3.1011 6.6511 1.6480 20.9219 11.0100 9.7391
# 5 6.2021 -8.5597 3.3768 11.0100 48.4139 0.5393
# 6 5.4538 8.6014 4.8484 9.7391 0.5393 27.9669
#
#
#
# Elastic Compliance Matrix: (Units=1/GPa)
#
#
# Indices 1 2 3 4 5 6 
#
# 1 0.011855 -0.008633 -0.003080 0.008038 -0.004638 -0.001833
# 2 -0.008633 0.035983 -0.004535 -0.017219 0.011732 -0.002827
# 3 -0.003080 -0.004535 0.012435 0.001023 -0.001502 -0.000487
# 4 0.008038 -0.017219 0.001023 0.076004 -0.021179 -0.022508
# 5 -0.004638 0.011732 -0.001502 -0.021179 0.028196 0.004388
# 6 -0.001833 -0.002827 -0.000487 -0.022508 0.004388 0.044821
#
#
# Mechanical properties :
#
#
# Convention : Reuss Voigt Hill
#
# Bulk Modulus (GPa) = 36.00055 52.12625 44.06340
# Shear Modulus (GPa) = 19.91633 30.83042 25.37338
#
# Velocity S-wave (km/s) = 2.90718 3.61707 3.28138
# Velocity P-wave (km/s) = 5.15229 6.29004 5.74938
#
# Compressibility (1/GPa) = 0.02777735
#
# Stress axis : x y z
#
# Youngs Moduli (GPa) = 84.35042 27.79064 80.41987
#
# Poissons Ratio (x) = 0.23990 0.24770
# Poissons Ratio (y) = 0.72816 0.36473
# Poissons Ratio (z) = 0.25981 0.12604
#
# Static dielectric constant tensor:
#      x y z
#    x 1.907260 -0.009090 0.013110 
#    y -0.009090 2.039460 0.022030 
#    z 0.013110 0.022030 1.956410 
# 
# From -- ./inp_files/392657.got.cif
#   From: 2010.05.17/outbox.cif.g08.bks.cpg/sg2_197_cif.got.tgz:392657.got - 2010.06.03 11:33:40.
