data_PCOD9106887
_publ_section_title
;
Structure prediction by ZEFSAII (Michael W. Deem and Ramdas Pophale) SiO2 
 PCOD9106887
Probable space group: P -1
;
_chemical_formula_sum "Si O2"
_cell_formula_units_Z 14
_cell_length_a 20.727464
_cell_length_b 6.639697
_cell_length_c 6.555889
_cell_angle_alpha 43.547361
_cell_angle_beta 102.888395
_cell_angle_gamma 108.237401
_cell_volume 590.372998
_symmetry_space_group_name_H-M "P -1"
_symmetry_group_IT_number 2
_symmetry_cell_setting 'triclinic'
loop_
_space_group_symop_operation_xyz
x,y,z
-x,-y,-z
loop_
_atom_site_type_symbol
_atom_site_label
_atom_site_fract_x
_atom_site_fract_y
_atom_site_fract_z
Si Si1 0.830808 0.319850 0.263298
Si Si2 0.113171 0.053731 0.073441
Si Si3 0.450226 0.685237 0.235155
Si Si4 0.657551 0.537436 0.004816
Si Si5 0.329617 0.803693 0.347306
Si Si6 0.773448 0.621505 0.681429
Si Si7 0.009944 0.831657 0.835886
O O1 0.870304 0.187537 0.575455
O O2 0.789426 0.983426 0.410198
O O3 0.828505 0.643186 0.133404
O O4 0.834371 0.485454 0.918474
O O5 0.049581 0.157948 0.055136
O O6 0.082277 0.937436 0.919590
O O7 0.500000 0.500000 0.500000
O O8 0.391378 0.730460 0.315262
O O9 0.412796 0.533062 0.117206
O O10 0.500000 0.000000 0.000000
O O11 0.660802 0.270587 0.356194
O O12 0.715269 0.552294 0.865812
O O13 0.669366 0.844938 0.915365
O O14 0.261186 0.584561 0.377507
O O15 0.000000 0.000000 0.500000
O O16 0.000000 0.500000 0.000000
#
# Coordination Sequence:
#
# PCOD9106887 Si02
#       7
#     2   2   2   2   2   2   2
#     4  10  20  40  62  83 120 154 188 246 292 328
#     4  10  22  40  60  87 120 153 192 241 288 341
#     4  11  24  40  60  89 120 150 192 243 288 343
#     4  11  23  40  62  86 116 156 195 234 291 349
#     4  11  23  40  62  86 116 156 195 234 291 349
#     4  10  22  41  60  84 118 153 194 241 286 343
#     4  11  22  39  62  86 118 157 194 233 290 350
#
# _framework density 23.713820999999999
#
# number of rings (size 3 to 8) (size 9 to 14) (size 15 to 20)
#    0.000    1.429    0.000    5.143    0.000   10.286 
#    0.000   28.571    0.000    0.000    0.000    0.000 
#    0.000    0.000    0.000    0.000    0.000    0.000 
#
# Total GULP energy -77997.837004 kJ/mol
# GULP energy per Si atom -5571.274072 kJ/mol
# Density = 2.365985 g / cm^3
# Si number density = 23.713821 Si / 1000 Ang^3
#
#
#
# Elastic Constant Matrix: (Units=GPa)
#
#
# Indices 1 2 3 4 5 6 
#
# 1 61.5693 30.2392 12.6680 7.6607 5.7123 5.7961
# 2 30.2392 150.7461 45.4976 1.6269 17.1480 37.7631
# 3 12.6680 45.4976 124.1963 -24.6819 21.0994 12.5697
# 4 7.6607 1.6269 -24.6819 47.5483 6.4761 7.4957
# 5 5.7123 17.1480 21.0994 6.4761 38.4701 8.6030
# 6 5.7961 37.7631 12.5697 7.4957 8.6030 48.1381
#
#
#
# Elastic Compliance Matrix: (Units=1/GPa)
#
#
# Indices 1 2 3 4 5 6 
#
# 1 0.018684 -0.003656 -0.001506 -0.003920 -0.000022 0.001626
# 2 -0.003656 0.009823 -0.002331 0.000222 -0.001144 -0.006487
# 3 -0.001506 -0.002331 0.011684 0.007397 -0.006146 -0.001095
# 4 -0.003920 0.000222 0.007397 0.027190 -0.007124 -0.004594
# 5 -0.000022 -0.001144 -0.006146 -0.007124 0.031530 -0.002020
# 6 0.001626 -0.006487 -0.001095 -0.004594 -0.002020 0.027029
#
#
# Mechanical properties :
#
#
# Convention : Reuss Voigt Hill
#
# Bulk Modulus (GPa) = 39.67349 57.03569 48.35459
# Shear Modulus (GPa) = 33.48329 43.37178 38.42753
#
# Velocity S-wave (km/s) = 3.76170 4.28128 4.02987
# Velocity P-wave (km/s) = 5.96939 6.96728 6.48755
#
# Compressibility (1/GPa) = 0.02520575
#
# Stress axis : x y z
#
# Youngs Moduli (GPa) = 53.52139 101.79792 85.58459
#
# Poissons Ratio (x) = 0.37215 0.12893
# Poissons Ratio (y) = 0.19566 0.19948
# Poissons Ratio (z) = 0.08063 0.23727
#
# Static dielectric constant tensor:
#      x y z
#    x 2.048930 0.039140 -0.004050 
#    y 0.039140 1.952550 0.069220 
#    z -0.004050 0.069220 1.877430 
# 
# From -- ./inp_files/12877.got.cif
#   From: 2010.05.17/outbox.cif.g08.bks.cpg/sg2_7_cif.got.tgz:12877.got - 2010.06.03 11:33:40.
