data_PCOD9106843
_publ_section_title
;
Structure prediction by ZEFSAII (Michael W. Deem and Ramdas Pophale) SiO2 
 PCOD9106843
Probable space group: P -1
;
_chemical_formula_sum "Si O2"
_cell_formula_units_Z 16
_cell_length_a 14.052342
_cell_length_b 7.334686
_cell_length_c 15.892946
_cell_angle_alpha 80.638745
_cell_angle_beta 32.078866
_cell_angle_gamma 99.094740
_cell_volume 708.434973
_symmetry_space_group_name_H-M "P -1"
_symmetry_group_IT_number 2
_symmetry_cell_setting 'triclinic'
loop_
_space_group_symop_operation_xyz
x,y,z
-x,-y,-z
loop_
_atom_site_type_symbol
_atom_site_label
_atom_site_fract_x
_atom_site_fract_y
_atom_site_fract_z
Si Si1 0.231775 0.413639 0.549593
Si Si2 0.822064 0.971922 0.899614
Si Si3 0.896354 0.347466 0.506910
Si Si4 0.494795 0.909048 0.917760
Si Si5 0.247110 0.413627 0.112545
Si Si6 0.160251 0.818504 0.865910
Si Si7 0.010286 0.530275 0.845340
Si Si8 0.711769 0.754538 0.182550
O O1 0.195415 0.542479 0.492690
O O2 0.144462 0.461390 0.695849
O O3 0.484717 0.519650 0.360947
O O4 0.074174 0.147353 0.675307
O O5 0.708414 0.770005 0.933117
O O6 0.783428 0.874000 0.028946
O O7 0.714578 0.110814 0.963806
O O8 0.000000 0.500000 0.500000
O O9 0.081724 0.345828 0.318079
O O10 0.704660 0.100691 0.697029
O O11 0.448836 0.665133 0.961565
O O12 0.500000 0.000000 0.000000
O O13 0.116585 0.413581 0.128640
O O14 0.164538 0.668734 0.947029
O O15 0.912558 0.751805 0.064166
O O16 0.167196 0.735443 0.774854
O O17 0.311814 0.079774 0.752594
#
# Coordination Sequence:
#
# PCOD9106843 Si02
#       8
#     2   2   2   2   2   2   2   2
#     4  11  23  40  66  92 131 173 209 270 326 377
#     4  12  23  44  65  97 134 167 219 265 322 392
#     4  11  22  44  67  97 129 167 214 264 324 388
#     4  12  23  44  72  93 131 172 207 269 329 383
#     4  11  24  42  69  96 130 173 214 267 322 386
#     4  10  21  39  63  89 129 169 220 270 312 388
#     4  10  20  40  61  91 128 169 214 267 320 372
#     4  11  22  39  64  91 125 176 215 265 327 373
#
# _framework density 22.584996
#
# number of rings (size 3 to 8) (size 9 to 14) (size 15 to 20)
#    0.000    1.000    7.500    0.000    0.000    2.500 
#    0.000    2.500    0.000    0.000    0.000    0.000 
#    0.000    0.000    0.000    0.000    0.000    0.000 
#
# Total GULP energy -89516.917804 kJ/mol
# GULP energy per Si atom -5594.807363 kJ/mol
# Density = 2.253359 g / cm^3
# Si number density = 22.584996 Si / 1000 Ang^3
#
#
#
# Elastic Constant Matrix: (Units=GPa)
#
#
# Indices 1 2 3 4 5 6 
#
# 1 50.8681 15.0333 20.2479 7.0924 9.3414 21.1012
# 2 15.0333 133.3567 22.6465 -20.9263 14.0663 19.2824
# 3 20.2479 22.6465 108.8781 -37.6112 3.5353 13.0090
# 4 7.0924 -20.9263 -37.6112 36.2299 7.0044 -0.1111
# 5 9.3414 14.0663 3.5353 7.0044 25.5490 7.1497
# 6 21.1012 19.2824 13.0090 -0.1111 7.1497 32.4496
#
#
#
# Elastic Compliance Matrix: (Units=1/GPa)
#
#
# Indices 1 2 3 4 5 6 
#
# 1 0.034083 -0.002740 -0.010453 -0.019231 0.000381 -0.016494
# 2 -0.002740 0.010299 0.002728 0.010635 -0.006876 -0.003881
# 3 -0.010453 0.002728 0.019712 0.025452 -0.007083 -0.001078
# 4 -0.019231 0.010635 0.025452 0.068042 -0.021251 0.000897
# 5 0.000381 -0.006876 -0.007083 -0.021251 0.050882 -0.004606
# 6 -0.016494 -0.003881 -0.001078 0.000897 -0.004606 0.045299
#
#
# Mechanical properties :
#
#
# Convention : Reuss Voigt Hill
#
# Bulk Modulus (GPa) = 23.16755 45.43981 34.30368
# Shear Modulus (GPa) = 18.96559 34.52404 26.74481
#
# Velocity S-wave (km/s) = 2.90098 3.91401 3.44493
# Velocity P-wave (km/s) = 4.63693 6.37096 5.57181
#
# Compressibility (1/GPa) = 0.04316381
#
# Stress axis : x y z
#
# Youngs Moduli (GPa) = 29.34037 97.09241 50.73024
#
# Poissons Ratio (x) = 0.26603 0.53029
# Poissons Ratio (y) = 0.08039 -0.13838
# Poissons Ratio (z) = 0.30670 -0.26485
#
# Static dielectric constant tensor:
#      x y z
#    x 1.865850 -0.006820 0.002760 
#    y -0.006820 1.873660 -0.028690 
#    z 0.002760 -0.028690 1.810860 
# 
# From -- ./inp_files/294130.got.cif
#   From: 2010.05.17/outbox.cif.g08.bks.cpg/sg2_148_cif.got.tgz:294130.got - 2010.06.03 11:33:40.
