data_PCOD9106073
_publ_section_title
;
Structure prediction by ZEFSAII (Michael W. Deem and Ramdas Pophale) SiO2 
 PCOD9106073
Probable space group: P -1
;
_chemical_formula_sum "Si O2"
_cell_formula_units_Z 14
_cell_length_a 7.492719
_cell_length_b 8.976801
_cell_length_c 9.225730
_cell_angle_alpha 84.579283
_cell_angle_beta 95.285965
_cell_angle_gamma 132.575259
_cell_volume 454.570051
_symmetry_space_group_name_H-M "P -1"
_symmetry_group_IT_number 2
_symmetry_cell_setting 'triclinic'
loop_
_space_group_symop_operation_xyz
x,y,z
-x,-y,-z
loop_
_atom_site_type_symbol
_atom_site_label
_atom_site_fract_x
_atom_site_fract_y
_atom_site_fract_z
Si Si1 0.745182 0.431341 0.947176
Si Si2 0.221693 0.778969 0.269565
Si Si3 0.301978 0.076287 0.425273
Si Si4 0.208194 0.425909 0.579482
Si Si5 0.327220 0.045657 0.017977
Si Si6 0.140866 0.106264 0.715454
Si Si7 0.640012 0.615523 0.717001
O O1 0.676122 0.297064 0.810725
O O2 0.536693 0.280412 0.063822
O O3 0.736603 0.592835 0.874953
O O4 0.000000 0.500000 0.000000
O O5 0.993245 0.582728 0.356103
O O6 0.400607 0.980024 0.361892
O O7 0.147818 0.867775 0.136426
O O8 0.267426 0.086884 0.593091
O O9 0.158995 0.127479 0.298321
O O10 0.005999 0.837859 0.401266
O O11 0.468322 0.668158 0.610194
O O12 0.264015 0.423031 0.414729
O O13 0.197546 0.056842 0.877536
O O14 0.500000 0.000000 0.000000
O O15 0.345603 0.378173 0.717990
#
# Coordination Sequence:
#
# PCOD9106073 Si02
#       7
#     2   2   2   2   2   2   2
#     4  11  25  44  61  87 129 175 201 250 321 376
#     4  10  23  43  62  95 125 160 217 255 302 369
#     4   9  20  35  67  95 115 157 208 262 297 364
#     4   9  19  38  67  93 121 160 207 264 305 364
#     4  10  22  40  62  84 129 174 200 247 314 376
#     4   9  17  38  61  90 123 160 205 244 316 366
#     4  10  20  39  67  92 127 160 203 253 327 363
#
# _framework density 30.798331000000001
#
# number of rings (size 3 to 8) (size 9 to 14) (size 15 to 20)
#    0.000    2.286    1.429    0.857    4.000    4.000 
#    0.000    4.286    0.000    0.000    0.000    0.000 
#    0.000    0.000    0.000    0.000    0.000    0.000 
#
# Total GULP energy -78130.938873 kJ/mol
# GULP energy per Si atom -5580.781348 kJ/mol
# Density = 3.072823 g / cm^3
# Si number density = 30.798331 Si / 1000 Ang^3
#
#
#
# Elastic Constant Matrix: (Units=GPa)
#
#
# Indices 1 2 3 4 5 6 
#
# 1 85.3388 37.4463 1.8934 2.8067 -9.6102 1.0058
# 2 37.4463 241.4808 36.1988 -19.4320 9.0351 31.0966
# 3 1.8934 36.1988 136.7800 -23.2520 17.2339 16.9265
# 4 2.8067 -19.4320 -23.2520 88.4766 7.4228 -10.3860
# 5 -9.6102 9.0351 17.2339 7.4228 53.1293 10.3506
# 6 1.0058 31.0966 16.9265 -10.3860 10.3506 56.1244
#
#
#
# Elastic Compliance Matrix: (Units=1/GPa)
#
#
# Indices 1 2 3 4 5 6 
#
# 1 0.013067 -0.002241 -0.000191 -0.001164 0.002908 0.000313
# 2 -0.002241 0.004979 -0.000801 0.000750 -0.000665 -0.002216
# 3 -0.000191 -0.000801 0.008370 0.002114 -0.002676 -0.001192
# 4 -0.001164 0.000750 0.002114 0.012542 -0.003140 0.001868
# 5 0.002908 -0.000665 -0.002676 -0.003140 0.021432 -0.003410
# 6 0.000313 -0.002216 -0.001192 0.001868 -0.003410 0.020374
#
#
# Mechanical properties :
#
#
# Convention : Reuss Voigt Hill
#
# Bulk Modulus (GPa) = 50.12289 68.29736 59.21013
# Shear Modulus (GPa) = 53.25897 65.41679 59.33788
#
# Velocity S-wave (km/s) = 4.16297 4.61373 4.39413
# Velocity P-wave (km/s) = 6.27830 7.11377 6.70905
#
# Compressibility (1/GPa) = 0.01995096
#
# Stress axis : x y z
#
# Youngs Moduli (GPa) = 76.52582 200.83537 119.47606
#
# Poissons Ratio (x) = 0.44998 0.02282
# Poissons Ratio (y) = 0.17146 0.09573
# Poissons Ratio (z) = 0.01462 0.16092
#
# Static dielectric constant tensor:
#      x y z
#    x 2.480490 0.052930 0.084340 
#    y 0.052930 2.602810 -0.012380 
#    z 0.084340 -0.012380 2.396000 
# 
# From -- ./inp_files/253083.got.cif
#   From: 2010.05.17/outbox.cif.g08.bks.cpg/sg2_127_cif.got.tgz:253083.got - 2010.06.03 11:33:40.
