data_PCOD9106224
_publ_section_title
;
Structure prediction by ZEFSAII (Michael W. Deem and Ramdas Pophale) SiO2 
 PCOD9106224
Probable space group: P -1
;
_chemical_formula_sum "Si O2"
_cell_formula_units_Z 16
_cell_length_a 15.294762
_cell_length_b 28.449175
_cell_length_c 17.664355
_cell_angle_alpha 19.360737
_cell_angle_beta 19.998961
_cell_angle_gamma 18.743117
_cell_volume 737.450686
_symmetry_space_group_name_H-M "P -1"
_symmetry_group_IT_number 2
_symmetry_cell_setting 'triclinic'
loop_
_space_group_symop_operation_xyz
x,y,z
-x,-y,-z
loop_
_atom_site_type_symbol
_atom_site_label
_atom_site_fract_x
_atom_site_fract_y
_atom_site_fract_z
Si Si1 0.084810 0.922541 0.132132
Si Si2 0.729848 0.744772 0.669749
Si Si3 0.812124 0.195084 0.060634
Si Si4 0.172439 0.173027 0.094730
Si Si5 0.655441 0.602568 0.101942
Si Si6 0.540986 0.585885 0.660421
Si Si7 0.273929 0.173917 0.830732
Si Si8 0.669579 0.573828 0.396435
O O1 0.423290 0.761178 0.100421
O O2 0.857943 0.855119 0.429911
O O3 0.033334 0.069073 0.007074
O O4 0.000000 0.000000 0.000000
O O5 0.470373 0.826964 0.691725
O O6 0.007936 0.584946 0.646469
O O7 0.623946 0.678202 0.927820
O O8 0.657541 0.395495 0.875178
O O9 0.023426 0.152219 0.026483
O O10 0.817639 0.283924 0.233231
O O11 0.387730 0.978060 0.234672
O O12 0.212352 0.177040 0.965571
O O13 0.325385 0.263074 0.874243
O O14 0.561191 0.466353 0.391570
O O15 0.000000 0.500000 0.000000
O O16 0.719887 0.660253 0.443242
O O17 0.608294 0.581710 0.523315
#
# Coordination Sequence:
#
# PCOD9106224 Si02
#       8
#     2   2   2   2   2   2   2   2
#     4  11  24  43  64  95 133 169 213 265 318 383
#     4  11  22  43  65  91 131 170 210 264 319 376
#     4  12  22  41  64  94 125 167 211 263 318 375
#     4  10  21  44  63  89 131 164 207 264 322 379
#     4  11  24  41  65  97 126 170 217 263 319 381
#     4  11  21  43  67  89 126 167 209 261 323 379
#     4  10  25  40  63  97 123 162 214 265 316 383
#     4  10  20  39  68  88 125 168 211 257 320 382
#
# _framework density 21.696366000000001
#
# number of rings (size 3 to 8) (size 9 to 14) (size 15 to 20)
#    0.000    1.250    3.750    1.875    0.000    5.500 
#    4.500    0.000    0.000    0.000    0.000    0.000 
#    0.000    0.000    0.000    0.000    0.000    0.000 
#
# Total GULP energy -89261.377568 kJ/mol
# GULP energy per Si atom -5578.836098 kJ/mol
# Density = 2.164698 g / cm^3
# Si number density = 21.696366 Si / 1000 Ang^3
#
#
#
# Elastic Constant Matrix: (Units=GPa)
#
#
# Indices 1 2 3 4 5 6 
#
# 1 49.0654 46.7641 17.5444 -0.9210 -24.5528 1.3663
# 2 46.7641 156.4499 47.8176 -0.7391 -27.2144 12.2742
# 3 17.5444 47.8176 78.1086 -5.7490 -18.0057 3.2898
# 4 -0.9210 -0.7391 -5.7490 37.3514 -0.6862 -4.6950
# 5 -24.5528 -27.2144 -18.0057 -0.6862 25.4653 4.9991
# 6 1.3663 12.2742 3.2898 -4.6950 4.9991 31.8944
#
#
#
# Elastic Compliance Matrix: (Units=1/GPa)
#
#
# Indices 1 2 3 4 5 6 
#
# 1 0.047036 -0.007666 0.003969 0.001661 0.041123 -0.005675
# 2 -0.007666 0.010551 -0.004308 -0.001079 0.001533 -0.003687
# 3 0.003969 -0.004308 0.017617 0.002717 0.012112 -0.001828
# 4 0.001661 -0.001079 0.002717 0.027728 0.002377 0.003773
# 5 0.041123 0.001533 0.012112 0.002377 0.092674 -0.017777
# 6 -0.005675 -0.003687 -0.001828 0.003773 -0.017777 0.036546
#
#
# Mechanical properties :
#
#
# Convention : Reuss Voigt Hill
#
# Bulk Modulus (GPa) = 16.89353 56.43067 36.66210
# Shear Modulus (GPa) = 18.66415 30.37542 24.51979
#
# Velocity S-wave (km/s) = 2.93617 3.74575 3.36539
# Velocity P-wave (km/s) = 4.39296 6.69128 5.66000
#
# Compressibility (1/GPa) = 0.05919426
#
# Stress axis : x y z
#
# Youngs Moduli (GPa) = 21.26044 94.78049 56.76184
#
# Poissons Ratio (x) = 0.72659 -0.22530
# Poissons Ratio (y) = 0.16298 0.24453
# Poissons Ratio (z) = -0.08439 0.40831
#
# Static dielectric constant tensor:
#      x y z
#    x 1.792660 -0.004250 -0.009250 
#    y -0.004250 1.790590 -0.006970 
#    z -0.009250 -0.006970 1.852670 
# 
# From -- ./inp_files/358454.got.cif
#   From: 2010.05.17/outbox.cif.g08.bks.cpg/sg2_180_cif.got.tgz:358454.got - 2010.06.03 11:33:40.
