data_PCOD9106262
_publ_section_title
;
Structure prediction by ZEFSAII (Michael W. Deem and Ramdas Pophale) SiO2 
 PCOD9106262
Probable space group: P -1
;
_chemical_formula_sum "Si O2"
_cell_formula_units_Z 16
_cell_length_a 21.526075
_cell_length_b 18.505181
_cell_length_c 8.843868
_cell_angle_alpha 137.879071
_cell_angle_beta 146.534565
_cell_angle_gamma 20.372219
_cell_volume 661.192799
_symmetry_space_group_name_H-M "P -1"
_symmetry_group_IT_number 2
_symmetry_cell_setting 'triclinic'
loop_
_space_group_symop_operation_xyz
x,y,z
-x,-y,-z
loop_
_atom_site_type_symbol
_atom_site_label
_atom_site_fract_x
_atom_site_fract_y
_atom_site_fract_z
Si Si1 0.161574 0.788005 0.098701
Si Si2 0.663167 0.637649 0.598020
Si Si3 0.103316 0.999061 0.552650
Si Si4 0.399098 0.544322 0.703405
Si Si5 0.644944 0.050812 0.803979
Si Si6 0.777925 0.733501 0.204121
Si Si7 0.251709 0.262954 0.519593
Si Si8 0.958126 0.775175 0.484454
O O1 0.413884 0.581233 0.232094
O O2 0.153678 0.843263 0.335500
O O3 0.068558 0.747395 0.806037
O O4 0.000000 0.000000 0.000000
O O5 0.623779 0.565462 0.507452
O O6 0.443547 0.841328 0.370998
O O7 0.859029 0.445374 0.578664
O O8 0.728627 0.683799 0.904390
O O9 0.850649 0.205777 0.420140
O O10 0.115303 0.075833 0.556797
O O11 0.260957 0.923963 0.879287
O O12 0.500000 0.500000 0.000000
O O13 0.437201 0.166753 0.646319
O O14 0.806130 0.814169 0.757804
O O15 0.658104 0.817121 0.250433
O O16 0.032194 0.512025 0.432536
O O17 0.768578 0.855482 0.291374
#
# Coordination Sequence:
#
# PCOD9106262 Si02
#       8
#     2   2   2   2   2   2   2   2
#     4  10  20  39  69  98 126 170 219 274 319 393
#     4  11  23  38  70  94 131 174 221 261 326 399
#     4  10  23  40  67  93 133 176 214 273 331 385
#     4  11  20  41  69  96 128 173 223 265 329 385
#     4  11  24  43  59  96 135 174 209 273 331 389
#     4  11  23  42  66  99 121 178 217 270 324 398
#     4  10  24  41  63  90 141 162 217 270 334 383
#     4  10  20  39  68  94 130 168 221 265 328 395
#
# _framework density 24.198689999999999
#
# number of rings (size 3 to 8) (size 9 to 14) (size 15 to 20)
#    0.000    1.500    5.000    1.875    5.250    2.500 
#    0.000    1.250    5.500    0.000    0.000    0.000 
#    0.000    0.000    0.000    0.000    0.000    0.000 
#
# Total GULP energy -89567.359545 kJ/mol
# GULP energy per Si atom -5597.959972 kJ/mol
# Density = 2.414361 g / cm^3
# Si number density = 24.198690 Si / 1000 Ang^3
#
#
#
# Elastic Constant Matrix: (Units=GPa)
#
#
# Indices 1 2 3 4 5 6 
#
# 1 62.3496 18.4368 43.1066 17.6323 -1.0826 7.6631
# 2 18.4368 64.8532 28.8566 5.6749 -2.8968 -9.5618
# 3 43.1066 28.8566 182.3856 36.1076 -5.3042 -2.4183
# 4 17.6323 5.6749 36.1076 48.2237 5.2703 -0.5463
# 5 -1.0826 -2.8968 -5.3042 5.2703 30.2365 5.9285
# 6 7.6631 -9.5618 -2.4183 -0.5463 5.9285 14.4212
#
#
#
# Elastic Compliance Matrix: (Units=1/GPa)
#
#
# Indices 1 2 3 4 5 6 
#
# 1 0.025514 -0.008068 -0.003623 -0.006448 0.004898 -0.021772
# 2 -0.008068 0.020959 -0.001681 0.002256 -0.002715 0.019103
# 3 -0.003623 -0.001681 0.007508 -0.004250 0.001515 0.001286
# 4 -0.006448 0.002256 -0.004250 0.026872 -0.007036 0.008120
# 5 0.004898 -0.002715 0.001515 -0.007036 0.038444 -0.020219
# 6 -0.021772 0.019103 0.001286 0.008120 -0.020219 0.102413
#
#
# Mechanical properties :
#
#
# Convention : Reuss Voigt Hill
#
# Bulk Modulus (GPa) = 36.71724 54.48760 45.60242
# Shear Modulus (GPa) = 19.41489 33.18885 26.30187
#
# Velocity S-wave (km/s) = 2.83558 3.70741 3.30041
# Velocity P-wave (km/s) = 5.09185 6.39470 5.78010
#
# Compressibility (1/GPa) = 0.02723516
#
# Stress axis : x y z
#
# Youngs Moduli (GPa) = 39.19433 47.71186 133.19613
#
# Poissons Ratio (x) = 0.38494 0.48261
# Poissons Ratio (y) = 0.31622 0.22396
# Poissons Ratio (z) = 0.14201 0.08022
#
# Static dielectric constant tensor:
#      x y z
#    x 1.931840 0.015450 -0.022150 
#    y 0.015450 2.004960 -0.011980 
#    z -0.022150 -0.011980 1.880400 
# 
# From -- ./inp_files/305173.got.cif
#   From: 2010.05.17/outbox.cif.g08.bks.cpg/sg2_153_cif.got.tgz:305173.got - 2010.06.03 11:33:40.
