data_PCOD9106709
_publ_section_title
;
Structure prediction by ZEFSAII (Michael W. Deem and Ramdas Pophale) SiO2 
 PCOD9106709
Probable space group: P -1
;
_chemical_formula_sum "Si O2"
_cell_formula_units_Z 14
_cell_length_a 12.990293
_cell_length_b 12.845329
_cell_length_c 15.678070
_cell_angle_alpha 143.878138
_cell_angle_beta 156.645017
_cell_angle_gamma 50.708877
_cell_volume 541.732232
_symmetry_space_group_name_H-M "P -1"
_symmetry_group_IT_number 2
_symmetry_cell_setting 'triclinic'
loop_
_space_group_symop_operation_xyz
x,y,z
-x,-y,-z
loop_
_atom_site_type_symbol
_atom_site_label
_atom_site_fract_x
_atom_site_fract_y
_atom_site_fract_z
Si Si1 0.623599 0.568355 0.273441
Si Si2 0.359588 0.858385 0.218767
Si Si3 0.274326 0.255002 0.062692
Si Si4 0.833155 0.672029 0.799757
Si Si5 0.682380 0.187474 0.026356
Si Si6 0.098246 0.407493 0.881037
Si Si7 0.275783 0.978775 0.735818
O O1 0.461294 0.686557 0.188762
O O2 0.609904 0.374951 0.088763
O O3 0.966284 0.716912 0.641202
O O4 0.432012 0.478360 0.153774
O O5 0.500000 0.000000 0.500000
O O6 0.426515 0.938965 0.227145
O O7 0.015100 0.771419 0.919829
O O8 0.532949 0.480694 0.421246
O O9 0.196701 0.188359 0.057960
O O10 0.048263 0.291702 0.854931
O O11 0.335434 0.097568 0.949207
O O12 0.027114 0.589472 0.944661
O O13 0.527927 0.080817 0.925080
O O14 0.879168 0.260662 0.545052
O O15 0.000000 0.000000 0.500000
#
# Coordination Sequence:
#
# PCOD9106709 Si02
#       7
#     2   2   2   2   2   2   2
#     4  10  22  42  68  90 120 171 203 255 308 365
#     4  11  26  41  62  93 127 162 208 255 307 369
#     4  10  20  40  60  89 121 157 199 249 305 359
#     4  10  23  39  62  88 121 165 197 250 307 367
#     4  11  22  43  65  92 126 161 209 253 309 368
#     4  10  20  40  63  92 119 157 206 249 309 358
#     4  10  21  38  66  92 120 160 199 261 299 357
#
# _framework density 25.843026999999999
#
# number of rings (size 3 to 8) (size 9 to 14) (size 15 to 20)
#    0.000    1.714    2.857    1.714    6.000    1.143 
#    5.143    0.000    0.000    0.000    0.000    0.000 
#    0.000    0.000    0.000    0.000    0.000    0.000 
#
# Total GULP energy -78242.080629 kJ/mol
# GULP energy per Si atom -5588.720045 kJ/mol
# Density = 2.578421 g / cm^3
# Si number density = 25.843027 Si / 1000 Ang^3
#
#
#
# Elastic Constant Matrix: (Units=GPa)
#
#
# Indices 1 2 3 4 5 6 
#
# 1 218.7088 48.7473 84.0718 -1.3922 -15.3809 -1.7265
# 2 48.7473 53.0935 5.0095 13.2277 -9.1788 -12.6198
# 3 84.0718 5.0095 115.6548 4.7256 0.1738 -9.2391
# 4 -1.3922 13.2277 4.7256 20.5919 -0.2672 -1.5102
# 5 -15.3809 -9.1788 0.1738 -0.2672 46.9911 1.8185
# 6 -1.7265 -12.6198 -9.2391 -1.5102 1.8185 36.6871
#
#
#
# Elastic Compliance Matrix: (Units=1/GPa)
#
#
# Indices 1 2 3 4 5 6 
#
# 1 0.010557 -0.012567 -0.007988 0.010234 0.001301 -0.005481
# 2 -0.012567 0.040363 0.009675 -0.027901 0.003018 0.014431
# 3 -0.007988 0.009675 0.014942 -0.009731 -0.001082 0.006368
# 4 0.010234 -0.027901 -0.009731 0.068757 -0.001338 -0.008670
# 5 0.001301 0.003018 -0.001082 -0.001338 0.022305 -0.000334
# 6 -0.005481 0.014431 0.006368 -0.008670 -0.000334 0.033227
#
#
# Mechanical properties :
#
#
# Convention : Reuss Voigt Hill
#
# Bulk Modulus (GPa) = 22.67429 73.67937 48.17683
# Shear Modulus (GPa) = 22.06415 37.49592 29.78004
#
# Velocity S-wave (km/s) = 2.92511 3.81321 3.39830
# Velocity P-wave (km/s) = 4.49458 6.92530 5.83785
#
# Compressibility (1/GPa) = 0.04410282
#
# Stress axis : x y z
#
# Youngs Moduli (GPa) = 94.72209 24.77511 66.92618
#
# Poissons Ratio (x) = 0.31135 0.53460
# Poissons Ratio (y) = 1.19037 -0.64752
# Poissons Ratio (z) = 0.75663 -0.23970
#
# Static dielectric constant tensor:
#      x y z
#    x 2.082940 -0.040480 0.004450 
#    y -0.040480 2.093380 -0.037740 
#    z 0.004450 -0.037740 2.082730 
# 
# From -- ./inp_files/518632.got.cif
#   From: 2010.05.17/outbox.cif.g08.bks.cpg/sg2_260_cif.got.tgz:518632.got - 2010.06.03 11:33:40.
