data_PCOD9106218
_publ_section_title
;
Structure prediction by ZEFSAII (Michael W. Deem and Ramdas Pophale) SiO2 
 PCOD9106218
Probable space group: P -1
;
_chemical_formula_sum "Si O2"
_cell_formula_units_Z 16
_cell_length_a 10.776253
_cell_length_b 15.986495
_cell_length_c 16.908930
_cell_angle_alpha 150.579716
_cell_angle_beta 145.229901
_cell_angle_gamma 32.731981
_cell_volume 729.256503
_symmetry_space_group_name_H-M "P -1"
_symmetry_group_IT_number 2
_symmetry_cell_setting 'triclinic'
loop_
_space_group_symop_operation_xyz
x,y,z
-x,-y,-z
loop_
_atom_site_type_symbol
_atom_site_label
_atom_site_fract_x
_atom_site_fract_y
_atom_site_fract_z
Si Si1 0.501837 0.174548 0.015536
Si Si2 0.352186 0.224660 0.627221
Si Si3 0.331455 0.193311 0.770618
Si Si4 0.250567 0.726103 0.204096
Si Si5 0.259387 0.842207 0.473491
Si Si6 0.102145 0.449193 0.154440
Si Si7 0.907276 0.159625 0.327356
Si Si8 0.494389 0.763954 0.690437
O O1 0.281802 0.334009 0.082453
O O2 0.750294 0.163929 0.172007
O O3 0.467952 0.212523 0.935653
O O4 0.488778 0.973846 0.858873
O O5 0.384349 0.246295 0.755307
O O6 0.478958 0.329772 0.730947
O O7 0.074472 0.268180 0.499474
O O8 0.500000 0.000000 0.500000
O O9 0.043547 0.325429 0.744990
O O10 0.377373 0.975342 0.610742
O O11 0.238051 0.727510 0.293535
O O12 0.083709 0.941207 0.263442
O O13 0.118601 0.606858 0.005108
O O14 0.430490 0.722302 0.535577
O O15 0.000000 0.000000 0.500000
O O16 0.256149 0.380319 0.258058
O O17 0.713750 0.230430 0.355390
#
# Coordination Sequence:
#
# PCOD9106218 Si02
#       8
#     2   2   2   2   2   2   2   2
#     4  10  19  34  58  87 116 145 183 229 284 339
#     4  10  21  37  56  79 109 157 195 225 267 337
#     4  11  22  36  56  89 114 144 189 238 277 328
#     4  11  19  36  60  78 111 157 186 227 275 338
#     4  11  19  35  59  84 110 146 196 225 271 340
#     4  11  21  36  58  88 120 142 178 238 296 324
#     4  10  16  34  57  81 107 147 193 224 266 329
#     4  10  18  33  59  86 114 148 183 228 280 343
#
# _framework density 21.940155000000001
#
# number of rings (size 3 to 8) (size 9 to 14) (size 15 to 20)
#    0.000    1.500    6.250    1.875    0.000    0.500 
#    0.000   10.625    0.000    1.500    0.000    0.000 
#    0.000    0.000    0.000    0.000    0.000    0.000 
#
# Total GULP energy -89462.751172 kJ/mol
# GULP energy per Si atom -5591.421948 kJ/mol
# Density = 2.189022 g / cm^3
# Si number density = 21.940155 Si / 1000 Ang^3
#
#
#
# Elastic Constant Matrix: (Units=GPa)
#
#
# Indices 1 2 3 4 5 6 
#
# 1 107.5717 30.5389 68.4891 -26.8701 -5.7714 -0.9795
# 2 30.5389 76.0170 59.8285 -22.3662 -10.2627 10.4037
# 3 68.4891 59.8285 124.9534 -40.7421 -3.4993 4.1344
# 4 -26.8701 -22.3662 -40.7421 42.5163 3.9434 -4.0226
# 5 -5.7714 -10.2627 -3.4993 3.9434 48.5791 -8.0191
# 6 -0.9795 10.4037 4.1344 -4.0226 -8.0191 20.2105
#
#
#
# Elastic Compliance Matrix: (Units=1/GPa)
#
#
# Indices 1 2 3 4 5 6 
#
# 1 0.014692 0.000593 -0.007590 0.002466 0.001635 0.003099
# 2 0.000593 0.023203 -0.010647 0.001333 0.002711 -0.008397
# 3 -0.007590 -0.010647 0.020174 0.009321 -0.002124 0.001998
# 4 0.002466 0.001333 0.009321 0.035192 -0.000923 0.004165
# 5 0.001635 0.002711 -0.002124 -0.000923 0.022577 0.007892
# 6 0.003099 -0.008397 0.001998 0.004165 0.007892 0.057503
#
#
# Mechanical properties :
#
#
# Convention : Reuss Voigt Hill
#
# Bulk Modulus (GPa) = 43.89162 69.58391 56.73776
# Shear Modulus (GPa) = 23.12437 32.24021 27.68229
#
# Velocity S-wave (km/s) = 3.25002 3.83751 3.55592
# Velocity P-wave (km/s) = 5.84227 7.17074 6.54032
#
# Compressibility (1/GPa) = 0.02278339
#
# Stress axis : x y z
#
# Youngs Moduli (GPa) = 68.06523 43.09705 49.56794
#
# Poissons Ratio (x) = -0.02557 0.37620
# Poissons Ratio (y) = -0.04038 0.52774
# Poissons Ratio (z) = 0.51659 0.45884
#
# Static dielectric constant tensor:
#      x y z
#    x 1.820690 0.009690 0.027850 
#    y 0.009690 1.825930 0.026970 
#    z 0.027850 0.026970 1.833920 
# 
# From -- ./inp_files/447076.got.cif
#   From: 2010.05.17/outbox.cif.g08.bks.cpg/sg2_224_cif.got.tgz:447076.got - 2010.06.03 11:33:40.
