data_PCOD9106446
_publ_section_title
;
Structure prediction by ZEFSAII (Michael W. Deem and Ramdas Pophale) SiO2 
 PCOD9106446
Probable space group: P -1
;
_chemical_formula_sum "Si O2"
_cell_formula_units_Z 14
_cell_length_a 14.834599
_cell_length_b 15.112845
_cell_length_c 9.320838
_cell_angle_alpha 154.819250
_cell_angle_beta 132.689560
_cell_angle_gamma 47.961581
_cell_volume 642.947479
_symmetry_space_group_name_H-M "P -1"
_symmetry_group_IT_number 2
_symmetry_cell_setting 'triclinic'
loop_
_space_group_symop_operation_xyz
x,y,z
-x,-y,-z
loop_
_atom_site_type_symbol
_atom_site_label
_atom_site_fract_x
_atom_site_fract_y
_atom_site_fract_z
Si Si1 0.177959 0.144671 0.979737
Si Si2 0.673557 0.947975 0.717501
Si Si3 0.213930 0.329378 0.992648
Si Si4 0.741917 0.344370 0.678460
Si Si5 0.922353 0.338993 0.106990
Si Si6 0.875027 0.005020 0.783718
Si Si7 0.552474 0.715638 0.008274
O O1 0.199642 0.296248 0.095805
O O2 0.229822 0.903816 0.637056
O O3 0.031946 0.179562 0.910101
O O4 0.252803 0.171038 0.244506
O O5 0.768356 0.006366 0.787873
O O6 0.585526 0.163754 0.991915
O O7 0.589969 0.808085 0.336262
O O8 0.351993 0.233060 0.936706
O O9 0.125064 0.197762 0.616883
O O10 0.199618 0.570416 0.277042
O O11 0.818528 0.436133 0.022911
O O12 0.598013 0.463249 0.700044
O O13 0.000000 0.500000 0.500000
O O14 0.859756 0.209751 0.966865
O O15 0.000000 0.000000 0.000000
#
# Coordination Sequence:
#
# PCOD9106446 Si02
#       7
#     2   2   2   2   2   2   2
#     4  12  23  38  65  96 123 169 205 262 322 369
#     4  10  20  39  70  88 127 166 215 255 311 371
#     4   9  22  41  62  92 127 165 205 259 320 361
#     4  10  22  41  61  90 132 159 209 261 308 374
#     4  12  24  39  63  93 130 165 212 259 313 377
#     4  11  20  39  64  92 125 167 208 254 310 373
#     4   8  20  44  64  88 124 173 205 262 306 367
#
# _framework density 21.774718
#
# number of rings (size 3 to 8) (size 9 to 14) (size 15 to 20)
#    0.857    0.857    2.857    2.143    0.000    2.857 
#    0.000    0.714    3.143    0.000    0.000    0.000 
#    0.000    0.000    0.000    0.000    0.000    0.000 
#
# Total GULP energy -78151.942530 kJ/mol
# GULP energy per Si atom -5582.281609 kJ/mol
# Density = 2.172516 g / cm^3
# Si number density = 21.774718 Si / 1000 Ang^3
#
#
#
# Elastic Constant Matrix: (Units=GPa)
#
#
# Indices 1 2 3 4 5 6 
#
# 1 47.4988 27.9555 -8.7536 -15.2560 -12.4619 16.5559
# 2 27.9555 97.0659 -13.8504 -8.5296 -6.1890 17.1561
# 3 -8.7536 -13.8504 41.9372 -3.3666 -5.7883 5.7824
# 4 -15.2560 -8.5296 -3.3666 32.7309 1.4364 -6.9667
# 5 -12.4619 -6.1890 -5.7883 1.4364 25.9907 7.1192
# 6 16.5559 17.1561 5.7824 -6.9667 7.1192 52.9614
#
#
#
# Elastic Compliance Matrix: (Units=1/GPa)
#
#
# Indices 1 2 3 4 5 6 
#
# 1 0.044164 -0.004775 0.014739 0.016437 0.026598 -0.015281
# 2 -0.004775 0.013143 0.004261 0.000776 0.002702 -0.003491
# 3 0.014739 0.004261 0.032976 0.008261 0.017959 -0.010915
# 4 0.016437 0.000776 0.008261 0.038389 0.008434 -0.002375
# 5 0.026598 0.002702 0.017959 0.008434 0.060379 -0.018158
# 6 -0.015281 -0.003491 -0.010915 -0.002375 -0.018158 0.028110
#
#
# Mechanical properties :
#
#
# Convention : Reuss Voigt Hill
#
# Bulk Modulus (GPa) = 8.42234 21.91165 15.16699
# Shear Modulus (GPa) = 21.90207 34.41331 28.15769
#
# Velocity S-wave (km/s) = 3.17495 3.97977 3.59992
# Velocity P-wave (km/s) = 4.16134 5.58595 4.92542
#
# Compressibility (1/GPa) = 0.11873188
#
# Stress axis : x y z
#
# Youngs Moduli (GPa) = 22.64296 76.08605 30.32531
#
# Poissons Ratio (x) = 0.36331 -0.44697
# Poissons Ratio (y) = 0.10812 -0.12921
# Poissons Ratio (z) = -0.33374 -0.32418
#
# Static dielectric constant tensor:
#      x y z
#    x 1.758770 -0.009160 -0.033040 
#    y -0.009160 1.817820 0.004100 
#    z -0.033040 0.004100 1.883080 
# 
# From -- ./inp_files/233469.got.cif
#   From: 2010.05.17/outbox.cif.g08.bks.cpg/sg2_117_cif.got.tgz:233469.got - 2010.06.03 11:33:40.
