data_PCOD9106455
_publ_section_title
;
Structure prediction by ZEFSAII (Michael W. Deem and Ramdas Pophale) SiO2 
 PCOD9106455
Probable space group: P -1
;
_chemical_formula_sum "Si O2"
_cell_formula_units_Z 16
_cell_length_a 9.816663
_cell_length_b 14.073912
_cell_length_c 8.033312
_cell_angle_alpha 105.798411
_cell_angle_beta 90.185867
_cell_angle_gamma 42.978681
_cell_volume 694.811054
_symmetry_space_group_name_H-M "P -1"
_symmetry_group_IT_number 2
_symmetry_cell_setting 'triclinic'
loop_
_space_group_symop_operation_xyz
x,y,z
-x,-y,-z
loop_
_atom_site_type_symbol
_atom_site_label
_atom_site_fract_x
_atom_site_fract_y
_atom_site_fract_z
Si Si1 0.084736 0.561426 0.509380
Si Si2 0.165537 0.028063 0.201474
Si Si3 0.580034 0.854333 0.018553
Si Si4 0.561037 0.458820 0.172380
Si Si5 0.030266 0.261643 0.091603
Si Si6 0.046174 0.024743 0.693519
Si Si7 0.526228 0.273849 0.278020
Si Si8 0.897002 0.270526 0.609912
O O1 0.952581 0.692720 0.708122
O O2 0.335311 0.415232 0.460850
O O3 0.067742 0.632350 0.370895
O O4 0.000000 0.500000 0.500000
O O5 0.112372 0.106167 0.060650
O O6 0.118446 0.938532 0.168794
O O7 0.006907 0.161256 0.398445
O O8 0.405329 0.924069 0.189167
O O9 0.561288 0.768920 0.856488
O O10 0.813824 0.757514 0.026643
O O11 0.500000 0.000000 0.000000
O O12 0.782126 0.392376 0.138660
O O13 0.586171 0.335994 0.195079
O O14 0.351205 0.614180 0.337577
O O15 0.500000 0.500000 0.000000
O O16 0.276678 0.872963 0.685892
O O17 0.000000 0.000000 0.500000
O O18 0.996579 0.166515 0.724228
#
# Coordination Sequence:
#
# PCOD9106455 Si02
#       8
#     2   2   2   2   2   2   2   2
#     4  10  20  39  70  94 131 172 220 265 329 397
#     4   9  19  37  64  92 126 170 214 267 322 387
#     4  10  22  39  64  96 132 174 217 263 332 395
#     4  11  25  42  69  99 133 166 222 279 325 389
#     4  10  20  40  68  95 126 175 215 271 330 387
#     4  10  21  39  65 100 129 164 224 272 324 383
#     4  11  23  41  70  99 126 179 220 269 333 391
#     4   9  22  38  64  95 129 165 219 272 318 383
#
# _framework density 23.027844999999999
#
# number of rings (size 3 to 8) (size 9 to 14) (size 15 to 20)
#    0.000    2.000    2.500    0.000    5.250    4.000 
#    0.000    1.250   13.750    0.000    0.000    0.000 
#    0.000    0.000    0.000    0.000    0.000    0.000 
#
# Total GULP energy -89183.321400 kJ/mol
# GULP energy per Si atom -5573.957587 kJ/mol
# Density = 2.297543 g / cm^3
# Si number density = 23.027845 Si / 1000 Ang^3
#
#
#
# Elastic Constant Matrix: (Units=GPa)
#
#
# Indices 1 2 3 4 5 6 
#
# 1 163.0884 70.8671 24.7963 -8.2174 -36.5378 -17.1798
# 2 70.8671 136.7920 32.3311 -5.0643 -26.8348 -0.6631
# 3 24.7963 32.3311 59.2040 23.8461 -14.7267 -16.9332
# 4 -8.2174 -5.0643 23.8461 42.6943 -7.0752 -11.8485
# 5 -36.5378 -26.8348 -14.7267 -7.0752 33.8252 14.5355
# 6 -17.1798 -0.6631 -16.9332 -11.8485 14.5355 41.7166
#
#
#
# Elastic Compliance Matrix: (Units=1/GPa)
#
#
# Indices 1 2 3 4 5 6 
#
# 1 0.009813 -0.003018 -0.001786 0.004293 0.007525 0.001866
# 2 -0.003018 0.011792 -0.006730 0.004283 0.006076 -0.004688
# 3 -0.001786 -0.006730 0.029476 -0.015813 -0.000697 0.006874
# 4 0.004293 0.004283 -0.015813 0.035631 0.007320 0.002987
# 5 0.007525 0.006076 -0.000697 0.007320 0.048919 -0.012054
# 6 0.001866 -0.004688 0.006874 0.002987 -0.012054 0.032503
#
#
# Mechanical properties :
#
#
# Convention : Reuss Voigt Hill
#
# Bulk Modulus (GPa) = 35.69695 68.34147 52.01921
# Shear Modulus (GPa) = 24.93269 39.05322 31.99295
#
# Velocity S-wave (km/s) = 3.29404 4.12261 3.73140
# Velocity P-wave (km/s) = 5.47749 7.23902 6.41897
#
# Compressibility (1/GPa) = 0.02801359
#
# Stress axis : x y z
#
# Youngs Moduli (GPa) = 101.90486 84.80253 33.92597
#
# Poissons Ratio (x) = 0.25590 0.06059
# Poissons Ratio (y) = 0.30751 0.22833
# Poissons Ratio (z) = 0.18199 0.57075
#
# Static dielectric constant tensor:
#      x y z
#    x 1.989510 0.025370 0.052720 
#    y 0.025370 1.937810 0.004930 
#    z 0.052720 0.004930 1.966490 
# 
# From -- ./inp_files/207762.got.cif
#   From: 2010.05.17/outbox.cif.g08.bks.cpg/sg2_104_cif.got.tgz:207762.got - 2010.06.03 11:33:40.
