data_PCOD9106952
_publ_section_title
;
Structure prediction by ZEFSAII (Michael W. Deem and Ramdas Pophale) SiO2 
 PCOD9106952
Probable space group: P -1
;
_chemical_formula_sum "Si O2"
_cell_formula_units_Z 12
_cell_length_a 20.594900
_cell_length_b 5.010168
_cell_length_c 5.406542
_cell_angle_alpha 95.039779
_cell_angle_beta 53.049222
_cell_angle_gamma 87.988946
_cell_volume 441.382427
_symmetry_space_group_name_H-M "P -1"
_symmetry_group_IT_number 2
_symmetry_cell_setting 'triclinic'
loop_
_space_group_symop_operation_xyz
x,y,z
-x,-y,-z
loop_
_atom_site_type_symbol
_atom_site_label
_atom_site_fract_x
_atom_site_fract_y
_atom_site_fract_z
Si Si1 0.093066 0.073255 0.606951
Si Si2 0.053725 0.252165 0.220393
Si Si3 0.480571 0.225988 0.771514
Si Si4 0.322137 0.172786 0.418654
Si Si5 0.243887 0.701810 0.375561
Si Si6 0.368477 0.578931 0.706791
O O1 0.118719 0.168966 0.283050
O O2 0.151362 0.812324 0.540621
O O3 0.088093 0.283675 0.865826
O O4 0.004846 0.978592 0.732274
O O5 0.000000 0.500000 0.500000
O O6 0.427876 0.481102 0.788663
O O7 0.569549 0.318934 0.627156
O O8 0.500000 0.000000 0.500000
O O9 0.416035 0.127533 0.101940
O O10 0.269525 0.398278 0.384409
O O11 0.330515 0.322438 0.667946
O O12 0.277384 0.907395 0.509580
O O13 0.295720 0.760649 0.017027
#
# Coordination Sequence:
#
# PCOD9106952 Si02
#       6
#     2   2   2   2   2   2
#     4  10  24  42  68 103 135 178 228 278 338 413
#     4  10  22  44  72  99 136 177 228 276 338 410
#     4  10  20  40  62  88 126 168 226 277 324 406
#     4  11  25  41  64  93 129 176 220 273 343 397
#     4  11  26  42  62  99 132 169 223 274 338 405
#     4  10  23  40  62  90 129 169 222 278 334 397
#
# _framework density 27.187308999999999
#
# number of rings (size 3 to 8) (size 9 to 14) (size 15 to 20)
#    0.000    1.667    1.667    1.000    7.000    2.000 
#    0.000    0.000    0.000    0.000    0.000    0.000 
#    0.000    0.000    0.000    0.000    0.000    0.000 
#
# Total GULP energy -67089.822554 kJ/mol
# GULP energy per Si atom -5590.818546 kJ/mol
# Density = 2.712543 g / cm^3
# Si number density = 27.187309 Si / 1000 Ang^3
#
#
#
# Elastic Constant Matrix: (Units=GPa)
#
#
# Indices 1 2 3 4 5 6 
#
# 1 93.3859 13.7479 60.6227 -1.8825 6.5153 -17.0209
# 2 13.7479 88.2430 28.0398 4.2865 3.9947 -10.1803
# 3 60.6227 28.0398 138.7805 18.7136 27.5408 -7.6692
# 4 -1.8825 4.2865 18.7136 40.3892 0.5068 2.7049
# 5 6.5153 3.9947 27.5408 0.5068 53.3649 7.4905
# 6 -17.0209 -10.1803 -7.6692 2.7049 7.4905 38.2436
#
#
#
# Elastic Compliance Matrix: (Units=1/GPa)
#
#
# Indices 1 2 3 4 5 6 
#
# 1 0.016752 0.000262 -0.007845 0.004009 0.001183 0.005437
# 2 0.000262 0.012419 -0.002372 -0.000406 -0.000156 0.003006
# 3 -0.007845 -0.002372 0.013030 -0.006082 -0.005532 0.000004
# 4 0.004009 -0.000406 -0.006082 0.027910 0.002702 -0.002047
# 5 0.001183 -0.000156 -0.005532 0.002702 0.022159 -0.005156
# 6 0.005437 0.003006 0.000004 -0.002047 -0.005156 0.030523
#
#
# Mechanical properties :
#
#
# Convention : Reuss Voigt Hill
#
# Bulk Modulus (GPa) = 44.86279 58.35891 51.61085
# Shear Modulus (GPa) = 33.30356 40.93280 37.11818
#
# Velocity S-wave (km/s) = 3.50375 3.88440 3.69897
# Velocity P-wave (km/s) = 5.73634 6.45214 6.10474
#
# Compressibility (1/GPa) = 0.02229019
#
# Stress axis : x y z
#
# Youngs Moduli (GPa) = 59.69457 80.52341 76.74563
#
# Poissons Ratio (x) = -0.02110 0.60211
# Poissons Ratio (y) = -0.01564 0.18203
# Poissons Ratio (z) = 0.46833 0.19099
#
# Static dielectric constant tensor:
#      x y z
#    x 2.119770 -0.060020 0.014070 
#    y -0.060020 2.238980 -0.122410 
#    z 0.014070 -0.122410 2.205340 
# 
# From -- ./inp_files/102585.got.cif
#   From: 2010.05.17/outbox.cif.g08.bks.cpg/sg2_52_cif.got.tgz:102585.got - 2010.06.03 11:33:40.
