data_PCOD9106304
_publ_section_title
;
Structure prediction by ZEFSAII (Michael W. Deem and Ramdas Pophale) SiO2 
 PCOD9106304
Probable space group: P -1
;
_chemical_formula_sum "Si O2"
_cell_formula_units_Z 16
_cell_length_a 23.606852
_cell_length_b 17.379535
_cell_length_c 14.496143
_cell_angle_alpha 26.726723
_cell_angle_beta 160.924434
_cell_angle_gamma 160.561506
_cell_volume 646.751762
_symmetry_space_group_name_H-M "P -1"
_symmetry_group_IT_number 2
_symmetry_cell_setting 'triclinic'
loop_
_space_group_symop_operation_xyz
x,y,z
-x,-y,-z
loop_
_atom_site_type_symbol
_atom_site_label
_atom_site_fract_x
_atom_site_fract_y
_atom_site_fract_z
Si Si1 0.650633 0.738753 0.694178
Si Si2 0.937037 0.096061 0.377814
Si Si3 0.848123 0.388539 0.145495
Si Si4 0.153854 0.992322 0.115068
Si Si5 0.345952 0.783380 0.566218
Si Si6 0.334708 0.294083 0.894721
Si Si7 0.449820 0.973961 0.084297
Si Si8 0.313520 0.371561 0.431177
O O1 0.585912 0.887701 0.402825
O O2 0.440922 0.488621 0.599024
O O3 0.700115 0.790938 0.822367
O O4 0.887974 0.830226 0.913632
O O5 0.801231 0.887118 0.465413
O O6 0.737307 0.101987 0.042206
O O7 0.000000 0.000000 0.500000
O O8 0.172351 0.304678 0.569633
O O9 0.112729 0.540639 0.423572
O O10 0.657220 0.244866 0.088303
O O11 0.729933 0.182517 0.110105
O O12 0.849228 0.574840 0.899007
O O13 0.248169 0.859880 0.404993
O O14 0.182606 0.079497 0.962682
O O15 0.516438 0.741066 0.900013
O O16 0.500000 0.000000 0.500000
O O17 0.500000 0.500000 0.000000
O O18 0.500000 0.500000 0.500000
#
# Coordination Sequence:
#
# PCOD9106304 Si02
#       8
#     2   2   2   2   2   2   2   2
#     4  10  23  41  66  97 132 172 220 294 331 398
#     4  12  27  43  66 103 140 173 226 285 342 405
#     4  10  20  39  68  98 123 174 230 274 337 408
#     4  10  23  42  65  92 131 176 233 263 341 403
#     4  10  21  40  64  93 129 172 226 267 325 413
#     4  11  25  42  69  93 137 182 220 269 342 413
#     4  10  23  40  67  99 134 164 224 292 342 393
#     4  11  20  40  69  95 133 175 228 270 340 405
#
# _framework density 24.739014000000001
#
# number of rings (size 3 to 8) (size 9 to 14) (size 15 to 20)
#    0.000    1.500    1.250    3.750    8.750    0.000 
#    0.000    1.875    0.000    0.000    0.000    0.000 
#    0.000    0.000    0.000    0.000    0.000    0.000 
#
# Total GULP energy -89400.577429 kJ/mol
# GULP energy per Si atom -5587.536089 kJ/mol
# Density = 2.468271 g / cm^3
# Si number density = 24.739014 Si / 1000 Ang^3
#
#
#
# Elastic Constant Matrix: (Units=GPa)
#
#
# Indices 1 2 3 4 5 6 
#
# 1 88.7727 2.8417 41.7474 11.2783 24.8746 -6.3834
# 2 2.8417 85.3267 14.4753 17.1851 0.1359 -7.6596
# 3 41.7474 14.4753 120.6592 13.1038 31.6591 -0.3412
# 4 11.2783 17.1851 13.1038 37.6207 -10.2673 2.8815
# 5 24.8746 0.1359 31.6591 -10.2673 44.3379 2.9646
# 6 -6.3834 -7.6596 -0.3412 2.8815 2.9646 30.3746
#
#
#
# Elastic Compliance Matrix: (Units=1/GPa)
#
#
# Indices 1 2 3 4 5 6 
#
# 1 0.016557 0.002036 -0.002515 -0.008117 -0.009759 0.005687
# 2 0.002036 0.013793 -0.000779 -0.007767 -0.002755 0.004903
# 3 -0.002515 -0.000779 0.012092 -0.005492 -0.008544 0.000766
# 4 -0.008117 -0.007767 -0.005492 0.040223 0.018438 -0.009341
# 5 -0.009759 -0.002755 -0.008544 0.018438 0.038970 -0.008394
# 6 0.005687 0.004903 0.000766 -0.009341 -0.008394 0.037068
#
#
# Mechanical properties :
#
#
# Convention : Reuss Voigt Hill
#
# Bulk Modulus (GPa) = 25.04605 45.87636 35.46120
# Shear Modulus (GPa) = 28.64905 38.17960 33.41432
#
# Velocity S-wave (km/s) = 3.40671 3.93274 3.67914
# Velocity P-wave (km/s) = 5.06165 6.26150 5.69327
#
# Compressibility (1/GPa) = 0.03992646
#
# Stress axis : x y z
#
# Youngs Moduli (GPa) = 60.39779 72.50148 82.70098
#
# Poissons Ratio (x) = -0.14762 0.20795
# Poissons Ratio (y) = -0.12297 0.06442
# Poissons Ratio (z) = 0.15187 0.05648
#
# Static dielectric constant tensor:
#      x y z
#    x 2.047050 0.004480 0.099670 
#    y 0.004480 1.986510 0.067610 
#    z 0.099670 0.067610 2.204620 
# 
# From -- ./inp_files/257957.got.cif
#   From: 2010.05.17/outbox.cif.g08.bks.cpg/sg2_129_cif.got.tgz:257957.got - 2010.06.03 11:33:40.
