data_PCOD9106283
_publ_section_title
;
Structure prediction by ZEFSAII (Michael W. Deem and Ramdas Pophale) SiO2 
 PCOD9106283
Probable space group: P -1
;
_chemical_formula_sum "Si O2"
_cell_formula_units_Z 16
_cell_length_a 11.976578
_cell_length_b 9.679219
_cell_length_c 11.385548
_cell_angle_alpha 141.690482
_cell_angle_beta 68.493913
_cell_angle_gamma 123.909976
_cell_volume 672.502946
_symmetry_space_group_name_H-M "P -1"
_symmetry_group_IT_number 2
_symmetry_cell_setting 'triclinic'
loop_
_space_group_symop_operation_xyz
x,y,z
-x,-y,-z
loop_
_atom_site_type_symbol
_atom_site_label
_atom_site_fract_x
_atom_site_fract_y
_atom_site_fract_z
Si Si1 0.033159 0.557930 0.268365
Si Si2 0.187129 0.253357 0.533128
Si Si3 0.587487 0.665131 0.336801
Si Si4 0.373072 0.693387 0.579150
Si Si5 0.118094 0.924710 0.143883
Si Si6 0.974203 0.156513 0.218648
Si Si7 0.595393 0.921875 0.988331
Si Si8 0.737865 0.122207 0.446638
O O1 0.185392 0.753125 0.377574
O O2 0.937721 0.686467 0.370885
O O3 0.989991 0.400153 0.304063
O O4 0.995671 0.347099 0.040219
O O5 0.266185 0.299442 0.655648
O O6 0.296336 0.459738 0.539463
O O7 0.142171 0.980996 0.309897
O O8 0.521755 0.733891 0.519103
O O9 0.483444 0.375929 0.160770
O O10 0.610430 0.858820 0.353273
O O11 0.301341 0.687014 0.479259
O O12 0.379140 0.931420 0.802579
O O13 0.259582 0.983527 0.067139
O O14 0.075829 0.136606 0.260071
O O15 0.836893 0.066892 0.286074
O O16 0.000000 0.000000 0.000000
O O17 0.500000 0.000000 0.000000
#
# Coordination Sequence:
#
# PCOD9106283 Si02
#       8
#     2   2   2   2   2   2   2   2
#     4  11  22  41  68  98 128 172 228 280 324 399
#     4  12  21  42  71  95 129 178 234 273 326 396
#     4  12  28  43  65 100 143 178 218 282 341 394
#     4  12  23  45  69  98 131 184 229 269 328 413
#     4  11  21  37  69 102 121 170 235 280 317 386
#     4  10  20  39  68  96 125 169 227 269 326 397
#     4  12  23  43  72 100 131 175 235 277 324 402
#     4  12  25  45  65 102 144 173 215 286 347 391
#
# _framework density 23.791719000000001
#
# number of rings (size 3 to 8) (size 9 to 14) (size 15 to 20)
#    0.000    0.500    6.250    3.375    0.000    1.000 
#    4.500    0.625    0.000    0.000    0.000    0.000 
#    0.000    0.000    0.000    0.000    0.000    0.000 
#
# Total GULP energy -89479.223453 kJ/mol
# GULP energy per Si atom -5592.451466 kJ/mol
# Density = 2.373757 g / cm^3
# Si number density = 23.791719 Si / 1000 Ang^3
#
#
#
# Elastic Constant Matrix: (Units=GPa)
#
#
# Indices 1 2 3 4 5 6 
#
# 1 105.3992 -5.2413 4.3955 -0.4309 -5.0966 2.9176
# 2 -5.2413 96.9487 17.9129 14.2334 -9.3054 -1.2369
# 3 4.3955 17.9129 118.7023 2.1206 2.6263 5.7479
# 4 -0.4309 14.2334 2.1206 23.4848 -0.4417 -1.0966
# 5 -5.0966 -9.3054 2.6263 -0.4417 33.3256 -5.8244
# 6 2.9176 -1.2369 5.7479 -1.0966 -5.8244 25.9594
#
#
#
# Elastic Compliance Matrix: (Units=1/GPa)
#
#
# Indices 1 2 3 4 5 6 
#
# 1 0.009641 0.000797 -0.000480 -0.000259 0.001629 -0.000585
# 2 0.000797 0.012123 -0.001889 -0.007022 0.003819 0.001467
# 3 -0.000480 -0.001889 0.008877 0.000191 -0.001714 -0.002378
# 4 -0.000259 -0.007022 0.000191 0.046857 -0.001154 0.001373
# 5 0.001629 0.003819 -0.001714 -0.001154 0.032785 0.007685
# 6 -0.000585 0.001467 -0.002378 0.001373 0.007685 0.040966
#
#
# Mechanical properties :
#
#
# Convention : Reuss Voigt Hill
#
# Bulk Modulus (GPa) = 36.36833 39.46496 37.91664
# Shear Modulus (GPa) = 30.56982 36.81949 33.69465
#
# Velocity S-wave (km/s) = 3.58843 3.93819 3.76737
# Velocity P-wave (km/s) = 5.69986 6.10760 5.90725
#
# Compressibility (1/GPa) = 0.02749645
#
# Stress axis : x y z
#
# Youngs Moduli (GPa) = 103.72032 82.48762 112.65148
#
# Poissons Ratio (x) = -0.06574 0.05412
# Poissons Ratio (y) = -0.08267 0.21280
# Poissons Ratio (z) = 0.04983 0.15582
#
# Static dielectric constant tensor:
#      x y z
#    x 1.962430 -0.050580 0.060900 
#    y -0.050580 1.914320 0.008210 
#    z 0.060900 0.008210 1.948210 
# 
# From -- ./inp_files/519367.got.cif
#   From: 2010.05.17/outbox.cif.g08.bks.cpg/sg2_260_cif.got.tgz:519367.got - 2010.06.03 11:33:40.
