data_PCOD9106684
_publ_section_title
;
Structure prediction by ZEFSAII (Michael W. Deem and Ramdas Pophale) SiO2 
 PCOD9106684
Probable space group: P -1
;
_chemical_formula_sum "Si O2"
_cell_formula_units_Z 16
_cell_length_a 14.093774
_cell_length_b 17.533998
_cell_length_c 5.946274
_cell_angle_alpha 126.808977
_cell_angle_beta 96.557112
_cell_angle_gamma 46.032456
_cell_volume 721.369918
_symmetry_space_group_name_H-M "P -1"
_symmetry_group_IT_number 2
_symmetry_cell_setting 'triclinic'
loop_
_space_group_symop_operation_xyz
x,y,z
-x,-y,-z
loop_
_atom_site_type_symbol
_atom_site_label
_atom_site_fract_x
_atom_site_fract_y
_atom_site_fract_z
Si Si1 0.306574 0.617674 0.434033
Si Si2 0.022015 0.106406 0.924685
Si Si3 0.178978 0.805548 0.349195
Si Si4 0.366959 0.970191 0.283948
Si Si5 0.127558 0.211675 0.306652
Si Si6 0.655289 0.849840 0.058877
Si Si7 0.927502 0.528825 0.781630
Si Si8 0.415919 0.708372 0.888207
O O1 0.276683 0.647466 0.215266
O O2 0.389299 0.653142 0.583524
O O3 0.414703 0.448612 0.247599
O O4 0.136409 0.751868 0.733849
O O5 0.966023 0.128154 0.696396
O O6 0.112907 0.940414 0.729788
O O7 0.125642 0.117538 0.994583
O O8 0.289175 0.772967 0.148231
O O9 0.504602 0.907361 0.059284
O O10 0.198576 0.126475 0.413176
O O11 0.385859 0.017775 0.598488
O O12 0.390508 0.839098 0.069199
O O13 0.958236 0.391661 0.564822
O O14 0.240233 0.202669 0.216430
O O15 0.758233 0.706880 0.012442
O O16 0.000000 0.500000 0.500000
O O17 0.000000 0.500000 0.000000
#
# Coordination Sequence:
#
# PCOD9106684 Si02
#       8
#     2   2   2   2   2   2   2   2
#     4  10  21  39  59  88 124 162 199 263 322 384
#     4  10  22  35  61  94 118 159 216 258 317 395
#     4  10  20  40  60  85 128 158 208 261 328 376
#     4  11  22  39  63  86 124 162 217 260 321 394
#     4  11  22  39  64  89 125 167 212 265 330 388
#     4  10  23  40  60  91 124 165 214 264 324 386
#     4  10  21  42  66  92 129 172 217 277 336 387
#     4  10  22  37  61  88 121 163 207 258 315 397
#
# _framework density 22.180021
#
# number of rings (size 3 to 8) (size 9 to 14) (size 15 to 20)
#    0.000    1.750    1.250    2.625    1.750    3.000 
#    0.000    0.000    0.000    0.000    0.000    0.000 
#    0.000    0.000    0.000    0.000    0.000    0.000 
#
# Total GULP energy -89177.658382 kJ/mol
# GULP energy per Si atom -5573.603649 kJ/mol
# Density = 2.212954 g / cm^3
# Si number density = 22.180021 Si / 1000 Ang^3
#
#
#
# Elastic Constant Matrix: (Units=GPa)
#
#
# Indices 1 2 3 4 5 6 
#
# 1 47.4942 13.1269 3.9805 -0.7328 -0.8384 2.7558
# 2 13.1269 127.0773 8.3029 19.3962 11.8035 8.3000
# 3 3.9805 8.3029 50.6268 9.8704 6.1881 8.6187
# 4 -0.7328 19.3962 9.8704 28.3780 2.1020 0.5800
# 5 -0.8384 11.8035 6.1881 2.1020 29.5422 11.5675
# 6 2.7558 8.3000 8.6187 0.5800 11.5675 22.2070
#
#
#
# Elastic Compliance Matrix: (Units=1/GPa)
#
#
# Indices 1 2 3 4 5 6 
#
# 1 0.022204 -0.002716 -0.001768 0.002883 0.002918 -0.002649
# 2 -0.002716 0.009485 0.000577 -0.006508 -0.002823 -0.001791
# 3 -0.001768 0.000577 0.022907 -0.008142 -0.001386 -0.007952
# 4 0.002883 -0.006508 -0.008142 0.042529 -0.000318 0.004290
# 5 0.002918 -0.002823 -0.001386 -0.000318 0.043827 -0.021590
# 6 -0.002649 -0.001791 -0.007952 0.004290 -0.021590 0.060249
#
#
# Mechanical properties :
#
#
# Convention : Reuss Voigt Hill
#
# Bulk Modulus (GPa) = 21.37604 30.66876 26.02240
# Shear Modulus (GPa) = 22.26081 29.34464 25.80272
#
# Velocity S-wave (km/s) = 3.17147 3.64128 3.41447
# Velocity P-wave (km/s) = 4.80306 5.61567 5.22519
#
# Compressibility (1/GPa) = 0.04678135
#
# Stress axis : x y z
#
# Youngs Moduli (GPa) = 45.03737 105.43386 43.65397
#
# Poissons Ratio (x) = 0.28637 0.07718
# Poissons Ratio (y) = 0.12233 -0.02518
# Poissons Ratio (z) = 0.07963 -0.06082
#
# Static dielectric constant tensor:
#      x y z
#    x 1.812880 0.001770 -0.051310 
#    y 0.001770 1.865450 -0.003970 
#    z -0.051310 -0.003970 1.889430 
# 
# From -- ./inp_files/98518.got.cif
#   From: 2010.05.17/outbox.cif.g08.bks.cpg/sg2_50_cif.got.tgz:98518.got - 2010.06.03 11:33:40.
