data_PCOD9106528
_publ_section_title
;
Structure prediction by ZEFSAII (Michael W. Deem and Ramdas Pophale) SiO2 
 PCOD9106528
Probable space group: P -1
;
_chemical_formula_sum "Si O2"
_cell_formula_units_Z 12
_cell_length_a 5.925714
_cell_length_b 11.323666
_cell_length_c 12.952378
_cell_angle_alpha 128.833454
_cell_angle_beta 45.759356
_cell_angle_gamma 122.277819
_cell_volume 477.712326
_symmetry_space_group_name_H-M "P -1"
_symmetry_group_IT_number 2
_symmetry_cell_setting 'triclinic'
loop_
_space_group_symop_operation_xyz
x,y,z
-x,-y,-z
loop_
_atom_site_type_symbol
_atom_site_label
_atom_site_fract_x
_atom_site_fract_y
_atom_site_fract_z
Si Si1 0.462505 0.181207 0.615138
Si Si2 0.232135 0.850660 0.103601
Si Si3 0.522039 0.541306 0.392951
Si Si4 0.743374 0.413052 0.811496
Si Si5 0.766895 0.118524 0.115389
Si Si6 0.216932 0.330876 0.214938
O O1 0.556908 0.299925 0.551498
O O2 0.618802 0.244149 0.711362
O O3 0.085529 0.182903 0.749346
O O4 0.500000 0.000000 0.500000
O O5 0.409538 0.024653 0.166534
O O6 0.143368 0.825856 0.998160
O O7 0.506163 0.747040 0.970290
O O8 0.500000 0.500000 0.500000
O O9 0.316396 0.381373 0.325777
O O10 0.894203 0.552818 0.245575
O O11 0.765306 0.504839 0.748901
O O12 0.500000 0.500000 0.000000
O O13 0.878025 0.239254 0.235322
O O14 0.000000 0.000000 0.000000
#
# Coordination Sequence:
#
# PCOD9106528 Si02
#       6
#     2   2   2   2   2   2
#     4  11  26  48  73 109 152 197 245 307 382 445
#     4  10  20  41  68 111 145 192 244 307 373 444
#     4  11  26  49  74 106 148 202 251 308 373 449
#     4  11  23  45  79 105 141 195 253 313 366 447
#     4   9  19  37  64 109 143 183 240 309 365 433
#     4  10  20  39  72 107 137 188 256 307 361 440
#
# _framework density 25.119719
#
# number of rings (size 3 to 8) (size 9 to 14) (size 15 to 20)
#    0.000    1.667    0.000    4.000    0.000    7.333 
#   24.000    0.000    0.000    0.000    0.000    0.000 
#    0.000    0.000    0.000    0.000    0.000    0.000 
#
# Total GULP energy -66807.047030 kJ/mol
# GULP energy per Si atom -5567.253919 kJ/mol
# Density = 2.506255 g / cm^3
# Si number density = 25.119719 Si / 1000 Ang^3
#
#
#
# Elastic Constant Matrix: (Units=GPa)
#
#
# Indices 1 2 3 4 5 6 
#
# 1 121.6969 51.2755 73.5616 8.0117 20.8717 18.5010
# 2 51.2755 118.1717 79.2298 18.8448 21.1255 5.5756
# 3 73.5616 79.2298 135.6335 3.7948 12.9024 27.3189
# 4 8.0117 18.8448 3.7948 37.5146 11.2846 -0.9531
# 5 20.8717 21.1255 12.9024 11.2846 50.9043 19.4504
# 6 18.5010 5.5756 27.3189 -0.9531 19.4504 54.3943
#
#
#
# Elastic Compliance Matrix: (Units=1/GPa)
#
#
# Indices 1 2 3 4 5 6 
#
# 1 0.012903 -0.000702 -0.006251 -0.000803 -0.003222 -0.000039
# 2 -0.000702 0.017005 -0.009962 -0.005768 -0.004939 0.005164
# 3 -0.006251 -0.009962 0.017524 0.003093 0.004297 -0.007136
# 4 -0.000803 -0.005768 0.003093 0.031173 -0.005695 0.001894
# 5 -0.003222 -0.004939 0.004297 -0.005695 0.027149 -0.010364
# 6 -0.000039 0.005164 -0.007136 0.001894 -0.010364 0.025191
#
#
# Mechanical properties :
#
#
# Convention : Reuss Voigt Hill
#
# Bulk Modulus (GPa) = 73.51335 87.07064 80.29199
# Shear Modulus (GPa) = 29.53195 39.99165 34.76180
#
# Velocity S-wave (km/s) = 3.43249 3.99437 3.72404
# Velocity P-wave (km/s) = 6.71104 7.48404 7.10805
#
# Compressibility (1/GPa) = 0.01360297
#
# Stress axis : x y z
#
# Youngs Moduli (GPa) = 77.50285 58.80794 57.06354
#
# Poissons Ratio (x) = 0.04125 0.35672
# Poissons Ratio (y) = 0.05437 0.56844
# Poissons Ratio (z) = 0.48449 0.58582
#
# Static dielectric constant tensor:
#      x y z
#    x 6.394430 1.299440 1.283820 
#    y 1.299440 2.466510 0.412720 
#    z 1.283820 0.412720 2.388100 
# 
# From -- ./inp_files/365351.got.cif
#   From: 2010.05.17/outbox.cif.g08.bks.cpg/sg2_183_cif.got.tgz:365351.got - 2010.06.03 11:33:40.
