data_PCOD9106533
_publ_section_title
;
Structure prediction by ZEFSAII (Michael W. Deem and Ramdas Pophale) SiO2 
 PCOD9106533
Probable space group: P -1
;
_chemical_formula_sum "Si O2"
_cell_formula_units_Z 12
_cell_length_a 17.866738
_cell_length_b 8.147423
_cell_length_c 6.941249
_cell_angle_alpha 39.588190
_cell_angle_beta 49.328101
_cell_angle_gamma 43.396931
_cell_volume 432.569253
_symmetry_space_group_name_H-M "P -1"
_symmetry_group_IT_number 2
_symmetry_cell_setting 'triclinic'
loop_
_space_group_symop_operation_xyz
x,y,z
-x,-y,-z
loop_
_atom_site_type_symbol
_atom_site_label
_atom_site_fract_x
_atom_site_fract_y
_atom_site_fract_z
Si Si1 0.927975 0.538365 0.308054
Si Si2 0.403714 0.215685 0.823594
Si Si3 0.838632 0.704908 0.723279
Si Si4 0.684203 0.257480 0.296740
Si Si5 0.802294 0.204989 0.791888
Si Si6 0.403391 0.828712 0.848782
O O1 0.896873 0.516856 0.604293
O O2 0.881090 0.877285 0.028978
O O3 0.061365 0.379995 0.217557
O O4 0.868222 0.369596 0.455633
O O5 0.395242 0.525721 0.608526
O O6 0.275614 0.290294 0.023250
O O7 0.500000 0.000000 0.000000
O O8 0.421898 0.068627 0.717502
O O9 0.793365 0.030841 0.426212
O O10 0.724099 0.392312 0.933252
O O11 0.630190 0.107726 0.379337
O O12 0.706314 0.170965 0.868651
O O13 0.500000 0.500000 0.000000
#
# Coordination Sequence:
#
# PCOD9106533 Si02
#       6
#     2   2   2   2   2   2
#     4  10  20  39  72  95 138 179 222 275 341 403
#     4  12  22  41  66  94 130 173 230 275 336 404
#     4  10  22  37  65  98 129 177 221 276 334 400
#     4   9  21  40  63  93 134 167 227 265 346 391
#     4   9  20  40  65 100 131 179 224 269 339 402
#     4  10  21  43  64  94 134 176 221 282 338 400
#
# _framework density 27.741223999999999
#
# number of rings (size 3 to 8) (size 9 to 14) (size 15 to 20)
#    1.000    1.000    3.333    0.000    2.333    2.667 
#    3.000    3.333    0.000    0.000    0.000    0.000 
#    0.000    0.000    0.000    0.000    0.000    0.000 
#
# Total GULP energy -67021.076785 kJ/mol
# GULP energy per Si atom -5585.089732 kJ/mol
# Density = 2.767808 g / cm^3
# Si number density = 27.741224 Si / 1000 Ang^3
#
#
#
# Elastic Constant Matrix: (Units=GPa)
#
#
# Indices 1 2 3 4 5 6 
#
# 1 144.9885 109.8847 41.2041 -6.6177 -13.1114 0.3321
# 2 109.8847 150.2219 37.8612 -1.7095 2.8656 -2.7058
# 3 41.2041 37.8612 94.9967 9.5511 -15.7169 -3.2077
# 4 -6.6177 -1.7095 9.5511 52.9123 -5.0708 5.0524
# 5 -13.1114 2.8656 -15.7169 -5.0708 45.2811 4.5862
# 6 0.3321 -2.7058 -3.2077 5.0524 4.5862 81.5756
#
#
#
# Elastic Compliance Matrix: (Units=1/GPa)
#
#
# Indices 1 2 3 4 5 6 
#
# 1 0.017482 -0.012364 -0.002053 0.002789 0.005550 -0.001047
# 2 -0.012364 0.016279 -0.001874 -0.001295 -0.005498 0.000906
# 3 -0.002053 -0.001874 0.013033 -0.002349 0.003745 0.000394
# 4 0.002789 -0.001295 -0.002349 0.020012 0.002470 -0.001525
# 5 0.005550 -0.005498 0.003745 0.002470 0.025784 -0.001660
# 6 -0.001047 0.000906 0.000394 -0.001525 -0.001660 0.012496
#
#
# Mechanical properties :
#
#
# Convention : Reuss Voigt Hill
#
# Bulk Modulus (GPa) = 70.35599 85.34523 77.85061
# Shear Modulus (GPa) = 35.11064 49.37093 42.24079
#
# Velocity S-wave (km/s) = 3.56146 4.22322 3.90638
# Velocity P-wave (km/s) = 6.50604 7.39002 6.96207
#
# Compressibility (1/GPa) = 0.01421343
#
# Stress axis : x y z
#
# Youngs Moduli (GPa) = 57.20040 61.42700 76.72776
#
# Poissons Ratio (x) = 0.75946 0.15751
# Poissons Ratio (y) = 0.70721 0.14381
# Poissons Ratio (z) = 0.11742 0.11513
#
# Static dielectric constant tensor:
#      x y z
#    x 2.257250 0.066110 -0.080270 
#    y 0.066110 2.210020 0.058960 
#    z -0.080270 0.058960 2.240690 
# 
# From -- ./inp_files/193229.got.cif
#   From: 2010.05.17/outbox.cif.g08.bks.cpg/sg2_97_cif.got.tgz:193229.got - 2010.06.03 11:33:40.
