data_PCOD9106672
_publ_section_title
;
Structure prediction by ZEFSAII (Michael W. Deem and Ramdas Pophale) SiO2 
 PCOD9106672
Probable space group: P -1
;
_chemical_formula_sum "Si O2"
_cell_formula_units_Z 16
_cell_length_a 21.083398
_cell_length_b 9.102141
_cell_length_c 16.754144
_cell_angle_alpha 50.329744
_cell_angle_beta 163.619905
_cell_angle_gamma 135.294243
_cell_volume 622.306915
_symmetry_space_group_name_H-M "P -1"
_symmetry_group_IT_number 2
_symmetry_cell_setting 'triclinic'
loop_
_space_group_symop_operation_xyz
x,y,z
-x,-y,-z
loop_
_atom_site_type_symbol
_atom_site_label
_atom_site_fract_x
_atom_site_fract_y
_atom_site_fract_z
Si Si1 0.534992 0.409219 0.491119
Si Si2 0.482210 0.031399 0.373623
Si Si3 0.871317 0.201878 0.217484
Si Si4 0.002575 0.105033 0.732213
Si Si5 0.804713 0.663474 0.580035
Si Si6 0.605605 0.729606 0.093133
Si Si7 0.305279 0.581764 0.931033
Si Si8 0.021022 0.826430 0.143279
O O1 0.500000 0.500000 0.500000
O O2 0.561850 0.202330 0.623616
O O3 0.757338 0.556824 0.647697
O O4 0.269559 0.347839 0.145543
O O5 0.500000 0.000000 0.500000
O O6 0.752749 0.208506 0.608411
O O7 0.253960 0.075146 0.058799
O O8 0.768405 0.307727 0.123525
O O9 0.966304 0.315193 0.207215
O O10 0.131828 0.228457 0.562709
O O11 0.681611 0.950893 0.060644
O O12 0.085377 0.348273 0.723749
O O13 0.891948 0.083994 0.694599
O O14 0.838469 0.906666 0.547295
O O15 0.541394 0.544275 0.257768
O O16 0.500000 0.500000 0.000000
O O17 0.410748 0.716709 0.931297
O O18 0.000000 0.000000 0.000000
#
# Coordination Sequence:
#
# PCOD9106672 Si02
#       8
#     2   2   2   2   2   2   2   2
#     4  11  23  42  62  93 128 174 230 284 335 387
#     4  11  22  40  63  85 121 172 221 279 336 386
#     4  10  24  43  69 101 135 174 211 275 321 392
#     4  12  24  42  62  93 127 177 221 274 332 393
#     4  11  24  43  63  96 134 171 231 272 328 401
#     4  10  22  44  72 105 135 169 217 258 328 400
#     4  11  24  44  66  99 141 173 216 270 328 394
#     4  10  20  40  60  83 123 160 220 276 330 385
#
# _framework density 25.710784
#
# number of rings (size 3 to 8) (size 9 to 14) (size 15 to 20)
#    0.000    1.250    3.750    2.625    0.000    7.000 
#    2.250    0.000    0.000    0.000    0.000    0.000 
#    0.000    0.000    0.000    0.000    0.000    0.000 
#
# Total GULP energy -89509.874501 kJ/mol
# GULP energy per Si atom -5594.367156 kJ/mol
# Density = 2.565227 g / cm^3
# Si number density = 25.710784 Si / 1000 Ang^3
#
#
#
# Elastic Constant Matrix: (Units=GPa)
#
#
# Indices 1 2 3 4 5 6 
#
# 1 160.8073 54.8855 42.7012 18.0512 54.2615 -2.0271
# 2 54.8855 143.8654 34.2752 34.0274 24.6392 -6.6241
# 3 42.7012 34.2752 97.5817 -1.9511 14.9986 0.5724
# 4 18.0512 34.0274 -1.9511 44.8599 -3.1383 3.8256
# 5 54.2615 24.6392 14.9986 -3.1383 50.7542 10.7102
# 6 -2.0271 -6.6241 0.5724 3.8256 10.7102 44.6373
#
#
#
# Elastic Compliance Matrix: (Units=1/GPa)
#
#
# Indices 1 2 3 4 5 6 
#
# 1 0.012614 0.000255 -0.003632 -0.006791 -0.013923 0.004580
# 2 0.000255 0.011095 -0.003281 -0.009427 -0.006110 0.003974
# 3 -0.003632 -0.003281 0.012729 0.004825 0.002393 -0.001803
# 4 -0.006791 -0.009427 0.004825 0.034071 0.014228 -0.008103
# 5 -0.013923 -0.006110 0.002393 0.014228 0.040358 -0.012472
# 6 0.004580 0.003974 -0.001803 -0.008103 -0.012472 0.026911
#
#
# Mechanical properties :
#
#
# Convention : Reuss Voigt Hill
#
# Bulk Modulus (GPa) = 43.25121 73.99757 58.62439
# Shear Modulus (GPa) = 31.48580 46.07646 38.78113
#
# Velocity S-wave (km/s) = 3.50325 4.23792 3.88797
# Velocity P-wave (km/s) = 5.76388 7.26566 6.55790
#
# Compressibility (1/GPa) = 0.02312074
#
# Stress axis : x y z
#
# Youngs Moduli (GPa) = 79.27582 90.13359 78.56170
#
# Poissons Ratio (x) = -0.02295 0.28534
# Poissons Ratio (y) = -0.02018 0.25776
# Poissons Ratio (z) = 0.28793 0.29573
#
# Static dielectric constant tensor:
#      x y z
#    x 2.071980 -0.035380 0.050520 
#    y -0.035380 2.132290 -0.028740 
#    z 0.050520 -0.028740 2.057590 
# 
# From -- ./inp_files/577320.got.cif
#   From: 2010.05.17/outbox.cif.g08.bks.cpg/sg2_289_cif.got.tgz:577320.got - 2010.06.03 11:33:40.
