data_PCOD9106581
_publ_section_title
;
Structure prediction by ZEFSAII (Michael W. Deem and Ramdas Pophale) SiO2 
 PCOD9106581
Probable space group: P -1
;
_chemical_formula_sum "Si O2"
_cell_formula_units_Z 13
_cell_length_a 5.694015
_cell_length_b 7.925158
_cell_length_c 11.607807
_cell_angle_alpha 109.597038
_cell_angle_beta 97.469193
_cell_angle_gamma 85.204112
_cell_volume 488.835401
_symmetry_space_group_name_H-M "P -1"
_symmetry_group_IT_number 2
_symmetry_cell_setting 'triclinic'
loop_
_space_group_symop_operation_xyz
x,y,z
-x,-y,-z
loop_
_atom_site_type_symbol
_atom_site_label
_atom_site_fract_x
_atom_site_fract_y
_atom_site_fract_z
Si Si1 0.955697 0.344205 0.297154
Si Si2 0.107538 0.241129 0.531116
Si Si3 0.227535 0.175600 0.053500
Si Si4 0.500000 0.500000 0.000000
Si Si5 0.473785 0.545619 0.792164
Si Si6 0.642643 0.193797 0.621511
Si Si7 0.787721 0.144764 0.873429
O O1 0.909969 0.555729 0.371363
O O2 0.678146 0.305438 0.251891
O O3 0.078936 0.260543 0.396944
O O4 0.085022 0.274577 0.174095
O O5 0.372224 0.162253 0.558714
O O6 0.867221 0.160830 0.545816
O O7 0.394615 0.339729 0.071276
O O8 0.330921 0.996135 0.080395
O O9 0.061776 0.123514 0.926291
O O10 0.660716 0.564838 0.146054
O O11 0.286917 0.652352 0.059253
O O12 0.620910 0.412002 0.690722
O O13 0.717098 0.111265 0.730345
#
# Coordination Sequence:
#
# PCOD9106581 Si02
#       7
#     2   2   2   1   2   2   2
#     4  10  21  38  62  96 125 166 218 271 316 393
#     4  10  22  39  69  93 132 168 229 262 325 377
#     4  11  22  42  60  98 123 177 204 282 320 405
#     4  10  20  40  56  96 118 168 202 272 308 408
#     4  10  21  35  66  87 132 162 223 254 337 372
#     4  10  22  42  63 100 124 179 213 279 311 395
#     4  10  24  40  64  91 136 159 228 256 346 378
#
# _framework density 26.593817999999999
#
# number of rings (size 3 to 8) (size 9 to 14) (size 15 to 20)
#    0.000    1.846    3.077    0.000    2.154    8.615 
#    2.769    1.538    0.000    0.000    0.000    0.000 
#    0.000    0.000    0.000    0.000    0.000    0.000 
#
# Total GULP energy -72445.453093 kJ/mol
# GULP energy per Si atom -5572.727161 kJ/mol
# Density = 2.653329 g / cm^3
# Si number density = 26.593818 Si / 1000 Ang^3
#
#
#
# Elastic Constant Matrix: (Units=GPa)
#
#
# Indices 1 2 3 4 5 6 
#
# 1 122.7737 42.3559 69.8277 -14.6500 9.0002 1.8729
# 2 42.3559 129.4157 17.1390 2.8375 17.5253 -14.2235
# 3 69.8277 17.1390 132.3123 -41.9121 25.8806 -20.0140
# 4 -14.6500 2.8375 -41.9121 48.7281 -16.0898 0.0899
# 5 9.0002 17.5253 25.8806 -16.0898 51.7850 5.8553
# 6 1.8729 -14.2235 -20.0140 0.0899 5.8553 49.0386
#
#
#
# Elastic Compliance Matrix: (Units=1/GPa)
#
#
# Indices 1 2 3 4 5 6 
#
# 1 0.014795 -0.004734 -0.009623 -0.002271 0.003849 -0.006321
# 2 -0.004734 0.010167 0.002310 -0.001623 -0.004802 0.004649
# 3 -0.009623 0.002310 0.018288 0.010718 -0.005959 0.009193
# 4 -0.002271 -0.001623 0.010718 0.030715 0.004750 0.003367
# 5 0.003849 -0.004802 -0.005959 0.004750 0.025515 -0.007027
# 6 -0.006321 0.004649 0.009193 0.003367 -0.007027 0.026567
#
#
# Mechanical properties :
#
#
# Convention : Reuss Voigt Hill
#
# Bulk Modulus (GPa) = 52.20214 71.46076 61.83145
# Shear Modulus (GPa) = 31.94346 46.92227 39.43287
#
# Velocity S-wave (km/s) = 3.46954 4.20504 3.85487
# Velocity P-wave (km/s) = 5.97681 7.10676 6.56614
#
# Compressibility (1/GPa) = 0.01915630
#
# Stress axis : x y z
#
# Youngs Moduli (GPa) = 67.59256 98.35444 54.67937
#
# Poissons Ratio (x) = 0.46559 0.52617
# Poissons Ratio (y) = 0.31997 -0.12629
# Poissons Ratio (z) = 0.65044 -0.22717
#
# Static dielectric constant tensor:
#      x y z
#    x 2.342530 0.083480 0.166960 
#    y 0.083480 2.218580 -0.057450 
#    z 0.166960 -0.057450 2.226900 
# 
# From -- ./inp_files/23992.got.cif
#   From: 2010.05.17/outbox.cif.g08.bks.cpg/sg2_12_cif.got.tgz:23992.got - 2010.06.03 11:33:40.
