data_PCOD9106163
_publ_section_title
;
Structure prediction by ZEFSAII (Michael W. Deem and Ramdas Pophale) SiO2 
 PCOD9106163
Probable space group: P -1
;
_chemical_formula_sum "Si O2"
_cell_formula_units_Z 16
_cell_length_a 15.134477
_cell_length_b 9.250982
_cell_length_c 11.276500
_cell_angle_alpha 43.127398
_cell_angle_beta 42.133569
_cell_angle_gamma 66.845145
_cell_volume 685.319429
_symmetry_space_group_name_H-M "P -1"
_symmetry_group_IT_number 2
_symmetry_cell_setting 'triclinic'
loop_
_space_group_symop_operation_xyz
x,y,z
-x,-y,-z
loop_
_atom_site_type_symbol
_atom_site_label
_atom_site_fract_x
_atom_site_fract_y
_atom_site_fract_z
Si Si1 0.216230 0.226704 0.088053
Si Si2 0.932227 0.640255 0.282095
Si Si3 0.208227 0.984976 0.837783
Si Si4 0.337821 0.613018 0.184392
Si Si5 0.083316 0.756112 0.643143
Si Si6 0.395731 0.427499 0.001220
Si Si7 0.595337 0.896147 0.205916
Si Si8 0.693903 0.066044 0.493317
O O1 0.295029 0.400643 0.007123
O O2 0.074963 0.258735 0.164237
O O3 0.158652 0.980170 0.355565
O O4 0.331523 0.241600 0.864465
O O5 0.822049 0.521822 0.562789
O O6 0.921172 0.458154 0.301250
O O7 0.874081 0.835396 0.178714
O O8 0.086352 0.748381 0.114426
O O9 0.325373 0.047618 0.782518
O O10 0.270614 0.972438 0.653604
O O11 0.380155 0.594597 0.017364
O O12 0.439742 0.517869 0.218727
O O13 0.366702 0.865575 0.041659
O O14 0.172274 0.786807 0.655734
O O15 0.352728 0.180972 0.252265
O O16 0.430919 0.830914 0.428570
#
# Coordination Sequence:
#
# PCOD9106163 Si02
#       8
#     2   2   2   2   2   2   2   2
#     4  10  22  39  64 102 132 158 211 272 320 374
#     4  11  24  42  65  91 129 175 212 259 316 386
#     4  11  26  43  62  93 132 173 214 262 314 382
#     4  10  20  39  67  97 123 168 218 264 319 371
#     4  10  23  41  66  96 130 170 209 264 322 378
#     4   9  20  37  66  97 129 162 210 271 319 373
#     4  11  24  41  68  97 126 167 215 269 317 376
#     4  10  22  44  66  90 132 170 207 264 326 380
#
# _framework density 23.346776999999999
#
# number of rings (size 3 to 8) (size 9 to 14) (size 15 to 20)
#    0.000    1.750    2.500    0.375    7.000    3.500 
#    0.000    0.625    0.000    0.000    0.000    0.000 
#    0.000    0.000    0.000    0.000    0.000    0.000 
#
# Total GULP energy -89516.719755 kJ/mol
# GULP energy per Si atom -5594.794985 kJ/mol
# Density = 2.329364 g / cm^3
# Si number density = 23.346777 Si / 1000 Ang^3
#
#
#
# Elastic Constant Matrix: (Units=GPa)
#
#
# Indices 1 2 3 4 5 6 
#
# 1 83.2448 -4.4258 20.9403 12.9259 -69.9219 -1.6599
# 2 -4.4258 80.2946 6.5588 7.7390 -37.3611 -7.0690
# 3 20.9403 6.5588 69.4745 9.8127 -23.3034 -10.8019
# 4 12.9259 7.7390 9.8127 33.8111 -13.3643 -8.2711
# 5 -69.9219 -37.3611 -23.3034 -13.3643 26.1464 -7.3601
# 6 -1.6599 -7.0690 -10.8019 -8.2711 -7.3601 26.0054
#
#
#
# Elastic Compliance Matrix: (Units=1/GPa)
#
#
# Indices 1 2 3 4 5 6 
#
# 1 0.001990 -0.006246 -0.005384 -0.005623 -0.013962 -0.009547
# 2 -0.006246 0.008142 -0.001863 -0.003115 -0.009025 -0.002504
# 3 -0.005384 -0.001863 0.016632 -0.001822 -0.001766 0.004979
# 4 -0.005623 -0.003115 -0.001822 0.034817 -0.000817 0.008880
# 5 -0.013962 -0.009025 -0.001766 -0.000817 -0.016517 -0.009013
# 6 -0.009547 -0.002504 0.004979 0.008880 -0.009013 0.039505
#
#
# Mechanical properties :
#
#
# Convention : Reuss Voigt Hill
#
# Bulk Modulus (GPa) = -4539.27419 31.01784 -2254.12817
# Shear Modulus (GPa) = 44.85126 31.18861 38.01993
#
# Velocity S-wave (km/s) = 4.38778 3.65894 4.03983
# Velocity P-wave (km/s) = 43.85013 5.58256 30.75442
#
# Compressibility (1/GPa) = -0.00022030
#
# Stress axis : x y z
#
# Youngs Moduli (GPa) = 502.47880 122.81549 60.12665
#
# Poissons Ratio (x) = 0.76707 0.32370
# Poissons Ratio (y) = 3.13832 0.11201
# Poissons Ratio (z) = 2.70514 0.22879
#
# Static dielectric constant tensor:
#      x y z
#    x 1.857950 -0.052950 0.022120 
#    y -0.052950 1.838920 -0.024900 
#    z 0.022120 -0.024900 1.904520 
# 
# From -- ./inp_files/154832.got.cif
#   From: 2010.05.17/outbox.cif.g08.bks.cpg/sg2_78_cif.got.tgz:154832.got - 2010.06.03 11:33:40.
