data_PCOD9106199
_publ_section_title
;
Structure prediction by ZEFSAII (Michael W. Deem and Ramdas Pophale) SiO2 
 PCOD9106199
Probable space group: P -1
;
_chemical_formula_sum "Si O2"
_cell_formula_units_Z 12
_cell_length_a 9.327901
_cell_length_b 7.975633
_cell_length_c 12.727167
_cell_angle_alpha 100.890709
_cell_angle_beta 143.497569
_cell_angle_gamma 102.571311
_cell_volume 428.361826
_symmetry_space_group_name_H-M "P -1"
_symmetry_group_IT_number 2
_symmetry_cell_setting 'triclinic'
loop_
_space_group_symop_operation_xyz
x,y,z
-x,-y,-z
loop_
_atom_site_type_symbol
_atom_site_label
_atom_site_fract_x
_atom_site_fract_y
_atom_site_fract_z
Si Si1 0.184792 0.075340 0.372807
Si Si2 0.973597 0.668038 0.808583
Si Si3 0.795588 0.162539 0.821829
Si Si4 0.418278 0.185989 0.889418
Si Si5 0.709204 0.554556 0.284213
Si Si6 0.679630 0.307976 0.427337
O O1 0.507397 0.153345 0.618924
O O2 0.932414 0.008132 0.305042
O O3 0.069088 0.864729 0.206250
O O4 0.205505 0.248706 0.330868
O O5 0.839305 0.442234 0.644745
O O6 0.331177 0.843479 0.997360
O O7 0.983759 0.660796 0.938867
O O8 0.631693 0.930668 0.759111
O O9 0.412003 0.315966 0.804714
O O10 0.559809 0.351044 0.091637
O O11 0.646733 0.457341 0.351388
O O12 0.076275 0.704697 0.490749
#
# Coordination Sequence:
#
# PCOD9106199 Si02
#       6
#     2   2   2   2   2   2
#     4  11  24  44  66  96 137 174 213 267 333 390
#     4  11  25  41  69 103 124 172 226 270 319 384
#     4  11  25  46  67  94 137 178 209 268 332 390
#     4  10  20  39  68 100 130 167 222 272 324 382
#     4   9  19  36  66  99 131 170 212 275 330 374
#     4  10  21  42  66  96 133 169 219 270 323 386
#
# _framework density 28.013701000000001
#
# number of rings (size 3 to 8) (size 9 to 14) (size 15 to 20)
#    0.000    1.667    1.667    2.000    2.333    4.000 
#    0.000    3.333    0.000    0.000    0.000    0.000 
#    0.000    0.000    0.000    0.000    0.000    0.000 
#
# Total GULP energy -67412.508581 kJ/mol
# GULP energy per Si atom -5617.709048 kJ/mol
# Density = 2.794994 g / cm^3
# Si number density = 28.013701 Si / 1000 Ang^3
#
#
#
# Elastic Constant Matrix: (Units=GPa)
#
#
# Indices 1 2 3 4 5 6 
#
# 1 154.8469 34.0483 44.9207 -0.1250 2.0742 -16.8246
# 2 34.0483 95.9269 29.0980 -32.9010 -6.1501 14.5591
# 3 44.9207 29.0980 97.7672 -2.8475 -39.9802 -0.9623
# 4 -0.1250 -32.9010 -2.8475 50.3702 -1.1278 1.3070
# 5 2.0742 -6.1501 -39.9802 -1.1278 61.5244 3.3187
# 6 -16.8246 14.5591 -0.9623 1.3070 3.3187 39.0614
#
#
#
# Elastic Compliance Matrix: (Units=1/GPa)
#
#
# Indices 1 2 3 4 5 6 
#
# 1 0.009518 -0.004184 -0.004933 -0.003241 -0.004329 0.006013
# 2 -0.004184 0.018412 -0.002985 0.012104 0.000760 -0.009208
# 3 -0.004933 -0.002985 0.018148 -0.000633 0.011732 -0.001541
# 4 -0.003241 0.012104 -0.000633 0.027937 0.001798 -0.007010
# 5 -0.004329 0.000760 0.011732 0.001798 0.024348 -0.003988
# 6 0.006013 -0.009208 -0.001541 -0.007010 -0.003988 0.032158
#
#
# Mechanical properties :
#
#
# Convention : Reuss Voigt Hill
#
# Bulk Modulus (GPa) = 45.71610 62.74167 54.22888
# Shear Modulus (GPa) = 30.86122 46.22280 38.54201
#
# Velocity S-wave (km/s) = 3.32271 4.06643 3.71324
# Velocity P-wave (km/s) = 5.57451 6.67033 6.14689
#
# Compressibility (1/GPa) = 0.02187413
#
# Stress axis : x y z
#
# Youngs Moduli (GPa) = 105.06675 54.31095 55.10399
#
# Poissons Ratio (x) = 0.22721 0.27184
# Poissons Ratio (y) = 0.43955 0.16449
# Poissons Ratio (z) = 0.51832 0.16212
#
# Static dielectric constant tensor:
#      x y z
#    x 2.132400 0.025110 0.003530 
#    y 0.025110 2.096790 0.036840 
#    z 0.003530 0.036840 2.166740 
# 
# From -- ./inp_files/173293.got.cif
#   From: 2010.05.17/outbox.cif.g08.bks.cpg/sg2_87_cif.got.tgz:173293.got - 2010.06.03 11:33:40.
