data_PCOD9106324
_publ_section_title
;
Structure prediction by ZEFSAII (Michael W. Deem and Ramdas Pophale) SiO2 
 PCOD9106324
Probable space group: P -1
;
_chemical_formula_sum "Si O2"
_cell_formula_units_Z 15
_cell_length_a 11.021667
_cell_length_b 10.867178
_cell_length_c 9.589878
_cell_angle_alpha 72.242095
_cell_angle_beta 38.285002
_cell_angle_gamma 54.178740
_cell_volume 549.116584
_symmetry_space_group_name_H-M "P -1"
_symmetry_group_IT_number 2
_symmetry_cell_setting 'triclinic'
loop_
_space_group_symop_operation_xyz
x,y,z
-x,-y,-z
loop_
_atom_site_type_symbol
_atom_site_label
_atom_site_fract_x
_atom_site_fract_y
_atom_site_fract_z
Si Si1 0.695812 0.547501 0.884267
Si Si2 0.680015 0.004760 0.593644
Si Si3 0.674460 0.094944 0.006882
Si Si4 0.000000 0.000000 0.500000
Si Si5 0.150035 0.648923 0.764564
Si Si6 0.316549 0.828931 0.730140
Si Si7 0.710293 0.657394 0.104541
Si Si8 0.677343 0.499196 0.628203
O O1 0.477339 0.725983 0.976111
O O2 0.820566 0.461907 0.656849
O O3 0.828462 0.571523 0.880376
O O4 0.566360 0.478157 0.102429
O O5 0.934177 0.910510 0.474104
O O6 0.674982 0.054007 0.422495
O O7 0.551063 0.176658 0.732191
O O8 0.524560 0.938663 0.776895
O O9 0.790702 0.089162 0.052163
O O10 0.857997 0.978906 0.762736
O O11 0.203172 0.753488 0.771813
O O12 0.299695 0.468372 0.753254
O O13 0.216440 0.625986 0.549471
O O14 0.878002 0.700486 0.007749
O O15 0.581857 0.671494 0.591016
#
# Coordination Sequence:
#
# PCOD9106324 Si02
#       8
#     2   2   2   1   2   2   2   2
#     4  10  21  40  65  95 140 173 223 295 334 408
#     4  12  26  47  72 102 142 187 237 292 346 420
#     4  11  27  47  69 105 141 187 242 283 350 420
#     4  12  28  48  74  96 134 200 234 288 358 404
#     4  11  23  40  69 106 136 184 232 274 365 419
#     4  11  23  45  72 101 142 185 233 296 346 420
#     4  11  23  41  67 102 145 175 230 299 335 422
#     4  10  20  39  68  99 129 182 231 273 359 413
#
# _framework density 27.316604999999999
#
# number of rings (size 3 to 8) (size 9 to 14) (size 15 to 20)
#    0.000    1.067    4.000    2.000    1.867    1.067 
#    2.400    0.000    0.000    0.000    0.000    0.000 
#    0.000    0.000    0.000    0.000    0.000    0.000 
#
# Total GULP energy -83809.916141 kJ/mol
# GULP energy per Si atom -5587.327743 kJ/mol
# Density = 2.725443 g / cm^3
# Si number density = 27.316605 Si / 1000 Ang^3
#
#
#
# Elastic Constant Matrix: (Units=GPa)
#
#
# Indices 1 2 3 4 5 6 
#
# 1 133.4756 10.8167 53.3368 -18.6078 31.5096 18.9797
# 2 10.8167 99.2701 35.1869 2.3610 5.7774 -0.8012
# 3 53.3368 35.1869 139.9334 -21.2734 39.8958 4.6729
# 4 -18.6078 2.3610 -21.2734 39.3116 10.8083 -1.1611
# 5 31.5096 5.7774 39.8958 10.8083 65.2393 -13.4452
# 6 18.9797 -0.8012 4.6729 -1.1611 -13.4452 25.5511
#
#
#
# Elastic Compliance Matrix: (Units=1/GPa)
#
#
# Indices 1 2 3 4 5 6 
#
# 1 0.013837 -0.001325 0.000397 0.009590 -0.011721 -0.016124
# 2 -0.001325 0.011686 -0.004375 -0.004643 0.003869 0.003975
# 3 0.000397 -0.004375 0.013189 0.010453 -0.011317 -0.008324
# 4 0.009590 -0.004643 0.010453 0.041210 -0.021251 -0.018491
# 5 -0.011721 0.003869 -0.011317 -0.021251 0.037165 0.029488
# 6 -0.016124 0.003975 -0.008324 -0.018491 0.029488 0.067438
#
#
# Mechanical properties :
#
#
# Convention : Reuss Voigt Hill
#
# Bulk Modulus (GPa) = 35.57922 63.48444 49.53183
# Shear Modulus (GPa) = 24.44996 44.24299 34.34647
#
# Velocity S-wave (km/s) = 2.99500 4.02884 3.54976
# Velocity P-wave (km/s) = 5.00131 6.70319 5.91379
#
# Compressibility (1/GPa) = 0.02810629
#
# Stress axis : x y z
#
# Youngs Moduli (GPa) = 72.26783 85.57225 75.82177
#
# Poissons Ratio (x) = 0.11334 -0.03009
# Poissons Ratio (y) = 0.09572 0.33174
# Poissons Ratio (z) = -0.02868 0.37440
#
# Static dielectric constant tensor:
#      x y z
#    x 2.459130 -0.233260 -0.124890 
#    y -0.233260 2.247700 0.099790 
#    z -0.124890 0.099790 2.182370 
# 
# From -- ./inp_files/257326.got.cif
#   From: 2010.05.17/outbox.cif.g08.bks.cpg/sg2_129_cif.got.tgz:257326.got - 2010.06.03 11:33:40.
