data_PCOD9106261
_publ_section_title
;
Structure prediction by ZEFSAII (Michael W. Deem and Ramdas Pophale) SiO2 
 PCOD9106261
Probable space group: P -1
;
_chemical_formula_sum "Si O2"
_cell_formula_units_Z 14
_cell_length_a 19.834948
_cell_length_b 22.903513
_cell_length_c 8.147452
_cell_angle_alpha 29.087252
_cell_angle_beta 140.994250
_cell_angle_gamma 160.055903
_cell_volume 591.368903
_symmetry_space_group_name_H-M "P -1"
_symmetry_group_IT_number 2
_symmetry_cell_setting 'triclinic'
loop_
_space_group_symop_operation_xyz
x,y,z
-x,-y,-z
loop_
_atom_site_type_symbol
_atom_site_label
_atom_site_fract_x
_atom_site_fract_y
_atom_site_fract_z
Si Si1 0.901473 0.242169 0.493980
Si Si2 0.908615 0.061977 0.528729
Si Si3 0.749602 0.475524 0.774101
Si Si4 0.879618 0.272508 0.758499
Si Si5 0.530658 0.389270 0.288347
Si Si6 0.524774 0.078817 0.534576
Si Si7 0.032009 0.116601 0.121788
O O1 0.911225 0.301558 0.551219
O O2 0.102162 0.458583 0.230808
O O3 0.693360 0.092725 0.386802
O O4 0.876943 0.074195 0.886885
O O5 0.083503 0.266443 0.486063
O O6 0.659403 0.828194 0.652192
O O7 0.949522 0.966585 0.779402
O O8 0.932007 0.190889 0.121954
O O9 0.563281 0.349400 0.620797
O O10 0.661923 0.325078 0.137534
O O11 0.650226 0.092978 0.822284
O O12 0.000000 0.500000 0.500000
O O13 0.500000 0.500000 0.000000
O O14 0.761758 0.610498 0.116018
O O15 0.500000 0.000000 0.500000
O O16 0.000000 0.000000 0.500000
#
# Coordination Sequence:
#
# PCOD9106261 Si02
#       7
#     2   2   2   2   2   2   2
#     4  10  23  42  67  94 129 170 225 263 341 393
#     4  11  22  43  69  95 135 173 220 272 337 385
#     4  11  23  43  66  99 133 172 221 279 324 394
#     4  11  21  41  66  92 131 176 215 274 326 385
#     4   9  21  37  64  92 130 172 208 265 334 387
#     4  10  22  40  66  90 131 175 219 271 328 382
#     4  10  20  39  68  94 129 170 213 272 332 401
#
# _framework density 23.673884999999999
#
# number of rings (size 3 to 8) (size 9 to 14) (size 15 to 20)
#    0.000    1.714    2.857    1.714    2.000    7.429 
#    7.714    1.429    0.000    0.000    0.000    0.000 
#    0.000    0.000    0.000    0.000    0.000    0.000 
#
# Total GULP energy -77995.131970 kJ/mol
# GULP energy per Si atom -5571.080855 kJ/mol
# Density = 2.362000 g / cm^3
# Si number density = 23.673885 Si / 1000 Ang^3
#
#
#
# Elastic Constant Matrix: (Units=GPa)
#
#
# Indices 1 2 3 4 5 6 
#
# 1 67.0675 28.3873 14.1108 0.5514 18.2134 7.8286
# 2 28.3873 92.1468 13.3534 -6.7058 35.8235 4.4772
# 3 14.1108 13.3534 111.2186 8.8277 17.1534 -3.6825
# 4 0.5514 -6.7058 8.8277 47.6296 1.6533 15.6285
# 5 18.2134 35.8235 17.1534 1.6533 29.7027 0.8598
# 6 7.8286 4.4772 -3.6825 15.6285 0.8598 34.4305
#
#
#
# Elastic Compliance Matrix: (Units=1/GPa)
#
#
# Indices 1 2 3 4 5 6 
#
# 1 0.018810 -0.002045 -0.001122 0.001504 -0.008370 -0.004605
# 2 -0.002045 0.022057 0.001107 0.005132 -0.026159 -0.003961
# 3 -0.001122 0.001107 0.010269 -0.002301 -0.006520 0.002417
# 4 0.001504 0.005132 -0.002301 0.026698 -0.006886 -0.013202
# 5 -0.008370 -0.026159 -0.006520 -0.006886 0.074328 0.005877
# 6 -0.004605 -0.003961 0.002417 -0.013202 0.005877 0.036710
#
#
# Mechanical properties :
#
#
# Convention : Reuss Voigt Hill
#
# Bulk Modulus (GPa) = 21.26865 42.45955 31.86410
# Shear Modulus (GPa) = 23.96199 36.65799 30.30999
#
# Velocity S-wave (km/s) = 3.18491 3.93931 3.58203
# Velocity P-wave (km/s) = 4.74641 6.21812 5.53143
#
# Compressibility (1/GPa) = 0.04701756
#
# Stress axis : x y z
#
# Youngs Moduli (GPa) = 53.16266 45.33615 97.38147
#
# Poissons Ratio (x) = 0.09271 0.10925
# Poissons Ratio (y) = 0.10871 -0.10782
# Poissons Ratio (z) = 0.05964 -0.05020
#
# Static dielectric constant tensor:
#      x y z
#    x 1.948450 0.025330 -0.037420 
#    y 0.025330 2.115910 0.013600 
#    z -0.037420 0.013600 2.052470 
# 
# From -- ./inp_files/291854.got.cif
#   From: 2010.05.17/outbox.cif.g08.bks.cpg/sg2_146_cif.got.tgz:291854.got - 2010.06.03 11:33:40.
