data_PCOD9106897
_publ_section_title
;
Structure prediction by ZEFSAII (Michael W. Deem and Ramdas Pophale) SiO2 
 PCOD9106897
Probable space group: P -1
;
_chemical_formula_sum "Si O2"
_cell_formula_units_Z 14
_cell_length_a 10.580927
_cell_length_b 10.633263
_cell_length_c 9.097127
_cell_angle_alpha 124.215522
_cell_angle_beta 46.317944
_cell_angle_gamma 95.980952
_cell_volume 538.567984
_symmetry_space_group_name_H-M "P -1"
_symmetry_group_IT_number 2
_symmetry_cell_setting 'triclinic'
loop_
_space_group_symop_operation_xyz
x,y,z
-x,-y,-z
loop_
_atom_site_type_symbol
_atom_site_label
_atom_site_fract_x
_atom_site_fract_y
_atom_site_fract_z
Si Si1 0.248091 0.231881 0.100139
Si Si2 0.850534 0.597249 0.389757
Si Si3 0.048010 0.764790 0.885233
Si Si4 0.292900 0.767486 0.079211
Si Si5 0.607987 0.164074 0.271782
Si Si6 0.322952 0.424132 0.911639
Si Si7 0.837321 0.895328 0.422356
O O1 0.204934 0.323894 0.351582
O O2 0.038836 0.261824 0.214929
O O3 0.340671 0.319861 0.976955
O O4 0.372056 0.025592 0.874517
O O5 0.772392 0.762584 0.456557
O O6 0.817871 0.430830 0.287072
O O7 0.089208 0.506717 0.117645
O O8 0.860574 0.869968 0.212763
O O9 0.817807 0.142771 0.153568
O O10 0.064463 0.832589 0.254098
O O11 0.284795 0.914015 0.290282
O O12 0.405911 0.764453 0.836290
O O13 0.367543 0.585132 0.979084
O O14 0.455271 0.294896 0.595729
#
# Coordination Sequence:
#
# PCOD9106897 Si02
#       7
#     2   2   2   2   2   2   2
#     4  11  22  41  60  85 117 157 192 231 288 351
#     4  10  20  40  62  85 114 155 196 232 284 348
#     4  10  21  34  61  90 114 146 198 243 277 334
#     4   9  18  34  59  87 115 150 194 235 285 340
#     4  11  21  38  60  89 117 149 192 243 288 335
#     4  10  21  35  61  86 117 152 190 236 291 344
#     4   9  17  34  61  87 112 149 198 238 275 337
#
# _framework density 25.994861
#
# number of rings (size 3 to 8) (size 9 to 14) (size 15 to 20)
#    0.000    2.000    1.429    3.429    2.000    1.143 
#    2.571    2.857    6.286    4.286    0.000    0.000 
#    0.000    0.000    0.000    0.000    0.000    0.000 
#
# Total GULP energy -78520.564298 kJ/mol
# GULP energy per Si atom -5608.611736 kJ/mol
# Density = 2.593570 g / cm^3
# Si number density = 25.994861 Si / 1000 Ang^3
#
#
#
# Elastic Constant Matrix: (Units=GPa)
#
#
# Indices 1 2 3 4 5 6 
#
# 1 90.5580 31.8374 20.7919 -3.6055 15.9552 7.8454
# 2 31.8374 184.1050 85.8045 9.4242 2.3093 22.0160
# 3 20.7919 85.8045 206.8713 0.2293 20.4534 10.5788
# 4 -3.6055 9.4242 0.2293 49.6087 -1.8645 2.0950
# 5 15.9552 2.3093 20.4534 -1.8645 37.4733 6.2386
# 6 7.8454 22.0160 10.5788 2.0950 6.2386 32.4877
#
#
#
# Elastic Compliance Matrix: (Units=1/GPa)
#
#
# Indices 1 2 3 4 5 6 
#
# 1 0.012810 -0.002208 0.000182 0.001183 -0.005238 -0.000727
# 2 -0.002208 0.007774 -0.003060 -0.001343 0.002761 -0.004182
# 3 0.000182 -0.003060 0.006396 0.000410 -0.003457 0.000584
# 4 0.001183 -0.001343 0.000410 0.020557 0.000534 -0.000938
# 5 -0.005238 0.002761 -0.003457 0.000534 0.031588 -0.005581
# 6 -0.000727 -0.004182 0.000584 -0.000938 -0.005581 0.034732
#
#
# Mechanical properties :
#
#
# Convention : Reuss Voigt Hill
#
# Bulk Modulus (GPa) = 59.49515 84.26688 71.88102
# Shear Modulus (GPa) = 38.57067 46.78730 42.67898
#
# Velocity S-wave (km/s) = 3.85617 4.24709 4.05634
# Velocity P-wave (km/s) = 6.53939 7.51914 7.04631
#
# Compressibility (1/GPa) = 0.01680809
#
# Stress axis : x y z
#
# Youngs Moduli (GPa) = 78.06389 128.63500 156.33969
#
# Poissons Ratio (x) = 0.28403 -0.02846
# Poissons Ratio (y) = 0.17237 0.47841
# Poissons Ratio (z) = -0.01421 0.39364
#
# Static dielectric constant tensor:
#      x y z
#    x 2.123900 -0.041990 -0.099710 
#    y -0.041990 2.043110 0.013990 
#    z -0.099710 0.013990 1.967180 
# 
# From -- ./inp_files/305642.got.cif
#   From: 2010.05.17/outbox.cif.g08.bks.cpg/sg2_153_cif.got.tgz:305642.got - 2010.06.03 11:33:40.
