data_PCOD9106343
_publ_section_title
;
Structure prediction by ZEFSAII (Michael W. Deem and Ramdas Pophale) SiO2 
 PCOD9106343
Probable space group: P -1
;
_chemical_formula_sum "Si O2"
_cell_formula_units_Z 16
_cell_length_a 18.691146
_cell_length_b 9.619574
_cell_length_c 12.454762
_cell_angle_alpha 143.851834
_cell_angle_beta 142.818503
_cell_angle_gamma 35.821479
_cell_volume 704.704832
_symmetry_space_group_name_H-M "P -1"
_symmetry_group_IT_number 2
_symmetry_cell_setting 'triclinic'
loop_
_space_group_symop_operation_xyz
x,y,z
-x,-y,-z
loop_
_atom_site_type_symbol
_atom_site_label
_atom_site_fract_x
_atom_site_fract_y
_atom_site_fract_z
Si Si1 0.640496 0.440158 0.080291
Si Si2 0.286072 0.509517 0.393117
Si Si3 0.289979 0.794661 0.209716
Si Si4 0.913851 0.115705 0.303125
Si Si5 0.468926 0.761476 0.776079
Si Si6 0.557544 0.031124 0.356007
Si Si7 0.093863 0.789176 0.135661
Si Si8 0.978920 0.380296 0.735491
O O1 0.759637 0.321968 0.234091
O O2 0.606670 0.735548 0.187778
O O3 0.500000 0.500000 0.000000
O O4 0.692067 0.237990 0.915973
O O5 0.349692 0.695767 0.631736
O O6 0.407522 0.211633 0.334168
O O7 0.211720 0.633657 0.268366
O O8 0.172300 0.508771 0.332842
O O9 0.397970 0.506447 0.204628
O O10 0.340509 0.990799 0.442432
O O11 0.152441 0.850634 0.136954
O O12 0.987422 0.226198 0.539801
O O13 0.987402 0.046433 0.233433
O O14 0.932715 0.840092 0.206983
O O15 0.439447 0.805381 0.641905
O O16 0.500000 0.000000 0.000000
O O17 0.026351 0.600558 0.915608
#
# Coordination Sequence:
#
# PCOD9106343 Si02
#       8
#     2   2   2   2   2   2   2   2
#     4  12  30  44  67 100 141 183 224 278 352 420
#     4  10  20  39  69 106 138 169 234 286 336 399
#     4  11  24  44  67 103 133 182 229 280 347 397
#     4  10  25  46  62 103 136 176 234 271 340 406
#     4  11  20  38  72 107 137 176 227 289 343 401
#     4  11  23  43  66 102 140 178 220 289 340 407
#     4  11  22  43  74  98 131 177 235 283 333 399
#     4  10  24  43  75  99 133 182 223 298 331 389
#
# _framework density 22.704540999999999
#
# number of rings (size 3 to 8) (size 9 to 14) (size 15 to 20)
#    0.000    1.250    3.750    2.250    7.000    6.000 
#    0.000    1.250    0.000    0.000    0.000    0.000 
#    0.000    0.000    0.000    0.000    0.000    0.000 
#
# Total GULP energy -89441.569996 kJ/mol
# GULP energy per Si atom -5590.098125 kJ/mol
# Density = 2.265286 g / cm^3
# Si number density = 22.704541 Si / 1000 Ang^3
#
#
#
# Elastic Constant Matrix: (Units=GPa)
#
#
# Indices 1 2 3 4 5 6 
#
# 1 103.7046 24.4346 29.8827 -7.1116 -0.3402 -18.8711
# 2 24.4346 58.0193 5.8593 -16.6736 15.2773 -16.1622
# 3 29.8827 5.8593 89.4156 0.0524 -3.4882 -10.4111
# 4 -7.1116 -16.6736 0.0524 23.4539 -6.3798 -0.8802
# 5 -0.3402 15.2773 -3.4882 -6.3798 33.0519 -11.3020
# 6 -18.8711 -16.1622 -10.4111 -0.8802 -11.3020 22.3386
#
#
#
# Elastic Compliance Matrix: (Units=1/GPa)
#
#
# Indices 1 2 3 4 5 6 
#
# 1 0.013388 -0.002494 -0.002784 0.004254 0.005662 0.011240
# 2 -0.002494 0.030454 0.000967 0.020718 -0.003330 0.019509
# 3 -0.002784 0.000967 0.012861 0.000875 0.003080 0.005935
# 4 0.004254 0.020718 0.000875 0.063000 0.012169 0.027631
# 5 0.005662 -0.003330 0.003080 0.012169 0.043523 0.026309
# 6 0.011240 0.019509 0.005935 0.027631 0.026309 0.085541
#
#
# Mechanical properties :
#
#
# Convention : Reuss Voigt Hill
#
# Bulk Modulus (GPa) = 20.79783 41.27699 31.03741
# Shear Modulus (GPa) = 18.28709 28.49973 23.39341
#
# Velocity S-wave (km/s) = 2.84110 3.54679 3.21337
# Velocity P-wave (km/s) = 4.46571 5.91544 5.24095
#
# Compressibility (1/GPa) = 0.04808193
#
# Stress axis : x y z
#
# Youngs Moduli (GPa) = 74.69172 32.83688 77.75201
#
# Poissons Ratio (x) = 0.08191 0.21645
# Poissons Ratio (y) = 0.18631 -0.07522
# Poissons Ratio (z) = 0.20793 -0.03177
#
# Static dielectric constant tensor:
#      x y z
#    x 1.750510 -0.051010 -0.136050 
#    y -0.051010 1.806020 -0.085260 
#    z -0.136050 -0.085260 1.742520 
# 
# From -- ./inp_files/462595.got.cif
#   From: 2010.05.17/outbox.cif.g08.bks.cpg/sg2_232_cif.got.tgz:462595.got - 2010.06.03 11:33:40.
