data_PCOD9106071
_publ_section_title
;
Structure prediction by ZEFSAII (Michael W. Deem and Ramdas Pophale) SiO2 
 PCOD9106071
Probable space group: P -1
;
_chemical_formula_sum "Si O2"
_cell_formula_units_Z 14
_cell_length_a 11.586158
_cell_length_b 12.152972
_cell_length_c 13.848172
_cell_angle_alpha 129.419807
_cell_angle_beta 29.064637
_cell_angle_gamma 137.661329
_cell_volume 637.622284
_symmetry_space_group_name_H-M "P -1"
_symmetry_group_IT_number 2
_symmetry_cell_setting 'triclinic'
loop_
_space_group_symop_operation_xyz
x,y,z
-x,-y,-z
loop_
_atom_site_type_symbol
_atom_site_label
_atom_site_fract_x
_atom_site_fract_y
_atom_site_fract_z
Si Si1 0.187218 0.898289 0.133182
Si Si2 0.937073 0.385783 0.072827
Si Si3 0.704894 0.312902 0.394816
Si Si4 0.219351 0.956019 0.522930
Si Si5 0.964548 0.645952 0.654213
Si Si6 0.037362 0.178537 0.548019
Si Si7 0.549924 0.553635 0.747738
O O1 0.021156 0.778275 0.278583
O O2 0.027851 0.998340 0.277395
O O3 0.170135 0.793110 0.993759
O O4 0.500000 0.000000 0.000000
O O5 0.741428 0.378775 0.296273
O O6 0.233596 0.469460 0.948991
O O7 0.000000 0.500000 0.000000
O O8 0.491753 0.122976 0.434769
O O9 0.981397 0.348942 0.268747
O O10 0.594321 0.408056 0.593459
O O11 0.182555 0.825076 0.556906
O O12 0.194832 0.865686 0.387878
O O13 0.000000 0.500000 0.500000
O O14 0.697519 0.622052 0.780121
O O15 0.309859 0.306875 0.362117
O O16 0.000000 0.000000 0.500000
#
# Coordination Sequence:
#
# PCOD9106071 Si02
#       7
#     2   2   2   2   2   2   2
#     4  11  23  38  58  93 135 165 209 253 315 386
#     4  12  27  37  64  96 129 169 212 259 314 385
#     4  11  22  42  65  92 124 169 212 261 324 365
#     4  10  20  39  67  92 124 165 212 265 315 376
#     4   9  21  41  71  90 120 168 214 263 317 378
#     4   9  20  36  61  83 121 172 198 254 317 368
#     4  10  22  43  61  92 128 160 215 264 314 373
#
# _framework density 21.956572000000001
#
# number of rings (size 3 to 8) (size 9 to 14) (size 15 to 20)
#    0.000    1.714    1.429    2.143   10.000    1.714 
#    0.000    0.714    6.286    0.000    0.000    0.000 
#    0.000    0.000    0.000    0.000    0.000    0.000 
#
# Total GULP energy -77987.158919 kJ/mol
# GULP energy per Si atom -5570.511351 kJ/mol
# Density = 2.190660 g / cm^3
# Si number density = 21.956572 Si / 1000 Ang^3
#
#
#
# Elastic Constant Matrix: (Units=GPa)
#
#
# Indices 1 2 3 4 5 6 
#
# 1 89.3487 17.2315 16.2396 -9.4118 7.9516 -4.8113
# 2 17.2315 95.8443 9.1527 -17.8010 -0.2490 2.9677
# 3 16.2396 9.1527 25.3854 -9.1883 -3.7447 5.8033
# 4 -9.4118 -17.8010 -9.1883 22.5518 5.9494 -6.3118
# 5 7.9516 -0.2490 -3.7447 5.9494 23.2437 -5.4998
# 6 -4.8113 2.9677 5.8033 -6.3118 -5.4998 35.0759
#
#
#
# Elastic Compliance Matrix: (Units=1/GPa)
#
#
# Indices 1 2 3 4 5 6 
#
# 1 0.014213 -0.001058 -0.008938 0.004098 -0.006600 0.003220
# 2 -0.001058 0.012487 -0.000666 0.009778 -0.002032 0.000350
# 3 -0.008938 -0.000666 0.052743 0.013720 0.006520 -0.006405
# 4 0.004098 0.009778 0.013720 0.065023 -0.014084 0.006957
# 5 -0.006600 -0.002032 0.006520 -0.014084 0.050769 0.003614
# 6 0.003220 0.000350 -0.006405 0.006957 0.003614 0.031800
#
#
# Mechanical properties :
#
#
# Convention : Reuss Voigt Hill
#
# Bulk Modulus (GPa) = 17.20588 32.86958 25.03773
# Shear Modulus (GPa) = 18.67544 27.37125 23.02334
#
# Velocity S-wave (km/s) = 2.91960 3.53456 3.24170
# Velocity P-wave (km/s) = 4.38392 5.62675 5.04376
#
# Compressibility (1/GPa) = 0.05811967
#
# Stress axis : x y z
#
# Youngs Moduli (GPa) = 70.35800 80.08182 18.96003
#
# Poissons Ratio (x) = 0.08469 0.16946
# Poissons Ratio (y) = 0.07441 0.01263
# Poissons Ratio (z) = 0.62883 0.05336
#
# Static dielectric constant tensor:
#      x y z
#    x 4.925380 1.211730 0.726740 
#    y 1.211730 2.347910 0.323410 
#    z 0.726740 0.323410 2.019950 
# 
# From -- ./inp_files/273780.got.cif
#   From: 2010.05.17/outbox.cif.g08.bks.cpg/sg2_137_cif.got.tgz:273780.got - 2010.06.03 11:33:40.
