data_PCOD9106386
_publ_section_title
;
Structure prediction by ZEFSAII (Michael W. Deem and Ramdas Pophale) SiO2 
 PCOD9106386
Probable space group: P -1
;
_chemical_formula_sum "Si O2"
_cell_formula_units_Z 14
_cell_length_a 5.535170
_cell_length_b 14.145585
_cell_length_c 10.705873
_cell_angle_alpha 106.780463
_cell_angle_beta 110.983874
_cell_angle_gamma 121.540331
_cell_volume 534.521880
_symmetry_space_group_name_H-M "P -1"
_symmetry_group_IT_number 2
_symmetry_cell_setting 'triclinic'
loop_
_space_group_symop_operation_xyz
x,y,z
-x,-y,-z
loop_
_atom_site_type_symbol
_atom_site_label
_atom_site_fract_x
_atom_site_fract_y
_atom_site_fract_z
Si Si1 0.546992 0.397851 0.499609
Si Si2 0.324925 0.028251 0.637612
Si Si3 0.888797 0.744698 0.397494
Si Si4 0.721400 0.766690 0.857367
Si Si5 0.776629 0.494573 0.187930
Si Si6 0.222833 0.682489 0.130687
Si Si7 0.552250 0.145344 0.985199
O O1 0.500000 0.500000 0.500000
O O2 0.240522 0.280472 0.492855
O O3 0.519267 0.324908 0.342425
O O4 0.913541 0.484530 0.677539
O O5 0.700012 0.187470 0.744839
O O6 0.297250 0.034854 0.785679
O O7 0.000000 0.000000 0.500000
O O8 0.275271 0.903604 0.534492
O O9 0.840569 0.618696 0.307430
O O10 0.586810 0.721624 0.251940
O O11 0.599189 0.654358 0.898417
O O12 0.637806 0.850953 0.933411
O O13 0.135587 0.851632 0.930975
O O14 0.882416 0.541143 0.080740
O O15 0.243236 0.710581 0.999036
#
# Coordination Sequence:
#
# PCOD9106386 Si02
#       7
#     2   2   2   2   2   2   2
#     4  11  23  43  64  95 128 175 227 272 317 390
#     4   8  18  44  66  91 132 170 223 267 315 399
#     4  10  20  39  69  96 123 165 237 268 319 376
#     4  12  25  42  65  94 145 170 216 271 334 395
#     4  11  23  37  68  98 121 178 223 273 326 384
#     4   8  21  39  60  98 127 168 217 263 332 384
#     4  10  25  43  65  98 135 181 206 268 345 390
#
# _framework density 26.191631999999998
#
# number of rings (size 3 to 8) (size 9 to 14) (size 15 to 20)
#    0.857    1.143    1.429    1.286    6.000    1.714 
#    7.714    1.429    0.000    0.000    0.000    0.000 
#    0.000    0.000    0.000    0.000    0.000    0.000 
#
# Total GULP energy -78294.204840 kJ/mol
# GULP energy per Si atom -5592.443203 kJ/mol
# Density = 2.613202 g / cm^3
# Si number density = 26.191632 Si / 1000 Ang^3
#
#
#
# Elastic Constant Matrix: (Units=GPa)
#
#
# Indices 1 2 3 4 5 6 
#
# 1 111.2944 39.8955 53.2867 8.6422 -22.6724 -9.8548
# 2 39.8955 58.1502 22.5131 14.3793 11.4375 -2.3464
# 3 53.2867 22.5131 156.9357 20.6119 -27.1254 -10.7032
# 4 8.6422 14.3793 20.6119 40.0802 2.1457 -6.5412
# 5 -22.6724 11.4375 -27.1254 2.1457 46.4941 4.0315
# 6 -9.8548 -2.3464 -10.7032 -6.5412 4.0315 42.7859
#
#
#
# Elastic Compliance Matrix: (Units=1/GPa)
#
#
# Indices 1 2 3 4 5 6 
#
# 1 0.016698 -0.012909 -0.002263 0.001993 0.009736 0.001959
# 2 -0.012909 0.031292 -0.001812 -0.006957 -0.014608 -0.001398
# 3 -0.002263 -0.001812 0.008677 -0.003468 0.004513 0.000594
# 4 0.001993 -0.006957 -0.003468 0.029477 -0.001031 0.003814
# 5 0.009736 -0.014608 0.004513 -0.001031 0.032587 -0.000658
# 6 0.001959 -0.001398 0.000594 0.003814 -0.000658 0.024541
#
#
# Mechanical properties :
#
#
# Convention : Reuss Voigt Hill
#
# Bulk Modulus (GPa) = 44.05671 61.97453 53.01562
# Shear Modulus (GPa) = 27.05527 39.91771 33.48649
#
# Velocity S-wave (km/s) = 3.21748 3.90816 3.57952
# Velocity P-wave (km/s) = 5.53718 6.63915 6.11304
#
# Compressibility (1/GPa) = 0.02269802
#
# Stress axis : x y z
#
# Youngs Moduli (GPa) = 59.88603 31.95694 115.25244
#
# Poissons Ratio (x) = 0.41253 0.26086
# Poissons Ratio (y) = 0.77306 0.20887
# Poissons Ratio (z) = 0.13554 0.05792
#
# Static dielectric constant tensor:
#      x y z
#    x 2.129270 0.004870 -0.063590 
#    y 0.004870 2.158320 0.006600 
#    z -0.063590 0.006600 1.980010 
# 
# From -- ./inp_files/71847.got.cif
#   From: 2010.05.17/outbox.cif.g08.bks.cpg/sg2_36_cif.got.tgz:71847.got - 2010.06.03 11:33:40.
