data_PCOD9106471
_publ_section_title
;
Structure prediction by ZEFSAII (Michael W. Deem and Ramdas Pophale) SiO2 
 PCOD9106471
Probable space group: P -1
;
_chemical_formula_sum "Si O2"
_cell_formula_units_Z 12
_cell_length_a 12.053957
_cell_length_b 7.749698
_cell_length_c 9.166873
_cell_angle_alpha 69.145479
_cell_angle_beta 48.224113
_cell_angle_gamma 92.156679
_cell_volume 548.413715
_symmetry_space_group_name_H-M "P -1"
_symmetry_group_IT_number 2
_symmetry_cell_setting 'triclinic'
loop_
_space_group_symop_operation_xyz
x,y,z
-x,-y,-z
loop_
_atom_site_type_symbol
_atom_site_label
_atom_site_fract_x
_atom_site_fract_y
_atom_site_fract_z
Si Si1 0.951394 0.788933 0.695252
Si Si2 0.635821 0.443645 0.973947
Si Si3 0.645827 0.035815 0.004217
Si Si4 0.298560 0.918799 0.377308
Si Si5 0.847281 0.897984 0.059820
Si Si6 0.425165 0.164289 0.469751
O O1 0.118078 0.753723 0.576064
O O2 0.890429 0.796227 0.912032
O O3 0.809634 0.620483 0.782631
O O4 0.000000 0.000000 0.500000
O O5 0.569298 0.355448 0.219228
O O6 0.500000 0.500000 0.000000
O O7 0.644432 0.255591 0.936288
O O8 0.677158 0.976179 0.834059
O O9 0.786159 0.053765 0.986640
O O10 0.465163 0.883464 0.255004
O O11 0.310440 0.059825 0.462288
O O12 0.687495 0.783982 0.332321
O O13 0.000000 0.000000 0.000000
O O14 0.500000 0.000000 0.500000
#
# Coordination Sequence:
#
# PCOD9106471 Si02
#       6
#     2   2   2   2   2   2
#     4  12  24  42  67 101 140 177 230 284 341 407
#     4  11  26  42  71 105 138 179 235 284 339 416
#     4  10  22  43  69  99 132 184 232 272 344 415
#     4  10  20  39  70  96 131 181 223 277 341 405
#     4  12  24  40  74 101 136 185 230 280 351 402
#     4  11  22  45  70  98 143 182 224 284 345 405
#
# _framework density 21.881291000000001
#
# number of rings (size 3 to 8) (size 9 to 14) (size 15 to 20)
#    0.000    1.000    6.667    2.000    2.333    1.333 
#    0.000    3.333    0.000    0.000    0.000    0.000 
#    0.000    0.000    0.000    0.000    0.000    0.000 
#
# Total GULP energy -66864.835334 kJ/mol
# GULP energy per Si atom -5572.069611 kJ/mol
# Density = 2.183149 g / cm^3
# Si number density = 21.881291 Si / 1000 Ang^3
#
#
#
# Elastic Constant Matrix: (Units=GPa)
#
#
# Indices 1 2 3 4 5 6 
#
# 1 163.1392 44.3144 34.0522 -11.3241 -28.4871 11.7555
# 2 44.3144 53.1162 34.9206 0.1286 -14.4410 12.3897
# 3 34.0522 34.9206 127.6007 9.3225 -18.8958 9.2694
# 4 -11.3241 0.1286 9.3225 45.5534 10.2098 -1.1309
# 5 -28.4871 -14.4410 -18.8958 10.2098 50.9779 1.6497
# 6 11.7555 12.3897 9.2694 -1.1309 1.6497 35.9592
#
#
#
# Elastic Compliance Matrix: (Units=1/GPa)
#
#
# Indices 1 2 3 4 5 6 
#
# 1 0.008428 -0.005970 -0.000292 0.001567 0.002619 -0.000694
# 2 -0.005970 0.030091 -0.005465 -0.001456 0.003688 -0.007222
# 3 -0.000292 -0.005465 0.010051 -0.002713 0.002584 -0.000816
# 4 0.001567 -0.001456 -0.002713 0.024162 -0.005437 0.001698
# 5 0.002619 0.003688 0.002584 -0.005437 0.024303 -0.004079
# 6 -0.000694 -0.007222 -0.000816 0.001698 -0.004079 0.030976
#
#
# Mechanical properties :
#
#
# Convention : Reuss Voigt Hill
#
# Bulk Modulus (GPa) = 39.81299 63.38118 51.59708
# Shear Modulus (GPa) = 31.28220 41.86938 36.57579
#
# Velocity S-wave (km/s) = 3.78515 4.37908 4.09290
# Velocity P-wave (km/s) = 6.11045 7.38899 6.77993
#
# Compressibility (1/GPa) = 0.02511743
#
# Stress axis : x y z
#
# Youngs Moduli (GPa) = 118.64644 33.23290 99.49711
#
# Poissons Ratio (x) = 0.19839 0.02903
# Poissons Ratio (y) = 0.70829 0.54371
# Poissons Ratio (z) = 0.03461 0.18160
#
# Static dielectric constant tensor:
#      x y z
#    x 1.867490 -0.035440 0.010010 
#    y -0.035440 1.803460 0.044710 
#    z 0.010010 0.044710 1.871020 
# 
# From -- ./inp_files/202052.got.cif
#   From: 2010.05.17/outbox.cif.g08.bks.cpg/sg2_102_cif.got.tgz:202052.got - 2010.06.03 11:33:40.
