data_PCOD9106785
_publ_section_title
;
Structure prediction by ZEFSAII (Michael W. Deem and Ramdas Pophale) SiO2 
 PCOD9106785
Probable space group: P -1
;
_chemical_formula_sum "Si O2"
_cell_formula_units_Z 14
_cell_length_a 11.381336
_cell_length_b 10.092612
_cell_length_c 12.080122
_cell_angle_alpha 132.373538
_cell_angle_beta 46.765635
_cell_angle_gamma 96.789534
_cell_volume 575.067552
_symmetry_space_group_name_H-M "P -1"
_symmetry_group_IT_number 2
_symmetry_cell_setting 'triclinic'
loop_
_space_group_symop_operation_xyz
x,y,z
-x,-y,-z
loop_
_atom_site_type_symbol
_atom_site_label
_atom_site_fract_x
_atom_site_fract_y
_atom_site_fract_z
Si Si1 0.559761 0.284360 0.668173
Si Si2 0.006218 0.083916 0.703539
Si Si3 0.481081 0.919267 0.798589
Si Si4 0.764416 0.104704 0.205100
Si Si5 0.209031 0.578202 0.753394
Si Si6 0.596777 0.198518 0.980561
Si Si7 0.905176 0.522653 0.947929
O O1 0.668848 0.137307 0.403392
O O2 0.753519 0.131319 0.543615
O O3 0.494971 0.540115 0.842195
O O4 0.341232 0.327556 0.835319
O O5 0.847829 0.044120 0.741980
O O6 0.996031 0.259832 0.726915
O O7 0.873495 0.252079 0.991827
O O8 0.262722 0.027203 0.943720
O O9 0.631668 0.701518 0.495232
O O10 0.531580 0.090311 0.875988
O O11 0.488215 0.818219 0.856621
O O12 0.680153 0.357842 0.360483
O O13 0.000000 0.000000 0.000000
O O14 0.006081 0.610701 0.861808
O O15 0.000000 0.500000 0.000000
#
# Coordination Sequence:
#
# PCOD9106785 Si02
#       7
#     2   2   2   2   2   2   2
#     4  11  21  39  64  85 124 154 192 245 294 348
#     4  10  20  40  61  87 117 156 198 238 293 348
#     4  11  21  37  59  85 123 155 190 243 297 346
#     4  12  21  36  60  95 118 147 196 250 293 344
#     4  11  20  37  60  88 118 150 199 241 292 342
#     4  10  21  38  59  88 118 157 195 237 296 352
#     4   9  21  36  58  88 120 156 193 238 292 352
#
# _framework density 24.344964999999998
#
# number of rings (size 3 to 8) (size 9 to 14) (size 15 to 20)
#    0.000    1.429    4.286    3.000    0.000    2.286 
#    5.143    5.000    0.000    1.714    0.000    0.000 
#    0.000    0.000    0.000    0.000    0.000    0.000 
#
# Total GULP energy -78072.557123 kJ/mol
# GULP energy per Si atom -5576.611223 kJ/mol
# Density = 2.428955 g / cm^3
# Si number density = 24.344965 Si / 1000 Ang^3
#
#
#
# Elastic Constant Matrix: (Units=GPa)
#
#
# Indices 1 2 3 4 5 6 
#
# 1 148.3382 45.4449 58.6629 11.2157 -27.0395 44.4291
# 2 45.4449 74.7902 15.6029 -2.0503 -6.3801 33.0231
# 3 58.6629 15.6029 85.9509 8.6021 -22.8195 0.6114
# 4 11.2157 -2.0503 8.6021 28.2440 -0.1642 -10.0020
# 5 -27.0395 -6.3801 -22.8195 -0.1642 49.9571 -0.9154
# 6 44.4291 33.0231 0.6114 -10.0020 -0.9154 45.0219
#
#
#
# Elastic Compliance Matrix: (Units=1/GPa)
#
#
# Indices 1 2 3 4 5 6 
#
# 1 0.018919 0.000073 -0.010222 -0.011840 0.005154 -0.021110
# 2 0.000073 0.021165 -0.003189 -0.003274 0.000977 -0.016260
# 3 -0.010222 -0.003189 0.019746 0.002347 0.003321 0.012748
# 4 -0.011840 -0.003274 0.002347 0.047827 -0.005147 0.024574
# 5 0.005154 0.000977 0.003321 -0.005147 0.024313 -0.006497
# 6 -0.021110 -0.016260 0.012748 0.024574 -0.006497 0.060125
#
#
# Mechanical properties :
#
#
# Convention : Reuss Voigt Hill
#
# Bulk Modulus (GPa) = 30.16276 60.94451 45.55364
# Shear Modulus (GPa) = 21.75586 37.26917 29.51251
#
# Velocity S-wave (km/s) = 2.99264 3.91689 3.48553
# Velocity P-wave (km/s) = 4.93536 6.74864 5.91193
#
# Compressibility (1/GPa) = 0.03315346
#
# Stress axis : x y z
#
# Youngs Moduli (GPa) = 52.85673 47.24772 50.64199
#
# Poissons Ratio (x) = -0.00344 0.51768
# Poissons Ratio (y) = -0.00385 0.16151
# Poissons Ratio (z) = 0.54032 0.15068
#
# Static dielectric constant tensor:
#      x y z
#    x 2.194410 -0.266450 -0.200630 
#    y -0.266450 2.460570 0.182230 
#    z -0.200630 0.182230 2.129280 
# 
# From -- ./inp_files/320238.got.cif
#   From: 2010.05.17/outbox.cif.g08.bks.cpg/sg2_161_cif.got.tgz:320238.got - 2010.06.03 11:33:40.
