data_PCOD9106969
_publ_section_title
;
Structure prediction by ZEFSAII (Michael W. Deem and Ramdas Pophale) SiO2 
 PCOD9106969
Probable space group: P -1
;
_chemical_formula_sum "Si O2"
_cell_formula_units_Z 16
_cell_length_a 20.159502
_cell_length_b 7.551571
_cell_length_c 7.666187
_cell_angle_alpha 54.870464
_cell_angle_beta 101.128140
_cell_angle_gamma 130.712085
_cell_volume 691.503473
_symmetry_space_group_name_H-M "P -1"
_symmetry_group_IT_number 2
_symmetry_cell_setting 'triclinic'
loop_
_space_group_symop_operation_xyz
x,y,z
-x,-y,-z
loop_
_atom_site_type_symbol
_atom_site_label
_atom_site_fract_x
_atom_site_fract_y
_atom_site_fract_z
Si Si1 0.264742 0.794129 0.490449
Si Si2 0.366316 0.616908 0.523020
Si Si3 0.319578 0.124575 0.970748
Si Si4 0.964657 0.151656 0.333152
Si Si5 0.411192 0.365706 0.413890
Si Si6 0.529368 0.875631 0.954633
Si Si7 0.107307 0.768964 0.436621
Si Si8 0.873716 0.143631 0.985232
O O1 0.339561 0.018372 0.547008
O O2 0.281979 0.586771 0.555268
O O3 0.164534 0.671670 0.550065
O O4 0.293758 0.002867 0.221399
O O5 0.378013 0.466417 0.767282
O O6 0.360011 0.450211 0.442481
O O7 0.445822 0.957450 0.311279
O O8 0.377301 0.042846 0.984798
O O9 0.221299 0.967674 0.926426
O O10 0.891461 0.084687 0.473233
O O11 0.051820 0.501530 0.174844
O O12 0.917788 0.054944 0.176215
O O13 0.000000 0.000000 0.500000
O O14 0.500000 0.500000 0.500000
O O15 0.452059 0.530970 0.153880
O O16 0.500000 0.000000 0.000000
O O17 0.140335 0.950998 0.170186
O O18 0.000000 0.500000 0.500000
#
# Coordination Sequence:
#
# PCOD9106969 Si02
#       8
#     2   2   2   2   2   2   2   2
#     4  10  24  43  61  94 130 166 218 272 331 392
#     4  10  22  41  65  90 123 177 212 268 332 385
#     4  10  20  40  62  89 126 167 217 270 321 392
#     4  10  21  38  64  98 124 171 217 262 339 404
#     4  11  22  42  64  92 131 168 218 272 323 396
#     4   9  20  38  58  90 122 162 212 262 318 379
#     4   9  20  42  64  89 133 170 208 277 328 385
#     4   9  21  39  61  91 133 164 213 279 319 391
#
# _framework density 23.137991
#
# number of rings (size 3 to 8) (size 9 to 14) (size 15 to 20)
#    0.000    2.250    1.250    0.000    1.750    7.000 
#    9.000    6.250    0.000    0.000    0.000    0.000 
#    0.000    0.000    0.000    0.000    0.000    0.000 
#
# Total GULP energy -89186.746634 kJ/mol
# GULP energy per Si atom -5574.171665 kJ/mol
# Density = 2.308533 g / cm^3
# Si number density = 23.137991 Si / 1000 Ang^3
#
#
#
# Elastic Constant Matrix: (Units=GPa)
#
#
# Indices 1 2 3 4 5 6 
#
# 1 199.9540 36.6310 42.7801 -0.4531 11.2592 13.8402
# 2 36.6310 53.5029 11.4844 -0.8056 6.7256 16.0843
# 3 42.7801 11.4844 104.0052 1.6826 21.3012 -3.1628
# 4 -0.4531 -0.8056 1.6826 22.9082 3.3644 1.5292
# 5 11.2592 6.7256 21.3012 3.3644 39.7169 -0.0357
# 6 13.8402 16.0843 -3.1628 1.5292 -0.0357 20.1157
#
#
#
# Elastic Compliance Matrix: (Units=1/GPa)
#
#
# Indices 1 2 3 4 5 6 
#
# 1 0.006209 -0.003097 -0.002274 0.000333 -0.000046 -0.002179
# 2 -0.003097 0.027849 -0.001838 0.002889 -0.003115 -0.020651
# 3 -0.002274 -0.001838 0.012028 -0.000524 -0.005446 0.004956
# 4 0.000333 0.002889 -0.000524 0.044805 -0.004103 -0.006035
# 5 -0.000046 -0.003115 -0.005446 -0.004103 0.028989 0.002030
# 6 -0.002179 -0.020651 0.004956 -0.006035 0.002030 0.068965
#
#
# Mechanical properties :
#
#
# Convention : Reuss Voigt Hill
#
# Bulk Modulus (GPa) = 31.57811 59.91700 45.74756
# Shear Modulus (GPa) = 23.38422 34.31927 28.85175
#
# Velocity S-wave (km/s) = 3.18251 3.85547 3.53504
# Velocity P-wave (km/s) = 5.21362 6.76544 6.03958
#
# Compressibility (1/GPa) = 0.03166750
#
# Stress axis : x y z
#
# Youngs Moduli (GPa) = 161.04911 35.90805 83.14023
#
# Poissons Ratio (x) = 0.11122 0.18908
# Poissons Ratio (y) = 0.49881 0.15279
# Poissons Ratio (z) = 0.36626 0.06599
#
# Static dielectric constant tensor:
#      x y z
#    x 1.872600 0.001650 -0.044050 
#    y 0.001650 1.941990 -0.004700 
#    z -0.044050 -0.004700 1.941910 
# 
# From -- ./inp_files/328469.got.cif
#   From: 2010.05.17/outbox.cif.g08.bks.cpg/sg2_165_cif.got.tgz:328469.got - 2010.06.03 11:33:40.
