data_PCOD9106353
_publ_section_title
;
Structure prediction by ZEFSAII (Michael W. Deem and Ramdas Pophale) SiO2 
 PCOD9106353
Probable space group: P -1
;
_chemical_formula_sum "Si O2"
_cell_formula_units_Z 16
_cell_length_a 15.170754
_cell_length_b 6.111069
_cell_length_c 18.064374
_cell_angle_alpha 79.822095
_cell_angle_beta 27.633207
_cell_angle_gamma 74.233898
_cell_volume 739.810534
_symmetry_space_group_name_H-M "P -1"
_symmetry_group_IT_number 2
_symmetry_cell_setting 'triclinic'
loop_
_space_group_symop_operation_xyz
x,y,z
-x,-y,-z
loop_
_atom_site_type_symbol
_atom_site_label
_atom_site_fract_x
_atom_site_fract_y
_atom_site_fract_z
Si Si1 0.405459 0.626863 0.637025
Si Si2 0.063714 0.265039 0.515132
Si Si3 0.283768 0.614474 0.960441
Si Si4 0.373814 0.368324 0.052322
Si Si5 0.408282 0.203243 0.367824
Si Si6 0.683541 0.727404 0.169119
Si Si7 0.258473 0.997909 0.249849
Si Si8 0.979601 0.023726 0.101335
O O1 0.500000 0.500000 0.500000
O O2 0.545094 0.685219 0.595571
O O3 0.286845 0.466459 0.777925
O O4 0.244506 0.859074 0.720587
O O5 0.188604 0.281006 0.494756
O O6 0.000000 0.500000 0.500000
O O7 0.879391 0.156390 0.670425
O O8 0.201806 0.073137 0.370975
O O9 0.454387 0.737667 0.804143
O O10 0.353354 0.390066 0.871935
O O11 0.268467 0.548986 0.059687
O O12 0.078199 0.777943 0.077413
O O13 0.242527 0.236563 0.204291
O O14 0.500000 0.500000 0.000000
O O15 0.524156 0.160873 0.910320
O O16 0.501268 0.929923 0.320416
O O17 0.873038 0.817090 0.002949
O O18 0.000000 0.000000 0.000000
#
# Coordination Sequence:
#
# PCOD9106353 Si02
#       8
#     2   2   2   2   2   2   2   2
#     4  11  24  41  63  94 131 169 209 278 341 383
#     4  11  22  42  67  91 131 176 219 269 324 400
#     4  10  21  36  67  97 118 167 222 271 324 389
#     4  11  22  42  64  94 137 169 213 277 332 382
#     4  10  21  39  64  93 120 169 225 259 326 408
#     4  10  20  39  69  86 122 163 218 270 319 394
#     4  10  23  38  65  95 129 174 219 268 333 390
#     4  11  20  41  66  95 120 165 228 263 319 407
#
# _framework density 21.62716
#
# number of rings (size 3 to 8) (size 9 to 14) (size 15 to 20)
#    0.000    1.500    3.750    3.375    0.000    6.500 
#    0.000    7.500    0.000    0.000    0.000    0.000 
#    0.000    0.000    0.000    0.000    0.000    0.000 
#
# Total GULP energy -89304.090997 kJ/mol
# GULP energy per Si atom -5581.505687 kJ/mol
# Density = 2.157794 g / cm^3
# Si number density = 21.627160 Si / 1000 Ang^3
#
#
#
# Elastic Constant Matrix: (Units=GPa)
#
#
# Indices 1 2 3 4 5 6 
#
# 1 122.4577 54.3282 37.7083 6.7926 -5.6668 -18.9633
# 2 54.3282 92.4756 8.2904 -1.5892 -3.6820 -5.8973
# 3 37.7083 8.2904 70.5818 13.0715 6.6543 0.5530
# 4 6.7926 -1.5892 13.0715 39.1416 3.3379 0.0844
# 5 -5.6668 -3.6820 6.6543 3.3379 27.6628 -0.7015
# 6 -18.9633 -5.8973 0.5530 0.0844 -0.7015 32.4432
#
#
#
# Elastic Compliance Matrix: (Units=1/GPa)
#
#
# Indices 1 2 3 4 5 6 
#
# 1 0.015383 -0.007700 -0.007625 -0.000815 0.004257 0.007816
# 2 -0.007700 0.015038 0.002156 0.001255 -0.000292 -0.001813
# 3 -0.007625 0.002156 0.019392 -0.004586 -0.005501 -0.004503
# 4 -0.000815 0.001255 -0.004586 0.027462 -0.002218 -0.000290
# 5 0.004257 -0.000292 -0.005501 -0.002218 0.038659 0.003371
# 6 0.007816 -0.001813 -0.004503 -0.000290 0.003371 0.035212
#
#
# Mechanical properties :
#
#
# Convention : Reuss Voigt Hill
#
# Bulk Modulus (GPa) = 42.59791 54.01878 48.30835
# Shear Modulus (GPa) = 26.98206 32.19540 29.58873
#
# Velocity S-wave (km/s) = 3.53597 3.86250 3.70283
# Velocity P-wave (km/s) = 6.03407 6.70249 6.37704
#
# Compressibility (1/GPa) = 0.02347533
#
# Stress axis : x y z
#
# Youngs Moduli (GPa) = 65.00832 66.49792 51.56827
#
# Poissons Ratio (x) = 0.51201 0.39323
# Poissons Ratio (y) = 0.50054 -0.11120
# Poissons Ratio (z) = 0.49571 -0.14340
#
# Static dielectric constant tensor:
#      x y z
#    x 1.709170 -0.067620 0.013800 
#    y -0.067620 1.752250 0.028580 
#    z 0.013800 0.028580 1.770190 
# 
# From -- ./inp_files/90731.got.cif
#   From: 2010.05.17/outbox.cif.g08.bks.cpg/sg2_46_cif.got.tgz:90731.got - 2010.06.03 11:33:40.
