data_PCOD9106335
_publ_section_title
;
Structure prediction by ZEFSAII (Michael W. Deem and Ramdas Pophale) SiO2 
 PCOD9106335
Probable space group: P -1
;
_chemical_formula_sum "Si O2"
_cell_formula_units_Z 14
_cell_length_a 8.908623
_cell_length_b 8.435050
_cell_length_c 9.666154
_cell_angle_alpha 72.679439
_cell_angle_beta 71.917146
_cell_angle_gamma 74.139532
_cell_volume 645.946346
_symmetry_space_group_name_H-M "P -1"
_symmetry_group_IT_number 2
_symmetry_cell_setting 'triclinic'
loop_
_space_group_symop_operation_xyz
x,y,z
-x,-y,-z
loop_
_atom_site_type_symbol
_atom_site_label
_atom_site_fract_x
_atom_site_fract_y
_atom_site_fract_z
Si Si1 0.417196 0.928345 0.909105
Si Si2 0.458805 0.409279 0.174252
Si Si3 0.102824 0.912454 0.122626
Si Si4 0.203932 0.225653 0.707435
Si Si5 0.773186 0.502070 0.143654
Si Si6 0.153911 0.388260 0.408296
Si Si7 0.904982 0.737180 0.836086
O O1 0.529546 0.788029 0.819844
O O2 0.322131 0.078041 0.797732
O O3 0.278767 0.835426 0.034748
O O4 0.500000 0.000000 0.000000
O O5 0.607733 0.437929 0.217815
O O6 0.289522 0.478981 0.278807
O O7 0.500000 0.500000 0.000000
O O8 0.978960 0.805389 0.243819
O O9 0.131131 0.065083 0.172728
O O10 0.000000 0.000000 0.000000
O O11 0.199350 0.392285 0.756811
O O12 0.248383 0.260369 0.529463
O O13 0.920068 0.343329 0.129737
O O14 0.790048 0.631341 0.979057
O O15 0.093878 0.297752 0.317064
O O16 0.000000 0.500000 0.500000
#
# Coordination Sequence:
#
# PCOD9106335 Si02
#       7
#     2   2   2   2   2   2   2
#     4  11  23  43  69 106 136 177 234 290 336 410
#     4  12  26  43  73 101 134 185 237 280 345 415
#     4  10  20  39  69 101 132 179 232 276 337 407
#     4  11  24  44  68 100 146 181 222 289 348 401
#     4  11  21  39  71 101 131 183 238 281 327 413
#     4  12  27  47  66 104 146 179 226 293 352 406
#     4  11  21  40  70 102 138 181 232 277 341 414
#
# _framework density 21.673628000000001
#
# number of rings (size 3 to 8) (size 9 to 14) (size 15 to 20)
#    0.000    0.857    5.714    3.429    4.000    1.714 
#    0.000    0.000    0.000    0.000    0.000    0.000 
#    0.000    0.000    0.000    0.000    0.000    0.000 
#
# Total GULP energy -78175.238218 kJ/mol
# GULP energy per Si atom -5583.945587 kJ/mol
# Density = 2.162430 g / cm^3
# Si number density = 21.673628 Si / 1000 Ang^3
#
#
#
# Elastic Constant Matrix: (Units=GPa)
#
#
# Indices 1 2 3 4 5 6 
#
# 1 113.0967 36.7315 45.9532 3.6689 -14.7853 4.6168
# 2 36.7315 80.5242 29.6407 16.2357 4.0250 0.5500
# 3 45.9532 29.6407 123.9538 5.6914 9.3834 6.2404
# 4 3.6689 16.2357 5.6914 36.8683 -3.2810 4.3961
# 5 -14.7853 4.0250 9.3834 -3.2810 46.4644 3.7603
# 6 4.6168 0.5500 6.2404 4.3961 3.7603 33.7775
#
#
#
# Elastic Compliance Matrix: (Units=1/GPa)
#
#
# Indices 1 2 3 4 5 6 
#
# 1 0.012873 -0.005145 -0.003983 0.002327 0.005662 -0.001873
# 2 -0.005145 0.017004 -0.001667 -0.007272 -0.003454 0.002065
# 3 -0.003983 -0.001667 0.010256 -0.000628 -0.003167 -0.000889
# 4 0.002327 -0.007272 -0.000628 0.031100 0.004064 -0.004584
# 5 0.005662 -0.003454 -0.003167 0.004064 0.024827 -0.003425
# 6 -0.001873 0.002065 -0.000889 -0.004584 -0.003425 0.030970
#
#
# Mechanical properties :
#
#
# Convention : Reuss Voigt Hill
#
# Bulk Modulus (GPa) = 53.93169 60.24728 57.08949
# Shear Modulus (GPa) = 32.29957 37.10533 34.70245
#
# Velocity S-wave (km/s) = 3.86459 4.14213 4.00576
# Velocity P-wave (km/s) = 6.69709 7.12279 6.91322
#
# Compressibility (1/GPa) = 0.01854197
#
# Stress axis : x y z
#
# Youngs Moduli (GPa) = 77.68446 58.80915 97.50219
#
# Poissons Ratio (x) = 0.30258 0.38836
# Poissons Ratio (y) = 0.39970 0.16257
# Poissons Ratio (z) = 0.30942 0.09805
#
# Static dielectric constant tensor:
#      x y z
#    x 1.830170 -0.116890 0.022890 
#    y -0.116890 1.520470 0.091350 
#    z 0.022890 0.091350 1.752450 
# 
# From -- ./inp_files/157867.got.cif
#   From: 2010.05.17/outbox.cif.g08.bks.cpg/sg2_79_cif.got.tgz:157867.got - 2010.06.03 11:33:40.
