data_PCOD9106412
_publ_section_title
;
Structure prediction by ZEFSAII (Michael W. Deem and Ramdas Pophale) SiO2 
 PCOD9106412
Probable space group: P -1
;
_chemical_formula_sum "Si O2"
_cell_formula_units_Z 14
_cell_length_a 9.385242
_cell_length_b 8.449444
_cell_length_c 17.338845
_cell_angle_alpha 91.119714
_cell_angle_beta 54.294359
_cell_angle_gamma 131.593950
_cell_volume 664.345311
_symmetry_space_group_name_H-M "P -1"
_symmetry_group_IT_number 2
_symmetry_cell_setting 'triclinic'
loop_
_space_group_symop_operation_xyz
x,y,z
-x,-y,-z
loop_
_atom_site_type_symbol
_atom_site_label
_atom_site_fract_x
_atom_site_fract_y
_atom_site_fract_z
Si Si1 0.802565 0.643780 0.376928
Si Si2 0.163538 0.112960 0.156333
Si Si3 0.768503 0.474864 0.900566
Si Si4 0.820096 0.262198 0.613516
Si Si5 0.579607 0.847997 0.140785
Si Si6 0.330861 0.671663 0.730867
Si Si7 0.825945 0.704037 0.114007
O O1 0.500000 0.500000 0.500000
O O2 0.734988 0.474810 0.326665
O O3 0.962953 0.667443 0.394935
O O4 0.011622 0.931030 0.277600
O O5 0.140294 0.284275 0.154915
O O6 0.506510 0.311598 0.043144
O O7 0.996104 0.913946 0.133648
O O8 0.614388 0.272804 0.875630
O O9 0.049123 0.577516 0.836270
O O10 0.591735 0.201625 0.734730
O O11 0.000000 0.500000 0.500000
O O12 0.620467 0.986096 0.632600
O O13 0.632192 0.698732 0.135551
O O14 0.907600 0.153074 0.025123
O O15 0.354258 0.567947 0.794039
#
# Coordination Sequence:
#
# PCOD9106412 Si02
#       7
#     2   2   2   2   2   2   2
#     4  11  27  47  67  94 132 178 220 271 318 388
#     4   9  21  39  67  97 136 166 217 266 332 384
#     4  10  20  39  70 100 130 172 208 273 333 390
#     4  12  29  45  65  96 131 176 224 272 316 391
#     4  10  21  41  64  97 137 168 215 267 330 385
#     4  11  25  44  71  96 129 171 219 273 331 388
#     4   9  21  39  66  98 132 170 209 274 328 391
#
# _framework density 21.073378999999999
#
# number of rings (size 3 to 8) (size 9 to 14) (size 15 to 20)
#    0.000    1.714    1.429    0.857   10.000    5.714 
#    0.000    0.000    0.000    0.000    0.000    0.000 
#    0.000    0.000    0.000    0.000    0.000    0.000 
#
# Total GULP energy -78344.084204 kJ/mol
# GULP energy per Si atom -5596.006015 kJ/mol
# Density = 2.102541 g / cm^3
# Si number density = 21.073379 Si / 1000 Ang^3
#
#
#
# Elastic Constant Matrix: (Units=GPa)
#
#
# Indices 1 2 3 4 5 6 
#
# 1 86.8896 4.6043 52.5934 -8.7460 0.8025 4.0150
# 2 4.6043 52.4535 18.5649 -10.8770 -8.5045 -9.1913
# 3 52.5934 18.5649 104.8434 -12.5396 4.5322 -14.9365
# 4 -8.7460 -10.8770 -12.5396 36.8855 -11.7115 1.4767
# 5 0.8025 -8.5045 4.5322 -11.7115 33.0764 -2.1587
# 6 4.0150 -9.1913 -14.9365 1.4767 -2.1587 23.8394
#
#
#
# Elastic Compliance Matrix: (Units=1/GPa)
#
#
# Indices 1 2 3 4 5 6 
#
# 1 0.018502 0.001121 -0.010643 0.001907 0.001363 -0.009347
# 2 0.001121 0.025284 -0.003212 0.009770 0.010891 0.007928
# 3 -0.010643 -0.003212 0.017275 0.001414 -0.001707 0.011135
# 4 0.001907 0.009770 0.001414 0.035578 0.015098 0.003495
# 5 0.001363 0.010891 -0.001707 0.015098 0.038938 0.005490
# 6 -0.009347 0.007928 0.011135 0.003495 0.005490 0.053836
#
#
# Mechanical properties :
#
#
# Convention : Reuss Voigt Hill
#
# Bulk Modulus (GPa) = 28.09473 43.96795 36.03134
# Shear Modulus (GPa) = 22.05115 29.98851 26.01983
#
# Velocity S-wave (km/s) = 3.23832 3.77643 3.51768
# Velocity P-wave (km/s) = 5.22906 6.31860 5.79947
#
# Compressibility (1/GPa) = 0.03559386
#
# Stress axis : x y z
#
# Youngs Moduli (GPa) = 54.04682 39.55080 57.88759
#
# Poissons Ratio (x) = -0.04434 0.61607
# Poissons Ratio (y) = -0.06059 0.18595
# Poissons Ratio (z) = 0.57519 0.12705
#
# Static dielectric constant tensor:
#      x y z
#    x 1.730240 0.017910 0.005490 
#    y 0.017910 1.789400 -0.000360 
#    z 0.005490 -0.000360 1.718230 
# 
# From -- ./inp_files/181013.got.cif
#   From: 2010.05.17/outbox.cif.g08.bks.cpg/sg2_91_cif.got.tgz:181013.got - 2010.06.03 11:33:40.
