data_PCOD9106268
_publ_section_title
;
Structure prediction by ZEFSAII (Michael W. Deem and Ramdas Pophale) SiO2 
 PCOD9106268
Probable space group: P -1
;
_chemical_formula_sum "Si O2"
_cell_formula_units_Z 12
_cell_length_a 9.674715
_cell_length_b 6.931892
_cell_length_c 10.608160
_cell_angle_alpha 125.889339
_cell_angle_beta 106.213981
_cell_angle_gamma 106.755829
_cell_volume 450.442364
_symmetry_space_group_name_H-M "P -1"
_symmetry_group_IT_number 2
_symmetry_cell_setting 'triclinic'
loop_
_space_group_symop_operation_xyz
x,y,z
-x,-y,-z
loop_
_atom_site_type_symbol
_atom_site_label
_atom_site_fract_x
_atom_site_fract_y
_atom_site_fract_z
Si Si1 0.354859 0.165310 0.000266
Si Si2 0.372620 0.682493 0.077627
Si Si3 0.974573 0.700405 0.662779
Si Si4 0.317251 0.940905 0.387180
Si Si5 0.019588 0.197637 0.695774
Si Si6 0.603821 0.469144 0.404831
O O1 0.441543 0.158911 0.887500
O O2 0.359295 0.454979 0.089608
O O3 0.481934 0.231940 0.176393
O O4 0.156256 0.877477 0.858754
O O5 0.321054 0.866314 0.213816
O O6 0.219398 0.480541 0.861682
O O7 0.759327 0.487265 0.528579
O O8 0.000000 0.500000 0.500000
O O9 0.997203 0.995425 0.730023
O O10 0.323504 0.225938 0.530768
O O11 0.500000 0.000000 0.500000
O O12 0.117943 0.711935 0.301821
O O13 0.000000 0.000000 0.500000
O O14 0.500000 0.500000 0.500000
#
# Coordination Sequence:
#
# PCOD9106268 Si02
#       6
#     2   2   2   2   2   2
#     4  10  22  42  67  95 127 168 214 263 318 378
#     4  10  20  39  68  95 124 163 214 265 316 375
#     4  10  24  42  64  90 127 171 215 253 315 379
#     4  11  22  38  65  96 126 163 213 261 320 374
#     4  10  22  40  64  95 129 160 211 268 314 377
#     4  11  25  44  62  95 134 165 211 265 316 381
#
# _framework density 26.640478000000002
#
# number of rings (size 3 to 8) (size 9 to 14) (size 15 to 20)
#    0.000    1.667    1.667    2.500    7.000    1.333 
#    3.000    0.000    0.000    0.000    0.000    0.000 
#    0.000    0.000    0.000    0.000    0.000    0.000 
#
# Total GULP energy -66881.256602 kJ/mol
# GULP energy per Si atom -5573.438050 kJ/mol
# Density = 2.657984 g / cm^3
# Si number density = 26.640478 Si / 1000 Ang^3
#
#
#
# Elastic Constant Matrix: (Units=GPa)
#
#
# Indices 1 2 3 4 5 6 
#
# 1 186.5120 18.7735 46.9985 3.1946 18.5618 16.1673
# 2 18.7735 46.6985 16.8726 4.1498 16.9859 -12.7152
# 3 46.9985 16.8726 187.3049 9.6209 17.5943 14.1370
# 4 3.1946 4.1498 9.6209 24.1721 0.5890 -5.1985
# 5 18.5618 16.9859 17.5943 0.5890 52.8808 1.7297
# 6 16.1673 -12.7152 14.1370 -5.1985 1.7297 57.1262
#
#
#
# Elastic Compliance Matrix: (Units=1/GPa)
#
#
# Indices 1 2 3 4 5 6 
#
# 1 0.006133 -0.002207 -0.001076 -0.000402 -0.001017 -0.001967
# 2 -0.002207 0.027936 -0.001669 -0.002078 -0.007859 0.007305
# 3 -0.001076 -0.001669 0.006110 -0.002357 -0.001035 -0.001762
# 4 -0.000402 -0.002078 -0.002357 0.043592 0.000971 0.004172
# 5 -0.001017 -0.007859 -0.001035 0.000971 0.022184 -0.001789
# 6 -0.001967 0.007305 -0.001762 0.004172 -0.001789 0.020558
#
#
# Mechanical properties :
#
#
# Convention : Reuss Voigt Hill
#
# Bulk Modulus (GPa) = 33.02806 65.08939 49.05872
# Shear Modulus (GPa) = 34.12757 49.36054 41.74405
#
# Velocity S-wave (km/s) = 3.58305 4.30913 3.96275
# Velocity P-wave (km/s) = 5.43528 7.01739 6.27638
#
# Compressibility (1/GPa) = 0.03027729
#
# Stress axis : x y z
#
# Youngs Moduli (GPa) = 163.04342 35.79551 163.65298
#
# Poissons Ratio (x) = 0.07899 0.17602
# Poissons Ratio (y) = 0.35980 0.27316
# Poissons Ratio (z) = 0.17536 0.05975
#
# Static dielectric constant tensor:
#      x y z
#    x 3.901280 -13.279190 -6.942230 
#    y -13.279190 101.650070 52.882960 
#    z -6.942230 52.882960 30.233100 
# 
# From -- ./inp_files/147617.got.cif
#   From: 2010.05.17/outbox.cif.g08.bks.cpg/sg2_74_cif.got.tgz:147617.got - 2010.06.03 11:33:40.
