data_PCOD9106800
_publ_section_title
;
Structure prediction by ZEFSAII (Michael W. Deem and Ramdas Pophale) SiO2 
 PCOD9106800
Probable space group: P -1
;
_chemical_formula_sum "Si O2"
_cell_formula_units_Z 16
_cell_length_a 8.976923
_cell_length_b 21.708105
_cell_length_c 15.358883
_cell_angle_alpha 28.495379
_cell_angle_beta 141.847541
_cell_angle_gamma 143.372171
_cell_volume 816.645257
_symmetry_space_group_name_H-M "P -1"
_symmetry_group_IT_number 2
_symmetry_cell_setting 'triclinic'
loop_
_space_group_symop_operation_xyz
x,y,z
-x,-y,-z
loop_
_atom_site_type_symbol
_atom_site_label
_atom_site_fract_x
_atom_site_fract_y
_atom_site_fract_z
Si Si1 0.804840 0.540150 0.173005
Si Si2 0.581922 0.391416 0.616882
Si Si3 0.247397 0.889997 0.215070
Si Si4 0.886702 0.878367 0.224856
Si Si5 0.730788 0.989988 0.428283
Si Si6 0.510566 0.293142 0.218696
Si Si7 0.236951 0.867542 0.561588
Si Si8 0.293338 0.608878 0.516287
O O1 0.693209 0.432922 0.176495
O O2 0.642691 0.453795 0.288502
O O3 0.112104 0.576781 0.272981
O O4 0.738090 0.676865 0.964461
O O5 0.500000 0.500000 0.500000
O O6 0.398456 0.239898 0.753857
O O7 0.544031 0.392833 0.492757
O O8 0.520753 0.990096 0.259411
O O9 0.285743 0.759750 0.348016
O O10 0.049085 0.843668 0.263935
O O11 0.136087 0.975923 0.992055
O O12 0.030093 0.877245 0.383554
O O13 0.588835 0.840190 0.597265
O O14 0.810005 0.112034 0.385007
O O15 0.000000 0.000000 0.500000
O O16 0.682813 0.261283 0.263363
O O17 0.500000 0.000000 0.500000
O O18 0.000000 0.500000 0.500000
#
# Coordination Sequence:
#
# PCOD9106800 Si02
#       8
#     2   2   2   2   2   2   2   2
#     4  10  21  40  64  94 119 171 208 261 318 376
#     4  11  24  40  63  93 129 163 214 265 316 375
#     4  11  23  43  63  95 130 167 209 261 326 379
#     4  11  23  40  67  94 129 168 212 264 317 385
#     4  11  24  40  65  91 133 164 208 267 316 375
#     4  10  20  40  67  85 128 164 214 250 317 387
#     4  10  20  40  61  88 120 172 203 250 318 376
#     4  10  21  40  62  86 124 164 203 256 316 372
#
# _framework density 19.592351000000001
#
# number of rings (size 3 to 8) (size 9 to 14) (size 15 to 20)
#    0.000    1.500    3.750    2.250    3.500    4.500 
#    2.250    0.000    0.000    3.750    0.000    0.000 
#    0.000    0.000    0.000    0.000    0.000    0.000 
#
# Total GULP energy -89232.049668 kJ/mol
# GULP energy per Si atom -5577.003104 kJ/mol
# Density = 1.954776 g / cm^3
# Si number density = 19.592351 Si / 1000 Ang^3
#
#
#
# Elastic Constant Matrix: (Units=GPa)
#
#
# Indices 1 2 3 4 5 6 
#
# 1 113.4745 46.8450 23.1289 12.0968 11.3794 -14.1966
# 2 46.8450 76.0812 33.5340 6.4384 6.8635 -14.4963
# 3 23.1289 33.5340 83.2996 6.9311 23.9784 -12.2151
# 4 12.0968 6.4384 6.9311 21.0851 10.0268 3.8414
# 5 11.3794 6.8635 23.9784 10.0268 13.4971 -6.6301
# 6 -14.1966 -14.4963 -12.2151 3.8414 -6.6301 42.3937
#
#
#
# Elastic Compliance Matrix: (Units=1/GPa)
#
#
# Indices 1 2 3 4 5 6 
#
# 1 0.012797 -0.008058 0.003175 -0.000529 -0.011606 0.000678
# 2 -0.008058 0.025809 -0.018703 -0.021905 0.048210 0.010263
# 3 0.003175 -0.018703 0.046783 0.047847 -0.119102 -0.014815
# 4 -0.000529 -0.021905 0.047847 0.137321 -0.193397 -0.036570
# 5 -0.011606 0.048210 -0.119102 -0.193397 0.446895 0.065697
# 6 0.000678 0.010263 -0.014815 -0.036570 0.065697 0.036644
#
#
# Mechanical properties :
#
#
# Convention : Reuss Voigt Hill
#
# Bulk Modulus (GPa) = 26.16579 53.31901 39.74240
# Shear Modulus (GPa) = 6.52605 26.68501 16.60553
#
# Velocity S-wave (km/s) = 1.82706 3.69455 2.91443
# Velocity P-wave (km/s) = 4.22315 6.74336 5.62618
#
# Compressibility (1/GPa) = 0.03821785
#
# Stress axis : x y z
#
# Youngs Moduli (GPa) = 78.14331 38.74666 21.37523
#
# Poissons Ratio (x) = 0.31222 -0.06786
# Poissons Ratio (y) = 0.62967 0.39977
# Poissons Ratio (z) = -0.24810 0.72466
#
# Static dielectric constant tensor:
#      x y z
#    x 1.583930 0.040610 0.061910 
#    y 0.040610 1.646370 -0.016110 
#    z 0.061910 -0.016110 1.683320 
# 
# From -- ./inp_files/507891.got.cif
#   From: 2010.05.17/outbox.cif.g08.bks.cpg/sg2_254_cif.got.tgz:507891.got - 2010.06.03 11:33:40.
