data_PCOD9106108
_publ_section_title
;
Structure prediction by ZEFSAII (Michael W. Deem and Ramdas Pophale) SiO2 
 PCOD9106108
Probable space group: P -1
;
_chemical_formula_sum "Si O2"
_cell_formula_units_Z 12
_cell_length_a 13.568673
_cell_length_b 13.131258
_cell_length_c 17.159052
_cell_angle_alpha 21.840877
_cell_angle_beta 22.596128
_cell_angle_gamma 29.530808
_cell_volume 435.182698
_symmetry_space_group_name_H-M "P -1"
_symmetry_group_IT_number 2
_symmetry_cell_setting 'triclinic'
loop_
_space_group_symop_operation_xyz
x,y,z
-x,-y,-z
loop_
_atom_site_type_symbol
_atom_site_label
_atom_site_fract_x
_atom_site_fract_y
_atom_site_fract_z
Si Si1 0.653132 0.299402 0.259401
Si Si2 0.540782 0.886599 0.169155
Si Si3 0.298919 0.046808 0.817768
Si Si4 0.909870 0.329660 0.286506
Si Si5 0.752402 0.363205 0.977008
Si Si6 0.991862 0.082921 0.632699
O O1 0.430130 0.251526 0.517374
O O2 0.858500 0.036639 0.314447
O O3 0.571927 0.330308 0.206876
O O4 0.822375 0.557258 0.966023
O O5 0.586810 0.946959 0.183894
O O6 0.707185 0.599040 0.231948
O O7 0.240356 0.835949 0.420795
O O8 0.686806 0.101729 0.859637
O O9 0.999432 0.145106 0.970788
O O10 0.344700 0.750302 0.953171
O O11 0.937002 0.158612 0.309619
O O12 0.884858 0.644966 0.674880
#
# Coordination Sequence:
#
# PCOD9106108 Si02
#       6
#     2   2   2   2   2   2
#     4  11  22  44  66  90 126 167 203 260 310 365
#     4  10  20  39  67  94 122 167 201 255 317 365
#     4  11  23  44  64  90 129 168 203 258 313 362
#     4  10  21  38  68  94 122 163 210 249 317 369
#     4  11  26  43  61  95 128 163 213 251 308 374
#     4  11  23  40  66  95 124 164 208 256 307 370
#
# _framework density 27.574627
#
# number of rings (size 3 to 8) (size 9 to 14) (size 15 to 20)
#    0.000    1.333    5.000    2.500    2.333    3.333 
#    0.000    1.667    0.000    0.000    0.000    0.000 
#    0.000    0.000    0.000    0.000    0.000    0.000 
#
# Total GULP energy -67300.740218 kJ/mol
# GULP energy per Si atom -5608.395018 kJ/mol
# Density = 2.751187 g / cm^3
# Si number density = 27.574627 Si / 1000 Ang^3
#
#
#
# Elastic Constant Matrix: (Units=GPa)
#
#
# Indices 1 2 3 4 5 6 
#
# 1 113.0389 46.1037 38.1476 -5.8409 8.2046 38.1803
# 2 46.1037 106.9732 57.3019 -1.8077 2.6729 41.2167
# 3 38.1476 57.3019 175.0655 10.7096 14.2430 44.6877
# 4 -5.8409 -1.8077 10.7096 75.7169 2.8507 -6.7462
# 5 8.2046 2.6729 14.2430 2.8507 51.8552 5.5299
# 6 38.1803 41.2167 44.6877 -6.7462 5.5299 46.0134
#
#
#
# Elastic Compliance Matrix: (Units=1/GPa)
#
#
# Indices 1 2 3 4 5 6 
#
# 1 0.012665 -0.002256 0.000242 0.000164 -0.001049 -0.008574
# 2 -0.002256 0.015219 -0.001999 -0.000468 0.001217 -0.010034
# 3 0.000242 -0.001999 0.008173 -0.001705 -0.001401 -0.006430
# 4 0.000164 -0.000468 -0.001705 0.013838 -0.000727 0.004055
# 5 -0.001049 0.001217 -0.001401 -0.000727 0.019958 -0.001365
# 6 -0.008574 -0.010034 -0.006430 0.004055 -0.001365 0.044838
#
#
# Mechanical properties :
#
#
# Convention : Reuss Voigt Hill
#
# Bulk Modulus (GPa) = 35.67284 75.35377 55.51330
# Shear Modulus (GPa) = 37.86121 51.61874 44.73997
#
# Velocity S-wave (km/s) = 3.70948 4.33131 4.03240
# Velocity P-wave (km/s) = 5.59571 7.23880 6.46963
#
# Compressibility (1/GPa) = 0.02803253
#
# Stress axis : x y z
#
# Youngs Moduli (GPa) = 78.95579 65.70743 122.35055
#
# Poissons Ratio (x) = 0.14823 -0.02966
# Poissons Ratio (y) = 0.17812 0.24457
# Poissons Ratio (z) = -0.01914 0.13134
#
# Static dielectric constant tensor:
#      x y z
#    x 2.158340 -0.033820 -0.010490 
#    y -0.033820 2.166200 -0.019200 
#    z -0.010490 -0.019200 2.157980 
# 
# From -- ./inp_files/465434.got.cif
#   From: 2010.05.17/outbox.cif.g08.bks.cpg/sg2_233_cif.got.tgz:465434.got - 2010.06.03 11:33:40.
