data_PCOD9106440
_publ_section_title
;
Structure prediction by ZEFSAII (Michael W. Deem and Ramdas Pophale) SiO2 
 PCOD9106440
Probable space group: P -1
;
_chemical_formula_sum "Si O2"
_cell_formula_units_Z 12
_cell_length_a 6.915204
_cell_length_b 22.683923
_cell_length_c 20.918305
_cell_angle_alpha 167.613605
_cell_angle_beta 41.140277
_cell_angle_gamma 136.901147
_cell_volume 462.731731
_symmetry_space_group_name_H-M "P -1"
_symmetry_group_IT_number 2
_symmetry_cell_setting 'triclinic'
loop_
_space_group_symop_operation_xyz
x,y,z
-x,-y,-z
loop_
_atom_site_type_symbol
_atom_site_label
_atom_site_fract_x
_atom_site_fract_y
_atom_site_fract_z
Si Si1 0.836225 0.600053 0.330316
Si Si2 0.728708 0.312076 0.886415
Si Si3 0.186393 0.945406 0.082455
Si Si4 0.281212 0.453986 0.237574
Si Si5 0.193190 0.135836 0.149084
Si Si6 0.957518 0.953004 0.350234
O O1 0.518817 0.485572 0.268496
O O2 0.822289 0.756726 0.566624
O O3 0.916622 0.832371 0.504236
O O4 0.061107 0.339595 0.990204
O O5 0.822852 0.131568 0.734506
O O6 0.466716 0.512681 0.189763
O O7 0.694120 0.107697 0.618997
O O8 0.000000 0.500000 0.000000
O O9 0.238280 0.919629 0.966346
O O10 0.478557 0.796512 0.882642
O O11 0.866076 0.827508 0.043653
O O12 0.004781 0.633608 0.522162
O O13 0.000000 0.000000 0.000000
#
# Coordination Sequence:
#
# PCOD9106440 Si02
#       6
#     2   2   2   2   2   2
#     4  11  24  44  74 107 150 196 243 305 370 436
#     4  10  20  39  70 111 143 196 249 295 368 440
#     4  11  27  47  70 113 142 194 251 308 368 457
#     4  11  24  43  73 102 146 197 239 307 370 433
#     4  11  25  48  74 104 148 190 249 310 378 438
#     4  10  21  40  70 106 148 197 243 299 362 442
#
# _framework density 25.932953000000001
#
# number of rings (size 3 to 8) (size 9 to 14) (size 15 to 20)
#    0.000    1.333    5.000    0.500    7.000    0.667 
#    0.000    1.667    0.000    0.000    0.000    0.000 
#    0.000    0.000    0.000    0.000    0.000    0.000 
#
# Total GULP energy -67003.882030 kJ/mol
# GULP energy per Si atom -5583.656836 kJ/mol
# Density = 2.587393 g / cm^3
# Si number density = 25.932953 Si / 1000 Ang^3
#
#
#
# Elastic Constant Matrix: (Units=GPa)
#
#
# Indices 1 2 3 4 5 6 
#
# 1 142.2854 45.8280 58.9001 5.0778 37.5172 2.0030
# 2 45.8280 112.5188 58.0188 0.9131 10.4536 7.4371
# 3 58.9001 58.0188 192.7292 -29.3265 28.9293 10.9763
# 4 5.0778 0.9131 -29.3265 52.3770 -5.2693 -0.4170
# 5 37.5172 10.4536 28.9293 -5.2693 56.2826 -1.5331
# 6 2.0030 7.4371 10.9763 -0.4170 -1.5331 32.6378
#
#
#
# Elastic Compliance Matrix: (Units=1/GPa)
#
#
# Indices 1 2 3 4 5 6 
#
# 1 0.010231 -0.002673 -0.001893 -0.002564 -0.005582 0.000323
# 2 -0.002673 0.011509 -0.002941 -0.001501 0.000976 -0.001443
# 3 -0.001893 -0.002941 0.007685 0.004344 -0.001785 -0.001827
# 4 -0.002564 -0.001501 0.004344 0.021975 0.001796 -0.000596
# 5 -0.005582 0.000976 -0.001785 0.001796 0.022442 0.001798
# 6 0.000323 -0.001443 -0.001827 -0.000596 0.001798 0.031639
#
#
# Mechanical properties :
#
#
# Convention : Reuss Voigt Hill
#
# Bulk Modulus (GPa) = 69.38110 85.89190 77.63650
# Shear Modulus (GPa) = 39.90426 47.24526 43.57476
#
# Velocity S-wave (km/s) = 3.92694 4.27291 4.10358
# Velocity P-wave (km/s) = 6.88282 7.58527 7.24257
#
# Compressibility (1/GPa) = 0.01441315
#
# Stress axis : x y z
#
# Youngs Moduli (GPa) = 97.73804 86.88642 130.11868
#
# Poissons Ratio (x) = 0.23226 0.24629
# Poissons Ratio (y) = 0.26126 0.38262
# Poissons Ratio (z) = 0.18500 0.25549
#
# Static dielectric constant tensor:
#      x y z
#    x 2.083700 0.002270 -0.068600 
#    y 0.002270 2.177430 -0.004780 
#    z -0.068600 -0.004780 2.109200 
# 
# From -- ./inp_files/617738.got.cif
#   From: 2010.05.17/outbox.cif.g08.bks.cpg/sg2_309_cif.got.tgz:617738.got - 2010.06.03 11:33:40.
