data_PCOD9106253
_publ_section_title
;
Structure prediction by ZEFSAII (Michael W. Deem and Ramdas Pophale) SiO2 
 PCOD9106253
Probable space group: P -1
;
_chemical_formula_sum "Si O2"
_cell_formula_units_Z 16
_cell_length_a 9.344469
_cell_length_b 12.456928
_cell_length_c 9.920518
_cell_angle_alpha 145.158627
_cell_angle_beta 97.514688
_cell_angle_gamma 72.663384
_cell_volume 615.902204
_symmetry_space_group_name_H-M "P -1"
_symmetry_group_IT_number 2
_symmetry_cell_setting 'triclinic'
loop_
_space_group_symop_operation_xyz
x,y,z
-x,-y,-z
loop_
_atom_site_type_symbol
_atom_site_label
_atom_site_fract_x
_atom_site_fract_y
_atom_site_fract_z
Si Si1 0.008747 0.724103 0.248746
Si Si2 0.078171 0.659936 0.725341
Si Si3 0.316484 0.091634 0.555707
Si Si4 0.374759 0.346352 0.452242
Si Si5 0.670287 0.502467 0.991322
Si Si6 0.982511 0.083032 0.256273
Si Si7 0.588933 0.576211 0.751274
Si Si8 0.318132 0.969201 0.148298
O O1 0.836926 0.866354 0.327846
O O2 0.023838 0.809596 0.489609
O O3 0.177204 0.689463 0.171366
O O4 0.000000 0.500000 0.000000
O O5 0.230233 0.519714 0.675971
O O6 0.000000 0.500000 0.500000
O O7 0.126160 0.761220 0.702075
O O8 0.989323 0.851805 0.008604
O O9 0.297028 0.960574 0.295822
O O10 0.500000 0.000000 0.500000
O O11 0.303282 0.314733 0.739532
O O12 0.533077 0.387033 0.535182
O O13 0.330148 0.371666 0.314409
O O14 0.396339 0.127970 0.280130
O O15 0.662450 0.565810 0.896159
O O16 0.500000 0.500000 0.000000
O O17 0.143687 0.065119 0.184167
O O18 0.427631 0.755657 0.904141
#
# Coordination Sequence:
#
# PCOD9106253 Si02
#       8
#     2   2   2   2   2   2   2   2
#     4   9  21  41  68  99 133 180 228 285 345 411
#     4  11  21  38  62  95 132 177 224 276 346 416
#     4  10  20  39  68  93 132 178 224 279 346 404
#     4  11  23  38  60  98 129 178 225 274 350 412
#     4  11  22  42  68  95 132 180 232 286 345 406
#     4  10  21  38  66  93 136 179 223 287 344 405
#     4  11  23  39  62  90 137 171 226 286 338 406
#     4  11  20  39  63  93 130 177 227 276 337 420
#
# _framework density 25.978149999999999
#
# number of rings (size 3 to 8) (size 9 to 14) (size 15 to 20)
#    0.000    1.500    3.750    1.875    0.000    0.000 
#    0.000    1.875    0.000    0.000    0.000    0.000 
#    0.000    0.000    0.000    0.000    0.000    0.000 
#
# Total GULP energy -89102.136706 kJ/mol
# GULP energy per Si atom -5568.883544 kJ/mol
# Density = 2.591902 g / cm^3
# Si number density = 25.978150 Si / 1000 Ang^3
#
#
#
# Elastic Constant Matrix: (Units=GPa)
#
#
# Indices 1 2 3 4 5 6 
#
# 1 132.5303 24.6481 50.3179 21.5618 -27.6547 -5.5113
# 2 24.6481 74.6820 22.9230 -1.7670 0.4276 1.1868
# 3 50.3179 22.9230 151.6081 4.3536 11.4299 12.3962
# 4 21.5618 -1.7670 4.3536 43.7142 -2.0027 0.4651
# 5 -27.6547 0.4276 11.4299 -2.0027 54.5545 19.3713
# 6 -5.5113 1.1868 12.3962 0.4651 19.3713 36.6269
#
#
#
# Elastic Compliance Matrix: (Units=1/GPa)
#
#
# Indices 1 2 3 4 5 6 
#
# 1 0.011756 -0.002872 -0.003796 -0.005226 0.006703 -0.000332
# 2 -0.002872 0.014778 -0.001258 0.002078 -0.001293 0.000172
# 3 -0.003796 -0.001258 0.008394 0.000867 -0.003004 -0.001793
# 4 -0.005226 0.002078 0.000867 0.025379 -0.001716 -0.000562
# 5 0.006703 -0.001293 -0.003004 -0.001716 0.026549 -0.011952
# 6 -0.000332 0.000172 -0.001793 -0.000562 -0.011952 0.034182
#
#
# Mechanical properties :
#
#
# Convention : Reuss Voigt Hill
#
# Bulk Modulus (GPa) = 52.41656 61.62205 57.01930
# Shear Modulus (GPa) = 34.90511 44.37455 39.63983
#
# Velocity S-wave (km/s) = 3.66954 4.13746 3.91050
# Velocity P-wave (km/s) = 6.17859 6.82620 6.51045
#
# Compressibility (1/GPa) = 0.01907794
#
# Stress axis : x y z
#
# Youngs Moduli (GPa) = 85.06533 67.66964 119.13167
#
# Poissons Ratio (x) = 0.19432 0.45217
# Poissons Ratio (y) = 0.24427 0.14982
# Poissons Ratio (z) = 0.32287 0.08510
#
# Static dielectric constant tensor:
#      x y z
#    x 2.321730 -0.162150 -0.116660 
#    y -0.162150 2.177590 0.049420 
#    z -0.116660 0.049420 2.128370 
# 
# From -- ./inp_files/400083.got.cif
#   From: 2010.05.17/outbox.cif.g08.bks.cpg/sg2_201_cif.got.tgz:400083.got - 2010.06.03 11:33:40.
