data_PCOD9106801
_publ_section_title
;
Structure prediction by ZEFSAII (Michael W. Deem and Ramdas Pophale) SiO2 
 PCOD9106801
Probable space group: P -1
;
_chemical_formula_sum "Si O2"
_cell_formula_units_Z 16
_cell_length_a 9.338844
_cell_length_b 13.834356
_cell_length_c 11.402492
_cell_angle_alpha 127.105067
_cell_angle_beta 139.033266
_cell_angle_gamma 48.225424
_cell_volume 704.996544
_symmetry_space_group_name_H-M "P -1"
_symmetry_group_IT_number 2
_symmetry_cell_setting 'triclinic'
loop_
_space_group_symop_operation_xyz
x,y,z
-x,-y,-z
loop_
_atom_site_type_symbol
_atom_site_label
_atom_site_fract_x
_atom_site_fract_y
_atom_site_fract_z
Si Si1 0.092393 0.438063 0.305502
Si Si2 0.942277 0.022665 0.827397
Si Si3 0.786894 0.094076 0.519039
Si Si4 0.255433 0.395464 0.124866
Si Si5 0.280204 0.672161 0.018629
Si Si6 0.570217 0.390694 0.667933
Si Si7 0.300936 0.301503 0.834349
Si Si8 0.397973 0.989521 0.211504
O O1 0.216349 0.358393 0.204548
O O2 0.296924 0.412366 0.506592
O O3 0.951897 0.591009 0.289111
O O4 0.898699 0.384713 0.186768
O O5 0.873766 0.039480 0.662917
O O6 0.848291 0.170616 0.930507
O O7 0.781535 0.960451 0.751948
O O8 0.223053 0.966987 0.989763
O O9 0.731438 0.250881 0.602707
O O10 0.537533 0.079771 0.330531
O O11 0.000000 0.000000 0.500000
O O12 0.412984 0.481432 0.286732
O O13 0.322302 0.294861 0.984254
O O14 0.000000 0.500000 0.000000
O O15 0.345737 0.620199 0.153950
O O16 0.508160 0.645809 0.060670
O O17 0.388984 0.152838 0.733839
#
# Coordination Sequence:
#
# PCOD9106801 Si02
#       8
#     2   2   2   2   2   2   2   2
#     4  11  22  37  62  84 120 159 191 236 293 351
#     4   9  21  41  65  85 115 164 193 242 298 347
#     4  11  25  38  62  91 121 151 198 251 288 350
#     4  10  21  39  60  81 118 160 189 238 292 348
#     4  10  20  40  61  88 121 147 198 245 289 344
#     4  11  23  40  61  86 118 158 197 234 298 347
#     4  10  22  38  62  90 119 153 193 246 286 347
#     4  10  21  42  63  87 120 154 201 240 295 349
#
# _framework density 22.695145
#
# number of rings (size 3 to 8) (size 9 to 14) (size 15 to 20)
#    0.000    1.750    2.500    1.875    3.500    2.000 
#    2.250    0.000    0.000    0.000    0.000    0.000 
#    0.000    0.000    0.000    0.000    0.000    0.000 
#
# Total GULP energy -89370.093256 kJ/mol
# GULP energy per Si atom -5585.630829 kJ/mol
# Density = 2.264349 g / cm^3
# Si number density = 22.695145 Si / 1000 Ang^3
#
#
#
# Elastic Constant Matrix: (Units=GPa)
#
#
# Indices 1 2 3 4 5 6 
#
# 1 36.2315 4.9931 2.2544 -12.1142 -2.9292 -7.9586
# 2 4.9931 73.1012 13.7207 -5.7172 -7.3446 -19.7740
# 3 2.2544 13.7207 78.2431 -15.1640 16.3647 -12.0134
# 4 -12.1142 -5.7172 -15.1640 26.7674 -3.0168 2.6406
# 5 -2.9292 -7.3446 16.3647 -3.0168 22.7678 4.2892
# 6 -7.9586 -19.7740 -12.0134 2.6406 4.2892 25.7208
#
#
#
# Elastic Compliance Matrix: (Units=1/GPa)
#
#
# Indices 1 2 3 4 5 6 
#
# 1 0.035851 0.001778 0.003234 0.017625 0.003000 0.011661
# 2 0.001778 0.018026 -0.001890 0.002988 0.005480 0.012305
# 3 0.003234 -0.001890 0.019528 0.009439 -0.014897 0.010184
# 4 0.017625 0.002988 0.009439 0.050888 0.001945 0.006611
# 5 0.003000 0.005480 -0.014897 0.001945 0.059283 -0.011902
# 6 0.011661 0.012305 0.010184 0.006611 -0.011902 0.058010
#
#
# Mechanical properties :
#
#
# Convention : Reuss Voigt Hill
#
# Bulk Modulus (GPa) = 12.55509 25.50134 19.02822
# Shear Modulus (GPa) = 19.09202 26.15838 22.62520
#
# Velocity S-wave (km/s) = 2.90356 3.39868 3.16083
# Velocity P-wave (km/s) = 4.09694 5.16355 4.66085
#
# Compressibility (1/GPa) = 0.07964895
#
# Stress axis : x y z
#
# Youngs Moduli (GPa) = 27.89329 55.47622 51.20977
#
# Poissons Ratio (x) = -0.09866 -0.16560
# Poissons Ratio (y) = -0.04961 0.09678
# Poissons Ratio (z) = -0.09020 0.10485
#
# Static dielectric constant tensor:
#      x y z
#    x 1.940250 0.014340 0.069000 
#    y 0.014340 1.873910 0.015210 
#    z 0.069000 0.015210 1.881080 
# 
# From -- ./inp_files/344940.got.cif
#   From: 2010.05.17/outbox.cif.g08.bks.cpg/sg2_173_cif.got.tgz:344940.got - 2010.06.03 11:33:40.
