data_PCOD9106478
_publ_section_title
;
Structure prediction by ZEFSAII (Michael W. Deem and Ramdas Pophale) SiO2 
 PCOD9106478
Probable space group: P -1
;
_chemical_formula_sum "Si O2"
_cell_formula_units_Z 14
_cell_length_a 9.947093
_cell_length_b 10.037085
_cell_length_c 11.563108
_cell_angle_alpha 50.490478
_cell_angle_beta 105.284171
_cell_angle_gamma 136.217283
_cell_volume 573.376666
_symmetry_space_group_name_H-M "P -1"
_symmetry_group_IT_number 2
_symmetry_cell_setting 'triclinic'
loop_
_space_group_symop_operation_xyz
x,y,z
-x,-y,-z
loop_
_atom_site_type_symbol
_atom_site_label
_atom_site_fract_x
_atom_site_fract_y
_atom_site_fract_z
Si Si1 0.125944 0.789558 0.398037
Si Si2 0.016781 0.514806 0.134444
Si Si3 0.440457 0.225463 0.699066
Si Si4 0.855239 0.809811 0.466432
Si Si5 0.552555 0.063445 0.296836
Si Si6 0.562518 0.245053 0.943395
Si Si7 0.152561 0.981622 0.048114
O O1 0.147221 0.908943 0.216564
O O2 0.000000 0.500000 0.500000
O O3 0.987941 0.781892 0.452217
O O4 0.367839 0.969085 0.384557
O O5 0.201245 0.544212 0.167633
O O6 0.077645 0.750725 0.079756
O O7 0.792558 0.267719 0.275530
O O8 0.000000 0.500000 0.000000
O O9 0.621668 0.529020 0.600681
O O10 0.215812 0.103168 0.688274
O O11 0.452183 0.090647 0.878175
O O12 0.509581 0.184514 0.623723
O O13 0.000000 0.000000 0.500000
O O14 0.567020 0.188328 0.110596
O O15 0.392495 0.244773 0.922169
O O16 0.000000 0.000000 0.000000
#
# Coordination Sequence:
#
# PCOD9106478 Si02
#       7
#     2   2   2   2   2   2   2
#     4  11  23  46  68  93 138 184 226 278 347 412
#     4  10  21  39  68 108 132 178 235 275 333 420
#     4  11  22  43  69  97 137 174 228 282 344 401
#     4  11  27  46  67  98 133 185 232 280 339 413
#     4  10  21  40  69 101 132 174 229 280 339 408
#     4  10  20  39  70  97 131 175 220 277 334 405
#     4  11  23  42  66 100 142 179 218 289 357 396
#
# _framework density 24.416758999999999
#
# number of rings (size 3 to 8) (size 9 to 14) (size 15 to 20)
#    0.000    1.429    1.429    5.143    2.000    0.000 
#   10.286    5.000    0.000    0.000    0.000    0.000 
#    0.000    0.000    0.000    0.000    0.000    0.000 
#
# Total GULP energy -77943.631373 kJ/mol
# GULP energy per Si atom -5567.402241 kJ/mol
# Density = 2.436118 g / cm^3
# Si number density = 24.416759 Si / 1000 Ang^3
#
#
#
# Elastic Constant Matrix: (Units=GPa)
#
#
# Indices 1 2 3 4 5 6 
#
# 1 223.7729 93.8661 25.8717 4.2033 -49.5651 35.7885
# 2 93.8661 103.8436 51.5574 -2.5361 8.7207 26.5044
# 3 25.8717 51.5574 51.8449 4.2152 -39.6039 7.2235
# 4 4.2033 -2.5361 4.2152 30.4175 13.2625 -3.0097
# 5 -49.5651 8.7207 -39.6039 13.2625 27.1864 -1.0397
# 6 35.7885 26.5044 7.2235 -3.0097 -1.0397 51.2537
#
#
#
# Elastic Compliance Matrix: (Units=1/GPa)
#
#
# Indices 1 2 3 4 5 6 
#
# 1 0.003858 0.001287 -0.007370 0.002799 -0.005568 -0.002269
# 2 0.001287 0.004725 0.007006 -0.007540 0.014545 -0.004477
# 3 -0.007370 0.007006 0.001924 0.008981 -0.017208 0.001430
# 4 0.002799 -0.007540 0.008981 0.027733 0.007169 0.002453
# 5 -0.005568 0.014545 -0.017208 0.007169 -0.006635 -0.000921
# 6 -0.002269 -0.004477 0.001430 0.002453 -0.000921 0.023334
#
#
# Mechanical properties :
#
#
# Convention : Reuss Voigt Hill
#
# Bulk Modulus (GPa) = 80.95000 80.22797 80.58899
# Shear Modulus (GPa) = 87.39639 35.64927 61.52283
#
# Velocity S-wave (km/s) = 5.98927 3.82518 5.02510
# Velocity P-wave (km/s) = 9.00299 7.24144 8.16983
#
# Compressibility (1/GPa) = 0.01235330
#
# Stress axis : x y z
#
# Youngs Moduli (GPa) = 259.20551 211.64620 519.70361
#
# Poissons Ratio (x) = -0.27245 3.83045
# Poissons Ratio (y) = -0.33368 -3.64120
# Poissons Ratio (z) = 1.91046 -1.48286
#
# Static dielectric constant tensor:
#      x y z
#    x 1.987320 0.003380 0.125130 
#    y 0.003380 2.036500 -0.029450 
#    z 0.125130 -0.029450 2.181770 
# 
# From -- ./inp_files/381388.got.cif
#   From: 2010.05.17/outbox.cif.g08.bks.cpg/sg2_191_cif.got.tgz:381388.got - 2010.06.03 11:33:40.
