data_PCOD9106959
_publ_section_title
;
Structure prediction by ZEFSAII (Michael W. Deem and Ramdas Pophale) SiO2 
 PCOD9106959
Probable space group: P -1
;
_chemical_formula_sum "Si O2"
_cell_formula_units_Z 15
_cell_length_a 10.452209
_cell_length_b 23.446158
_cell_length_c 14.112995
_cell_angle_alpha 157.910195
_cell_angle_beta 37.512462
_cell_angle_gamma 150.691340
_cell_volume 634.627800
_symmetry_space_group_name_H-M "P -1"
_symmetry_group_IT_number 2
_symmetry_cell_setting 'triclinic'
loop_
_space_group_symop_operation_xyz
x,y,z
-x,-y,-z
loop_
_atom_site_type_symbol
_atom_site_label
_atom_site_fract_x
_atom_site_fract_y
_atom_site_fract_z
Si Si1 0.617941 0.248662 0.698541
Si Si2 0.025123 0.013831 0.693618
Si Si3 0.500000 0.000000 0.000000
Si Si4 0.973528 0.280700 0.031084
Si Si5 0.085771 0.894694 0.912883
Si Si6 0.634928 0.918796 0.151442
Si Si7 0.034004 0.676871 0.122675
Si Si8 0.688959 0.303216 0.518490
O O1 0.328385 0.138495 0.741158
O O2 0.716136 0.118409 0.452629
O O3 0.586388 0.258960 0.618791
O O4 0.824644 0.459682 0.937574
O O5 0.949246 0.808338 0.406837
O O6 0.037167 0.131586 0.779654
O O7 0.848062 0.025795 0.895441
O O8 0.716605 0.196715 0.114510
O O9 0.510629 0.133451 0.289662
O O10 0.214326 0.489305 0.247090
O O11 0.948041 0.307850 0.978204
O O12 0.309247 0.037283 0.926529
O O13 0.060430 0.703392 0.632494
O O14 0.827990 0.869796 0.993536
O O15 0.330076 0.768312 0.121277
#
# Coordination Sequence:
#
# PCOD9106959 Si02
#       8
#     2   2   1   2   2   2   2   2
#     4   9  21  41  60  84 121 158 199 240 297 350
#     4  11  22  37  59  90 121 155 198 245 296 349
#     4  12  20  34  58  86 116 152 194 240 288 344
#     4  11  23  37  60  86 126 154 197 240 295 352
#     4  10  20  40  62  89 117 155 196 252 301 340
#     4   9  20  42  65  81 120 156 199 248 299 347
#     4  10  22  40  60  89 116 166 196 239 293 359
#     4  10  22  40  57  86 120 161 194 240 296 351
#
# _framework density 23.635902000000002
#
# number of rings (size 3 to 8) (size 9 to 14) (size 15 to 20)
#    0.000    1.867    1.333    3.200    0.000    5.333 
#    0.000   16.000    0.000    0.000    0.000    0.000 
#    0.000    0.000    0.000    0.000    0.000    0.000 
#
# Total GULP energy -83664.483033 kJ/mol
# GULP energy per Si atom -5577.632202 kJ/mol
# Density = 2.358211 g / cm^3
# Si number density = 23.635902 Si / 1000 Ang^3
#
#
#
# Elastic Constant Matrix: (Units=GPa)
#
#
# Indices 1 2 3 4 5 6 
#
# 1 60.1984 3.4828 19.2802 11.9757 -7.1316 -6.1200
# 2 3.4828 79.8799 58.2463 -2.7469 -2.5035 -8.5416
# 3 19.2802 58.2463 139.9711 22.4785 -2.2444 5.0349
# 4 11.9757 -2.7469 22.4785 36.8786 1.4322 7.3384
# 5 -7.1316 -2.5035 -2.2444 1.4322 33.0175 -13.6894
# 6 -6.1200 -8.5416 5.0349 7.3384 -13.6894 32.7772
#
#
#
# Elastic Compliance Matrix: (Units=1/GPa)
#
#
# Indices 1 2 3 4 5 6 
#
# 1 0.021019 0.002389 -0.002948 -0.007289 0.009175 0.010464
# 2 0.002389 0.020990 -0.010110 0.005129 0.004618 0.008249
# 3 -0.002948 -0.010110 0.012965 -0.006708 -0.002122 -0.004561
# 4 -0.007289 0.005129 -0.006708 0.036279 -0.007457 -0.010231
# 5 0.009175 0.004618 -0.002122 -0.007457 0.042130 0.022508
# 6 0.010464 0.008249 -0.004561 -0.010231 0.022508 0.047004
#
#
# Mechanical properties :
#
#
# Convention : Reuss Voigt Hill
#
# Bulk Modulus (GPa) = 29.73077 49.11866 39.42472
# Shear Modulus (GPa) = 23.48121 33.80399 28.64260
#
# Velocity S-wave (km/s) = 3.15533 3.78590 3.48491
# Velocity P-wave (km/s) = 5.08732 6.31959 5.73664
#
# Compressibility (1/GPa) = 0.03363518
#
# Stress axis : x y z
#
# Youngs Moduli (GPa) = 47.57697 47.64235 77.13204
#
# Poissons Ratio (x) = -0.11382 0.22738
# Poissons Ratio (y) = -0.11366 0.77980
# Poissons Ratio (z) = 0.14026 0.48166
#
# Static dielectric constant tensor:
#      x y z
#    x 1.873510 -0.025120 0.034800 
#    y -0.025120 1.855080 -0.050400 
#    z 0.034800 -0.050400 1.854730 
# 
# From -- ./inp_files/450284.got.cif
#   From: 2010.05.17/outbox.cif.g08.bks.cpg/sg2_226_cif.got.tgz:450284.got - 2010.06.03 11:33:40.
