data_PCOD9106521
_publ_section_title
;
Structure prediction by ZEFSAII (Michael W. Deem and Ramdas Pophale) SiO2 
 PCOD9106521
Probable space group: P -1
;
_chemical_formula_sum "Si O2"
_cell_formula_units_Z 15
_cell_length_a 14.517214
_cell_length_b 13.548083
_cell_length_c 19.652597
_cell_angle_alpha 20.497892
_cell_angle_beta 156.063040
_cell_angle_gamma 148.404525
_cell_volume 548.906037
_symmetry_space_group_name_H-M "P -1"
_symmetry_group_IT_number 2
_symmetry_cell_setting 'triclinic'
loop_
_space_group_symop_operation_xyz
x,y,z
-x,-y,-z
loop_
_atom_site_type_symbol
_atom_site_label
_atom_site_fract_x
_atom_site_fract_y
_atom_site_fract_z
Si Si1 0.751027 0.597676 0.679947
Si Si2 0.820232 0.114948 0.247848
Si Si3 0.043122 0.317308 0.480164
Si Si4 0.292137 0.136010 0.385405
Si Si5 0.310439 0.919201 0.132172
Si Si6 0.500000 0.000000 0.500000
Si Si7 0.675366 0.750543 0.934711
Si Si8 0.671102 0.588353 0.260079
O O1 0.674072 0.619046 0.694068
O O2 0.581514 0.841265 0.377080
O O3 0.740845 0.336596 0.789642
O O4 0.012197 0.673150 0.813057
O O5 0.792609 0.843261 0.357365
O O6 0.575053 0.251227 0.005605
O O7 0.000000 0.000000 0.500000
O O8 0.195730 0.437370 0.563895
O O9 0.892080 0.558879 0.184751
O O10 0.876023 0.085636 0.550794
O O11 0.275525 0.193158 0.258345
O O12 0.542572 0.958257 0.657771
O O13 0.260055 0.031198 0.103099
O O14 0.210336 0.192551 0.849742
O O15 0.647296 0.288581 0.406579
O O16 0.500000 0.500000 0.000000
#
# Coordination Sequence:
#
# PCOD9106521 Si02
#       8
#     2   2   2   2   2   1   2   2
#     4   9  20  41  69 104 127 180 231 277 336 412
#     4  11  23  42  70  99 139 180 226 281 344 402
#     4  10  23  42  69  99 134 182 230 279 346 403
#     4   9  21  42  67  95 138 178 229 277 336 417
#     4  10  20  39  71  99 133 174 230 279 341 407
#     4  12  28  44  66 100 144 182 224 282 354 398
#     4   9  18  37  69  94 125 178 229 276 328 407
#     4  12  26  42  64 100 142 180 227 289 334 403
#
# _framework density 27.327079999999999
#
# number of rings (size 3 to 8) (size 9 to 14) (size 15 to 20)
#    0.000    1.867    1.333    2.800    1.867    6.400 
#    2.400    3.333    0.000    0.000    0.000    0.000 
#    0.000    0.000    0.000    0.000    0.000    0.000 
#
# Total GULP energy -83517.476659 kJ/mol
# GULP energy per Si atom -5567.831777 kJ/mol
# Density = 2.726488 g / cm^3
# Si number density = 27.327080 Si / 1000 Ang^3
#
#
#
# Elastic Constant Matrix: (Units=GPa)
#
#
# Indices 1 2 3 4 5 6 
#
# 1 60.6050 26.6354 16.5147 -6.8260 21.3014 -24.8122
# 2 26.6354 127.5092 33.7275 -18.3382 13.8776 -43.3913
# 3 16.5147 33.7275 124.4168 -3.6159 10.9500 -12.3320
# 4 -6.8260 -18.3382 -3.6159 47.6721 -12.4696 7.0901
# 5 21.3014 13.8776 10.9500 -12.4696 37.1110 -14.0724
# 6 -24.8122 -43.3913 -12.3320 7.0901 -14.0724 49.6197
#
#
#
# Elastic Compliance Matrix: (Units=1/GPa)
#
#
# Indices 1 2 3 4 5 6 
#
# 1 0.024115 -0.000951 -0.001255 -0.000922 -0.010350 0.008111
# 2 -0.000951 0.012225 -0.002265 0.003336 0.001393 0.009571
# 3 -0.001255 -0.002265 0.008861 -0.000675 -0.001559 -0.000752
# 4 -0.000922 0.003336 -0.000675 0.023994 0.007968 0.001119
# 5 -0.010350 0.001393 -0.001559 0.007968 0.037451 0.005138
# 6 0.008111 0.009571 -0.000752 0.001119 0.005138 0.033689
#
#
# Mechanical properties :
#
#
# Convention : Reuss Voigt Hill
#
# Bulk Modulus (GPa) = 27.57905 51.80958 39.69431
# Shear Modulus (GPa) = 30.98565 42.59079 36.78822
#
# Velocity S-wave (km/s) = 3.37097 3.95214 3.67307
# Velocity P-wave (km/s) = 5.02646 6.31079 5.70489
#
# Compressibility (1/GPa) = 0.03625941
#
# Stress axis : x y z
#
# Youngs Moduli (GPa) = 41.46778 81.79699 112.85208
#
# Poissons Ratio (x) = 0.07781 0.14163
# Poissons Ratio (y) = 0.03945 0.25559
# Poissons Ratio (z) = 0.05204 0.18526
#
# Static dielectric constant tensor:
#      x y z
#    x 4.109780 -0.799840 -0.587040 
#    y -0.799840 3.364050 0.237030 
#    z -0.587040 0.237030 2.358360 
# 
# From -- ./inp_files/613233.got.cif
#   From: 2010.05.17/outbox.cif.g08.bks.cpg/sg2_307_cif.got.tgz:613233.got - 2010.06.03 11:33:40.
