data_PCOD9106034
_publ_section_title
;
Structure prediction by ZEFSAII (Michael W. Deem and Ramdas Pophale) SiO2 
 PCOD9106034
Probable space group: P -1
;
_chemical_formula_sum "Si O2"
_cell_formula_units_Z 14
_cell_length_a 9.006602
_cell_length_b 7.708822
_cell_length_c 16.581640
_cell_angle_alpha 56.903826
_cell_angle_beta 138.928588
_cell_angle_gamma 112.974622
_cell_volume 633.186827
_symmetry_space_group_name_H-M "P -1"
_symmetry_group_IT_number 2
_symmetry_cell_setting 'triclinic'
loop_
_space_group_symop_operation_xyz
x,y,z
-x,-y,-z
loop_
_atom_site_type_symbol
_atom_site_label
_atom_site_fract_x
_atom_site_fract_y
_atom_site_fract_z
Si Si1 0.896723 0.299034 0.084011
Si Si2 0.127948 0.121545 0.454715
Si Si3 0.503452 0.838643 0.945341
Si Si4 0.195063 0.831100 0.093028
Si Si5 0.241565 0.990265 0.367732
Si Si6 0.395961 0.712447 0.370553
Si Si7 0.186559 0.529359 0.828950
O O1 0.697057 0.146752 0.073821
O O2 0.863498 0.477433 0.092928
O O3 0.868804 0.310325 0.973968
O O4 0.139942 0.190643 0.228989
O O5 0.388107 0.141921 0.580830
O O6 0.017040 0.349974 0.330932
O O7 0.108037 0.993489 0.395887
O O8 0.000000 0.000000 0.500000
O O9 0.386688 0.694194 0.866624
O O10 0.600516 0.035434 0.892386
O O11 0.711337 0.690842 0.100898
O O12 0.280541 0.708468 0.237910
O O13 0.000000 0.000000 0.000000
O O14 0.228153 0.806391 0.345846
O O15 0.500000 0.000000 0.500000
O O16 0.500000 0.500000 0.500000
#
# Coordination Sequence:
#
# PCOD9106034 Si02
#       7
#     2   2   2   2   2   2   2
#     4   9  18  38  61  88 114 155 195 245 302 347
#     4  10  20  39  67  84 114 163 211 242 298 361
#     4   9  19  37  61  89 115 147 197 252 298 343
#     4  12  23  37  60  86 122 161 198 234 304 372
#     4   9  19  39  61  83 119 160 196 248 300 355
#     4  11  25  42  57  88 129 161 197 250 307 357
#     4   8  18  36  63  87 113 143 199 253 292 330
#
# _framework density 22.110378000000001
#
# number of rings (size 3 to 8) (size 9 to 14) (size 15 to 20)
#    0.857    1.429    1.429    1.286    2.000    0.000 
#    2.571    4.286    0.000    0.000    0.000    0.000 
#    0.000    0.000    0.000    0.000    0.000    0.000 
#
# Total GULP energy -78050.253036 kJ/mol
# GULP energy per Si atom -5575.018074 kJ/mol
# Density = 2.206005 g / cm^3
# Si number density = 22.110378 Si / 1000 Ang^3
#
#
#
# Elastic Constant Matrix: (Units=GPa)
#
#
# Indices 1 2 3 4 5 6 
#
# 1 85.9968 28.4044 52.2541 6.4893 -13.8375 -2.6301
# 2 28.4044 60.0707 30.5576 8.9414 -9.2775 -7.6385
# 3 52.2541 30.5576 155.4137 13.5711 -12.6452 -20.2369
# 4 6.4893 8.9414 13.5711 31.9534 -5.5483 5.9601
# 5 -13.8375 -9.2775 -12.6452 -5.5483 45.7740 -0.2390
# 6 -2.6301 -7.6385 -20.2369 5.9601 -0.2390 34.0922
#
#
#
# Elastic Compliance Matrix: (Units=1/GPa)
#
#
# Indices 1 2 3 4 5 6 
#
# 1 0.016620 -0.005580 -0.004769 0.001241 0.002711 -0.002997
# 2 -0.005580 0.021469 -0.001179 -0.004916 0.001767 0.004551
# 3 -0.004769 -0.001179 0.009349 -0.003623 0.000492 0.005554
# 4 0.001241 -0.004916 -0.003623 0.036195 0.002716 -0.009465
# 5 0.002711 0.001767 0.000492 0.002716 0.023492 0.000587
# 6 -0.002997 0.004551 0.005554 -0.009465 0.000587 0.035077
#
#
# Mechanical properties :
#
#
# Convention : Reuss Voigt Hill
#
# Bulk Modulus (GPa) = 41.01502 58.21259 49.61381
# Shear Modulus (GPa) = 28.83744 35.04826 31.94285
#
# Velocity S-wave (km/s) = 3.61536 3.98571 3.80504
# Velocity P-wave (km/s) = 6.00151 6.89685 6.46470
#
# Compressibility (1/GPa) = 0.02438131
#
# Stress axis : x y z
#
# Youngs Moduli (GPa) = 60.16840 46.57929 106.95815
#
# Poissons Ratio (x) = 0.25991 0.51008
# Poissons Ratio (y) = 0.33574 0.12615
# Poissons Ratio (z) = 0.28694 0.05494
#
# Static dielectric constant tensor:
#      x y z
#    x 1.860420 0.023050 0.036450 
#    y 0.023050 1.951020 0.040180 
#    z 0.036450 0.040180 1.830500 
# 
# From -- ./inp_files/490671.got.cif
#   From: 2010.05.17/outbox.cif.g08.bks.cpg/sg2_246_cif.got.tgz:490671.got - 2010.06.03 11:33:40.
