data_PCOD9106997
_publ_section_title
;
Structure prediction by ZEFSAII (Michael W. Deem and Ramdas Pophale) SiO2 
 PCOD9106997
Probable space group: P -1
;
_chemical_formula_sum "Si O2"
_cell_formula_units_Z 16
_cell_length_a 12.819035
_cell_length_b 15.490851
_cell_length_c 8.756651
_cell_angle_alpha 61.420844
_cell_angle_beta 106.575715
_cell_angle_gamma 54.884420
_cell_volume 781.301415
_symmetry_space_group_name_H-M "P -1"
_symmetry_group_IT_number 2
_symmetry_cell_setting 'triclinic'
loop_
_space_group_symop_operation_xyz
x,y,z
-x,-y,-z
loop_
_atom_site_type_symbol
_atom_site_label
_atom_site_fract_x
_atom_site_fract_y
_atom_site_fract_z
Si Si1 0.215656 0.122387 0.612981
Si Si2 0.929918 0.277417 0.087984
Si Si3 0.603068 0.885077 0.797774
Si Si4 0.828248 0.515871 0.254306
Si Si5 0.091829 0.066860 0.854756
Si Si6 0.837660 0.073987 0.679848
Si Si7 0.977416 0.341059 0.756925
Si Si8 0.426888 0.447482 0.056257
O O1 0.107563 0.170236 0.370995
O O2 0.055404 0.322389 0.448442
O O3 0.431178 0.001329 0.756474
O O4 0.219968 0.026931 0.813501
O O5 0.727596 0.420846 0.979473
O O6 0.006599 0.121950 0.164485
O O7 0.896823 0.385856 0.854480
O O8 0.500000 0.000000 0.500000
O O9 0.718039 0.693403 0.985731
O O10 0.783581 0.817793 0.987758
O O11 0.857074 0.506384 0.456390
O O12 0.694906 0.522591 0.145621
O O13 0.968992 0.246064 0.739374
O O14 0.199502 0.926633 0.157639
O O15 0.939999 0.103183 0.688325
O O16 0.625673 0.235263 0.367425
O O17 0.500000 0.500000 0.000000
#
# Coordination Sequence:
#
# PCOD9106997 Si02
#       8
#     2   2   2   2   2   2   2   2
#     4  10  21  41  60  93 123 159 206 255 309 365
#     4  10  21  38  63  90 123 161 200 254 303 361
#     4  12  24  40  67  91 118 165 216 256 304 371
#     4  10  24  41  62  92 127 162 201 259 310 358
#     4   9  21  38  63  89 128 161 199 257 306 363
#     4  10  20  40  62  91 124 165 202 246 309 364
#     4  10  21  43  61  88 129 158 205 262 306 360
#     4  11  23  39  63  93 124 162 206 246 304 376
#
# _framework density 20.478650999999999
#
# number of rings (size 3 to 8) (size 9 to 14) (size 15 to 20)
#    0.000    1.750    1.250    3.375    1.750    6.500 
#    0.000    8.750    0.000    0.000    0.000    0.000 
#    0.000    0.000    0.000    0.000    0.000    0.000 
#
# Total GULP energy -89309.071465 kJ/mol
# GULP energy per Si atom -5581.816967 kJ/mol
# Density = 2.043204 g / cm^3
# Si number density = 20.478651 Si / 1000 Ang^3
#
#
#
# Elastic Constant Matrix: (Units=GPa)
#
#
# Indices 1 2 3 4 5 6 
#
# 1 101.8254 41.7506 58.0047 -2.5523 -9.6903 -30.1414
# 2 41.7506 53.3351 28.8964 9.4853 -2.9718 -5.1247
# 3 58.0047 28.8964 112.7352 5.7640 -13.4105 -13.6031
# 4 -2.5523 9.4853 5.7640 32.1366 -5.9977 -6.6242
# 5 -9.6903 -2.9718 -13.4105 -5.9977 25.4265 -1.2342
# 6 -30.1414 -5.1247 -13.6031 -6.6242 -1.2342 36.0357
#
#
#
# Elastic Compliance Matrix: (Units=1/GPa)
#
#
# Indices 1 2 3 4 5 6 
#
# 1 0.030480 -0.019970 -0.007361 0.016364 0.010388 0.023240
# 2 -0.019970 0.035930 -0.000952 -0.016790 -0.008618 -0.015335
# 3 -0.007361 -0.000952 0.013235 -0.002371 0.003427 -0.001614
# 4 0.016364 -0.016790 -0.002371 0.044420 0.014427 0.019065
# 5 0.010388 -0.008618 0.003427 0.014427 0.048125 0.013057
# 6 0.023240 -0.015335 -0.001614 0.019065 0.013057 0.048350
#
#
# Mechanical properties :
#
#
# Convention : Reuss Voigt Hill
#
# Bulk Modulus (GPa) = 43.32643 58.35546 50.84095
# Shear Modulus (GPa) = 17.55627 28.00271 22.77949
#
# Velocity S-wave (km/s) = 2.93114 3.70186 3.33881
# Velocity P-wave (km/s) = 5.71474 6.84320 6.30427
#
# Compressibility (1/GPa) = 0.02308060
#
# Stress axis : x y z
#
# Youngs Moduli (GPa) = 32.80853 27.83203 75.55459
#
# Poissons Ratio (x) = 0.55581 0.55612
# Poissons Ratio (y) = 0.65519 0.07190
# Poissons Ratio (z) = 0.24149 0.02648
#
# Static dielectric constant tensor:
#      x y z
#    x 1.767640 0.002750 -0.040300 
#    y 0.002750 1.722160 0.015770 
#    z -0.040300 0.015770 1.755250 
# 
# From -- ./inp_files/272206.got.cif
#   From: 2010.05.17/outbox.cif.g08.bks.cpg/sg2_137_cif.got.tgz:272206.got - 2010.06.03 11:33:40.
