data_PCOD9106895
_publ_section_title
;
Structure prediction by ZEFSAII (Michael W. Deem and Ramdas Pophale) SiO2 
 PCOD9106895
Probable space group: P -1
;
_chemical_formula_sum "Si O2"
_cell_formula_units_Z 16
_cell_length_a 8.311321
_cell_length_b 20.272698
_cell_length_c 6.936073
_cell_angle_alpha 133.707348
_cell_angle_beta 78.840389
_cell_angle_gamma 77.796057
_cell_volume 724.079118
_symmetry_space_group_name_H-M "P -1"
_symmetry_group_IT_number 2
_symmetry_cell_setting 'triclinic'
loop_
_space_group_symop_operation_xyz
x,y,z
-x,-y,-z
loop_
_atom_site_type_symbol
_atom_site_label
_atom_site_fract_x
_atom_site_fract_y
_atom_site_fract_z
Si Si1 0.903618 0.107917 0.625421
Si Si2 0.149845 0.363717 0.313424
Si Si3 0.820059 0.876791 0.684170
Si Si4 0.483935 0.807160 0.982752
Si Si5 0.077915 0.647563 0.317797
Si Si6 0.499955 0.996882 0.263926
Si Si7 0.716773 0.308519 0.306381
Si Si8 0.202313 0.554032 0.695936
O O1 0.684066 0.144148 0.724039
O O2 0.017807 0.104318 0.404852
O O3 0.885602 0.202549 0.957993
O O4 0.000000 0.000000 0.500000
O O5 0.021442 0.396745 0.603256
O O6 0.241071 0.437935 0.408852
O O7 0.009330 0.377383 0.202475
O O8 0.315022 0.248239 0.078488
O O9 0.918071 0.758533 0.496939
O O10 0.664962 0.905430 0.609014
O O11 0.703053 0.956753 0.042928
O O12 0.459995 0.899727 0.037718
O O13 0.448257 0.721188 0.708017
O O14 0.216427 0.669057 0.463352
O O15 0.190202 0.575488 0.968110
O O16 0.500000 0.000000 0.500000
O O17 0.679402 0.402491 0.359397
#
# Coordination Sequence:
#
# PCOD9106895 Si02
#       8
#     2   2   2   2   2   2   2   2
#     4  10  20  40  62  84 130 167 209 255 317 385
#     4  10  22  39  63  92 127 165 207 276 315 380
#     4  11  22  39  62  91 121 172 212 250 322 381
#     4  10  21  41  61  93 130 163 206 273 318 365
#     4  11  20  37  64  90 121 166 215 259 317 391
#     4  11  25  39  63  95 130 167 213 268 313 378
#     4   9  22  38  60  88 126 167 206 263 319 373
#     4  10  21  40  64  91 122 168 218 251 333 391
#
# _framework density 22.097034000000001
#
# number of rings (size 3 to 8) (size 9 to 14) (size 15 to 20)
#    0.750    1.000    3.750    0.375    3.500    0.500 
#    0.000   13.750    0.000    0.000    0.000    0.000 
#    0.000    0.000    0.000    0.000    0.000    0.000 
#
# Total GULP energy -89307.740246 kJ/mol
# GULP energy per Si atom -5581.733765 kJ/mol
# Density = 2.204674 g / cm^3
# Si number density = 22.097034 Si / 1000 Ang^3
#
#
#
# Elastic Constant Matrix: (Units=GPa)
#
#
# Indices 1 2 3 4 5 6 
#
# 1 42.4408 5.2378 6.4287 -9.1051 3.6308 9.9995
# 2 5.2378 71.3887 1.3096 -7.9044 16.8252 10.1154
# 3 6.4287 1.3096 61.9508 -30.0488 3.9129 -2.6036
# 4 -9.1051 -7.9044 -30.0488 33.5688 3.8742 -0.7483
# 5 3.6308 16.8252 3.9129 3.8742 32.3885 4.4269
# 6 9.9995 10.1154 -2.6036 -0.7483 4.4269 39.3360
#
#
#
# Elastic Compliance Matrix: (Units=1/GPa)
#
#
# Indices 1 2 3 4 5 6 
#
# 1 0.027045 0.000850 0.001702 0.009371 -0.003930 -0.006360
# 2 0.000850 0.017959 0.004983 0.010099 -0.010811 -0.003096
# 3 0.001702 0.004983 0.031889 0.031464 -0.010696 0.002199
# 4 0.009371 0.010099 0.031464 0.064949 -0.017915 0.000355
# 5 -0.003930 -0.010811 -0.010696 -0.017915 0.040619 -0.001841
# 6 -0.006360 -0.003096 0.002199 0.000355 -0.001841 0.028194
#
#
# Mechanical properties :
#
#
# Convention : Reuss Voigt Hill
#
# Bulk Modulus (GPa) = 10.87407 22.41470 16.64438
# Shear Modulus (GPa) = 22.10043 31.91227 27.00635
#
# Velocity S-wave (km/s) = 3.16595 3.80437 3.49975
# Velocity P-wave (km/s) = 4.27739 5.42802 4.88669
#
# Compressibility (1/GPa) = 0.09196189
#
# Stress axis : x y z
#
# Youngs Moduli (GPa) = 36.97581 55.68253 31.35861
#
# Poissons Ratio (x) = -0.04731 -0.05336
# Poissons Ratio (y) = -0.03141 -0.15627
# Poissons Ratio (z) = -0.06292 -0.27748
#
# Static dielectric constant tensor:
#      x y z
#    x 1.856100 0.015570 0.005790 
#    y 0.015570 1.786530 0.014270 
#    z 0.005790 0.014270 1.814940 
# 
# From -- ./inp_files/51964.got.cif
#   From: 2010.05.17/outbox.cif.g08.bks.cpg/sg2_26_cif.got.tgz:51964.got - 2010.06.03 11:33:40.
