data_PCOD9106376
_publ_section_title
;
Structure prediction by ZEFSAII (Michael W. Deem and Ramdas Pophale) SiO2 
 PCOD9106376
Probable space group: P -1
;
_chemical_formula_sum "Si O2"
_cell_formula_units_Z 16
_cell_length_a 26.937149
_cell_length_b 15.326185
_cell_length_c 5.393602
_cell_angle_alpha 103.179560
_cell_angle_beta 79.858133
_cell_angle_gamma 161.105008
_cell_volume 696.526278
_symmetry_space_group_name_H-M "P -1"
_symmetry_group_IT_number 2
_symmetry_cell_setting 'triclinic'
loop_
_space_group_symop_operation_xyz
x,y,z
-x,-y,-z
loop_
_atom_site_type_symbol
_atom_site_label
_atom_site_fract_x
_atom_site_fract_y
_atom_site_fract_z
Si Si1 0.368697 0.953556 0.298480
Si Si2 0.083126 0.233278 0.158459
Si Si3 0.362467 0.259480 0.154819
Si Si4 0.087210 0.908370 0.099222
Si Si5 0.463684 0.588767 0.637712
Si Si6 0.816882 0.787794 0.442707
Si Si7 0.326087 0.636543 0.808087
Si Si8 0.788655 0.363592 0.259819
O O1 0.267150 0.760979 0.502818
O O2 0.460091 0.199300 0.432552
O O3 0.496508 0.091380 0.214341
O O4 0.275933 0.802644 0.023333
O O5 0.255817 0.516673 0.074778
O O6 0.994481 0.091870 0.404876
O O7 0.023058 0.225426 0.081669
O O8 0.000000 0.000000 0.000000
O O9 0.396221 0.390060 0.422127
O O10 0.395526 0.216357 0.202672
O O11 0.203762 0.023590 0.012312
O O12 0.500000 0.500000 0.000000
O O13 0.972333 0.676816 0.260347
O O14 0.188405 0.161848 0.275062
O O15 0.306415 0.371771 0.739918
O O16 0.761851 0.594585 0.393537
O O17 0.280778 0.653282 0.732778
#
# Coordination Sequence:
#
# PCOD9106376 Si02
#       8
#     2   2   2   2   2   2   2   2
#     4  11  24  45  61  89 126 171 215 251 300 368
#     4   9  18  32  52  86 118 157 193 251 310 363
#     4  10  20  39  69  95 119 147 201 266 326 372
#     4  10  22  37  58  91 119 163 205 257 318 370
#     4   9  21  39  63  95 117 157 202 259 318 372
#     4   9  18  37  58  87 125 153 205 260 322 364
#     4   9  20  38  59  91 118 167 215 259 303 363
#     4  11  25  41  63  86 129 172 213 251 298 368
#
# _framework density 22.971138
#
# number of rings (size 3 to 8) (size 9 to 14) (size 15 to 20)
#    0.000    2.250    0.000    1.500    5.250    4.500 
#   15.750    1.250    0.000    0.000    0.000    0.000 
#    0.000    0.000    0.000    0.000    0.000    0.000 
#
# Total GULP energy -89104.972199 kJ/mol
# GULP energy per Si atom -5569.060762 kJ/mol
# Density = 2.291885 g / cm^3
# Si number density = 22.971138 Si / 1000 Ang^3
#
#
#
# Elastic Constant Matrix: (Units=GPa)
#
#
# Indices 1 2 3 4 5 6 
#
# 1 126.8286 33.9814 7.5480 -14.4230 4.6348 17.7363
# 2 33.9814 101.5132 28.7025 -18.7756 -2.5722 7.0718
# 3 7.5480 28.7025 48.9453 -12.8563 4.1789 -1.3321
# 4 -14.4230 -18.7756 -12.8563 37.6354 -2.2422 -4.7852
# 5 4.6348 -2.5722 4.1789 -2.2422 10.9703 -2.9317
# 6 17.7363 7.0718 -1.3321 -4.7852 -2.9317 40.7374
#
#
#
# Elastic Compliance Matrix: (Units=1/GPa)
#
#
# Indices 1 2 3 4 5 6 
#
# 1 0.009592 -0.003120 0.001195 0.001689 -0.005916 -0.003823
# 2 -0.003120 0.013887 -0.007400 0.003648 0.008063 -0.000285
# 3 0.001195 -0.007400 0.027020 0.005532 -0.010999 0.001506
# 4 0.001689 0.003648 0.005532 0.031611 0.005272 0.002905
# 5 -0.005916 0.008063 -0.010999 0.005272 0.103181 0.008861
# 6 -0.003823 -0.000285 0.001506 0.002905 0.008861 0.027290
#
#
# Mechanical properties :
#
#
# Convention : Reuss Voigt Hill
#
# Bulk Modulus (GPa) = 31.39866 46.41679 38.90772
# Shear Modulus (GPa) = 20.67425 31.67229 26.17327
#
# Velocity S-wave (km/s) = 3.00327 3.71723 3.37916
# Velocity P-wave (km/s) = 5.07194 6.21886 5.67445
#
# Compressibility (1/GPa) = 0.03184849
#
# Stress axis : x y z
#
# Youngs Moduli (GPa) = 104.24907 72.01137 37.01023
#
# Poissons Ratio (x) = 0.22468 -0.04423
# Poissons Ratio (y) = 0.32527 0.27388
# Poissons Ratio (z) = -0.12460 0.53290
#
# Static dielectric constant tensor:
#      x y z
#    x 2.053540 -0.066360 0.016710 
#    y -0.066360 1.983240 0.068760 
#    z 0.016710 0.068760 2.029010 
# 
# From -- ./inp_files/127175.got.cif
#   From: 2010.05.17/outbox.cif.g08.bks.cpg/sg2_64_cif.got.tgz:127175.got - 2010.06.03 11:33:40.
