data_PCOD9106041
_publ_section_title
;
Structure prediction by ZEFSAII (Michael W. Deem and Ramdas Pophale) SiO2 
 PCOD9106041
Probable space group: P -1
;
_chemical_formula_sum "Si O2"
_cell_formula_units_Z 16
_cell_length_a 13.023648
_cell_length_b 10.625609
_cell_length_c 5.922902
_cell_angle_alpha 86.824489
_cell_angle_beta 51.703903
_cell_angle_gamma 92.793110
_cell_volume 638.659682
_symmetry_space_group_name_H-M "P -1"
_symmetry_group_IT_number 2
_symmetry_cell_setting 'triclinic'
loop_
_space_group_symop_operation_xyz
x,y,z
-x,-y,-z
loop_
_atom_site_type_symbol
_atom_site_label
_atom_site_fract_x
_atom_site_fract_y
_atom_site_fract_z
Si Si1 0.941621 0.350839 0.601922
Si Si2 0.130038 0.600222 0.803993
Si Si3 0.099792 0.111605 0.452735
Si Si4 0.724782 0.856066 0.404717
Si Si5 0.420229 0.562995 0.912644
Si Si6 0.543364 0.184893 0.961287
Si Si7 0.682691 0.591820 0.300012
Si Si8 0.625146 0.940718 0.116514
O O1 0.883660 0.328505 0.424597
O O2 0.000000 0.500000 0.500000
O O3 0.045225 0.247092 0.493916
O O4 0.866231 0.335631 0.954343
O O5 0.253049 0.516079 0.638122
O O6 0.000000 0.500000 0.000000
O O7 0.145108 0.088918 0.650250
O O8 0.236669 0.105663 0.138663
O O9 0.000000 0.000000 0.500000
O O10 0.604723 0.811520 0.741395
O O11 0.754113 0.727714 0.251027
O O12 0.652767 0.953117 0.341018
O O13 0.377749 0.688772 0.067990
O O14 0.530539 0.603392 0.568273
O O15 0.315770 0.459076 0.952762
O O16 0.500000 0.500000 0.000000
O O17 0.605992 0.066421 0.992156
O O18 0.502488 0.158142 0.759810
#
# Coordination Sequence:
#
# PCOD9106041 Si02
#       8
#     2   2   2   2   2   2   2   2
#     4  10  23  42  67  93 131 174 223 277 327 396
#     4  10  22  40  65  98 129 169 225 275 327 393
#     4  11  26  43  60  94 130 168 224 272 337 394
#     4  10  20  39  67  87 121 165 214 265 327 399
#     4  10  21  38  60  92 134 164 206 271 329 391
#     4   9  20  39  59  97 121 157 215 262 324 397
#     4  10  22  37  61  96 122 169 216 264 335 394
#     4  10  21  38  67  85 122 168 208 263 330 397
#
# _framework density 25.052468999999999
#
# number of rings (size 3 to 8) (size 9 to 14) (size 15 to 20)
#    0.000    2.000    0.000    2.625    7.000    1.500 
#    2.250    0.000    0.000    0.000    0.000    0.000 
#    0.000    0.000    0.000    0.000    0.000    0.000 
#
# Total GULP energy -89233.832860 kJ/mol
# GULP energy per Si atom -5577.114554 kJ/mol
# Density = 2.499545 g / cm^3
# Si number density = 25.052469 Si / 1000 Ang^3
#
#
#
# Elastic Constant Matrix: (Units=GPa)
#
#
# Indices 1 2 3 4 5 6 
#
# 1 159.0569 54.6305 43.5046 11.4271 46.1795 0.7291
# 2 54.6305 113.0594 34.7853 34.4511 11.7199 -7.8968
# 3 43.5046 34.7853 77.7361 11.1732 7.8542 5.3191
# 4 11.4271 34.4511 11.1732 25.9555 -9.1353 4.8077
# 5 46.1795 11.7199 7.8542 -9.1353 48.2351 1.6328
# 6 0.7291 -7.8968 5.3191 4.8077 1.6328 33.9943
#
#
#
# Elastic Compliance Matrix: (Units=1/GPa)
#
#
# Indices 1 2 3 4 5 6 
#
# 1 0.011474 -0.001280 -0.003978 -0.005843 -0.011182 0.001442
# 2 -0.001280 0.023027 -0.004442 -0.033870 -0.010445 0.011363
# 3 -0.003978 -0.004442 0.016776 0.002113 0.002691 -0.004000
# 4 -0.005843 -0.033870 0.002113 0.101383 0.033493 -0.024020
# 5 -0.011182 -0.010445 0.002691 0.033493 0.040194 -0.009275
# 6 0.001442 0.011363 -0.004000 -0.024020 -0.009275 0.036494
#
#
# Mechanical properties :
#
#
# Convention : Reuss Voigt Hill
#
# Bulk Modulus (GPa) = 31.36976 68.41035 49.89005
# Shear Modulus (GPa) = 19.27714 36.09913 27.68813
#
# Velocity S-wave (km/s) = 2.77694 3.80009 3.32807
# Velocity P-wave (km/s) = 4.77815 6.82791 5.89284
#
# Compressibility (1/GPa) = 0.03187783
#
# Stress axis : x y z
#
# Youngs Moduli (GPa) = 87.15004 43.42656 59.60991
#
# Poissons Ratio (x) = 0.05560 0.23712
# Poissons Ratio (y) = 0.11159 0.26477
# Poissons Ratio (z) = 0.34666 0.19289
#
# Static dielectric constant tensor:
#      x y z
#    x 1.829360 0.007690 0.242770 
#    y 0.007690 1.982350 0.094780 
#    z 0.242770 0.094780 2.165500 
# 
# From -- ./inp_files/70307.got.cif
#   From: 2010.05.17/outbox.cif.g08.bks.cpg/sg2_36_cif.got.tgz:70307.got - 2010.06.03 11:33:40.
