data_PCOD9106139
_publ_section_title
;
Structure prediction by ZEFSAII (Michael W. Deem and Ramdas Pophale) SiO2 
 PCOD9106139
Probable space group: P -1
;
_chemical_formula_sum "Si O2"
_cell_formula_units_Z 15
_cell_length_a 10.004677
_cell_length_b 8.872910
_cell_length_c 14.785807
_cell_angle_alpha 75.833420
_cell_angle_beta 145.072850
_cell_angle_gamma 115.616862
_cell_volume 662.126569
_symmetry_space_group_name_H-M "P -1"
_symmetry_group_IT_number 2
_symmetry_cell_setting 'triclinic'
loop_
_space_group_symop_operation_xyz
x,y,z
-x,-y,-z
loop_
_atom_site_type_symbol
_atom_site_label
_atom_site_fract_x
_atom_site_fract_y
_atom_site_fract_z
Si Si1 0.861618 0.027740 0.834018
Si Si2 0.352499 0.464593 0.276397
Si Si3 0.360587 0.626049 0.928109
Si Si4 0.089862 0.151462 0.294462
Si Si5 0.335392 0.927689 0.511334
Si Si6 0.500000 0.000000 0.000000
Si Si7 0.090233 0.527794 0.442408
Si Si8 0.035340 0.387995 0.931343
O O1 0.972697 0.229906 0.853960
O O2 0.912554 0.939096 0.788933
O O3 0.560381 0.950005 0.702048
O O4 0.000000 0.000000 0.000000
O O5 0.264282 0.346577 0.334903
O O6 0.650205 0.504669 0.420298
O O7 0.239701 0.607187 0.202726
O O8 0.183314 0.372645 0.106186
O O9 0.219960 0.557922 0.956865
O O10 0.139621 0.585021 0.735070
O O11 0.500000 0.500000 0.000000
O O12 0.544326 0.826347 0.013796
O O13 0.803582 0.111726 0.166478
O O14 0.203277 0.054648 0.439296
O O15 0.164377 0.728292 0.434706
O O16 0.500000 0.000000 0.500000
O O17 0.000000 0.500000 0.500000
#
# Coordination Sequence:
#
# PCOD9106139 Si02
#       8
#     2   2   2   2   2   1   2   2
#     4  11  20  37  68 101 129 176 235 289 349 424
#     4  11  23  43  66  99 144 178 233 298 352 429
#     4  12  26  46  72 103 145 192 237 298 363 436
#     4  11  22  43  66  96 135 182 230 292 343 424
#     4  10  20  39  67  95 133 176 229 285 342 422
#     4  12  26  44  68 102 144 188 242 294 358 432
#     4  12  25  45  71 107 145 188 236 300 367 428
#     4  11  23  41  67 103 134 187 234 293 359 425
#
# _framework density 22.654278999999999
#
# number of rings (size 3 to 8) (size 9 to 14) (size 15 to 20)
#    0.000    0.800    5.333    4.000    0.000    2.667 
#    0.000    0.000    0.000    5.600    0.000    0.000 
#    0.000    0.000    0.000    0.000    0.000    0.000 
#
# Total GULP energy -83505.367250 kJ/mol
# GULP energy per Si atom -5567.024483 kJ/mol
# Density = 2.260272 g / cm^3
# Si number density = 22.654279 Si / 1000 Ang^3
#
#
#
# Elastic Constant Matrix: (Units=GPa)
#
#
# Indices 1 2 3 4 5 6 
#
# 1 62.3937 19.1218 39.1670 -13.7654 21.7137 1.9736
# 2 19.1218 109.9501 36.5834 15.7697 -10.6036 -1.5831
# 3 39.1670 36.5834 138.4205 -15.8456 16.2563 -4.9030
# 4 -13.7654 15.7697 -15.8456 37.2839 -9.8100 7.5770
# 5 21.7137 -10.6036 16.2563 -9.8100 44.2632 -2.0625
# 6 1.9736 -1.5831 -4.9030 7.5770 -2.0625 31.9459
#
#
#
# Elastic Compliance Matrix: (Units=1/GPa)
#
#
# Indices 1 2 3 4 5 6 
#
# 1 0.026033 -0.005636 -0.003783 0.008529 -0.011084 -0.005207
# 2 -0.005636 0.012877 -0.003267 -0.008054 0.005392 0.002743
# 3 -0.003783 -0.003267 0.009789 0.003572 -0.001701 0.000617
# 4 0.008529 -0.008054 0.003572 0.036825 0.000312 -0.009092
# 5 -0.011084 0.005392 -0.001701 0.000312 0.030134 0.002562
# 6 -0.005207 0.002743 0.000617 -0.009092 0.002562 0.034177
#
#
# Mechanical properties :
#
#
# Convention : Reuss Voigt Hill
#
# Bulk Modulus (GPa) = 42.86814 55.61208 49.24011
# Shear Modulus (GPa) = 27.32507 37.09140 32.20824
#
# Velocity S-wave (km/s) = 3.47677 4.05072 3.77467
# Velocity P-wave (km/s) = 5.92293 6.81757 6.38594
#
# Compressibility (1/GPa) = 0.02332735
#
# Stress axis : x y z
#
# Youngs Moduli (GPa) = 38.41277 77.65911 102.15869
#
# Poissons Ratio (x) = 0.43769 0.38647
# Poissons Ratio (y) = 0.21649 0.33371
# Poissons Ratio (z) = 0.14532 0.25368
#
# Static dielectric constant tensor:
#      x y z
#    x 1.817400 -0.014620 -0.004990 
#    y -0.014620 1.953420 -0.052320 
#    z -0.004990 -0.052320 1.927410 
# 
# From -- ./inp_files/565304.got.cif
#   From: 2010.05.17/outbox.cif.g08.bks.cpg/sg2_283_cif.got.tgz:565304.got - 2010.06.03 11:33:40.
