data_PCOD9106486
_publ_section_title
;
Structure prediction by ZEFSAII (Michael W. Deem and Ramdas Pophale) SiO2 
 PCOD9106486
Probable space group: P -1
;
_chemical_formula_sum "Si O2"
_cell_formula_units_Z 14
_cell_length_a 8.018752
_cell_length_b 13.653908
_cell_length_c 6.119950
_cell_angle_alpha 92.620726
_cell_angle_beta 63.714390
_cell_angle_gamma 78.914933
_cell_volume 583.004899
_symmetry_space_group_name_H-M "P -1"
_symmetry_group_IT_number 2
_symmetry_cell_setting 'triclinic'
loop_
_space_group_symop_operation_xyz
x,y,z
-x,-y,-z
loop_
_atom_site_type_symbol
_atom_site_label
_atom_site_fract_x
_atom_site_fract_y
_atom_site_fract_z
Si Si1 0.649494 0.947658 0.222086
Si Si2 0.616715 0.333551 0.850226
Si Si3 0.420753 0.862425 0.964015
Si Si4 0.656971 0.426219 0.256912
Si Si5 0.944460 0.314559 0.370398
Si Si6 0.207441 0.217010 0.547368
Si Si7 0.209432 0.386823 0.894187
O O1 0.796491 0.862323 0.263735
O O2 0.500000 0.000000 0.500000
O O3 0.707982 0.038879 0.068430
O O4 0.537399 0.898013 0.100184
O O5 0.791993 0.369966 0.644832
O O6 0.436143 0.340428 0.801332
O O7 0.681265 0.218902 0.884308
O O8 0.550984 0.400871 0.104892
O O9 0.582091 0.808933 0.688434
O O10 0.500000 0.500000 0.500000
O O11 0.786337 0.322301 0.270893
O O12 0.803282 0.495692 0.122794
O O13 0.064265 0.219774 0.426388
O O14 0.102664 0.362030 0.169970
O O15 0.163183 0.325494 0.704677
#
# Coordination Sequence:
#
# PCOD9106486 Si02
#       7
#     2   2   2   2   2   2   2
#     4   9  19  36  68 103 128 171 218 262 331 398
#     4  12  25  44  68  98 132 172 222 273 328 389
#     4  10  20  39  70  98 132 172 215 270 328 389
#     4  12  27  45  66  96 133 176 226 273 324 390
#     4  12  27  41  68  95 134 176 223 270 331 384
#     4  11  21  42  67  98 133 172 221 267 328 393
#     4  12  25  45  67  94 135 177 220 275 327 383
#
# _framework density 24.013518999999999
#
# number of rings (size 3 to 8) (size 9 to 14) (size 15 to 20)
#    0.000    0.857    4.286    2.571    0.000    1.143 
#    0.000    0.714    0.000   12.857    0.000    0.000 
#    0.000    0.000    0.000    0.000    0.000    0.000 
#
# Total GULP energy -78110.554597 kJ/mol
# GULP energy per Si atom -5579.325328 kJ/mol
# Density = 2.395886 g / cm^3
# Si number density = 24.013519 Si / 1000 Ang^3
#
#
#
# Elastic Constant Matrix: (Units=GPa)
#
#
# Indices 1 2 3 4 5 6 
#
# 1 70.0800 26.9723 25.1029 -15.3495 -1.6767 -20.8879
# 2 26.9723 102.3466 21.6700 -24.1415 20.3605 -17.9714
# 3 25.1029 21.6700 111.2824 -10.5516 -6.0995 20.0682
# 4 -15.3495 -24.1415 -10.5516 36.8850 -0.5095 17.6998
# 5 -1.6767 20.3605 -6.0995 -0.5095 40.8421 -5.0330
# 6 -20.8879 -17.9714 20.0682 17.6998 -5.0330 38.1839
#
#
#
# Elastic Compliance Matrix: (Units=1/GPa)
#
#
# Indices 1 2 3 4 5 6 
#
# 1 0.022500 -0.002583 -0.007641 -0.002464 0.003092 0.016658
# 2 -0.002583 0.014384 -0.002562 0.006105 -0.007223 0.002921
# 3 -0.007641 -0.002562 0.014946 0.007344 0.001257 -0.016479
# 4 -0.002464 0.006105 0.007344 0.043105 -0.004330 -0.022886
# 5 0.003092 -0.007223 0.001257 -0.004330 0.028769 0.003431
# 6 0.016658 0.002921 -0.016479 -0.022886 0.003431 0.056398
#
#
# Mechanical properties :
#
#
# Convention : Reuss Voigt Hill
#
# Bulk Modulus (GPa) = 38.08451 47.91103 42.99777
# Shear Modulus (GPa) = 23.31809 37.17978 30.24894
#
# Velocity S-wave (km/s) = 3.11953 3.93909 3.55302
# Velocity P-wave (km/s) = 5.37302 6.37837 5.89716
#
# Compressibility (1/GPa) = 0.02625739
#
# Stress axis : x y z
#
# Youngs Moduli (GPa) = 44.44485 69.52211 66.90920
#
# Poissons Ratio (x) = 0.17959 0.51122
# Poissons Ratio (y) = 0.11481 0.17143
# Poissons Ratio (z) = 0.33958 0.17813
#
# Static dielectric constant tensor:
#      x y z
#    x 1.908910 -0.055960 -0.009890 
#    y -0.055960 1.999670 -0.056980 
#    z -0.009890 -0.056980 1.936220 
# 
# From -- ./inp_files/38323.got.cif
#   From: 2010.05.17/outbox.cif.g08.bks.cpg/sg2_20_cif.got.tgz:38323.got - 2010.06.03 11:33:40.
