data_PCOD9106055
_publ_section_title
;
Structure prediction by ZEFSAII (Michael W. Deem and Ramdas Pophale) SiO2 
 PCOD9106055
Probable space group: P -1
;
_chemical_formula_sum "Si O2"
_cell_formula_units_Z 14
_cell_length_a 5.753992
_cell_length_b 9.134279
_cell_length_c 19.488933
_cell_angle_alpha 53.194068
_cell_angle_beta 123.287391
_cell_angle_gamma 96.327511
_cell_volume 647.975468
_symmetry_space_group_name_H-M "P -1"
_symmetry_group_IT_number 2
_symmetry_cell_setting 'triclinic'
loop_
_space_group_symop_operation_xyz
x,y,z
-x,-y,-z
loop_
_atom_site_type_symbol
_atom_site_label
_atom_site_fract_x
_atom_site_fract_y
_atom_site_fract_z
Si Si1 0.604401 0.205024 0.542597
Si Si2 0.220443 0.102159 0.973195
Si Si3 0.611393 0.772569 0.641394
Si Si4 0.946068 0.445032 0.585416
Si Si5 0.338354 0.346576 0.035405
Si Si6 0.645136 0.563832 0.844492
Si Si7 0.143999 0.430833 0.772072
O O1 0.610268 0.239941 0.451476
O O2 0.859248 0.251531 0.612322
O O3 0.320134 0.368175 0.482659
O O4 0.593154 0.988256 0.599661
O O5 0.040118 0.280924 0.843542
O O6 0.381971 0.168685 0.043618
O O7 0.500000 0.000000 0.000000
O O8 0.000000 0.000000 0.000000
O O9 0.563198 0.671537 0.730175
O O10 0.927689 0.645249 0.697276
O O11 0.000000 0.500000 0.500000
O O12 0.150514 0.402525 0.698887
O O13 0.426958 0.293444 0.142795
O O14 0.500000 0.500000 0.000000
O O15 0.990156 0.455497 0.938362
O O16 0.461257 0.417575 0.856904
#
# Coordination Sequence:
#
# PCOD9106055 Si02
#       7
#     2   2   2   2   2   2   2
#     4   9  21  39  61  98 125 175 216 286 334 418
#     4  12  27  47  69 103 145 183 235 292 362 424
#     4  10  20  39  67  89 132 168 234 276 345 402
#     4  10  21  41  64  92 141 170 224 275 359 410
#     4  11  23  43  68  92 131 175 230 284 342 410
#     4  11  21  38  70  93 127 175 235 281 347 407
#     4  11  23  42  65  95 131 187 227 290 348 417
#
# _framework density 21.605754999999998
#
# number of rings (size 3 to 8) (size 9 to 14) (size 15 to 20)
#    0.000    1.429    2.857    1.714    2.000    2.286 
#    5.143    4.286    0.000    0.000    0.000    0.000 
#    0.000    0.000    0.000    0.000    0.000    0.000 
#
# Total GULP energy -77974.505116 kJ/mol
# GULP energy per Si atom -5569.607508 kJ/mol
# Density = 2.155658 g / cm^3
# Si number density = 21.605755 Si / 1000 Ang^3
#
#
#
# Elastic Constant Matrix: (Units=GPa)
#
#
# Indices 1 2 3 4 5 6 
#
# 1 75.5948 68.8013 24.5806 18.8221 -18.7934 7.0845
# 2 68.8013 187.1013 48.1437 28.7717 -14.1273 -9.4415
# 3 24.5806 48.1437 78.4154 20.6910 -30.0001 0.5103
# 4 18.8221 28.7717 20.6910 36.2111 -9.1988 -0.7884
# 5 -18.7934 -14.1273 -30.0001 -9.1988 40.3627 10.7814
# 6 7.0845 -9.4415 0.5103 -0.7884 10.7814 40.3213
#
#
#
# Elastic Compliance Matrix: (Units=1/GPa)
#
#
# Indices 1 2 3 4 5 6 
#
# 1 0.026084 -0.009379 0.004278 -0.005311 0.013661 -0.010590
# 2 -0.009379 0.010276 -0.005598 -0.001717 -0.006908 0.005939
# 3 0.004278 -0.005598 0.023562 -0.006843 0.017933 -0.007290
# 4 -0.005311 -0.001717 -0.006843 0.035571 -0.000435 0.001430
# 5 0.013661 -0.006908 0.017933 -0.000435 0.046398 -0.016660
# 6 -0.010590 0.005939 -0.007290 0.001430 -0.016660 0.032627
#
#
# Mechanical properties :
#
#
# Convention : Reuss Voigt Hill
#
# Bulk Modulus (GPa) = 25.95644 69.35138 47.65391
# Shear Modulus (GPa) = 23.95133 36.68475 30.31804
#
# Velocity S-wave (km/s) = 3.33312 4.12505 3.75005
# Velocity P-wave (km/s) = 5.18196 7.40650 6.39175
#
# Compressibility (1/GPa) = 0.03852608
#
# Stress axis : x y z
#
# Youngs Moduli (GPa) = 38.33727 97.31497 42.44105
#
# Poissons Ratio (x) = 0.91270 -0.18158
# Poissons Ratio (y) = 0.35956 0.23757
# Poissons Ratio (z) = -0.16402 0.54473
#
# Static dielectric constant tensor:
#      x y z
#    x 1.544640 0.402210 -0.029870 
#    y 0.402210 1.288390 -0.011100 
#    z -0.029870 -0.011100 1.838190 
# 
# From -- ./inp_files/322724.got.cif
#   From: 2010.05.17/outbox.cif.g08.bks.cpg/sg2_162_cif.got.tgz:322724.got - 2010.06.03 11:33:40.
