data_PCOD9106120
_publ_section_title
;
Structure prediction by ZEFSAII (Michael W. Deem and Ramdas Pophale) SiO2 
 PCOD9106120
Probable space group: P -1
;
_chemical_formula_sum "Si O2"
_cell_formula_units_Z 14
_cell_length_a 13.778891
_cell_length_b 11.188305
_cell_length_c 18.908316
_cell_angle_alpha 42.944072
_cell_angle_beta 158.583784
_cell_angle_gamma 146.703655
_cell_volume 568.635170
_symmetry_space_group_name_H-M "P -1"
_symmetry_group_IT_number 2
_symmetry_cell_setting 'triclinic'
loop_
_space_group_symop_operation_xyz
x,y,z
-x,-y,-z
loop_
_atom_site_type_symbol
_atom_site_label
_atom_site_fract_x
_atom_site_fract_y
_atom_site_fract_z
Si Si1 0.927456 0.785467 0.909176
Si Si2 0.802310 0.377433 0.489680
Si Si3 0.285854 0.801452 0.270608
Si Si4 0.856724 0.750099 0.134459
Si Si5 0.994498 0.841137 0.640087
Si Si6 0.312176 0.387356 0.332934
Si Si7 0.848890 0.171180 0.397093
O O1 0.588153 0.736047 0.731190
O O2 0.846528 0.678579 0.823450
O O3 0.175578 0.056281 0.958628
O O4 0.056001 0.692676 0.091351
O O5 0.000000 0.500000 0.500000
O O6 0.903136 0.227760 0.650275
O O7 0.942708 0.569205 0.560783
O O8 0.472940 0.705774 0.468047
O O9 0.051624 0.788701 0.177135
O O10 0.578752 0.045854 0.331715
O O11 0.500000 0.500000 0.000000
O O12 0.602127 0.651728 0.428689
O O13 0.975591 0.737274 0.747429
O O14 0.223269 0.867950 0.719250
O O15 0.051886 0.071052 0.589370
#
# Coordination Sequence:
#
# PCOD9106120 Si02
#       7
#     2   2   2   2   2   2   2
#     4  12  24  41  66  97 131 173 220 265 322 395
#     4  12  24  39  67 100 128 168 222 265 325 396
#     4  11  23  42  65  93 137 170 213 273 326 384
#     4  12  25  43  62  95 138 172 217 271 329 386
#     4   9  19  39  68  92 132 174 214 272 325 376
#     4  10  21  41  67  95 127 174 220 266 329 379
#     4  10  20  39  67  94 130 173 213 266 333 380
#
# _framework density 24.620356999999998
#
# number of rings (size 3 to 8) (size 9 to 14) (size 15 to 20)
#    0.000    1.143    2.857    3.429    4.000    0.000 
#    0.000    7.143    0.000    0.000    0.000    0.000 
#    0.000    0.000    0.000    0.000    0.000    0.000 
#
# Total GULP energy -78287.863478 kJ/mol
# GULP energy per Si atom -5591.990248 kJ/mol
# Density = 2.456432 g / cm^3
# Si number density = 24.620357 Si / 1000 Ang^3
#
#
#
# Elastic Constant Matrix: (Units=GPa)
#
#
# Indices 1 2 3 4 5 6 
#
# 1 174.6063 18.7436 22.5284 2.6991 0.5749 30.1124
# 2 18.7436 52.3079 2.7516 -9.7137 13.2112 8.6111
# 3 22.5284 2.7516 72.6097 -9.6477 -0.9062 10.4493
# 4 2.6991 -9.7137 -9.6477 31.9771 13.2327 3.5986
# 5 0.5749 13.2112 -0.9062 13.2327 52.7461 5.1576
# 6 30.1124 8.6111 10.4493 3.5986 5.1576 46.4280
#
#
#
# Elastic Compliance Matrix: (Units=1/GPa)
#
#
# Indices 1 2 3 4 5 6 
#
# 1 0.006871 -0.002509 -0.001776 -0.002049 0.001388 -0.003587
# 2 -0.002509 0.025085 0.001869 0.012517 -0.009030 -0.003413
# 3 -0.001776 0.001869 0.015511 0.006349 -0.001481 -0.003014
# 4 -0.002049 0.012517 0.006349 0.043199 -0.013423 -0.004279
# 5 0.001388 -0.009030 -0.001481 -0.013423 0.024605 -0.000585
# 6 -0.003587 -0.003413 -0.003014 -0.004279 -0.000585 0.025573
#
#
# Mechanical properties :
#
#
# Convention : Reuss Voigt Hill
#
# Bulk Modulus (GPa) = 23.45359 43.06345 33.25852
# Shear Modulus (GPa) = 31.27189 43.26360 37.26775
#
# Velocity S-wave (km/s) = 3.56780 4.19648 3.89485
# Velocity P-wave (km/s) = 5.14967 6.40387 5.81071
#
# Compressibility (1/GPa) = 0.04263740
#
# Stress axis : x y z
#
# Youngs Moduli (GPa) = 145.53241 39.86393 64.46949
#
# Poissons Ratio (x) = 0.10003 0.11447
# Poissons Ratio (y) = 0.36517 -0.12053
# Poissons Ratio (z) = 0.25839 -0.07453
#
# Static dielectric constant tensor:
#      x y z
#    x 1.965410 -0.010040 0.008780 
#    y -0.010040 1.954040 0.052270 
#    z 0.008780 0.052270 2.013780 
# 
# From -- ./inp_files/241500.got.cif
#   From: 2010.05.17/outbox.cif.g08.bks.cpg/sg2_121_cif.got.tgz:241500.got - 2010.06.03 11:33:40.
