data_PCOD9106317
_publ_section_title
;
Structure prediction by ZEFSAII (Michael W. Deem and Ramdas Pophale) SiO2 
 PCOD9106317
Probable space group: P -1
;
_chemical_formula_sum "Si O2"
_cell_formula_units_Z 16
_cell_length_a 17.986499
_cell_length_b 5.461844
_cell_length_c 11.442077
_cell_angle_alpha 122.597277
_cell_angle_beta 129.735384
_cell_angle_gamma 80.213539
_cell_volume 701.363965
_symmetry_space_group_name_H-M "P -1"
_symmetry_group_IT_number 2
_symmetry_cell_setting 'triclinic'
loop_
_space_group_symop_operation_xyz
x,y,z
-x,-y,-z
loop_
_atom_site_type_symbol
_atom_site_label
_atom_site_fract_x
_atom_site_fract_y
_atom_site_fract_z
Si Si1 0.366776 0.280119 0.702305
Si Si2 0.168783 0.746443 0.941158
Si Si3 0.434948 0.236677 0.009508
Si Si4 0.976233 0.318960 0.551487
Si Si5 0.244995 0.667928 0.320500
Si Si6 0.794230 0.480064 0.490103
Si Si7 0.725437 0.709924 0.961594
Si Si8 0.901571 0.059825 0.856812
O O1 0.365016 0.188947 0.812281
O O2 0.298703 0.511649 0.680560
O O3 0.316121 0.010024 0.493557
O O4 0.482168 0.439429 0.830167
O O5 0.054860 0.541443 0.773049
O O6 0.232719 0.505520 0.964020
O O7 0.200027 0.969431 0.920405
O O8 0.173716 0.959943 0.113631
O O9 0.370671 0.224196 0.058036
O O10 0.500000 0.000000 0.000000
O O11 0.000000 0.500000 0.500000
O O12 0.862064 0.273205 0.463103
O O13 0.000000 0.000000 0.500000
O O14 0.240006 0.569637 0.423996
O O15 0.290137 0.486394 0.224087
O O16 0.129229 0.655965 0.162232
O O17 0.871034 0.814825 0.660116
O O18 0.000000 0.000000 0.000000
#
# Coordination Sequence:
#
# PCOD9106317 Si02
#       8
#     2   2   2   2   2   2   2   2
#     4  10  25  45  72 103 138 184 243 296 373 433
#     4  11  24  45  67 105 142 188 236 292 350 422
#     4  11  26  48  74 102 135 192 240 295 375 443
#     4  12  29  43  64 104 147 198 241 284 350 425
#     4  10  23  42  71 106 141 186 236 302 365 416
#     4  11  23  44  70 100 145 184 239 298 356 421
#     4  11  26  45  76 105 145 183 242 301 358 428
#     4  10  20  39  68  98 138 187 238 285 349 416
#
# _framework density 22.812688999999999
#
# number of rings (size 3 to 8) (size 9 to 14) (size 15 to 20)
#    0.000    1.250    2.500    1.500    8.750    4.000 
#    0.000    2.500    0.000    0.000    0.000    0.000 
#    0.000    0.000    0.000    0.000    0.000    0.000 
#
# Total GULP energy -89275.011877 kJ/mol
# GULP energy per Si atom -5579.688242 kJ/mol
# Density = 2.276077 g / cm^3
# Si number density = 22.812689 Si / 1000 Ang^3
#
#
#
# Elastic Constant Matrix: (Units=GPa)
#
#
# Indices 1 2 3 4 5 6 
#
# 1 113.0333 63.7081 32.9951 2.0522 -11.0900 -25.3453
# 2 63.7081 133.8046 35.5300 -10.3998 -12.1834 -13.8622
# 3 32.9951 35.5300 103.0627 -7.2914 -1.1123 -9.1183
# 4 2.0522 -10.3998 -7.2914 43.5873 1.6718 3.1959
# 5 -11.0900 -12.1834 -1.1123 1.6718 28.6545 3.8900
# 6 -25.3453 -13.8622 -9.1183 3.1959 3.8900 35.5188
#
#
#
# Elastic Compliance Matrix: (Units=1/GPa)
#
#
# Indices 1 2 3 4 5 6 
#
# 1 0.014696 -0.005617 -0.002276 -0.003070 0.002341 0.007730
# 2 -0.005617 0.010979 -0.001842 0.002535 0.002367 -0.000684
# 3 -0.002276 -0.001842 0.011210 0.001556 -0.001394 0.000547
# 4 -0.003070 0.002535 0.001556 0.024203 -0.001073 -0.002862
# 5 0.002341 0.002367 -0.001394 -0.001073 0.037054 -0.001725
# 6 0.007730 -0.000684 0.000547 -0.002862 -0.001725 0.033990
#
#
# Mechanical properties :
#
#
# Convention : Reuss Voigt Hill
#
# Bulk Modulus (GPa) = 57.42659 68.26299 62.84479
# Shear Modulus (GPa) = 31.76441 36.06328 33.91385
#
# Velocity S-wave (km/s) = 3.73554 3.98030 3.85986
# Velocity P-wave (km/s) = 6.62068 7.14926 6.89004
#
# Compressibility (1/GPa) = 0.01741354
#
# Stress axis : x y z
#
# Youngs Moduli (GPa) = 68.04475 91.08188 89.20497
#
# Poissons Ratio (x) = 0.51165 0.20306
# Poissons Ratio (y) = 0.38224 0.16433
# Poissons Ratio (z) = 0.15490 0.16779
#
# Static dielectric constant tensor:
#      x y z
#    x 1.825570 0.044780 0.052050 
#    y 0.044780 1.943110 0.007880 
#    z 0.052050 0.007880 1.891650 
# 
# From -- ./inp_files/123790.got.cif
#   From: 2010.05.17/outbox.cif.g08.bks.cpg/sg2_62_cif.got.tgz:123790.got - 2010.06.03 11:33:40.
