data_PCOD9106115
_publ_section_title
;
Structure prediction by ZEFSAII (Michael W. Deem and Ramdas Pophale) SiO2 
 PCOD9106115
Probable space group: P -1
;
_chemical_formula_sum "Si O2"
_cell_formula_units_Z 13
_cell_length_a 9.142707
_cell_length_b 9.002091
_cell_length_c 7.803116
_cell_angle_alpha 92.498342
_cell_angle_beta 63.456925
_cell_angle_gamma 67.262388
_cell_volume 511.347731
_symmetry_space_group_name_H-M "P -1"
_symmetry_group_IT_number 2
_symmetry_cell_setting 'triclinic'
loop_
_space_group_symop_operation_xyz
x,y,z
-x,-y,-z
loop_
_atom_site_type_symbol
_atom_site_label
_atom_site_fract_x
_atom_site_fract_y
_atom_site_fract_z
Si Si1 0.500000 0.500000 0.000000
Si Si2 0.537076 0.841920 0.589891
Si Si3 0.750967 0.258728 0.582323
Si Si4 0.812893 0.572038 0.919868
Si Si5 0.215137 0.504398 0.696103
Si Si6 0.687742 0.952478 0.002276
Si Si7 0.151284 0.099572 0.430471
O O1 0.583075 0.357814 0.800652
O O2 0.664549 0.557683 0.873666
O O3 0.607033 0.670146 0.444578
O O4 0.719511 0.815341 0.598322
O O5 0.500000 0.000000 0.500000
O O6 0.367416 0.909028 0.814509
O O7 0.755986 0.358546 0.418085
O O8 0.940538 0.213455 0.583343
O O9 0.770219 0.076311 0.522777
O O10 0.753895 0.763037 0.020089
O O11 0.021102 0.508452 0.743431
O O12 0.810019 0.468414 0.085109
O O13 0.830007 0.946354 0.784233
O O14 0.500000 0.000000 0.000000
#
# Coordination Sequence:
#
# PCOD9106115 Si02
#       7
#     1   2   2   2   2   2   2
#     4  12  26  40  66 104 136 166 224 278 328 392
#     4  11  22  39  67  99 129 173 226 272 332 395
#     4  11  25  43  67  98 137 174 219 278 334 392
#     4  11  24  46  67 101 135 176 223 276 337 396
#     4  11  25  44  72  97 137 177 222 278 336 396
#     4  10  20  39  67  94 128 175 224 270 325 399
#     4  10  23  44  64  93 136 179 218 267 334 403
#
# _framework density 25.423014999999999
#
# number of rings (size 3 to 8) (size 9 to 14) (size 15 to 20)
#    0.000    1.231    3.077    2.769    6.462    1.846 
#    0.000    0.000    0.000    5.538    0.000    0.000 
#    0.000    0.000    0.000    0.000    0.000    0.000 
#
# Total GULP energy -72507.181546 kJ/mol
# GULP energy per Si atom -5577.475504 kJ/mol
# Density = 2.536515 g / cm^3
# Si number density = 25.423015 Si / 1000 Ang^3
#
#
#
# Elastic Constant Matrix: (Units=GPa)
#
#
# Indices 1 2 3 4 5 6 
#
# 1 65.2850 3.5939 7.9997 11.9752 -24.9750 6.0099
# 2 3.5939 138.4335 56.6040 -8.6352 -5.6119 -8.2456
# 3 7.9997 56.6040 138.7674 10.0764 -19.5593 -6.8225
# 4 11.9752 -8.6352 10.0764 41.2190 -3.6664 -2.5111
# 5 -24.9750 -5.6119 -19.5593 -3.6664 35.2044 2.1675
# 6 6.0099 -8.2456 -6.8225 -2.5111 2.1675 25.9861
#
#
#
# Elastic Compliance Matrix: (Units=1/GPa)
#
#
# Indices 1 2 3 4 5 6 
#
# 1 0.023730 -0.001509 0.001801 -0.006567 0.017377 -0.007578
# 2 -0.001509 0.009207 -0.004013 0.003365 -0.001647 0.002679
# 3 0.001801 -0.004013 0.009787 -0.003241 0.005733 0.000088
# 4 -0.006567 0.003365 -0.003241 0.027655 -0.003331 0.004686
# 5 0.017377 -0.001647 0.005733 -0.003331 0.043741 -0.007007
# 6 -0.007578 0.002679 0.000088 0.004686 -0.007007 0.042145
#
#
# Mechanical properties :
#
#
# Convention : Reuss Voigt Hill
#
# Bulk Modulus (GPa) = 28.34367 53.20904 40.77635
# Shear Modulus (GPa) = 28.49542 38.76776 33.63159
#
# Velocity S-wave (km/s) = 3.35154 3.90924 3.64109
# Velocity P-wave (km/s) = 5.11372 6.43049 5.80953
#
# Compressibility (1/GPa) = 0.03528125
#
# Stress axis : x y z
#
# Youngs Moduli (GPa) = 42.14128 108.61864 102.17428
#
# Poissons Ratio (x) = 0.16391 -0.18403
# Poissons Ratio (y) = 0.06359 0.41004
# Poissons Ratio (z) = -0.07590 0.43591
#
# Static dielectric constant tensor:
#      x y z
#    x 2.125310 -0.033210 0.058860 
#    y -0.033210 2.020330 -0.006090 
#    z 0.058860 -0.006090 2.019140 
# 
# From -- ./inp_files/154401.got.cif
#   From: 2010.05.17/outbox.cif.g08.bks.cpg/sg2_78_cif.got.tgz:154401.got - 2010.06.03 11:33:40.
