data_PCOD9106692
_publ_section_title
;
Structure prediction by ZEFSAII (Michael W. Deem and Ramdas Pophale) SiO2 
 PCOD9106692
Probable space group: P -1
;
_chemical_formula_sum "Si O2"
_cell_formula_units_Z 13
_cell_length_a 13.622696
_cell_length_b 11.482133
_cell_length_c 10.475906
_cell_angle_alpha 116.505165
_cell_angle_beta 137.412704
_cell_angle_gamma 30.377197
_cell_volume 467.580762
_symmetry_space_group_name_H-M "P -1"
_symmetry_group_IT_number 2
_symmetry_cell_setting 'triclinic'
loop_
_space_group_symop_operation_xyz
x,y,z
-x,-y,-z
loop_
_atom_site_type_symbol
_atom_site_label
_atom_site_fract_x
_atom_site_fract_y
_atom_site_fract_z
Si Si1 0.000000 0.000000 0.000000
Si Si2 0.717791 0.778422 0.209254
Si Si3 0.658251 0.547563 0.589101
Si Si4 0.509695 0.933423 0.618140
Si Si5 0.149826 0.619895 0.849504
Si Si6 0.058107 0.935585 0.325529
Si Si7 0.736404 0.441698 0.344188
O O1 0.855974 0.267923 0.995166
O O2 0.049243 0.967876 0.875703
O O3 0.810295 0.559198 0.156827
O O4 0.010409 0.643976 0.433989
O O5 0.538260 0.926990 0.246133
O O6 0.500000 0.000000 0.000000
O O7 0.748133 0.627887 0.722836
O O8 0.415345 0.701105 0.540310
O O9 0.923862 0.228596 0.692746
O O10 0.510579 0.646323 0.349644
O O11 0.500000 0.000000 0.500000
O O12 0.192579 0.103264 0.401838
O O13 0.360277 0.467529 0.851164
O O14 0.876598 0.185217 0.358092
#
# Coordination Sequence:
#
# PCOD9106692 Si02
#       7
#     1   2   2   2   2   2   2
#     4  10  20  40  60  86 128 162 198 262 312 356
#     4  11  23  39  61  93 129 158 210 273 313 360
#     4  11  20  37  66  89 118 168 212 247 311 379
#     4  11  21  41  65  89 121 170 214 251 315 384
#     4  10  21  40  62  85 128 166 203 253 317 376
#     4  10  22  38  62  89 129 161 209 258 305 376
#     4  10  20  42  61  90 121 170 205 253 317 378
#
# _framework density 27.802681
#
# number of rings (size 3 to 8) (size 9 to 14) (size 15 to 20)
#    0.000    1.538    4.615    4.154    2.154    0.000 
#    2.769    4.615    0.000    0.000    0.000    0.000 
#    0.000    0.000    0.000    0.000    0.000    0.000 
#
# Total GULP energy -72587.659376 kJ/mol
# GULP energy per Si atom -5583.666106 kJ/mol
# Density = 2.773940 g / cm^3
# Si number density = 27.802681 Si / 1000 Ang^3
#
#
#
# Elastic Constant Matrix: (Units=GPa)
#
#
# Indices 1 2 3 4 5 6 
#
# 1 113.2821 74.5924 26.4982 15.5712 -1.1713 8.1827
# 2 74.5924 227.9085 32.0870 54.0207 2.1017 40.3766
# 3 26.4982 32.0870 94.5462 29.9110 -0.6449 1.1234
# 4 15.5712 54.0207 29.9110 48.7060 6.9320 -8.8525
# 5 -1.1713 2.1017 -0.6449 6.9320 38.9315 9.3041
# 6 8.1827 40.3766 1.1234 -8.8525 9.3041 81.6716
#
#
#
# Elastic Compliance Matrix: (Units=1/GPa)
#
#
# Indices 1 2 3 4 5 6 
#
# 1 0.011925 -0.004548 -0.002870 0.003323 -0.000393 0.001498
# 2 -0.004548 0.009324 0.001819 -0.011446 0.002799 -0.005738
# 3 -0.002870 0.001819 0.014141 -0.010539 0.002459 -0.002228
# 4 0.003323 -0.011446 -0.010539 0.042022 -0.009596 0.011119
# 5 -0.000393 0.002799 0.002459 -0.009596 0.028630 -0.005680
# 6 0.001498 -0.005738 -0.002228 0.011119 -0.005680 0.016814
#
#
# Mechanical properties :
#
#
# Convention : Reuss Voigt Hill
#
# Bulk Modulus (GPa) = 41.33905 78.01023 59.67464
# Shear Modulus (GPa) = 35.18163 54.03244 44.60704
#
# Velocity S-wave (km/s) = 3.56111 4.41321 4.00986
# Velocity P-wave (km/s) = 5.64001 7.35446 6.55354
#
# Compressibility (1/GPa) = 0.02419020
#
# Stress axis : x y z
#
# Youngs Moduli (GPa) = 83.85946 107.24984 70.71401
#
# Poissons Ratio (x) = 0.48780 0.20297
# Poissons Ratio (y) = 0.38141 -0.12860
# Poissons Ratio (z) = 0.24071 -0.19504
#
# Static dielectric constant tensor:
#      x y z
#    x 2.190870 -0.009920 -0.052950 
#    y -0.009920 2.281390 -0.017290 
#    z -0.052950 -0.017290 1.934430 
# 
# From -- ./inp_files/278518.got.cif
#   From: 2010.05.17/outbox.cif.g08.bks.cpg/sg2_140_cif.got.tgz:278518.got - 2010.06.03 11:33:40.
