data_PCOD9106818
_publ_section_title
;
Structure prediction by ZEFSAII (Michael W. Deem and Ramdas Pophale) SiO2 
 PCOD9106818
Probable space group: P -1
;
_chemical_formula_sum "Si O2"
_cell_formula_units_Z 16
_cell_length_a 14.601448
_cell_length_b 14.625149
_cell_length_c 7.991102
_cell_angle_alpha 127.905199
_cell_angle_beta 140.407048
_cell_angle_gamma 41.818415
_cell_volume 721.947024
_symmetry_space_group_name_H-M "P -1"
_symmetry_group_IT_number 2
_symmetry_cell_setting 'triclinic'
loop_
_space_group_symop_operation_xyz
x,y,z
-x,-y,-z
loop_
_atom_site_type_symbol
_atom_site_label
_atom_site_fract_x
_atom_site_fract_y
_atom_site_fract_z
Si Si1 0.124164 0.902448 0.211128
Si Si2 0.336991 0.988415 0.449360
Si Si3 0.271758 0.165945 0.093305
Si Si4 0.753561 0.737482 0.215369
Si Si5 0.708251 0.391536 0.801808
Si Si6 0.539907 0.317998 0.195265
Si Si7 0.022562 0.549525 0.904132
Si Si8 0.817264 0.035931 0.142820
O O1 0.171928 0.747352 0.083283
O O2 0.285894 0.914648 0.432695
O O3 0.015422 0.965002 0.296504
O O4 0.000000 0.000000 0.000000
O O5 0.244303 0.148468 0.544164
O O6 0.538440 0.916861 0.661051
O O7 0.273968 0.970702 0.162994
O O8 0.148781 0.300433 0.184539
O O9 0.269784 0.214624 0.956714
O O10 0.205154 0.063680 0.880103
O O11 0.920218 0.582005 0.281668
O O12 0.587192 0.734684 0.024359
O O13 0.598371 0.350877 0.488319
O O14 0.578669 0.528990 0.877268
O O15 0.822672 0.425668 0.881886
O O16 0.712365 0.196391 0.219362
O O17 0.000000 0.500000 0.000000
#
# Coordination Sequence:
#
# PCOD9106818 Si02
#       8
#     2   2   2   2   2   2   2   2
#     4  10  23  41  60  86 125 167 197 250 304 360
#     4  11  23  39  59  86 126 159 198 251 303 353
#     4  11  20  36  62  89 117 154 206 248 291 358
#     4  10  21  37  60  92 123 155 198 253 305 359
#     4  10  20  40  61  89 125 159 200 253 312 357
#     4  10  22  37  63  92 121 159 203 254 309 363
#     4   9  20  37  59  91 123 149 197 259 301 358
#     4  11  23  39  59  91 120 157 208 249 295 368
#
# _framework density 22.162289999999999
#
# number of rings (size 3 to 8) (size 9 to 14) (size 15 to 20)
#    0.000    1.750    2.500    1.500    1.750    3.500 
#    0.000    5.625    0.000    0.000    0.000    0.000 
#    0.000    0.000    0.000    0.000    0.000    0.000 
#
# Total GULP energy -89341.021120 kJ/mol
# GULP energy per Si atom -5583.813820 kJ/mol
# Density = 2.211185 g / cm^3
# Si number density = 22.162290 Si / 1000 Ang^3
#
#
#
# Elastic Constant Matrix: (Units=GPa)
#
#
# Indices 1 2 3 4 5 6 
#
# 1 50.8543 34.2547 7.7372 3.3772 25.3404 1.6389
# 2 34.2547 194.6981 27.0082 19.3375 0.8890 -16.3766
# 3 7.7372 27.0082 48.2506 12.4845 8.6310 -0.2584
# 4 3.3772 19.3375 12.4845 32.8056 -1.2361 1.1253
# 5 25.3404 0.8890 8.6310 -1.2361 34.0157 2.8178
# 6 1.6389 -16.3766 -0.2584 1.1253 2.8178 41.9255
#
#
#
# Elastic Compliance Matrix: (Units=1/GPa)
#
#
# Indices 1 2 3 4 5 6 
#
# 1 0.038943 -0.007193 0.003639 -0.002193 -0.029639 -0.002259
# 2 -0.007193 0.007292 -0.003379 -0.002152 0.005717 0.002782
# 3 0.003639 -0.003379 0.025953 -0.008602 -0.009484 -0.000434
# 4 -0.002193 -0.002152 -0.008602 0.035524 0.005339 -0.002120
# 5 -0.029639 0.005717 -0.009484 0.005339 0.053965 -0.000437
# 6 -0.002259 0.002782 -0.000434 -0.002120 -0.000437 0.025110
#
#
# Mechanical properties :
#
#
# Convention : Reuss Voigt Hill
#
# Bulk Modulus (GPa) = 17.14647 47.97815 32.56231
# Shear Modulus (GPa) = 22.71739 36.73622 29.72681
#
# Velocity S-wave (km/s) = 3.20511 4.07578 3.66638
# Velocity P-wave (km/s) = 4.63147 6.62155 5.71382
#
# Compressibility (1/GPa) = 0.05832104
#
# Stress axis : x y z
#
# Youngs Moduli (GPa) = 25.67860 137.13443 38.53110
#
# Poissons Ratio (x) = 0.98643 -0.14021
# Poissons Ratio (y) = 0.18471 0.13021
# Poissons Ratio (z) = -0.09344 0.46341
#
# Static dielectric constant tensor:
#      x y z
#    x 1.892610 0.016840 -0.013720 
#    y 0.016840 1.874910 -0.035060 
#    z -0.013720 -0.035060 1.822510 
# 
# From -- ./inp_files/314158.got.cif
#   From: 2010.05.17/outbox.cif.g08.bks.cpg/sg2_158_cif.got.tgz:314158.got - 2010.06.03 11:33:40.
