data_PCOD9106466
_publ_section_title
;
Structure prediction by ZEFSAII (Michael W. Deem and Ramdas Pophale) SiO2 
 PCOD9106466
Probable space group: P -1
;
_chemical_formula_sum "Si O2"
_cell_formula_units_Z 13
_cell_length_a 9.749256
_cell_length_b 13.594383
_cell_length_c 9.445108
_cell_angle_alpha 69.257520
_cell_angle_beta 44.597522
_cell_angle_gamma 42.073095
_cell_volume 546.996562
_symmetry_space_group_name_H-M "P -1"
_symmetry_group_IT_number 2
_symmetry_cell_setting 'triclinic'
loop_
_space_group_symop_operation_xyz
x,y,z
-x,-y,-z
loop_
_atom_site_type_symbol
_atom_site_label
_atom_site_fract_x
_atom_site_fract_y
_atom_site_fract_z
Si Si1 0.784740 0.813698 0.400777
Si Si2 0.836352 0.160227 0.750661
Si Si3 0.752824 0.723015 0.175443
Si Si4 0.316269 0.251569 0.214654
Si Si5 0.836651 0.394340 0.286547
Si Si6 0.500000 0.000000 0.000000
Si Si7 0.207415 0.817672 0.567329
O O1 0.845161 0.747606 0.234659
O O2 0.715258 0.748501 0.595354
O O3 0.027311 0.791874 0.302965
O O4 0.500000 0.000000 0.500000
O O5 0.823574 0.177023 0.582372
O O6 0.528329 0.257695 0.001155
O O7 0.051150 0.971837 0.693717
O O8 0.546253 0.870824 0.139111
O O9 0.552247 0.705778 0.382432
O O10 0.054018 0.585902 0.938351
O O11 0.997537 0.376479 0.312729
O O12 0.457256 0.089289 0.127100
O O13 0.500000 0.500000 0.500000
O O14 0.959954 0.224070 0.250572
#
# Coordination Sequence:
#
# PCOD9106466 Si02
#       7
#     2   2   2   2   2   1   2
#     4  12  23  36  59  99 137 158 183 251 333 379
#     4  11  21  35  64  98 126 160 191 251 328 376
#     4  11  23  40  60  96 128 159 206 255 306 377
#     4  11  21  37  58  88 127 158 203 252 301 367
#     4  11  25  43  65  88 118 171 224 258 289 353
#     4  10  16  34  58  84 126 154 184 252 302 360
#     4  11  21  36  66  93 120 164 206 252 315 369
#
# _framework density 23.766144000000001
#
# number of rings (size 3 to 8) (size 9 to 14) (size 15 to 20)
#    0.000    0.923    7.692    1.846    2.154    2.462 
#    0.000    0.769    0.000    1.846    0.000    0.000 
#    0.000    0.000    0.000    0.000    0.000    0.000 
#
# Total GULP energy -72411.949441 kJ/mol
# GULP energy per Si atom -5570.149957 kJ/mol
# Density = 2.371205 g / cm^3
# Si number density = 23.766144 Si / 1000 Ang^3
#
#
#
# Elastic Constant Matrix: (Units=GPa)
#
#
# Indices 1 2 3 4 5 6 
#
# 1 118.8760 4.9735 58.9717 -10.9452 -7.2894 -15.2529
# 2 4.9735 41.2840 34.2472 -4.1305 4.3978 -12.0908
# 3 58.9717 34.2472 159.6483 -9.8838 -21.8528 -18.3856
# 4 -10.9452 -4.1305 -9.8838 24.4774 -5.3006 -11.3418
# 5 -7.2894 4.3978 -21.8528 -5.3006 58.5528 -7.1370
# 6 -15.2529 -12.0908 -18.3856 -11.3418 -7.1370 23.8917
#
#
#
# Elastic Compliance Matrix: (Units=1/GPa)
#
#
# Indices 1 2 3 4 5 6 
#
# 1 0.013673 0.007526 -0.003031 0.015646 0.003706 0.018740
# 2 0.007526 0.039590 -0.006075 0.022412 0.001536 0.031264
# 3 -0.003031 -0.006075 0.010937 0.007307 0.005874 0.008631
# 4 0.015646 0.022412 0.007307 0.095654 0.021245 0.078709
# 5 0.003706 0.001536 0.005874 0.021245 0.024599 0.025098
# 6 0.018740 0.031264 0.008631 0.078709 0.025098 0.121144
#
#
# Mechanical properties :
#
#
# Convention : Reuss Voigt Hill
#
# Bulk Modulus (GPa) = 16.38235 57.35477 36.86856
# Shear Modulus (GPa) = 15.19278 36.15879 25.67579
#
# Velocity S-wave (km/s) = 2.53110 3.90480 3.29044
# Velocity P-wave (km/s) = 3.93066 6.67198 5.47565
#
# Compressibility (1/GPa) = 0.06104130
#
# Stress axis : x y z
#
# Youngs Moduli (GPa) = 73.13523 25.25905 91.43412
#
# Poissons Ratio (x) = -0.19011 0.27714
# Poissons Ratio (y) = -0.55043 0.55542
# Poissons Ratio (z) = 0.22167 0.15344
#
# Static dielectric constant tensor:
#      x y z
#    x 1.838230 0.132220 -0.022470 
#    y 0.132220 1.987990 -0.055420 
#    z -0.022470 -0.055420 1.873090 
# 
# From -- ./inp_files/212412.got.cif
#   From: 2010.05.17/outbox.cif.g08.bks.cpg/sg2_107_cif.got.tgz:212412.got - 2010.06.03 11:33:40.
