data_PCOD9106178
_publ_section_title
;
Structure prediction by ZEFSAII (Michael W. Deem and Ramdas Pophale) SiO2 
 PCOD9106178
Probable space group: P -1
;
_chemical_formula_sum "Si O2"
_cell_formula_units_Z 16
_cell_length_a 14.977397
_cell_length_b 14.374852
_cell_length_c 11.415076
_cell_angle_alpha 70.623325
_cell_angle_beta 67.920694
_cell_angle_gamma 19.555671
_cell_volume 760.304546
_symmetry_space_group_name_H-M "P -1"
_symmetry_group_IT_number 2
_symmetry_cell_setting 'triclinic'
loop_
_space_group_symop_operation_xyz
x,y,z
-x,-y,-z
loop_
_atom_site_type_symbol
_atom_site_label
_atom_site_fract_x
_atom_site_fract_y
_atom_site_fract_z
Si Si1 0.857634 0.318663 0.177088
Si Si2 0.652857 0.452434 0.648776
Si Si3 0.708082 0.679378 0.108777
Si Si4 0.286273 0.823989 0.340263
Si Si5 0.717826 0.294484 0.078499
Si Si6 0.801721 0.734199 0.820868
Si Si7 0.262014 0.196863 0.444706
Si Si8 0.799410 0.981166 0.467227
O O1 0.850947 0.440411 0.110572
O O2 0.606859 0.539104 0.296736
O O3 0.770334 0.348525 0.089999
O O4 0.129084 0.010078 0.223282
O O5 0.727692 0.281914 0.608568
O O6 0.429013 0.629656 0.779642
O O7 0.486085 0.697133 0.563633
O O8 0.937990 0.226595 0.645150
O O9 0.880655 0.551298 0.190211
O O10 0.391663 0.986602 0.171006
O O11 0.733902 0.720452 0.962038
O O12 0.158822 0.011795 0.427310
O O13 0.500000 0.500000 0.000000
O O14 0.000000 0.000000 0.000000
O O15 0.724730 0.780251 0.707413
O O16 0.000000 0.500000 0.500000
O O17 0.500000 0.000000 0.500000
O O18 0.222104 0.116093 0.489642
#
# Coordination Sequence:
#
# PCOD9106178 Si02
#       8
#     2   2   2   2   2   2   2   2
#     4  11  21  37  62  97 122 162 210 255 318 390
#     4  11  23  41  64  97 130 160 218 264 318 390
#     4  10  20  39  67  98 121 154 218 274 342 371
#     4  11  22  38  66  97 134 156 204 267 327 385
#     4  11  23  42  60  85 126 173 202 254 308 371
#     4  10  22  41  66  91 128 162 206 287 328 375
#     4  12  26  45  64  92 136 181 227 263 323 393
#     4  12  23  41  66  95 126 177 210 263 324 379
#
# _framework density 21.044198000000002
#
# number of rings (size 3 to 8) (size 9 to 14) (size 15 to 20)
#    0.000    1.000    0.000    9.000    0.000    0.000 
#    6.750    0.000    0.000    0.000    0.000    0.000 
#    0.000    0.000    0.000    0.000    0.000    0.000 
#
# Total GULP energy -89245.032804 kJ/mol
# GULP energy per Si atom -5577.814550 kJ/mol
# Density = 2.099630 g / cm^3
# Si number density = 21.044198 Si / 1000 Ang^3
#
#
#
# Elastic Constant Matrix: (Units=GPa)
#
#
# Indices 1 2 3 4 5 6 
#
# 1 108.4970 52.5589 47.3519 -5.4858 6.9298 11.1846
# 2 52.5589 152.9422 39.6676 -8.1661 5.8303 1.4853
# 3 47.3519 39.6676 58.7007 -13.7111 26.7919 -1.7353
# 4 -5.4858 -8.1661 -13.7111 37.3011 0.2341 -1.8391
# 5 6.9298 5.8303 26.7919 0.2341 33.6016 -3.9936
# 6 11.1846 1.4853 -1.7353 -1.8391 -3.9936 38.1206
#
#
#
# Elastic Compliance Matrix: (Units=1/GPa)
#
#
# Indices 1 2 3 4 5 6 
#
# 1 0.018839 -0.001645 -0.021530 -0.005849 0.012970 -0.005367
# 2 -0.001645 0.008594 -0.006513 -0.000768 0.004075 0.000241
# 3 -0.021530 -0.006513 0.064050 0.019515 -0.044956 0.005718
# 4 -0.005849 -0.000768 0.019515 0.033178 -0.014124 0.002755
# 5 0.012970 0.004075 -0.044956 -0.014124 0.062302 -0.000165
# 6 -0.005367 0.000241 0.005718 0.002755 -0.000165 0.028174
#
#
# Mechanical properties :
#
#
# Convention : Reuss Voigt Hill
#
# Bulk Modulus (GPa) = 31.14501 66.58851 48.86676
# Shear Modulus (GPa) = 17.53055 33.84208 25.68632
#
# Velocity S-wave (km/s) = 2.88937 4.01452 3.49748
# Velocity P-wave (km/s) = 5.09541 7.29379 6.29137
#
# Compressibility (1/GPa) = 0.03210787
#
# Stress axis : x y z
#
# Youngs Moduli (GPa) = 53.08110 116.35770 15.61272
#
# Poissons Ratio (x) = 0.19136 0.33614
# Poissons Ratio (y) = 0.08730 0.10169
# Poissons Ratio (z) = 1.14283 0.75787
#
# Static dielectric constant tensor:
#      x y z
#    x 1.833030 -0.015790 0.078130 
#    y -0.015790 1.788830 0.051460 
#    z 0.078130 0.051460 1.969690 
# 
# From -- ./inp_files/455698.got.cif
#   From: 2010.05.17/outbox.cif.g08.bks.cpg/sg2_228_cif.got.tgz:455698.got - 2010.06.03 11:33:40.
