data_PCOD9106935
_publ_section_title
;
Structure prediction by ZEFSAII (Michael W. Deem and Ramdas Pophale) SiO2 
 PCOD9106935
Probable space group: P -1
;
_chemical_formula_sum "Si O2"
_cell_formula_units_Z 15
_cell_length_a 21.462100
_cell_length_b 6.803499
_cell_length_c 13.309677
_cell_angle_alpha 139.478924
_cell_angle_beta 29.406881
_cell_angle_gamma 140.485770
_cell_volume 582.517210
_symmetry_space_group_name_H-M "P -1"
_symmetry_group_IT_number 2
_symmetry_cell_setting 'triclinic'
loop_
_space_group_symop_operation_xyz
x,y,z
-x,-y,-z
loop_
_atom_site_type_symbol
_atom_site_label
_atom_site_fract_x
_atom_site_fract_y
_atom_site_fract_z
Si Si1 0.500000 0.000000 0.500000
Si Si2 0.136944 0.177113 0.584454
Si Si3 0.373328 0.679804 0.351385
Si Si4 0.820760 0.040293 0.972743
Si Si5 0.263444 0.431780 0.910930
Si Si6 0.872973 0.120903 0.717851
Si Si7 0.523324 0.923073 0.051057
Si Si8 0.697873 0.612060 0.382140
O O1 0.534669 0.093660 0.605270
O O2 0.555664 0.397647 0.546291
O O3 0.222891 0.520486 0.545760
O O4 0.208172 0.145647 0.575283
O O5 0.981172 0.138267 0.799963
O O6 0.154237 0.928594 0.381539
O O7 0.424848 0.377979 0.146283
O O8 0.395159 0.842364 0.274638
O O9 0.788554 0.929981 0.859310
O O10 0.748033 0.796484 0.067279
O O11 0.768173 0.334109 0.175420
O O12 0.124781 0.516872 0.124722
O O13 0.366800 0.780738 0.931228
O O14 0.298663 0.300573 0.705628
O O15 0.000000 0.000000 0.500000
O O16 0.500000 0.000000 0.000000
#
# Coordination Sequence:
#
# PCOD9106935 Si02
#       8
#     1   2   2   2   2   2   2   2
#     4  10  20  40  64  84 118 162 196 250 298 350
#     4  10  20  40  62  88 119 161 200 245 302 352
#     4  10  22  42  63  83 125 154 203 251 294 356
#     4  10  23  38  64  89 123 160 199 246 302 362
#     4  11  22  40  60  93 122 155 202 247 303 359
#     4   9  20  39  61  88 118 160 194 244 298 351
#     4  11  24  38  63  90 119 162 201 248 301 358
#     4  10  22  41  62  85 121 167 197 247 301 356
#
# _framework density 25.750311
#
# number of rings (size 3 to 8) (size 9 to 14) (size 15 to 20)
#    0.000    1.867    2.667    0.400    3.733    2.667 
#    0.000    9.333    0.000    0.000    0.000    0.000 
#    0.000    0.000    0.000    0.000    0.000    0.000 
#
# Total GULP energy -83631.931961 kJ/mol
# GULP energy per Si atom -5575.462131 kJ/mol
# Density = 2.569170 g / cm^3
# Si number density = 25.750311 Si / 1000 Ang^3
#
#
#
# Elastic Constant Matrix: (Units=GPa)
#
#
# Indices 1 2 3 4 5 6 
#
# 1 149.5642 77.6243 54.1667 -10.7560 23.5602 -27.7361
# 2 77.6243 -17.3201 72.0031 -24.1254 61.2259 16.9389
# 3 54.1667 72.0031 103.8132 -13.0518 -10.5269 -28.0072
# 4 -10.7560 -24.1254 -13.0518 42.8761 -1.8568 11.8624
# 5 23.5602 61.2259 -10.5269 -1.8568 22.3697 -33.2081
# 6 -27.7361 16.9389 -28.0072 11.8624 -33.2081 32.4861
#
#
#
# Elastic Compliance Matrix: (Units=1/GPa)
#
#
# Indices 1 2 3 4 5 6 
#
# 1 0.011086 -0.003073 -0.005081 -0.000332 -0.008546 -0.001928
# 2 -0.003073 0.003676 0.003699 -0.000435 0.013313 0.012416
# 3 -0.005081 0.003699 0.009666 0.004043 -0.001909 -0.001361
# 4 -0.000332 -0.000435 0.004043 0.024497 0.005239 -0.000160
# 5 -0.008546 0.013313 -0.001909 0.005239 0.018580 0.001196
# 6 -0.001928 0.012416 -0.001361 -0.000160 0.001196 0.022769
#
#
# Mechanical properties :
#
#
# Convention : Reuss Voigt Hill
#
# Bulk Modulus (GPa) = 64.44779 71.51616 67.98197
# Shear Modulus (GPa) = 47.91250 21.69726 34.80488
#
# Velocity S-wave (km/s) = 4.31821 2.90591 3.68044
# Velocity P-wave (km/s) = 7.06717 6.25238 6.67223
#
# Compressibility (1/GPa) = 0.01551644
#
# Stress axis : x y z
#
# Youngs Moduli (GPa) = 90.20204 272.05925 103.45585
#
# Poissons Ratio (x) = 0.83609 0.52570
# Poissons Ratio (y) = 0.27721 -0.38268
# Poissons Ratio (z) = 0.45836 -1.00633
#
# Static dielectric constant tensor:
#      x y z
#    x 1.628220 -0.313020 0.752550 
#    y -0.313020 1.842820 0.573710 
#    z 0.752550 0.573710 0.581120 
# 
# From -- ./inp_files/68005.got.cif
#   From: 2010.05.17/outbox.cif.g08.bks.cpg/sg2_35_cif.got.tgz:68005.got - 2010.06.03 11:33:40.
