data_PCOD9106273
_publ_section_title
;
Structure prediction by ZEFSAII (Michael W. Deem and Ramdas Pophale) SiO2 
 PCOD9106273
Probable space group: P -1
;
_chemical_formula_sum "Si O2"
_cell_formula_units_Z 16
_cell_length_a 7.218641
_cell_length_b 7.946707
_cell_length_c 16.889951
_cell_angle_alpha 102.745192
_cell_angle_beta 87.606564
_cell_angle_gamma 137.822342
_cell_volume 623.451793
_symmetry_space_group_name_H-M "P -1"
_symmetry_group_IT_number 2
_symmetry_cell_setting 'triclinic'
loop_
_space_group_symop_operation_xyz
x,y,z
-x,-y,-z
loop_
_atom_site_type_symbol
_atom_site_label
_atom_site_fract_x
_atom_site_fract_y
_atom_site_fract_z
Si Si1 0.722551 0.698788 0.697628
Si Si2 0.807789 0.177056 0.235116
Si Si3 0.159719 0.264216 0.477765
Si Si4 0.620380 0.681121 0.145290
Si Si5 0.053245 0.776880 0.224093
Si Si6 0.192849 0.655977 0.913828
Si Si7 0.844401 0.532473 0.360766
Si Si8 0.846050 0.662554 0.003313
O O1 0.891731 0.790388 0.620696
O O2 0.400304 0.498057 0.656956
O O3 0.861965 0.649158 0.744764
O O4 0.792632 0.935166 0.757021
O O5 0.716733 0.207931 0.158561
O O6 0.745885 0.270312 0.315307
O O7 0.654556 0.887105 0.207683
O O8 0.500000 0.500000 0.500000
O O9 0.069952 0.369814 0.540942
O O10 0.000000 0.000000 0.500000
O O11 0.729383 0.608934 0.194181
O O12 0.329083 0.439794 0.083688
O O13 0.833723 0.813354 0.078646
O O14 0.082323 0.646726 0.145524
O O15 0.073573 0.726961 0.308269
O O16 0.132781 0.779176 0.982169
O O17 0.305505 0.594803 0.968091
#
# Coordination Sequence:
#
# PCOD9106273 Si02
#       8
#     2   2   2   2   2   2   2   2
#     4  10  21  37  60  85 120 157 197 248 309 361
#     4  10  22  37  54  90 112 148 208 250 298 383
#     4  10  20  39  68  95 129 173 212 255 319 381
#     4   9  19  33  52  77 108 146 193 244 301 371
#     4   9  18  35  54  81 112 148 196 243 304 365
#     4   9  19  33  52  77 108 146 193 244 301 371
#     4  10  21  37  60  85 120 157 197 248 309 361
#     4   9  18  34  52  73 108 152 186 247 310 364
#
# _framework density 25.66357
#
# number of rings (size 3 to 8) (size 9 to 14) (size 15 to 20)
#    0.000    2.500    1.250    0.000    3.500    1.500 
#    0.000    0.000    0.000    3.000    0.000    0.000 
#    0.000    0.000    0.000    0.000    0.000    0.000 
#
# Total GULP energy -89116.109452 kJ/mol
# GULP energy per Si atom -5569.756841 kJ/mol
# Density = 2.560516 g / cm^3
# Si number density = 25.663570 Si / 1000 Ang^3
#
#
#
# Elastic Constant Matrix: (Units=GPa)
#
#
# Indices 1 2 3 4 5 6 
#
# 1 86.8271 20.5079 -2.4336 1.5780 0.2625 -10.1158
# 2 20.5079 81.5918 33.9478 0.6713 -2.0475 -9.8687
# 3 -2.4336 33.9478 139.2468 0.9447 -35.9573 -17.4368
# 4 1.5780 0.6713 0.9447 21.4127 -6.1654 2.8128
# 5 0.2625 -2.0475 -35.9573 -6.1654 44.2352 6.6009
# 6 -10.1158 -9.8687 -17.4368 2.8128 6.6009 18.5377
#
#
#
# Elastic Compliance Matrix: (Units=1/GPa)
#
#
# Indices 1 2 3 4 5 6 
#
# 1 0.013266 -0.003211 0.001983 -0.001990 -0.000044 0.007712
# 2 -0.003211 0.015188 -0.004152 -0.001562 -0.003452 0.003894
# 3 0.001983 -0.004152 0.011074 0.000970 0.007994 0.006294
# 4 -0.001990 -0.001562 0.000970 0.051253 0.009698 -0.012235
# 5 -0.000044 -0.003452 0.007994 0.009698 0.031337 -0.006972
# 6 0.007712 0.003894 0.006294 -0.012235 -0.006972 0.070485
#
#
# Mechanical properties :
#
#
# Convention : Reuss Voigt Hill
#
# Bulk Modulus (GPa) = 34.76216 45.74553 40.25384
# Shear Modulus (GPa) = 23.47930 33.88004 28.67967
#
# Velocity S-wave (km/s) = 3.02799 3.63734 3.34657
# Velocity P-wave (km/s) = 5.07934 5.95854 5.53642
#
# Compressibility (1/GPa) = 0.02876691
#
# Stress axis : x y z
#
# Youngs Moduli (GPa) = 75.38087 65.84155 90.29962
#
# Poissons Ratio (x) = 0.21143 -0.17903
# Poissons Ratio (y) = 0.24206 0.37493
# Poissons Ratio (z) = -0.14945 0.27338
#
# Static dielectric constant tensor:
#      x y z
#    x 2.157230 0.072700 -0.029630 
#    y 0.072700 2.063360 -0.023100 
#    z -0.029630 -0.023100 2.083240 
# 
# From -- ./inp_files/48365.got.cif
#   From: 2010.05.17/outbox.cif.g08.bks.cpg/sg2_25_cif.got.tgz:48365.got - 2010.06.03 11:33:40.
