data_PCOD9106197
_publ_section_title
;
Structure prediction by ZEFSAII (Michael W. Deem and Ramdas Pophale) SiO2 
 PCOD9106197
Probable space group: P -1
;
_chemical_formula_sum "Si O2"
_cell_formula_units_Z 16
_cell_length_a 8.066953
_cell_length_b 20.063779
_cell_length_c 8.488765
_cell_angle_alpha 38.780706
_cell_angle_beta 130.865117
_cell_angle_gamma 130.304667
_cell_volume 623.059592
_symmetry_space_group_name_H-M "P -1"
_symmetry_group_IT_number 2
_symmetry_cell_setting 'triclinic'
loop_
_space_group_symop_operation_xyz
x,y,z
-x,-y,-z
loop_
_atom_site_type_symbol
_atom_site_label
_atom_site_fract_x
_atom_site_fract_y
_atom_site_fract_z
Si Si1 0.450792 0.152805 0.846892
Si Si2 0.514460 0.375892 0.094564
Si Si3 0.260213 0.957718 0.572627
Si Si4 0.784742 0.517218 0.421848
Si Si5 0.017978 0.805085 0.439358
Si Si6 0.830584 0.397596 0.985394
Si Si7 0.858582 0.283538 0.641024
Si Si8 0.772481 0.862233 0.578621
O O1 0.249084 0.198855 0.707946
O O2 0.687588 0.232780 0.771384
O O3 0.331370 0.092139 0.723548
O O4 0.532959 0.083460 0.158673
O O5 0.742985 0.374532 0.331283
O O6 0.330467 0.269743 0.248184
O O7 0.432236 0.484965 0.816928
O O8 0.594365 0.352191 0.014823
O O9 0.169309 0.913644 0.425962
O O10 0.042266 0.898884 0.657284
O O11 0.298750 0.086041 0.403482
O O12 0.758077 0.440561 0.697706
O O13 0.000000 0.500000 0.500000
O O14 0.883894 0.647853 0.286026
O O15 0.117378 0.795554 0.343866
O O16 0.051556 0.701027 0.753433
O O17 0.000000 0.500000 0.000000
#
# Coordination Sequence:
#
# PCOD9106197 Si02
#       8
#     2   2   2   2   2   2   2   2
#     4  10  21  38  69  94 130 173 212 262 329 380
#     4  10  22  43  65  91 128 172 208 263 324 380
#     4  10  20  39  68 100 125 173 216 262 324 391
#     4  12  26  39  67  97 122 169 223 260 323 393
#     4  10  23  41  64  95 132 171 213 270 320 383
#     4  11  23  46  63  89 136 169 209 271 324 375
#     4  10  23  44  59  94 137 167 208 279 316 377
#     4   9  20  39  67  97 134 166 212 271 322 377
#
# _framework density 25.679725999999999
#
# number of rings (size 3 to 8) (size 9 to 14) (size 15 to 20)
#    0.000    1.750    2.500    1.500    7.000    3.500 
#    0.000    5.625    0.000   27.750    0.000    0.000 
#    0.000    0.000    0.000    0.000    0.000    0.000 
#
# Total GULP energy -89371.693396 kJ/mol
# GULP energy per Si atom -5585.730837 kJ/mol
# Density = 2.562128 g / cm^3
# Si number density = 25.679726 Si / 1000 Ang^3
#
#
#
# Elastic Constant Matrix: (Units=GPa)
#
#
# Indices 1 2 3 4 5 6 
#
# 1 141.8354 20.1175 51.9612 -5.2997 12.9959 -0.9152
# 2 20.1175 63.0848 -7.5619 2.1336 4.0883 -7.8205
# 3 51.9612 -7.5619 74.1657 16.3407 25.4726 21.8132
# 4 -5.2997 2.1336 16.3407 23.2716 2.6631 3.0768
# 5 12.9959 4.0883 25.4726 2.6631 43.8569 -5.0370
# 6 -0.9152 -7.8205 21.8132 3.0768 -5.0370 39.4601
#
#
#
# Elastic Compliance Matrix: (Units=1/GPa)
#
#
# Indices 1 2 3 4 5 6 
#
# 1 0.016273 -0.007703 -0.022481 0.017687 0.009150 0.011067
# 2 -0.007703 0.020362 0.013681 -0.011907 -0.007264 -0.003705
# 3 -0.022481 0.013681 0.058913 -0.040206 -0.029958 -0.031066
# 4 0.017687 -0.011907 -0.040206 0.072184 0.016766 0.016788
# 5 0.009150 -0.007264 -0.029958 0.016766 0.039336 0.019047
# 6 0.011067 -0.003705 -0.031066 0.016788 0.019047 0.043160
#
#
# Mechanical properties :
#
#
# Convention : Reuss Voigt Hill
#
# Bulk Modulus (GPa) = 15.98937 45.34660 30.66799
# Shear Modulus (GPa) = 16.44294 35.62233 26.03263
#
# Velocity S-wave (km/s) = 2.53318 3.72852 3.18739
# Velocity P-wave (km/s) = 3.84655 6.01936 5.05117
#
# Compressibility (1/GPa) = 0.06254154
#
# Stress axis : x y z
#
# Youngs Moduli (GPa) = 61.45212 49.11018 16.97418
#
# Poissons Ratio (x) = 0.37831 0.38160
# Poissons Ratio (y) = 0.47339 -0.23222
# Poissons Ratio (z) = 1.38151 -0.67188
#
# Static dielectric constant tensor:
#      x y z
#    x 2.030440 0.000290 -0.037980 
#    y 0.000290 2.189110 -0.094780 
#    z -0.037980 -0.094780 2.130680 
# 
# From -- ./inp_files/223071.got.cif
#   From: 2010.05.17/outbox.cif.g08.bks.cpg/sg2_112_cif.got.tgz:223071.got - 2010.06.03 11:33:40.
