data_PCOD9106910
_publ_section_title
;
Structure prediction by ZEFSAII (Michael W. Deem and Ramdas Pophale) SiO2 
 PCOD9106910
Probable space group: P -1
;
_chemical_formula_sum "Si O2"
_cell_formula_units_Z 16
_cell_length_a 9.471206
_cell_length_b 12.069186
_cell_length_c 14.769430
_cell_angle_alpha 152.469310
_cell_angle_beta 82.560295
_cell_angle_gamma 88.450732
_cell_volume 735.802435
_symmetry_space_group_name_H-M "P -1"
_symmetry_group_IT_number 2
_symmetry_cell_setting 'triclinic'
loop_
_space_group_symop_operation_xyz
x,y,z
-x,-y,-z
loop_
_atom_site_type_symbol
_atom_site_label
_atom_site_fract_x
_atom_site_fract_y
_atom_site_fract_z
Si Si1 0.257131 0.499859 0.391532
Si Si2 0.141300 0.087051 0.030589
Si Si3 0.571445 0.671832 0.933752
Si Si4 0.464556 0.839018 0.801907
Si Si5 0.212436 0.710872 0.239646
Si Si6 0.870544 0.797233 0.283237
Si Si7 0.070550 0.078261 0.836008
Si Si8 0.252539 0.663378 0.000242
O O1 0.336372 0.464491 0.260668
O O2 0.395576 0.411272 0.386264
O O3 0.151440 0.779651 0.617705
O O4 0.164864 0.299190 0.248847
O O5 0.118209 0.192428 0.005563
O O6 0.294771 0.854413 0.848288
O O7 0.000000 0.000000 0.000000
O O8 0.668030 0.541939 0.917544
O O9 0.410001 0.630613 0.917751
O O10 0.543459 0.972589 0.144945
O O11 0.500000 0.000000 0.000000
O O12 0.040836 0.708122 0.243527
O O13 0.209444 0.935857 0.470815
O O14 0.256558 0.769460 0.177904
O O15 0.885600 0.832583 0.200051
O O16 0.787776 0.595173 0.168384
O O17 0.890735 0.151926 0.904406
#
# Coordination Sequence:
#
# PCOD9106910 Si02
#       8
#     2   2   2   2   2   2   2   2
#     4  10  23  44  66  85 126 168 200 254 312 369
#     4  10  23  39  66  93 121 157 209 255 304 365
#     4  10  20  40  63  90 125 163 197 253 316 355
#     4   8  20  39  65  84 122 165 194 249 314 362
#     4  10  20  40  62  86 127 162 210 245 307 359
#     4  10  23  39  63  92 124 164 209 253 297 371
#     4  11  23  39  67  93 121 166 206 247 315 364
#     4  11  25  36  64  96 126 157 213 258 293 367
#
# _framework density 21.744966999999999
#
# number of rings (size 3 to 8) (size 9 to 14) (size 15 to 20)
#    0.000    2.250    1.250    1.875   12.250    1.500 
#    0.000    0.000    0.000    0.000    0.000    0.000 
#    0.000    0.000    0.000    0.000    0.000    0.000 
#
# Total GULP energy -89377.765903 kJ/mol
# GULP energy per Si atom -5586.110369 kJ/mol
# Density = 2.169547 g / cm^3
# Si number density = 21.744967 Si / 1000 Ang^3
#
#
#
# Elastic Constant Matrix: (Units=GPa)
#
#
# Indices 1 2 3 4 5 6 
#
# 1 163.3632 46.8917 34.8718 21.7010 -15.8589 4.9448
# 2 46.8917 53.7104 16.3023 15.6100 -8.6956 -17.6551
# 3 34.8718 16.3023 79.0608 19.3068 -4.1556 -2.6947
# 4 21.7010 15.6100 19.3068 38.2257 -14.9449 -4.6053
# 5 -15.8589 -8.6956 -4.1556 -14.9449 23.4640 8.4341
# 6 4.9448 -17.6551 -2.6947 -4.6053 8.4341 50.5643
#
#
#
# Elastic Compliance Matrix: (Units=1/GPa)
#
#
# Indices 1 2 3 4 5 6 
#
# 1 0.009716 -0.008705 -0.002572 0.000752 0.005130 -0.004914
# 2 -0.008705 0.032003 -0.000661 -0.007643 -0.003264 0.011839
# 3 -0.002572 -0.000661 0.015622 -0.007819 -0.004518 0.000895
# 4 0.000752 -0.007643 -0.007819 0.041840 0.024154 -0.003377
# 5 0.005130 -0.003264 -0.004518 0.024154 0.063132 -0.010212
# 6 -0.004914 0.011839 0.000895 -0.003377 -0.010212 0.025834
#
#
# Mechanical properties :
#
#
# Convention : Reuss Voigt Hill
#
# Bulk Modulus (GPa) = 29.88225 54.69621 42.28923
# Shear Modulus (GPa) = 22.40365 35.65535 29.02950
#
# Velocity S-wave (km/s) = 3.21330 4.05372 3.65773
# Velocity P-wave (km/s) = 5.24776 6.86428 6.10972
#
# Compressibility (1/GPa) = 0.03346469
#
# Stress axis : x y z
#
# Youngs Moduli (GPa) = 102.92373 31.24685 64.01411
#
# Poissons Ratio (x) = 0.27200 0.16464
# Poissons Ratio (y) = 0.89595 0.04232
# Poissons Ratio (z) = 0.26471 0.02066
#
# Static dielectric constant tensor:
#      x y z
#    x 1.817720 -0.029520 0.012900 
#    y -0.029520 1.843630 0.020330 
#    z 0.012900 0.020330 1.818630 
# 
# From -- ./inp_files/454569.got.cif
#   From: 2010.05.17/outbox.cif.g08.bks.cpg/sg2_228_cif.got.tgz:454569.got - 2010.06.03 11:33:40.
