data_PCOD9106584
_publ_section_title
;
Structure prediction by ZEFSAII (Michael W. Deem and Ramdas Pophale) SiO2 
 PCOD9106584
Probable space group: P -1
;
_chemical_formula_sum "Si O2"
_cell_formula_units_Z 16
_cell_length_a 16.865842
_cell_length_b 16.372468
_cell_length_c 20.283157
_cell_angle_alpha 18.332693
_cell_angle_beta 151.188353
_cell_angle_gamma 141.967062
_cell_volume 812.315138
_symmetry_space_group_name_H-M "P -1"
_symmetry_group_IT_number 2
_symmetry_cell_setting 'triclinic'
loop_
_space_group_symop_operation_xyz
x,y,z
-x,-y,-z
loop_
_atom_site_type_symbol
_atom_site_label
_atom_site_fract_x
_atom_site_fract_y
_atom_site_fract_z
Si Si1 0.916570 0.428573 0.060734
Si Si2 0.533023 0.617364 0.658951
Si Si3 0.857719 0.539951 0.673473
Si Si4 0.359238 0.789191 0.179576
Si Si5 0.694996 0.110396 0.088291
Si Si6 0.216167 0.118854 0.011522
Si Si7 0.031369 0.662961 0.227571
Si Si8 0.322373 0.341928 0.789176
O O1 0.728355 0.628933 0.789907
O O2 0.861427 0.161101 0.206157
O O3 0.000000 0.500000 0.000000
O O4 0.039842 0.417084 0.220509
O O5 0.462135 0.508700 0.756469
O O6 0.543729 0.368319 0.806113
O O7 0.398547 0.893340 0.327344
O O8 0.792978 0.279545 0.838532
O O9 0.960865 0.491666 0.717155
O O10 0.697694 0.811212 0.339674
O O11 0.500000 0.500000 0.500000
O O12 0.295824 0.874468 0.994512
O O13 0.406958 0.031331 0.065639
O O14 0.236821 0.316208 0.816717
O O15 0.145265 0.269595 0.912485
O O16 0.082787 0.941099 0.037911
O O17 0.176442 0.486355 0.518809
#
# Coordination Sequence:
#
# PCOD9106584 Si02
#       8
#     2   2   2   2   2   2   2   2
#     4  10  22  41  60  83 115 161 196 229 285 343
#     4   9  22  37  58  85 114 153 191 235 284 347
#     4  12  21  39  57  86 117 152 196 239 277 340
#     4  12  23  32  58  90 122 150 183 237 297 345
#     4  10  22  38  55  85 119 150 189 230 284 349
#     4  10  20  40  57  85 116 151 190 240 296 337
#     4  10  22  35  61  85 115 151 194 238 287 347
#     4  11  20  36  57  87 117 150 189 234 293 348
#
# _framework density 19.696788999999999
#
# number of rings (size 3 to 8) (size 9 to 14) (size 15 to 20)
#    0.750    0.750    3.750    2.250    1.750    2.000 
#    0.000    0.625    0.000    0.750    0.000    0.000 
#    0.000    0.000    0.000    0.000    0.000    0.000 
#
# Total GULP energy -89186.000849 kJ/mol
# GULP energy per Si atom -5574.125053 kJ/mol
# Density = 1.965196 g / cm^3
# Si number density = 19.696789 Si / 1000 Ang^3
#
#
#
# Elastic Constant Matrix: (Units=GPa)
#
#
# Indices 1 2 3 4 5 6 
#
# 1 162.9202 25.1286 47.1051 11.4096 -12.9572 -7.1943
# 2 25.1286 35.9828 15.3888 3.8417 -9.7752 -3.0889
# 3 47.1051 15.3888 66.6107 8.0441 -4.0962 -2.2993
# 4 11.4096 3.8417 8.0441 17.3817 1.3259 -3.9654
# 5 -12.9572 -9.7752 -4.0962 1.3259 34.3546 -5.3104
# 6 -7.1943 -3.0889 -2.2993 -3.9654 -5.3104 29.7245
#
#
#
# Elastic Compliance Matrix: (Units=1/GPa)
#
#
# Indices 1 2 3 4 5 6 
#
# 1 0.008360 -0.002842 -0.004778 -0.002488 0.002087 0.001399
# 2 -0.002842 0.035042 -0.004992 -0.003407 0.009011 0.003723
# 3 -0.004778 -0.004992 0.020095 -0.005219 -0.000773 -0.000955
# 4 -0.002488 -0.003407 -0.005219 0.064117 -0.004003 0.006478
# 5 0.002087 0.009011 -0.000773 -0.004003 0.033580 0.006847
# 6 0.001399 0.003723 -0.000955 0.006478 0.006847 0.036381
#
#
# Mechanical properties :
#
#
# Convention : Reuss Voigt Hill
#
# Bulk Modulus (GPa) = 26.12843 48.97318 37.55081
# Shear Modulus (GPa) = 21.22644 28.15157 24.68901
#
# Velocity S-wave (km/s) = 3.28633 3.78464 3.54426
# Velocity P-wave (km/s) = 5.26252 6.63442 5.98789
#
# Compressibility (1/GPa) = 0.03827248
#
# Stress axis : x y z
#
# Youngs Moduli (GPa) = 119.61972 28.53738 49.76466
#
# Poissons Ratio (x) = 0.08110 0.23778
# Poissons Ratio (y) = 0.33994 0.24842
# Poissons Ratio (z) = 0.57156 0.14245
#
# Static dielectric constant tensor:
#      x y z
#    x 1.756170 0.031440 0.017640 
#    y 0.031440 1.692900 -0.013290 
#    z 0.017640 -0.013290 1.709830 
# 
# From -- ./inp_files/573948.got.cif
#   From: 2010.05.17/outbox.cif.g08.bks.cpg/sg2_287_cif.got.tgz:573948.got - 2010.06.03 11:33:40.
