data_PCOD9106457
_publ_section_title
;
Structure prediction by ZEFSAII (Michael W. Deem and Ramdas Pophale) SiO2 
 PCOD9106457
Probable space group: P -1
;
_chemical_formula_sum "Si O2"
_cell_formula_units_Z 16
_cell_length_a 10.705459
_cell_length_b 12.203403
_cell_length_c 11.430091
_cell_angle_alpha 39.711618
_cell_angle_beta 141.100031
_cell_angle_gamma 126.121905
_cell_volume 598.970252
_symmetry_space_group_name_H-M "P -1"
_symmetry_group_IT_number 2
_symmetry_cell_setting 'triclinic'
loop_
_space_group_symop_operation_xyz
x,y,z
-x,-y,-z
loop_
_atom_site_type_symbol
_atom_site_label
_atom_site_fract_x
_atom_site_fract_y
_atom_site_fract_z
Si Si1 0.085685 0.814030 0.600628
Si Si2 0.593006 0.829591 0.649474
Si Si3 0.843106 0.911700 0.120498
Si Si4 0.432209 0.664243 0.242719
Si Si5 0.379017 0.526886 0.076166
Si Si6 0.002208 0.243939 0.855001
Si Si7 0.584073 0.959258 0.271772
Si Si8 0.053511 0.530226 0.170233
O O1 0.933463 0.676742 0.657453
O O2 0.971967 0.909219 0.334744
O O3 0.210633 0.937686 0.674541
O O4 0.266652 0.681455 0.796509
O O5 0.504229 0.636781 0.756954
O O6 0.797305 0.807099 0.887549
O O7 0.601512 0.869637 0.484803
O O8 0.500000 0.000000 0.500000
O O9 0.937377 0.761909 0.230739
O O10 0.863734 0.087157 0.916304
O O11 0.608702 0.914353 0.966000
O O12 0.500000 0.500000 0.500000
O O13 0.482253 0.609840 0.193049
O O14 0.524204 0.829353 0.232614
O O15 0.194168 0.654340 0.099364
O O16 0.177930 0.440821 0.053874
O O17 0.923026 0.413643 0.722952
#
# Coordination Sequence:
#
# PCOD9106457 Si02
#       8
#     2   2   2   2   2   2   2   2
#     4  10  25  44  65  99 154 174 217 290 359 399
#     4  11  20  41  70 101 134 175 233 285 334 404
#     4  11  22  40  67 104 136 182 232 277 344 411
#     4  12  23  42  74  98 127 180 247 282 321 417
#     4   9  23  45  67  96 138 181 226 279 347 402
#     4  10  20  39  70  94 132 184 234 275 326 420
#     4  12  24  41  70 103 136 179 234 284 335 410
#     4   9  22  45  64  95 132 182 222 284 339 400
#
# _framework density 26.712513000000001
#
# number of rings (size 3 to 8) (size 9 to 14) (size 15 to 20)
#    0.750    0.750    5.000    0.375    0.000    2.000 
#    2.250    3.750    0.000    0.000    0.000    0.000 
#    0.000    0.000    0.000    0.000    0.000    0.000 
#
# Total GULP energy -89336.409423 kJ/mol
# GULP energy per Si atom -5583.525589 kJ/mol
# Density = 2.665171 g / cm^3
# Si number density = 26.712513 Si / 1000 Ang^3
#
#
#
# Elastic Constant Matrix: (Units=GPa)
#
#
# Indices 1 2 3 4 5 6 
#
# 1 61.8344 62.8256 33.5441 10.8732 7.1348 -5.0231
# 2 62.8256 197.9550 32.4017 15.1193 7.0061 10.3681
# 3 33.5441 32.4017 100.9607 8.9770 0.9456 7.0195
# 4 10.8732 15.1193 8.9770 42.5778 -1.2358 -4.7739
# 5 7.1348 7.0061 0.9456 -1.2358 24.1074 0.1136
# 6 -5.0231 10.3681 7.0195 -4.7739 0.1136 26.2214
#
#
#
# Elastic Compliance Matrix: (Units=1/GPa)
#
#
# Indices 1 2 3 4 5 6 
#
# 1 0.031812 -0.008951 -0.008245 -0.002112 -0.006653 0.011485
# 2 -0.008951 0.008134 0.000861 -0.001385 0.000206 -0.005415
# 3 -0.008245 0.000861 0.012879 -0.001501 0.001634 -0.005648
# 4 -0.002112 -0.001385 -0.001501 0.025483 0.002369 0.005174
# 5 -0.006653 0.000206 0.001634 0.002369 0.043455 -0.001551
# 6 0.011485 -0.005415 -0.005648 0.005174 -0.001551 0.044939
#
#
# Mechanical properties :
#
#
# Convention : Reuss Voigt Hill
#
# Bulk Modulus (GPa) = 49.61756 68.69921 59.15838
# Shear Modulus (GPa) = 24.26134 34.04658 29.15396
#
# Velocity S-wave (km/s) = 3.01697 3.57396 3.30721
# Velocity P-wave (km/s) = 5.54537 6.54254 6.06448
#
# Compressibility (1/GPa) = 0.02015416
#
# Stress axis : x y z
#
# Youngs Moduli (GPa) = 31.43463 122.94534 77.64753
#
# Poissons Ratio (x) = 1.10054 0.64021
# Poissons Ratio (y) = 0.28139 -0.06689
# Poissons Ratio (z) = 0.25918 -0.10591
#
# Static dielectric constant tensor:
#      x y z
#    x 2.368690 -0.003950 0.176060 
#    y -0.003950 2.191570 -0.060360 
#    z 0.176060 -0.060360 2.177570 
# 
# From -- ./inp_files/425340.got.cif
#   From: 2010.05.17/outbox.cif.g08.bks.cpg/sg2_213_cif.got.tgz:425340.got - 2010.06.03 11:33:40.
