data_PCOD9106482
_publ_section_title
;
Structure prediction by ZEFSAII (Michael W. Deem and Ramdas Pophale) SiO2 
 PCOD9106482
Probable space group: P -1
;
_chemical_formula_sum "Si O2"
_cell_formula_units_Z 12
_cell_length_a 22.926039
_cell_length_b 8.396054
_cell_length_c 12.476528
_cell_angle_alpha 124.385920
_cell_angle_beta 154.185546
_cell_angle_gamma 39.249737
_cell_volume 580.325282
_symmetry_space_group_name_H-M "P -1"
_symmetry_group_IT_number 2
_symmetry_cell_setting 'triclinic'
loop_
_space_group_symop_operation_xyz
x,y,z
-x,-y,-z
loop_
_atom_site_type_symbol
_atom_site_label
_atom_site_fract_x
_atom_site_fract_y
_atom_site_fract_z
Si Si1 0.300570 0.830208 0.780429
Si Si2 0.932969 0.210511 0.744480
Si Si3 0.287209 0.626976 0.207541
Si Si4 0.595383 0.697078 0.506603
Si Si5 0.166014 0.068648 0.863475
Si Si6 0.181170 0.347700 0.823514
O O1 0.183597 0.866301 0.501140
O O2 0.159638 0.953383 0.698922
O O3 0.339746 0.018388 0.918521
O O4 0.500000 0.500000 0.000000
O O5 0.764353 0.532408 0.633039
O O6 0.028861 0.178576 0.779646
O O7 0.113035 0.966720 0.028604
O O8 0.500000 0.500000 0.500000
O O9 0.296791 0.524500 0.301795
O O10 0.252917 0.488569 0.012494
O O11 0.500000 0.000000 0.500000
O O12 0.396989 0.798006 0.177983
O O13 0.130966 0.318128 0.848054
O O14 0.000000 0.500000 0.500000
#
# Coordination Sequence:
#
# PCOD9106482 Si02
#       6
#     2   2   2   2   2   2
#     4  10  20  39  70  97 135 173 230 277 345 395
#     4  12  23  42  71  96 136 186 221 285 348 398
#     4  12  24  43  68 102 140 180 229 284 338 412
#     4  12  24  44  65  96 139 178 234 278 338 415
#     4  10  22  40  68  98 132 176 230 274 343 406
#     4  10  21  41  69  99 135 173 227 286 332 402
#
# _framework density 20.678059000000001
#
# number of rings (size 3 to 8) (size 9 to 14) (size 15 to 20)
#    1.000    0.000    6.667    1.000    0.000    0.667 
#    0.000    0.000    3.667    4.000    0.000    0.000 
#    0.000    0.000    0.000    0.000    0.000    0.000 
#
# Total GULP energy -66825.118621 kJ/mol
# GULP energy per Si atom -5568.759885 kJ/mol
# Density = 2.063099 g / cm^3
# Si number density = 20.678059 Si / 1000 Ang^3
#
#
#
# Elastic Constant Matrix: (Units=GPa)
#
#
# Indices 1 2 3 4 5 6 
#
# 1 77.1003 21.0033 22.7542 -13.6398 1.5376 -10.3862
# 2 21.0033 103.4418 35.0958 -18.5909 15.0981 -12.0347
# 3 22.7542 35.0958 109.2979 -4.0539 -5.1707 -6.6374
# 4 -13.6398 -18.5909 -4.0539 30.3634 -5.8865 5.6429
# 5 1.5376 15.0981 -5.1707 -5.8865 35.0415 -6.7556
# 6 -10.3862 -12.0347 -6.6374 5.6429 -6.7556 25.8962
#
#
#
# Elastic Compliance Matrix: (Units=1/GPa)
#
#
# Indices 1 2 3 4 5 6 
#
# 1 0.015460 -0.001032 -0.002375 0.005432 0.001143 0.004227
# 2 -0.001032 0.013195 -0.003903 0.005749 -0.004825 0.002206
# 3 -0.002375 -0.003903 0.011080 -0.001558 0.003410 0.001303
# 4 0.005432 0.005749 -0.001558 0.039927 0.003098 -0.003441
# 5 0.001143 -0.004825 0.003410 0.003098 0.032941 0.007009
# 6 0.004227 0.002206 0.001303 -0.003441 0.007009 0.044248
#
#
# Mechanical properties :
#
#
# Convention : Reuss Voigt Hill
#
# Bulk Modulus (GPa) = 39.81797 49.72741 44.77269
# Shear Modulus (GPa) = 27.80211 32.32600 30.06405
#
# Velocity S-wave (km/s) = 3.67075 3.95815 3.81715
# Velocity P-wave (km/s) = 6.10441 6.70745 6.41302
#
# Compressibility (1/GPa) = 0.02511429
#
# Stress axis : x y z
#
# Youngs Moduli (GPa) = 64.68437 75.78461 90.25531
#
# Poissons Ratio (x) = 0.07822 0.21434
# Poissons Ratio (y) = 0.06676 0.35228
# Poissons Ratio (z) = 0.15361 0.29580
#
# Static dielectric constant tensor:
#      x y z
#    x 1.790810 0.022240 -0.004550 
#    y 0.022240 1.799970 0.049690 
#    z -0.004550 0.049690 1.777640 
# 
# From -- ./inp_files/385080.got.cif
#   From: 2010.05.17/outbox.cif.g08.bks.cpg/sg2_193_cif.got.tgz:385080.got - 2010.06.03 11:33:40.
