data_PCOD9106535
_publ_section_title
;
Structure prediction by ZEFSAII (Michael W. Deem and Ramdas Pophale) SiO2 
 PCOD9106535
Probable space group: P -1
;
_chemical_formula_sum "Si O2"
_cell_formula_units_Z 16
_cell_length_a 7.950617
_cell_length_b 19.222338
_cell_length_c 11.270955
_cell_angle_alpha 148.872517
_cell_angle_beta 53.530115
_cell_angle_gamma 136.114235
_cell_volume 616.059023
_symmetry_space_group_name_H-M "P -1"
_symmetry_group_IT_number 2
_symmetry_cell_setting 'triclinic'
loop_
_space_group_symop_operation_xyz
x,y,z
-x,-y,-z
loop_
_atom_site_type_symbol
_atom_site_label
_atom_site_fract_x
_atom_site_fract_y
_atom_site_fract_z
Si Si1 0.677829 0.769736 0.288663
Si Si2 0.993258 0.350919 0.728877
Si Si3 0.896014 0.094656 0.977124
Si Si4 0.350416 0.863423 0.634838
Si Si5 0.480627 0.401035 0.483679
Si Si6 0.122631 0.939800 0.516292
Si Si7 0.814961 0.597917 0.824187
Si Si8 0.653302 0.187360 0.018555
O O1 0.520736 0.789722 0.485145
O O2 0.948339 0.856893 0.354931
O O3 0.683288 0.885938 0.353391
O O4 0.639257 0.613651 0.015826
O O5 0.260385 0.386999 0.633887
O O6 0.840689 0.283324 0.575790
O O7 0.848126 0.199832 0.653142
O O8 0.000000 0.500000 0.000000
O O9 0.807352 0.108505 0.162110
O O10 0.697732 0.091345 0.963661
O O11 0.972563 0.970548 0.727480
O O12 0.122393 0.262027 0.090518
O O13 0.517211 0.041582 0.771855
O O14 0.500000 0.500000 0.500000
O O15 0.695836 0.457810 0.576925
O O16 0.471050 0.246910 0.212550
O O17 0.073116 0.656944 0.870688
#
# Coordination Sequence:
#
# PCOD9106535 Si02
#       8
#     2   2   2   2   2   2   2   2
#     4  10  20  39  72  98 124 178 225 284 325 390
#     4  12  30  47  61  97 149 186 213 269 346 418
#     4   9  20  38  70 103 127 159 227 291 327 379
#     4  12  22  41  69 102 132 173 225 275 343 395
#     4  12  26  45  66  97 142 185 224 267 340 410
#     4  10  21  44  68  97 134 171 229 279 336 394
#     4   9  21  42  66  98 134 169 231 275 336 391
#     4  10  22  39  72  98 127 169 225 291 324 379
#
# _framework density 25.971539
#
# number of rings (size 3 to 8) (size 9 to 14) (size 15 to 20)
#    0.750    0.750    1.250    3.750    1.750    6.500 
#    2.250    1.250    0.000    0.000    0.000    0.000 
#    0.000    0.000    0.000    0.000    0.000    0.000 
#
# Total GULP energy -89078.848934 kJ/mol
# GULP energy per Si atom -5567.428058 kJ/mol
# Density = 2.591243 g / cm^3
# Si number density = 25.971539 Si / 1000 Ang^3
#
#
#
# Elastic Constant Matrix: (Units=GPa)
#
#
# Indices 1 2 3 4 5 6 
#
# 1 36.0053 4.2250 19.8050 -2.9552 -3.8981 20.5975
# 2 4.2250 87.2502 16.3205 -12.7404 -2.3505 -2.8015
# 3 19.8050 16.3205 180.7260 -25.3642 -20.0853 8.7155
# 4 -2.9552 -12.7404 -25.3642 21.7233 6.1702 -3.4310
# 5 -3.8981 -2.3505 -20.0853 6.1702 35.1787 3.9860
# 6 20.5975 -2.8015 8.7155 -3.4310 3.9860 22.0906
#
#
#
# Elastic Compliance Matrix: (Units=1/GPa)
#
#
# Indices 1 2 3 4 5 6 
#
# 1 0.072676 -0.006804 -0.004186 -0.014939 0.016008 -0.072184
# 2 -0.006804 0.013385 0.000080 0.009316 -0.002572 0.009921
# 3 -0.004186 0.000080 0.007191 0.007571 0.002107 0.001872
# 4 -0.014939 0.009316 0.007571 0.065224 -0.010895 0.024220
# 5 0.016008 -0.002572 0.002107 -0.010895 0.035890 -0.024251
# 6 -0.072184 0.009921 0.001872 0.024220 -0.024251 0.121231
#
#
# Mechanical properties :
#
#
# Convention : Reuss Voigt Hill
#
# Bulk Modulus (GPa) = 13.99942 42.74251 28.37097
# Shear Modulus (GPa) = 13.84161 33.37392 23.60777
#
# Velocity S-wave (km/s) = 2.31108 3.58861 3.01821
# Velocity P-wave (km/s) = 3.53885 5.80206 4.80559
#
# Compressibility (1/GPa) = 0.07143151
#
# Stress axis : x y z
#
# Youngs Moduli (GPa) = 13.75969 74.70849 139.05752
#
# Poissons Ratio (x) = 0.50833 0.58215
# Poissons Ratio (y) = 0.09362 -0.01112
# Poissons Ratio (z) = 0.05760 -0.00598
#
# Static dielectric constant tensor:
#      x y z
#    x 2.247660 0.024630 0.047250 
#    y 0.024630 2.233070 -0.053560 
#    z 0.047250 -0.053560 2.060990 
# 
# From -- ./inp_files/405685.got.cif
#   From: 2010.05.17/outbox.cif.g08.bks.cpg/sg2_203_cif.got.tgz:405685.got - 2010.06.03 11:33:40.
