data_PCOD9106065
_publ_section_title
;
Structure prediction by ZEFSAII (Michael W. Deem and Ramdas Pophale) SiO2 
 PCOD9106065
Probable space group: P -1
;
_chemical_formula_sum "Si O2"
_cell_formula_units_Z 14
_cell_length_a 10.542971
_cell_length_b 13.131916
_cell_length_c 10.735412
_cell_angle_alpha 95.796894
_cell_angle_beta 124.639835
_cell_angle_gamma 129.316140
_cell_volume 652.121382
_symmetry_space_group_name_H-M "P -1"
_symmetry_group_IT_number 2
_symmetry_cell_setting 'triclinic'
loop_
_space_group_symop_operation_xyz
x,y,z
-x,-y,-z
loop_
_atom_site_type_symbol
_atom_site_label
_atom_site_fract_x
_atom_site_fract_y
_atom_site_fract_z
Si Si1 0.843150 0.632095 0.950847
Si Si2 0.578375 0.212816 0.994782
Si Si3 0.342741 0.882002 0.741813
Si Si4 0.386965 0.554618 0.948097
Si Si5 0.229568 0.563313 0.340858
Si Si6 0.696292 0.523593 0.388131
Si Si7 0.557701 0.938945 0.615607
O O1 0.839154 0.544250 0.831037
O O2 0.541520 0.521979 0.751901
O O3 0.835531 0.579825 0.078574
O O4 0.114018 0.861610 0.128497
O O5 0.527955 0.125726 0.087064
O O6 0.430807 0.240041 0.893472
O O7 0.917894 0.425045 0.198736
O O8 0.507411 0.081645 0.844305
O O9 0.354646 0.834653 0.610291
O O10 0.031773 0.741045 0.602599
O O11 0.320781 0.540212 0.764301
O O12 0.500000 0.500000 0.000000
O O13 0.354101 0.569441 0.527758
O O14 0.460198 0.781393 0.472818
O O15 0.500000 0.000000 0.500000
#
# Coordination Sequence:
#
# PCOD9106065 Si02
#       7
#     2   2   2   2   2   2   2
#     4  11  24  43  62  96 135 165 208 270 323 383
#     4  10  20  39  67  91 124 164 220 265 310 380
#     4  10  21  39  65  96 119 167 217 264 314 378
#     4  10  22  41  62  88 130 172 207 262 321 379
#     4  11  23  41  68  94 125 173 211 268 323 372
#     4  10  22  44  64  91 130 168 217 259 319 390
#     4  12  25  39  65  96 129 164 218 263 324 385
#
# _framework density 21.468397
#
# number of rings (size 3 to 8) (size 9 to 14) (size 15 to 20)
#    0.000    1.429    1.429    3.857    2.000    4.000 
#    5.143    1.429    0.000    0.000    0.000    0.000 
#    0.000    0.000    0.000    0.000    0.000    0.000 
#
# Total GULP energy -77981.086996 kJ/mol
# GULP energy per Si atom -5570.077643 kJ/mol
# Density = 2.141953 g / cm^3
# Si number density = 21.468397 Si / 1000 Ang^3
#
#
#
# Elastic Constant Matrix: (Units=GPa)
#
#
# Indices 1 2 3 4 5 6 
#
# 1 83.0907 35.8928 22.8034 5.4677 -13.5385 2.2012
# 2 35.8928 88.6061 26.5707 20.7269 -3.4208 -11.0867
# 3 22.8034 26.5707 66.8946 18.4361 -6.8334 -5.4040
# 4 5.4677 20.7269 18.4361 36.8749 -2.1832 -12.1365
# 5 -13.5385 -3.4208 -6.8334 -2.1832 32.3033 -6.2602
# 6 2.2012 -11.0867 -5.4040 -12.1365 -6.2602 35.6576
#
#
#
# Elastic Compliance Matrix: (Units=1/GPa)
#
#
# Indices 1 2 3 4 5 6 
#
# 1 0.016405 -0.006218 -0.003410 0.002537 0.005345 -0.001661
# 2 -0.006218 0.016305 -0.002580 -0.006126 -0.001306 0.002748
# 3 -0.003410 -0.002580 0.019439 -0.007618 0.001914 0.000098
# 4 0.002537 -0.006126 -0.007618 0.037526 0.003304 0.010137
# 5 0.005345 -0.001306 0.001914 0.003304 0.035009 0.006825
# 6 -0.001661 0.002748 0.000098 0.010137 0.006825 0.033665
#
#
# Mechanical properties :
#
#
# Convention : Reuss Voigt Hill
#
# Bulk Modulus (GPa) = 36.05784 45.45835 40.75810
# Shear Modulus (GPa) = 26.04074 31.18881 28.61477
#
# Velocity S-wave (km/s) = 3.48656 3.81567 3.65482
# Velocity P-wave (km/s) = 5.74808 6.37440 6.06932
#
# Compressibility (1/GPa) = 0.02773322
#
# Stress axis : x y z
#
# Youngs Moduli (GPa) = 60.95842 61.33263 51.44364
#
# Poissons Ratio (x) = 0.38134 0.17541
# Poissons Ratio (y) = 0.37902 0.13272
# Poissons Ratio (z) = 0.20786 0.15823
#
# Static dielectric constant tensor:
#      x y z
#    x 1.800700 -0.045060 -0.001550 
#    y -0.045060 1.817640 -0.005520 
#    z -0.001550 -0.005520 1.862240 
# 
# From -- ./inp_files/426053.got.cif
#   From: 2010.05.17/outbox.cif.g08.bks.cpg/sg2_214_cif.got.tgz:426053.got - 2010.06.03 11:33:40.
