data_PCOD9106772
_publ_section_title
;
Structure prediction by ZEFSAII (Michael W. Deem and Ramdas Pophale) SiO2 
 PCOD9106772
Probable space group: P -1
;
_chemical_formula_sum "Si O2"
_cell_formula_units_Z 14
_cell_length_a 7.693426
_cell_length_b 10.615413
_cell_length_c 11.095932
_cell_angle_alpha 78.451018
_cell_angle_beta 105.354420
_cell_angle_gamma 48.219431
_cell_volume 555.100396
_symmetry_space_group_name_H-M "P -1"
_symmetry_group_IT_number 2
_symmetry_cell_setting 'triclinic'
loop_
_space_group_symop_operation_xyz
x,y,z
-x,-y,-z
loop_
_atom_site_type_symbol
_atom_site_label
_atom_site_fract_x
_atom_site_fract_y
_atom_site_fract_z
Si Si1 0.255246 0.002670 0.838858
Si Si2 0.276825 0.589592 0.792619
Si Si3 0.307264 0.734284 0.241995
Si Si4 0.711102 0.566530 0.955717
Si Si5 0.801269 0.920439 0.456721
Si Si6 0.055182 0.601486 0.227540
Si Si7 0.404770 0.246939 0.511130
O O1 0.139456 0.063001 0.668578
O O2 0.020700 0.054714 0.863251
O O3 0.224580 0.166645 0.845176
O O4 0.556199 0.778770 0.928897
O O5 0.505573 0.367693 0.822776
O O6 0.446326 0.619451 0.865242
O O7 0.065842 0.746782 0.620973
O O8 0.137342 0.593693 0.879159
O O9 0.281105 0.594825 0.293089
O O10 0.459269 0.735450 0.369211
O O11 0.884298 0.479233 0.881089
O O12 0.641318 0.871153 0.425483
O O13 0.605617 0.123257 0.455967
O O14 0.118718 0.460421 0.365628
#
# Coordination Sequence:
#
# PCOD9106772 Si02
#       7
#     2   2   2   2   2   2   2
#     4  10  21  37  64  90 116 156 197 249 295 344
#     4  10  22  38  57  92 122 160 192 249 302 342
#     4   9  21  35  59  92 117 147 204 244 294 350
#     4  10  20  40  61  85 129 153 200 245 290 360
#     4  11  24  36  62  89 122 162 194 247 308 343
#     4   9  20  36  61  91 114 156 200 241 293 354
#     4  11  21  39  59  89 125 153 203 248 296 360
#
# _framework density 25.220663999999999
#
# number of rings (size 3 to 8) (size 9 to 14) (size 15 to 20)
#    0.857    1.143    1.429    2.143    4.000    4.000 
#    2.571    0.714    0.000    1.714    0.000    0.000 
#    0.000    0.000    0.000    0.000    0.000    0.000 
#
# Total GULP energy -78316.497526 kJ/mol
# GULP energy per Si atom -5594.035538 kJ/mol
# Density = 2.516326 g / cm^3
# Si number density = 25.220664 Si / 1000 Ang^3
#
#
#
# Elastic Constant Matrix: (Units=GPa)
#
#
# Indices 1 2 3 4 5 6 
#
# 1 64.3563 22.6359 19.0058 6.6986 7.2864 5.9369
# 2 22.6359 167.4166 31.3013 -1.6494 7.2206 9.8812
# 3 19.0058 31.3013 82.7414 -12.3198 1.7379 6.5475
# 4 6.6986 -1.6494 -12.3198 41.2598 -1.9749 8.4573
# 5 7.2864 7.2206 1.7379 -1.9749 30.7681 2.2931
# 6 5.9369 9.8812 6.5475 8.4573 2.2931 28.1875
#
#
#
# Elastic Compliance Matrix: (Units=1/GPa)
#
#
# Indices 1 2 3 4 5 6 
#
# 1 0.018252 -0.001527 -0.004111 -0.004288 -0.003952 -0.000746
# 2 -0.001527 0.006690 -0.002011 0.000183 -0.000969 -0.001532
# 3 -0.004111 -0.002011 0.014938 0.005880 0.001260 -0.003765
# 4 -0.004288 0.000183 0.005880 0.028780 0.003190 -0.009421
# 5 -0.003952 -0.000969 0.001260 0.003190 0.034010 -0.002845
# 6 -0.000746 -0.001532 -0.003765 -0.009421 -0.002845 0.040104
#
#
# Mechanical properties :
#
#
# Convention : Reuss Voigt Hill
#
# Bulk Modulus (GPa) = 40.68199 51.15560 45.91879
# Shear Modulus (GPa) = 30.07233 36.14782 33.11007
#
# Velocity S-wave (km/s) = 3.45682 3.78995 3.62721
# Velocity P-wave (km/s) = 5.66553 6.28322 5.98235
#
# Compressibility (1/GPa) = 0.02458090
#
# Stress axis : x y z
#
# Youngs Moduli (GPa) = 54.78758 149.48538 66.94322
#
# Poissons Ratio (x) = 0.22825 0.27523
# Poissons Ratio (y) = 0.08366 0.13464
# Poissons Ratio (z) = 0.22525 0.30064
#
# Static dielectric constant tensor:
#      x y z
#    x 2.005980 0.007800 0.023500 
#    y 0.007800 1.996930 -0.014140 
#    z 0.023500 -0.014140 1.953540 
# 
# From -- ./inp_files/224620.got.cif
#   From: 2010.05.17/outbox.cif.g08.bks.cpg/sg2_113_cif.got.tgz:224620.got - 2010.06.03 11:33:40.
