data_PCOD9106491
_publ_section_title
;
Structure prediction by ZEFSAII (Michael W. Deem and Ramdas Pophale) SiO2 
 PCOD9106491
Probable space group: P -1
;
_chemical_formula_sum "Si O2"
_cell_formula_units_Z 14
_cell_length_a 11.936459
_cell_length_b 9.587285
_cell_length_c 7.693191
_cell_angle_alpha 100.669493
_cell_angle_beta 105.745787
_cell_angle_gamma 42.999434
_cell_volume 577.771912
_symmetry_space_group_name_H-M "P -1"
_symmetry_group_IT_number 2
_symmetry_cell_setting 'triclinic'
loop_
_space_group_symop_operation_xyz
x,y,z
-x,-y,-z
loop_
_atom_site_type_symbol
_atom_site_label
_atom_site_fract_x
_atom_site_fract_y
_atom_site_fract_z
Si Si1 0.362991 0.498827 0.954577
Si Si2 0.857961 0.277848 0.762487
Si Si3 0.793440 0.485593 0.462174
Si Si4 0.867235 0.950724 0.609851
Si Si5 0.921799 0.740446 0.929341
Si Si6 0.714260 0.724952 0.037766
Si Si7 0.651660 0.901356 0.414030
O O1 0.306902 0.499622 0.737116
O O2 0.399022 0.316308 0.021742
O O3 0.500000 0.500000 0.000000
O O4 0.221135 0.679994 0.069807
O O5 0.745488 0.472530 0.630710
O O6 0.879727 0.107327 0.643905
O O7 0.023600 0.222863 0.865942
O O8 0.784005 0.663067 0.478156
O O9 0.979621 0.261453 0.468364
O O10 0.878795 0.889691 0.799128
O O11 0.702706 0.019003 0.485864
O O12 0.093055 0.504471 0.894932
O O13 0.763918 0.778219 0.908779
O O14 0.640539 0.878804 0.200571
O O15 0.500000 0.000000 0.500000
#
# Coordination Sequence:
#
# PCOD9106491 Si02
#       7
#     2   2   2   2   2   2   2
#     4  10  23  43  67  97 139 175 224 275 341 408
#     4  11  24  41  69 103 136 173 229 281 340 398
#     4  11  24  45  71  96 131 186 227 277 341 394
#     4  12  23  41  69 102 135 178 226 287 332 398
#     4  10  20  39  71 100 133 169 232 287 332 390
#     4   9  20  40  66  95 129 175 226 268 342 390
#     4  11  25  43  63  97 140 175 227 278 338 413
#
# _framework density 24.231017000000001
#
# number of rings (size 3 to 8) (size 9 to 14) (size 15 to 20)
#    0.000    1.429    4.286    2.143   10.000    0.571 
#    0.000    0.714    0.000    0.000    0.000    0.000 
#    0.000    0.000    0.000    0.000    0.000    0.000 
#
# Total GULP energy -78193.174807 kJ/mol
# GULP energy per Si atom -5585.226772 kJ/mol
# Density = 2.417587 g / cm^3
# Si number density = 24.231017 Si / 1000 Ang^3
#
#
#
# Elastic Constant Matrix: (Units=GPa)
#
#
# Indices 1 2 3 4 5 6 
#
# 1 150.7201 16.7577 40.2433 8.6665 1.3781 18.1942
# 2 16.7577 56.0952 7.1458 13.1863 -0.4211 19.0081
# 3 40.2433 7.1458 112.5215 12.0484 -5.8380 12.5144
# 4 8.6665 13.1863 12.0484 34.8882 12.3819 -4.5209
# 5 1.3781 -0.4211 -5.8380 12.3819 34.5587 0.1242
# 6 18.1942 19.0081 12.5144 -4.5209 0.1242 29.5933
#
#
#
# Elastic Compliance Matrix: (Units=1/GPa)
#
#
# Indices 1 2 3 4 5 6 
#
# 1 0.007815 -0.000408 -0.002191 -0.001477 -0.000144 -0.003841
# 2 -0.000408 0.029431 0.003060 -0.017600 0.007279 -0.022666
# 3 -0.002191 0.003060 0.011162 -0.006896 0.004504 -0.006411
# 4 -0.001477 -0.017600 -0.006896 0.047513 -0.018425 0.022465
# 5 -0.000144 0.007279 0.004504 -0.018425 0.036427 -0.009459
# 6 -0.003841 -0.022666 -0.006411 0.022465 -0.009459 0.056894
#
#
# Mechanical properties :
#
#
# Convention : Reuss Voigt Hill
#
# Bulk Modulus (GPa) = 20.27171 49.73672 35.00421
# Shear Modulus (GPa) = 24.41835 36.82071 30.61953
#
# Velocity S-wave (km/s) = 3.17792 3.90239 3.55864
# Velocity P-wave (km/s) = 4.67437 6.39340 5.60024
#
# Compressibility (1/GPa) = 0.04932984
#
# Stress axis : x y z
#
# Youngs Moduli (GPa) = 127.95573 33.97750 89.59299
#
# Poissons Ratio (x) = 0.01385 0.19632
# Poissons Ratio (y) = 0.05216 -0.27414
# Poissons Ratio (z) = 0.28038 -0.10396
#
# Static dielectric constant tensor:
#      x y z
#    x 1.978890 -0.051890 0.018580 
#    y -0.051890 1.956460 -0.010890 
#    z 0.018580 -0.010890 2.013620 
# 
# From -- ./inp_files/244622.got.cif
#   From: 2010.05.17/outbox.cif.g08.bks.cpg/sg2_123_cif.got.tgz:244622.got - 2010.06.03 11:33:40.
