data_PCOD9106623
_publ_section_title
;
Structure prediction by ZEFSAII (Michael W. Deem and Ramdas Pophale) SiO2 
 PCOD9106623
Probable space group: P -1
;
_chemical_formula_sum "Si O2"
_cell_formula_units_Z 16
_cell_length_a 21.816316
_cell_length_b 6.704791
_cell_length_c 16.432947
_cell_angle_alpha 94.461925
_cell_angle_beta 21.932398
_cell_angle_gamma 107.670438
_cell_volume 701.342113
_symmetry_space_group_name_H-M "P -1"
_symmetry_group_IT_number 2
_symmetry_cell_setting 'triclinic'
loop_
_space_group_symop_operation_xyz
x,y,z
-x,-y,-z
loop_
_atom_site_type_symbol
_atom_site_label
_atom_site_fract_x
_atom_site_fract_y
_atom_site_fract_z
Si Si1 0.241477 0.017545 0.865483
Si Si2 0.296952 0.681544 0.689156
Si Si3 0.837054 0.733502 0.275562
Si Si4 0.730299 0.359123 0.545063
Si Si5 0.580549 0.930523 0.597635
Si Si6 0.362373 0.278892 0.095951
Si Si7 0.988440 0.256023 0.515480
Si Si8 0.137517 0.777446 0.149740
O O1 0.217577 0.762261 0.861582
O O2 0.480827 0.249859 0.559561
O O3 0.199047 0.990571 0.012969
O O4 0.063706 0.988463 0.030824
O O5 0.148689 0.405854 0.822846
O O6 0.358007 0.885779 0.549480
O O7 0.767945 0.544521 0.431048
O O8 0.667753 0.776508 0.472355
O O9 0.926526 0.516450 0.368443
O O10 0.692091 0.116237 0.543768
O O11 0.525501 0.280967 0.840843
O O12 0.333208 0.773969 0.910966
O O13 0.216740 0.329999 0.230437
O O14 0.185546 0.984989 0.333328
O O15 0.500000 0.500000 0.000000
O O16 0.909692 0.166898 0.702733
O O17 0.000000 0.500000 0.500000
#
# Coordination Sequence:
#
# PCOD9106623 Si02
#       8
#     2   2   2   2   2   2   2   2
#     4   9  19  37  61  84 118 157 197 241 298 354
#     4   9  19  38  59  84 119 158 194 246 295 348
#     4  10  21  35  60  87 115 161 197 239 297 354
#     4  10  21  39  59  84 121 158 200 243 300 360
#     4  10  21  37  58  87 123 154 199 251 291 357
#     4  11  23  43  67  90 121 162 204 254 310 371
#     4  11  25  42  64  94 124 159 203 257 308 366
#     4  10  20  40  59  83 123 158 193 248 302 354
#
# _framework density 22.813402
#
# number of rings (size 3 to 8) (size 9 to 14) (size 15 to 20)
#    0.000    2.000    2.500    0.375    1.750    2.000 
#    2.250    5.625    0.000    0.000    0.000    0.000 
#    0.000    0.000    0.000    0.000    0.000    0.000 
#
# Total GULP energy -89438.847949 kJ/mol
# GULP energy per Si atom -5589.927997 kJ/mol
# Density = 2.276148 g / cm^3
# Si number density = 22.813402 Si / 1000 Ang^3
#
#
#
# Elastic Constant Matrix: (Units=GPa)
#
#
# Indices 1 2 3 4 5 6 
#
# 1 55.7903 24.8196 19.7535 -8.3876 -13.9367 19.8895
# 2 24.8196 88.4313 10.5386 2.3399 -11.7861 2.4948
# 3 19.7535 10.5386 100.3081 6.9782 -29.1903 -0.4722
# 4 -8.3876 2.3399 6.9782 31.6643 11.0791 -5.3478
# 5 -13.9367 -11.7861 -29.1903 11.0791 45.6388 4.3189
# 6 19.8895 2.4948 -0.4722 -5.3478 4.3189 30.1486
#
#
#
# Elastic Compliance Matrix: (Units=1/GPa)
#
#
# Indices 1 2 3 4 5 6 
#
# 1 0.032288 -0.007255 -0.004173 0.004291 0.006253 -0.020901
# 2 -0.007255 0.013585 0.001008 -0.003590 0.002555 0.002675
# 3 -0.004173 0.001008 0.014093 -0.007718 0.009863 0.000109
# 4 0.004291 -0.003590 -0.007718 0.041150 -0.015188 0.006821
# 5 0.006253 0.002555 0.009863 -0.015188 0.035609 -0.011978
# 6 -0.020901 0.002675 0.000109 0.006821 -0.011978 0.049663
#
#
# Mechanical properties :
#
#
# Convention : Reuss Voigt Hill
#
# Bulk Modulus (GPa) = 25.56032 39.41702 32.48867
# Shear Modulus (GPa) = 22.69924 34.11822 28.40873
#
# Velocity S-wave (km/s) = 3.15778 3.87141 3.53266
# Velocity P-wave (km/s) = 4.95215 6.10731 5.55981
#
# Compressibility (1/GPa) = 0.03912315
#
# Stress axis : x y z
#
# Youngs Moduli (GPa) = 30.97139 73.61301 70.95770
#
# Poissons Ratio (x) = 0.53408 0.29613
# Poissons Ratio (y) = 0.22471 -0.07149
# Poissons Ratio (z) = 0.12925 -0.07417
#
# Static dielectric constant tensor:
#      x y z
#    x 1.878870 0.025060 -0.020450 
#    y 0.025060 1.846870 -0.033120 
#    z -0.020450 -0.033120 1.860010 
# 
# From -- ./inp_files/56413.got.cif
#   From: 2010.05.17/outbox.cif.g08.bks.cpg/sg2_29_cif.got.tgz:56413.got - 2010.06.03 11:33:40.
