data_PCOD9106099
_publ_section_title
;
Structure prediction by ZEFSAII (Michael W. Deem and Ramdas Pophale) SiO2 
 PCOD9106099
Probable space group: P -1
;
_chemical_formula_sum "Si O2"
_cell_formula_units_Z 16
_cell_length_a 16.542308
_cell_length_b 8.171899
_cell_length_c 29.072774
_cell_angle_alpha 143.975198
_cell_angle_beta 159.659570
_cell_angle_gamma 45.665934
_cell_volume 768.679907
_symmetry_space_group_name_H-M "P -1"
_symmetry_group_IT_number 2
_symmetry_cell_setting 'triclinic'
loop_
_space_group_symop_operation_xyz
x,y,z
-x,-y,-z
loop_
_atom_site_type_symbol
_atom_site_label
_atom_site_fract_x
_atom_site_fract_y
_atom_site_fract_z
Si Si1 0.082886 0.446564 0.866766
Si Si2 0.865522 0.770113 0.453436
Si Si3 0.220411 0.329388 0.818672
Si Si4 0.684473 0.771843 0.704878
Si Si5 0.255803 0.484594 0.571266
Si Si6 0.169823 0.358805 0.332406
Si Si7 0.513794 0.003680 0.756991
Si Si8 0.253687 0.064317 0.396725
O O1 0.167863 0.275919 0.832347
O O2 0.846450 0.551685 0.751262
O O3 0.304967 0.718234 0.059164
O O4 0.975118 0.215965 0.796142
O O5 0.714501 0.592140 0.376237
O O6 0.706045 0.903883 0.364250
O O7 0.997549 0.557499 0.450613
O O8 0.087429 0.038506 0.653187
O O9 0.076280 0.562714 0.784339
O O10 0.500000 0.500000 0.000000
O O11 0.401703 0.637535 0.510056
O O12 0.808001 0.889125 0.748257
O O13 0.669056 0.927237 0.779927
O O14 0.265032 0.199018 0.483707
O O15 0.427236 0.752577 0.692985
O O16 0.217531 0.300430 0.396523
O O17 0.500000 0.000000 0.500000
#
# Coordination Sequence:
#
# PCOD9106099 Si02
#       8
#     2   2   2   2   2   2   2   2
#     4  11  24  40  64 101 136 165 221 280 336 388
#     4  11  24  44  69  93 135 181 228 266 332 406
#     4  11  22  43  68  96 130 176 222 280 333 393
#     4  10  20  39  67  93 130 174 218 270 332 399
#     4  11  24  42  68  96 129 181 229 268 329 402
#     4  10  21  38  67  98 125 176 224 267 333 403
#     4  12  23  44  68  96 136 178 218 278 340 392
#     4  12  22  41  68 100 132 175 223 278 332 396
#
# _framework density 20.814906000000001
#
# number of rings (size 3 to 8) (size 9 to 14) (size 15 to 20)
#    0.000    1.000    5.000    1.500    1.750    1.000 
#    9.000    1.875    0.000    0.000    0.000    0.000 
#    0.000    0.000    0.000    0.000    0.000    0.000 
#
# Total GULP energy -89086.192921 kJ/mol
# GULP energy per Si atom -5567.887058 kJ/mol
# Density = 2.076753 g / cm^3
# Si number density = 20.814906 Si / 1000 Ang^3
#
#
#
# Elastic Constant Matrix: (Units=GPa)
#
#
# Indices 1 2 3 4 5 6 
#
# 1 80.1191 18.5461 31.5428 1.9862 7.7962 -15.6211
# 2 18.5461 47.5676 39.0028 -1.8707 13.6780 -7.1507
# 3 31.5428 39.0028 117.9432 4.2495 13.3038 2.3399
# 4 1.9862 -1.8707 4.2495 30.3270 -2.9727 3.4094
# 5 7.7962 13.6780 13.3038 -2.9727 23.8291 -2.1632
# 6 -15.6211 -7.1507 2.3399 3.4094 -2.1632 36.3156
#
#
#
# Elastic Compliance Matrix: (Units=1/GPa)
#
#
# Indices 1 2 3 4 5 6 
#
# 1 0.015801 -0.001849 -0.003493 -0.001584 -0.001747 0.006702
# 2 -0.001849 0.034195 -0.009520 0.001659 -0.012991 0.005622
# 3 -0.003493 -0.009520 0.012838 -0.001810 -0.001159 -0.004103
# 4 -0.001584 0.001659 -0.001810 0.034238 0.004559 -0.003181
# 5 -0.001747 -0.012991 -0.001159 0.004559 0.051154 -0.000616
# 6 0.006702 0.005622 -0.004103 -0.003181 -0.000616 0.032053
#
#
# Mechanical properties :
#
#
# Convention : Reuss Voigt Hill
#
# Bulk Modulus (GPa) = 30.20127 47.09037 38.64582
# Shear Modulus (GPa) = 22.62054 28.53023 25.57538
#
# Velocity S-wave (km/s) = 3.30016 3.70626 3.50909
# Velocity P-wave (km/s) = 5.39095 6.40216 5.91819
#
# Compressibility (1/GPa) = 0.03311119
#
# Stress axis : x y z
#
# Youngs Moduli (GPa) = 63.28833 29.24414 77.89241
#
# Poissons Ratio (x) = 0.05406 0.27210
# Poissons Ratio (y) = 0.11699 0.74150
# Poissons Ratio (z) = 0.22108 0.27839
#
# Static dielectric constant tensor:
#      x y z
#    x 1.851440 -0.000590 -0.023060 
#    y -0.000590 1.779000 0.036470 
#    z -0.023060 0.036470 1.746850 
# 
# From -- ./inp_files/500258.got.cif
#   From: 2010.05.17/outbox.cif.g08.bks.cpg/sg2_251_cif.got.tgz:500258.got - 2010.06.03 11:33:40.
