data_PCOD9106538
_publ_section_title
;
Structure prediction by ZEFSAII (Michael W. Deem and Ramdas Pophale) SiO2 
 PCOD9106538
Probable space group: P -1
;
_chemical_formula_sum "Si O2"
_cell_formula_units_Z 16
_cell_length_a 15.916601
_cell_length_b 7.859670
_cell_length_c 9.138154
_cell_angle_alpha 80.579162
_cell_angle_beta 106.472892
_cell_angle_gamma 141.602520
_cell_volume 677.599882
_symmetry_space_group_name_H-M "P -1"
_symmetry_group_IT_number 2
_symmetry_cell_setting 'triclinic'
loop_
_space_group_symop_operation_xyz
x,y,z
-x,-y,-z
loop_
_atom_site_type_symbol
_atom_site_label
_atom_site_fract_x
_atom_site_fract_y
_atom_site_fract_z
Si Si1 0.190769 0.057877 0.242584
Si Si2 0.438081 0.987695 0.278350
Si Si3 0.930459 0.227387 0.079459
Si Si4 0.008040 0.044420 0.324214
Si Si5 0.518203 0.340117 0.736579
Si Si6 0.330307 0.974652 0.940729
Si Si7 0.741710 0.428826 0.263462
Si Si8 0.728800 0.125272 0.520189
O O1 0.357209 0.338543 0.272125
O O2 0.170642 0.845525 0.345250
O O3 0.125887 0.105330 0.304591
O O4 0.122236 0.958916 0.062727
O O5 0.600775 0.284125 0.288966
O O6 0.429647 0.772260 0.264743
O O7 0.373629 0.933297 0.409653
O O8 0.352562 0.964600 0.120813
O O9 0.023794 0.257030 0.230737
O O10 0.798544 0.094323 0.124403
O O11 0.000000 0.500000 0.000000
O O12 0.856566 0.743872 0.238192
O O13 0.000000 0.000000 0.500000
O O14 0.467459 0.259173 0.890186
O O15 0.376858 0.145389 0.599061
O O16 0.300317 0.749937 0.872070
O O17 0.798972 0.375213 0.415742
#
# Coordination Sequence:
#
# PCOD9106538 Si02
#       8
#     2   2   2   2   2   2   2   2
#     4  12  27  45  71  99 144 182 233 285 348 408
#     4  10  20  39  73 102 135 181 223 281 350 409
#     4  12  29  50  71  99 141 186 237 284 345 417
#     4  12  32  46  72 100 135 188 235 293 341 413
#     4  10  23  39  69 104 145 170 230 281 349 403
#     4  10  22  43  72 102 134 181 225 283 347 412
#     4  10  23  44  69  99 145 170 234 276 348 406
#     4  10  22  42  70 104 136 185 216 293 340 415
#
# _framework density 23.612756999999998
#
# number of rings (size 3 to 8) (size 9 to 14) (size 15 to 20)
#    0.000    1.500    1.250    4.500   14.000    2.000 
#    0.000    0.000    0.000    0.000    0.000    0.000 
#    0.000    0.000    0.000    0.000    0.000    0.000 
#
# Total GULP energy -89554.735772 kJ/mol
# GULP energy per Si atom -5597.170986 kJ/mol
# Density = 2.355901 g / cm^3
# Si number density = 23.612757 Si / 1000 Ang^3
#
#
#
# Elastic Constant Matrix: (Units=GPa)
#
#
# Indices 1 2 3 4 5 6 
#
# 1 85.8169 -1.6055 20.1214 -10.1150 5.2642 -0.5146
# 2 -1.6055 67.4228 11.8525 -20.5982 -5.9444 -4.8522
# 3 20.1214 11.8525 123.0799 -9.7531 0.0436 -12.5671
# 4 -10.1150 -20.5982 -9.7531 23.7918 -2.3350 3.0310
# 5 5.2642 -5.9444 0.0436 -2.3350 42.3144 -7.1542
# 6 -0.5146 -4.8522 -12.5671 3.0310 -7.1542 13.1629
#
#
#
# Elastic Compliance Matrix: (Units=1/GPa)
#
#
# Indices 1 2 3 4 5 6 
#
# 1 0.013106 0.002529 -0.002124 0.007134 -0.001383 -0.002978
# 2 0.002529 0.021758 -0.000364 0.019484 0.004816 0.005903
# 3 -0.002124 -0.000364 0.009623 0.001689 0.001924 0.009628
# 4 0.007134 0.019484 0.001689 0.063472 0.004860 -0.002900
# 5 -0.001383 0.004816 0.001924 0.004860 0.027706 0.017498
# 6 -0.002978 0.005903 0.009628 -0.002900 0.017498 0.097401
#
#
# Mechanical properties :
#
#
# Convention : Reuss Voigt Hill
#
# Bulk Modulus (GPa) = 22.43733 37.45071 29.94402
# Shear Modulus (GPa) = 20.17431 32.25057 26.21244
#
# Velocity S-wave (km/s) = 2.92615 3.69970 3.33543
# Velocity P-wave (km/s) = 4.57595 5.84339 5.24807
#
# Compressibility (1/GPa) = 0.04456859
#
# Stress axis : x y z
#
# Youngs Moduli (GPa) = 76.30111 45.96054 103.91414
#
# Poissons Ratio (x) = -0.11623 0.22075
# Poissons Ratio (y) = -0.19295 0.03779
# Poissons Ratio (z) = 0.16209 0.01672
#
# Static dielectric constant tensor:
#      x y z
#    x 1.861590 -0.029170 0.042460 
#    y -0.029170 1.913670 0.005370 
#    z 0.042460 0.005370 1.906190 
# 
# From -- ./inp_files/328742.got.cif
#   From: 2010.05.17/outbox.cif.g08.bks.cpg/sg2_165_cif.got.tgz:328742.got - 2010.06.03 11:33:40.
