data_PCOD9106650
_publ_section_title
;
Structure prediction by ZEFSAII (Michael W. Deem and Ramdas Pophale) SiO2 
 PCOD9106650
Probable space group: P -1
;
_chemical_formula_sum "Si O2"
_cell_formula_units_Z 13
_cell_length_a 10.110837
_cell_length_b 7.889170
_cell_length_c 7.347854
_cell_angle_alpha 122.686174
_cell_angle_beta 84.431089
_cell_angle_gamma 102.441302
_cell_volume 481.577284
_symmetry_space_group_name_H-M "P -1"
_symmetry_group_IT_number 2
_symmetry_cell_setting 'triclinic'
loop_
_space_group_symop_operation_xyz
x,y,z
-x,-y,-z
loop_
_atom_site_type_symbol
_atom_site_label
_atom_site_fract_x
_atom_site_fract_y
_atom_site_fract_z
Si Si1 0.000000 0.000000 0.500000
Si Si2 0.072656 0.333439 0.988053
Si Si3 0.043694 0.742205 0.665053
Si Si4 0.560350 0.627373 0.301569
Si Si5 0.330095 0.055718 0.258384
Si Si6 0.574043 0.820707 0.041481
Si Si7 0.263582 0.712804 0.354000
O O1 0.039864 0.152834 0.407155
O O2 0.081210 0.175033 0.735225
O O3 0.982189 0.221549 0.101136
O O4 0.195934 0.487982 0.159889
O O5 0.000000 0.500000 0.000000
O O6 0.194470 0.782078 0.582771
O O7 0.000000 0.500000 0.500000
O O8 0.644242 0.725932 0.518476
O O9 0.526199 0.382639 0.146418
O O10 0.416712 0.700873 0.363876
O O11 0.623797 0.736471 0.172332
O O12 0.310659 0.091701 0.068913
O O13 0.242396 0.881739 0.299608
O O14 0.474726 0.977450 0.187320
#
# Coordination Sequence:
#
# PCOD9106650 Si02
#       7
#     1   2   2   2   2   2   2
#     4  12  22  46  74  88 124 188 204 280 340 372
#     4  11  23  47  66  94 136 167 222 276 323 395
#     4  10  22  45  68  95 133 168 220 273 330 390
#     4  10  20  40  61  88 127 164 208 253 318 377
#     4  10  20  40  59  91 128 160 207 259 316 371
#     4   9  19  37  60  86 125 168 201 259 308 370
#     4  10  21  42  62  96 128 165 210 270 318 385
#
# _framework density 26.994627999999999
#
# number of rings (size 3 to 8) (size 9 to 14) (size 15 to 20)
#    0.000    1.846    3.077    2.769    0.000    0.000 
#   27.692    0.000    0.000    0.000    0.000    0.000 
#    0.000    0.000    0.000    0.000    0.000    0.000 
#
# Total GULP energy -72557.755631 kJ/mol
# GULP energy per Si atom -5581.365818 kJ/mol
# Density = 2.693319 g / cm^3
# Si number density = 26.994628 Si / 1000 Ang^3
#
#
#
# Elastic Constant Matrix: (Units=GPa)
#
#
# Indices 1 2 3 4 5 6 
#
# 1 71.8454 19.4643 30.4458 -3.2493 2.8302 7.3894
# 2 19.4643 165.9309 60.2938 -27.7100 8.0702 -4.1186
# 3 30.4458 60.2938 202.6104 -11.3867 22.4745 11.4844
# 4 -3.2493 -27.7100 -11.3867 80.3192 0.7758 -3.8302
# 5 2.8302 8.0702 22.4745 0.7758 20.8780 9.3225
# 6 7.3894 -4.1186 11.4844 -3.8302 9.3225 32.9186
#
#
#
# Elastic Compliance Matrix: (Units=1/GPa)
#
#
# Indices 1 2 3 4 5 6 
#
# 1 0.015384 -0.001335 -0.001968 -0.000309 0.002160 -0.003581
# 2 -0.001335 0.007402 -0.001794 0.002394 -0.002048 0.002710
# 3 -0.001968 -0.001794 0.006446 0.000255 -0.005832 -0.000350
# 4 -0.000309 0.002394 0.000255 0.013454 -0.002841 0.002650
# 5 0.002160 -0.002048 -0.005832 -0.002841 0.062217 -0.016657
# 6 -0.003581 0.002710 -0.000350 0.002650 -0.016657 0.036669
#
#
# Mechanical properties :
#
#
# Convention : Reuss Voigt Hill
#
# Bulk Modulus (GPa) = 52.52793 73.42161 62.97477
# Shear Modulus (GPa) = 31.62313 48.83536 40.22925
#
# Velocity S-wave (km/s) = 3.42637 4.25794 3.86459
# Velocity P-wave (km/s) = 5.92910 7.17154 6.57972
#
# Compressibility (1/GPa) = 0.01903749
#
# Stress axis : x y z
#
# Youngs Moduli (GPa) = 65.00320 135.10280 155.12704
#
# Poissons Ratio (x) = 0.18034 0.30536
# Poissons Ratio (y) = 0.08677 0.27829
# Poissons Ratio (z) = 0.12796 0.24237
#
# Static dielectric constant tensor:
#      x y z
#    x 2.598510 0.003660 -0.301270 
#    y 0.003660 2.125850 -0.011080 
#    z -0.301270 -0.011080 2.207620 
# 
# From -- ./inp_files/236149.got.cif
#   From: 2010.05.17/outbox.cif.g08.bks.cpg/sg2_119_cif.got.tgz:236149.got - 2010.06.03 11:33:40.
