data_PCOD9106902
_publ_section_title
;
Structure prediction by ZEFSAII (Michael W. Deem and Ramdas Pophale) SiO2 
 PCOD9106902
Probable space group: P -1
;
_chemical_formula_sum "Si O2"
_cell_formula_units_Z 16
_cell_length_a 5.658899
_cell_length_b 17.112156
_cell_length_c 11.689843
_cell_angle_alpha 130.708272
_cell_angle_beta 56.460233
_cell_angle_gamma 102.126108
_cell_volume 694.699389
_symmetry_space_group_name_H-M "P -1"
_symmetry_group_IT_number 2
_symmetry_cell_setting 'triclinic'
loop_
_space_group_symop_operation_xyz
x,y,z
-x,-y,-z
loop_
_atom_site_type_symbol
_atom_site_label
_atom_site_fract_x
_atom_site_fract_y
_atom_site_fract_z
Si Si1 0.694500 0.383844 0.689563
Si Si2 0.751638 0.796082 0.621529
Si Si3 0.944387 0.455751 0.278309
Si Si4 0.970690 0.829352 0.378859
Si Si5 0.607684 0.349944 0.419049
Si Si6 0.174228 0.995267 0.603672
Si Si7 0.087412 0.385129 0.928900
Si Si8 0.143277 0.026965 0.105069
O O1 0.607434 0.352788 0.558010
O O2 0.436581 0.371616 0.829692
O O3 0.996243 0.307590 0.575839
O O4 0.767621 0.498265 0.760496
O O5 0.466667 0.759650 0.703047
O O6 0.897266 0.849448 0.733885
O O7 0.696539 0.854624 0.568022
O O8 0.895304 0.378511 0.318758
O O9 0.670402 0.557518 0.457737
O O10 0.937611 0.398370 0.104788
O O11 0.980974 0.910473 0.350164
O O12 0.986926 0.714515 0.211212
O O13 0.183075 0.872827 0.450112
O O14 0.500000 0.000000 0.500000
O O15 0.018312 0.015990 0.787498
O O16 0.000000 0.500000 0.000000
O O17 0.500000 0.000000 0.000000
O O18 0.000000 0.000000 0.000000
#
# Coordination Sequence:
#
# PCOD9106902 Si02
#       8
#     2   2   2   2   2   2   2   2
#     4  11  21  39  66  89 127 188 235 275 354 437
#     4  10  23  41  71  95 131 186 236 282 359 453
#     4  10  22  37  57  93 127 177 219 296 336 424
#     4  10  23  42  70 100 136 185 243 292 365 434
#     4  10  20  40  62  85 132 177 233 264 356 425
#     4  10  25  47  77 102 140 193 250 300 369 453
#     4  12  22  40  64  98 140 173 229 304 353 425
#     4  11  28  47  77 110 151 184 239 317 384 439
#
# _framework density 23.031544
#
# number of rings (size 3 to 8) (size 9 to 14) (size 15 to 20)
#    0.000    1.500    2.500    1.500   10.500    1.000 
#    0.000    0.000    0.000    0.000    0.000    0.000 
#    0.000    0.000    0.000    0.000    0.000    0.000 
#
# Total GULP energy -89084.434013 kJ/mol
# GULP energy per Si atom -5567.777126 kJ/mol
# Density = 2.297912 g / cm^3
# Si number density = 23.031544 Si / 1000 Ang^3
#
#
#
# Elastic Constant Matrix: (Units=GPa)
#
#
# Indices 1 2 3 4 5 6 
#
# 1 71.7447 39.0093 33.0050 -1.9476 20.6656 23.1234
# 2 39.0093 126.5715 51.1251 -8.0962 16.9028 35.9370
# 3 33.0050 51.1251 77.3958 -8.0508 18.2667 22.5033
# 4 -1.9476 -8.0962 -8.0508 38.9869 6.5045 8.2790
# 5 20.6656 16.9028 18.2667 6.5045 43.8099 8.1826
# 6 23.1234 35.9370 22.5033 8.2790 8.1826 40.7223
#
#
#
# Elastic Compliance Matrix: (Units=1/GPa)
#
#
# Indices 1 2 3 4 5 6 
#
# 1 0.021043 -0.001779 -0.003784 0.002599 -0.006651 -0.007480
# 2 -0.001779 0.013200 -0.004836 0.003652 -0.001198 -0.008468
# 3 -0.003784 -0.004836 0.020903 0.005032 -0.004844 -0.005184
# 4 0.002599 0.003652 0.005032 0.031399 -0.007071 -0.012442
# 5 -0.006651 -0.001198 -0.004844 -0.007071 0.028909 0.003139
# 6 -0.007480 -0.008468 -0.005184 -0.012442 0.003139 0.041041
#
#
# Mechanical properties :
#
#
# Convention : Reuss Voigt Hill
#
# Bulk Modulus (GPa) = 29.11336 57.99897 43.55616
# Shear Modulus (GPa) = 26.49121 34.87533 30.68327
#
# Velocity S-wave (km/s) = 3.39516 3.89555 3.65393
# Velocity P-wave (km/s) = 5.29505 6.74320 6.06252
#
# Compressibility (1/GPa) = 0.03434849
#
# Stress axis : x y z
#
# Youngs Moduli (GPa) = 47.52066 75.75566 47.84046
#
# Poissons Ratio (x) = 0.13477 0.18102
# Poissons Ratio (y) = 0.08454 0.23137
# Poissons Ratio (z) = 0.17981 0.36638
#
# Static dielectric constant tensor:
#      x y z
#    x 1.930350 -0.035280 -0.022510 
#    y -0.035280 2.068940 0.039930 
#    z -0.022510 0.039930 1.951660 
# 
# From -- ./inp_files/48262.got.cif
#   From: 2010.05.17/outbox.cif.g08.bks.cpg/sg2_25_cif.got.tgz:48262.got - 2010.06.03 11:33:40.
