data_PCOD9106125
_publ_section_title
;
Structure prediction by ZEFSAII (Michael W. Deem and Ramdas Pophale) SiO2 
 PCOD9106125
Probable space group: P -1
;
_chemical_formula_sum "Si O2"
_cell_formula_units_Z 16
_cell_length_a 5.818535
_cell_length_b 25.051440
_cell_length_c 22.950860
_cell_angle_alpha 11.089935
_cell_angle_beta 108.329364
_cell_angle_gamma 107.718723
_cell_volume 610.668350
_symmetry_space_group_name_H-M "P -1"
_symmetry_group_IT_number 2
_symmetry_cell_setting 'triclinic'
loop_
_space_group_symop_operation_xyz
x,y,z
-x,-y,-z
loop_
_atom_site_type_symbol
_atom_site_label
_atom_site_fract_x
_atom_site_fract_y
_atom_site_fract_z
Si Si1 0.773730 0.104149 0.913350
Si Si2 0.137057 0.849278 0.289975
Si Si3 0.265380 0.689918 0.083285
Si Si4 0.390854 0.593601 0.799882
Si Si5 0.141136 0.204858 0.333837
Si Si6 0.517251 0.270798 0.464708
Si Si7 0.373303 0.415351 0.686524
Si Si8 0.075602 0.122570 0.234420
O O1 0.717142 0.426072 0.548478
O O2 0.500000 0.000000 0.000000
O O3 0.000000 0.000000 0.000000
O O4 0.879294 0.991971 0.102897
O O5 0.210174 0.805994 0.409238
O O6 0.206041 0.576267 0.549863
O O7 0.314673 0.094047 0.021416
O O8 0.420447 0.497853 0.258292
O O9 0.350631 0.578733 0.272884
O O10 0.008597 0.705305 0.013552
O O11 0.362603 0.998913 0.753244
O O12 0.586175 0.688119 0.761721
O O13 0.513157 0.604508 0.734789
O O14 0.205396 0.849280 0.513225
O O15 0.245202 0.308429 0.090662
O O16 0.000000 0.000000 0.500000
O O17 0.129720 0.013423 0.596256
O O18 0.000000 0.500000 0.000000
#
# Coordination Sequence:
#
# PCOD9106125 Si02
#       8
#     2   2   2   2   2   2   2   2
#     4  10  21  40  64  92 136 180 234 290 352 420
#     4   9  19  37  62  94 129 174 223 276 335 401
#     4  10  20  39  67  94 134 174 218 272 334 401
#     4  12  26  43  71 103 134 172 224 278 337 401
#     4  12  28  48  72  96 136 177 218 271 336 408
#     4  10  20  39  67  94 134 174 218 272 334 401
#     4   9  19  37  62  94 129 174 223 276 335 401
#     4  12  26  43  71 103 134 172 224 278 337 401
#
# _framework density 26.200800999999998
#
# number of rings (size 3 to 8) (size 9 to 14) (size 15 to 20)
#    0.000    1.500    1.250    3.375    1.750    4.000 
#    0.000   15.000    0.000    0.000    0.000    0.000 
#    0.000    0.000    0.000    0.000    0.000    0.000 
#
# Total GULP energy -89258.935630 kJ/mol
# GULP energy per Si atom -5578.683477 kJ/mol
# Density = 2.614117 g / cm^3
# Si number density = 26.200801 Si / 1000 Ang^3
#
#
#
# Elastic Constant Matrix: (Units=GPa)
#
#
# Indices 1 2 3 4 5 6 
#
# 1 33.2573 -12.7845 1.0797 -19.6342 -28.5226 -21.9837
# 2 -12.7845 54.9443 -16.2080 -45.8536 -29.7634 -25.9231
# 3 1.0797 -16.2080 109.7317 -42.7458 -44.1880 -44.3360
# 4 -19.6342 -45.8536 -42.7458 40.0955 -4.9766 -7.2861
# 5 -28.5226 -29.7634 -44.1880 -4.9766 24.3039 -36.6891
# 6 -21.9837 -25.9231 -44.3360 -7.2861 -36.6891 -21.2778
#
#
#
# Elastic Compliance Matrix: (Units=1/GPa)
#
#
# Indices 1 2 3 4 5 6 
#
# 1 0.022686 0.000150 -0.004599 0.003797 -0.001091 -0.013457
# 2 0.000150 0.020440 -0.000589 0.018275 -0.004869 -0.021693
# 3 -0.004599 -0.000589 0.006891 0.003035 -0.002208 -0.006121
# 4 0.003797 0.018275 0.003035 0.043893 -0.008445 -0.032980
# 5 -0.001091 -0.004869 -0.002208 -0.008445 0.013913 -0.009437
# 6 -0.013457 -0.021693 -0.006121 -0.032980 -0.009437 0.033655
#
#
# Mechanical properties :
#
#
# Convention : Reuss Voigt Hill
#
# Bulk Modulus (GPa) = 25.03628 15.78975 20.41301
# Shear Modulus (GPa) = 30.32754 23.68072 27.00413
#
# Velocity S-wave (km/s) = 3.40590 3.00962 3.21387
# Velocity P-wave (km/s) = 5.00432 4.25636 4.64541
#
# Compressibility (1/GPa) = 0.03994204
#
# Stress axis : x y z
#
# Youngs Moduli (GPa) = 44.08071 48.92310 145.11564
#
# Poissons Ratio (x) = -0.00735 0.66735
# Poissons Ratio (y) = -0.00662 0.08547
# Poissons Ratio (z) = 0.20272 0.02881
#
# Static dielectric constant tensor:
#      x y z
#    x 1.980800 0.108350 -0.033850 
#    y 0.108350 2.153070 0.109360 
#    z -0.033850 0.109360 2.019270 
# 
# From -- ./inp_files/616078.got.cif
#   From: 2010.05.17/outbox.cif.g08.bks.cpg/sg2_309_cif.got.tgz:616078.got - 2010.06.03 11:33:40.
