data_PCOD9106674
_publ_section_title
;
Structure prediction by ZEFSAII (Michael W. Deem and Ramdas Pophale) SiO2 
 PCOD9106674
Probable space group: P -1
;
_chemical_formula_sum "Si O2"
_cell_formula_units_Z 14
_cell_length_a 16.364550
_cell_length_b 9.102027
_cell_length_c 20.204950
_cell_angle_alpha 143.753323
_cell_angle_beta 19.905423
_cell_angle_gamma 143.635106
_cell_volume 589.124180
_symmetry_space_group_name_H-M "P -1"
_symmetry_group_IT_number 2
_symmetry_cell_setting 'triclinic'
loop_
_space_group_symop_operation_xyz
x,y,z
-x,-y,-z
loop_
_atom_site_type_symbol
_atom_site_label
_atom_site_fract_x
_atom_site_fract_y
_atom_site_fract_z
Si Si1 0.374989 0.422750 0.868969
Si Si2 0.767889 0.359021 0.192458
Si Si3 0.339793 0.215024 0.125075
Si Si4 0.584870 0.114772 0.379675
Si Si5 0.624677 0.590032 0.602542
Si Si6 0.026637 0.077634 0.800773
Si Si7 0.853796 0.174237 0.753560
O O1 0.569247 0.500515 0.810623
O O2 0.300243 0.126912 0.803606
O O3 0.505852 0.560825 0.754270
O O4 0.159441 0.559739 0.102779
O O5 0.565440 0.347248 0.284084
O O6 0.925821 0.651556 0.177349
O O7 0.638766 0.274840 0.329100
O O8 0.934696 0.166251 0.972582
O O9 0.191638 0.042390 0.234438
O O10 0.601104 0.132690 0.888307
O O11 0.175952 0.145179 0.160011
O O12 0.660385 0.310195 0.452898
O O13 0.290326 0.011676 0.575044
O O14 0.889789 0.779707 0.462239
#
# Coordination Sequence:
#
# PCOD9106674 Si02
#       7
#     2   2   2   2   2   2   2
#     4  10  23  38  57  90 119 152 186 235 301 335
#     4  10  22  37  65  87 110 154 196 237 289 329
#     4   9  19  40  58  84 120 150 190 243 281 337
#     4  11  23  38  58  89 119 152 189 238 291 343
#     4  11  21  38  63  87 111 153 200 236 282 341
#     4  10  20  40  60  84 117 150 197 240 275 345
#     4   9  20  37  57  85 118 144 194 240 277 339
#
# _framework density 23.764091000000001
#
# number of rings (size 3 to 8) (size 9 to 14) (size 15 to 20)
#    0.857    1.143    0.000    4.714    0.000    5.143 
#    2.571    0.714    0.000    0.000    0.000    0.000 
#    0.000    0.000    0.000    0.000    0.000    0.000 
#
# Total GULP energy -78274.809573 kJ/mol
# GULP energy per Si atom -5591.057827 kJ/mol
# Density = 2.371000 g / cm^3
# Si number density = 23.764091 Si / 1000 Ang^3
#
#
#
# Elastic Constant Matrix: (Units=GPa)
#
#
# Indices 1 2 3 4 5 6 
#
# 1 79.6361 24.4728 23.7435 -9.0483 7.0399 17.9300
# 2 24.4728 44.0763 30.0900 13.7529 -10.9413 15.6605
# 3 23.7435 30.0900 91.6913 -23.7987 14.6912 -0.2185
# 4 -9.0483 13.7529 -23.7987 43.9911 12.7078 4.3544
# 5 7.0399 -10.9413 14.6912 12.7078 19.7672 -7.1876
# 6 17.9300 15.6605 -0.2185 4.3544 -7.1876 35.3057
#
#
#
# Elastic Compliance Matrix: (Units=1/GPa)
#
#
# Indices 1 2 3 4 5 6 
#
# 1 0.011873 0.010119 -0.011322 -0.010260 0.014032 -0.006466
# 2 0.010119 -0.014451 0.019027 0.033204 -0.051917 -0.013276
# 3 -0.011322 0.019027 -0.002101 -0.018726 0.030261 0.005768
# 4 -0.010260 0.033204 -0.018726 -0.012878 0.044606 0.001036
# 5 0.014032 -0.051917 0.030261 0.044606 -0.032897 0.003891
# 6 -0.006466 -0.013276 0.005768 0.001036 0.003891 0.038197
#
#
# Mechanical properties :
#
#
# Convention : Reuss Voigt Hill
#
# Bulk Modulus (GPa) = 32.29085 41.33514 36.81299
# Shear Modulus (GPa) = -133.04066 28.95263 -52.04401
#
# Velocity S-wave (km/s) = -7.49036 3.49425 -4.68485
# Velocity P-wave (km/s) = 7.82238 5.80616 3.70663
#
# Compressibility (1/GPa) = 0.03096853
#
# Stress axis : x y z
#
# Youngs Moduli (GPa) = 84.22712 -69.19977 -475.87526
#
# Poissons Ratio (x) = 0.70025 -5.38785
# Poissons Ratio (y) = -0.85232 9.05439
# Poissons Ratio (z) = 0.95362 1.31665
#
# Static dielectric constant tensor:
#      x y z
#    x 1.906290 0.050320 -0.019160 
#    y 0.050320 1.920920 0.041960 
#    z -0.019160 0.041960 1.898540 
# 
# From -- ./inp_files/599612.got.cif
#   From: 2010.05.17/outbox.cif.g08.bks.cpg/sg2_300_cif.got.tgz:599612.got - 2010.06.03 11:33:40.
