data_PCOD9106756
_publ_section_title
;
Structure prediction by ZEFSAII (Michael W. Deem and Ramdas Pophale) SiO2 
 PCOD9106756
Probable space group: P -1
;
_chemical_formula_sum "Si O2"
_cell_formula_units_Z 15
_cell_length_a 10.136352
_cell_length_b 8.256154
_cell_length_c 12.902030
_cell_angle_alpha 62.073905
_cell_angle_beta 123.276897
_cell_angle_gamma 76.242076
_cell_volume 592.209611
_symmetry_space_group_name_H-M "P -1"
_symmetry_group_IT_number 2
_symmetry_cell_setting 'triclinic'
loop_
_space_group_symop_operation_xyz
x,y,z
-x,-y,-z
loop_
_atom_site_type_symbol
_atom_site_label
_atom_site_fract_x
_atom_site_fract_y
_atom_site_fract_z
Si Si1 0.181476 0.228343 0.112399
Si Si2 0.934431 0.451639 0.211482
Si Si3 0.762978 0.007755 0.301152
Si Si4 0.475424 0.570772 0.316624
Si Si5 0.367015 0.222208 0.551141
Si Si6 0.151157 0.913164 0.456489
Si Si7 0.000000 0.000000 0.000000
Si Si8 0.451088 0.254146 0.912676
O O1 0.216425 0.307136 0.995176
O O2 0.000000 0.500000 0.000000
O O3 0.415090 0.036020 0.321093
O O4 0.102286 0.088425 0.090354
O O5 0.156838 0.380401 0.344913
O O6 0.796497 0.528812 0.231772
O O7 0.008134 0.197805 0.276868
O O8 0.779018 0.104048 0.388792
O O9 0.705584 0.848368 0.360893
O O10 0.592084 0.211031 0.084081
O O11 0.994052 0.862536 0.393865
O O12 0.573034 0.625145 0.429632
O O13 0.635400 0.279408 0.456855
O O14 0.231410 0.719364 0.182139
O O15 0.485943 0.682840 0.180840
O O16 0.500000 0.000000 0.000000
#
# Coordination Sequence:
#
# PCOD9106756 Si02
#       8
#     2   2   2   2   2   2   1   2
#     4  11  25  49  74  97 139 188 229 294 349 406
#     4  11  25  45  69 106 136 176 233 281 349 429
#     4  10  20  40  61 101 141 167 229 279 336 431
#     4  11  23  43  66  99 138 185 226 293 344 403
#     4  10  22  44  67  98 142 176 232 287 336 420
#     4  10  24  39  63 103 139 183 217 285 359 403
#     4  10  26  48  68 100 136 178 246 282 332 424
#     4  12  22  37  72 101 131 183 228 279 359 400
#
# _framework density 25.328869999999998
#
# number of rings (size 3 to 8) (size 9 to 14) (size 15 to 20)
#    0.000    1.333    2.667    3.200    5.600    4.800 
#    2.400    1.333    0.000    0.000    0.000    0.000 
#    0.000    0.000    0.000    0.000    0.000    0.000 
#
# Total GULP energy -83706.124276 kJ/mol
# GULP energy per Si atom -5580.408285 kJ/mol
# Density = 2.527122 g / cm^3
# Si number density = 25.328870 Si / 1000 Ang^3
#
#
#
# Elastic Constant Matrix: (Units=GPa)
#
#
# Indices 1 2 3 4 5 6 
#
# 1 62.1753 13.5152 47.8175 1.7076 4.9264 12.8346
# 2 13.5152 66.8649 37.7861 -23.8893 10.1322 5.2441
# 3 47.8175 37.7861 145.0127 -15.9030 31.9285 -2.7563
# 4 1.7076 -23.8893 -15.9030 45.1412 -7.9914 6.3703
# 5 4.9264 10.1322 31.9285 -7.9914 44.8755 0.3402
# 6 12.8346 5.2441 -2.7563 6.3703 0.3402 28.5668
#
#
#
# Elastic Compliance Matrix: (Units=1/GPa)
#
#
# Indices 1 2 3 4 5 6 
#
# 1 0.025937 -0.000047 -0.009858 -0.002069 0.003901 -0.012181
# 2 -0.000047 0.022090 -0.004751 0.011076 0.000424 -0.006967
# 3 -0.009858 -0.004751 0.013122 0.000280 -0.007181 0.006590
# 4 -0.002069 0.011076 0.000280 0.029798 0.002892 -0.007756
# 5 0.003901 0.000424 -0.007181 0.002892 0.027411 -0.003495
# 6 -0.012181 -0.006967 0.006590 -0.007756 -0.003495 0.044164
#
#
# Mechanical properties :
#
#
# Convention : Reuss Voigt Hill
#
# Bulk Modulus (GPa) = 31.41082 52.47671 41.94376
# Shear Modulus (GPa) = 24.69790 35.37897 30.03844
#
# Velocity S-wave (km/s) = 3.12603 3.74141 3.44748
# Velocity P-wave (km/s) = 5.04555 6.27912 5.69583
#
# Compressibility (1/GPa) = 0.03183616
#
# Stress axis : x y z
#
# Youngs Moduli (GPa) = 38.55442 45.27007 76.20968
#
# Poissons Ratio (x) = 0.00213 0.75126
# Poissons Ratio (y) = 0.00181 0.36210
# Poissons Ratio (z) = 0.38006 0.21510
#
# Static dielectric constant tensor:
#      x y z
#    x 2.100480 -0.045420 -0.075120 
#    y -0.045420 1.995700 0.043180 
#    z -0.075120 0.043180 1.945790 
# 
# From -- ./inp_files/514220.got.cif
#   From: 2010.05.17/outbox.cif.g08.bks.cpg/sg2_258_cif.got.tgz:514220.got - 2010.06.03 11:33:40.
