data_PCOD9106704
_publ_section_title
;
Structure prediction by ZEFSAII (Michael W. Deem and Ramdas Pophale) SiO2 
 PCOD9106704
Probable space group: P -1
;
_chemical_formula_sum "Si O2"
_cell_formula_units_Z 16
_cell_length_a 10.913738
_cell_length_b 7.635023
_cell_length_c 13.148123
_cell_angle_alpha 61.408869
_cell_angle_beta 46.390147
_cell_angle_gamma 85.662826
_cell_volume 638.309427
_symmetry_space_group_name_H-M "P -1"
_symmetry_group_IT_number 2
_symmetry_cell_setting 'triclinic'
loop_
_space_group_symop_operation_xyz
x,y,z
-x,-y,-z
loop_
_atom_site_type_symbol
_atom_site_label
_atom_site_fract_x
_atom_site_fract_y
_atom_site_fract_z
Si Si1 0.566118 0.505491 0.648941
Si Si2 0.920383 0.732694 0.466080
Si Si3 0.222557 0.146676 0.870431
Si Si4 0.040226 0.147337 0.177913
Si Si5 0.550055 0.622693 0.042186
Si Si6 0.487664 0.148829 0.558710
Si Si7 0.816004 0.382417 0.775272
Si Si8 0.106312 0.529962 0.748018
O O1 0.416408 0.267773 0.783594
O O2 0.512550 0.551886 0.780178
O O3 0.548172 0.657561 0.530176
O O4 0.775532 0.545183 0.529857
O O5 0.110690 0.743741 0.311653
O O6 0.878890 0.632129 0.628635
O O7 0.904912 0.952483 0.380158
O O8 0.304959 0.038820 0.765819
O O9 0.159661 0.333788 0.811303
O O10 0.076839 0.057817 0.072042
O O11 0.965686 0.338342 0.165634
O O12 0.236618 0.240360 0.097807
O O13 0.403328 0.732556 0.084308
O O14 0.500000 0.500000 0.000000
O O15 0.692971 0.279676 0.453511
O O16 0.500000 0.000000 0.500000
O O17 0.929851 0.418458 0.804622
#
# Coordination Sequence:
#
# PCOD9106704 Si02
#       8
#     2   2   2   2   2   2   2   2
#     4   9  19  39  64  83 122 168 203 248 308 384
#     4  10  21  39  62  92 126 161 218 256 308 374
#     4  10  22  41  66  91 127 168 208 260 322 376
#     4  11  23  40  64  98 129 160 215 271 308 367
#     4  10  20  40  60  88 126 164 206 252 318 369
#     4  11  22  40  62  94 124 164 212 262 312 375
#     4  10  21  39  64  86 123 178 203 252 318 383
#     4  11  21  39  67  91 123 169 218 250 318 382
#
# _framework density 25.066210999999999
#
# number of rings (size 3 to 8) (size 9 to 14) (size 15 to 20)
#    0.000    1.750    1.250    4.125    0.000    2.000 
#    4.500    4.375    0.000    0.000    0.000    0.000 
#    0.000    0.000    0.000    0.000    0.000    0.000 
#
# Total GULP energy -89083.376698 kJ/mol
# GULP energy per Si atom -5567.711044 kJ/mol
# Density = 2.500916 g / cm^3
# Si number density = 25.066211 Si / 1000 Ang^3
#
#
#
# Elastic Constant Matrix: (Units=GPa)
#
#
# Indices 1 2 3 4 5 6 
#
# 1 107.5275 23.1518 38.6897 3.9710 -21.9535 -3.9425
# 2 23.1518 90.7703 25.9830 24.0374 6.8024 3.4125
# 3 38.6897 25.9830 64.6776 14.0322 -6.2218 8.1698
# 4 3.9710 24.0374 14.0322 36.6242 -4.1720 3.2708
# 5 -21.9535 6.8024 -6.2218 -4.1720 54.7252 3.8487
# 6 -3.9425 3.4125 8.1698 3.2708 3.8487 26.7227
#
#
#
# Elastic Compliance Matrix: (Units=1/GPa)
#
#
# Indices 1 2 3 4 5 6 
#
# 1 0.013731 -0.002691 -0.007881 0.003538 0.004961 0.003631
# 2 -0.002691 0.015242 -0.002967 -0.009056 -0.004020 0.000251
# 3 -0.007881 -0.002967 0.023489 -0.005551 -0.000034 -0.007281
# 4 0.003538 -0.009056 -0.005551 0.035682 0.004752 -0.001676
# 5 0.004961 -0.004020 -0.000034 0.004752 0.021290 -0.002392
# 6 0.003631 0.000251 -0.007281 -0.001676 -0.002392 0.040701
#
#
# Mechanical properties :
#
#
# Convention : Reuss Voigt Hill
#
# Bulk Modulus (GPa) = 39.39800 48.73605 44.06702
# Shear Modulus (GPa) = 26.92879 35.29113 31.10996
#
# Velocity S-wave (km/s) = 3.28122 3.75629 3.52676
# Velocity P-wave (km/s) = 5.48697 6.18855 5.84829
#
# Compressibility (1/GPa) = 0.02538200
#
# Stress axis : x y z
#
# Youngs Moduli (GPa) = 72.82992 65.60606 42.57359
#
# Poissons Ratio (x) = 0.17657 0.33554
# Poissons Ratio (y) = 0.19601 0.12632
# Poissons Ratio (z) = 0.57401 0.19466
#
# Static dielectric constant tensor:
#      x y z
#    x 2.021330 0.005510 -0.000240 
#    y 0.005510 2.139220 0.054480 
#    z -0.000240 0.054480 2.162990 
# 
# From -- ./inp_files/515174.got.cif
#   From: 2010.05.17/outbox.cif.g08.bks.cpg/sg2_258_cif.got.tgz:515174.got - 2010.06.03 11:33:40.
