data_PCOD9106561
_publ_section_title
;
Structure prediction by ZEFSAII (Michael W. Deem and Ramdas Pophale) SiO2 
 PCOD9106561
Probable space group: P -1
;
_chemical_formula_sum "Si O2"
_cell_formula_units_Z 14
_cell_length_a 22.759024
_cell_length_b 7.212570
_cell_length_c 7.574296
_cell_angle_alpha 116.657018
_cell_angle_beta 49.388990
_cell_angle_gamma 142.380400
_cell_volume 570.110684
_symmetry_space_group_name_H-M "P -1"
_symmetry_group_IT_number 2
_symmetry_cell_setting 'triclinic'
loop_
_space_group_symop_operation_xyz
x,y,z
-x,-y,-z
loop_
_atom_site_type_symbol
_atom_site_label
_atom_site_fract_x
_atom_site_fract_y
_atom_site_fract_z
Si Si1 0.386811 0.757869 0.508678
Si Si2 0.129232 0.250244 0.441339
Si Si3 0.042723 0.370250 0.958390
Si Si4 0.385319 0.909582 0.215566
Si Si5 0.798165 0.045870 0.910435
Si Si6 0.661486 0.784185 0.744452
Si Si7 0.205835 0.156800 0.781039
O O1 0.373054 0.903393 0.449541
O O2 0.388780 0.545020 0.305530
O O3 0.286069 0.510625 0.736588
O O4 0.500000 0.000000 0.500000
O O5 0.258020 0.575205 0.256723
O O6 0.148147 0.042495 0.338386
O O7 0.114952 0.369343 0.687992
O O8 0.000000 0.000000 0.500000
O O9 0.113546 0.593888 0.079415
O O10 0.922633 0.023008 0.072978
O O11 0.000000 0.500000 0.000000
O O12 0.408138 0.173367 0.192643
O O13 0.500000 0.000000 0.000000
O O14 0.694804 0.908401 0.930116
O O15 0.773278 0.903466 0.093537
O O16 0.766897 0.959857 0.473398
#
# Coordination Sequence:
#
# PCOD9106561 Si02
#       7
#     2   2   2   2   2   2   2
#     4  10  25  48  75 111 153 202 274 321 393 481
#     4  12  23  44  80 121 155 203 273 323 388 493
#     4  10  20  39  76 117 159 208 257 323 405 471
#     4  12  28  51  75 110 159 212 271 326 398 481
#     4  11  22  46  79 113 166 207 256 331 411 463
#     4  10  25  50  76 111 159 205 273 325 403 475
#     4   9  21  45  75 113 161 201 261 328 402 465
#
# _framework density 24.556633000000001
#
# number of rings (size 3 to 8) (size 9 to 14) (size 15 to 20)
#    0.857    0.571    4.286    1.714    2.000    1.714 
#    7.714    4.286    0.000    0.000    0.000    0.000 
#    0.000    0.000    0.000    0.000    0.000    0.000 
#
# Total GULP energy -78115.525093 kJ/mol
# GULP energy per Si atom -5579.680364 kJ/mol
# Density = 2.450074 g / cm^3
# Si number density = 24.556633 Si / 1000 Ang^3
#
#
#
# Elastic Constant Matrix: (Units=GPa)
#
#
# Indices 1 2 3 4 5 6 
#
# 1 134.0317 15.2028 15.5041 1.9902 23.5760 11.4369
# 2 15.2028 111.5739 23.6542 -2.5993 9.4776 28.2262
# 3 15.5041 23.6542 114.9594 -8.5568 -5.4093 1.2170
# 4 1.9902 -2.5993 -8.5568 45.8415 4.1341 -1.3074
# 5 23.5760 9.4776 -5.4093 4.1341 39.0790 7.4470
# 6 11.4369 28.2262 1.2170 -1.3074 7.4470 34.3748
#
#
#
# Elastic Compliance Matrix: (Units=1/GPa)
#
#
# Indices 1 2 3 4 5 6 
#
# 1 0.008667 -0.000022 -0.001402 -0.000232 -0.005064 -0.001728
# 2 -0.000022 0.011992 -0.002426 0.000089 -0.001442 -0.009438
# 3 -0.001402 -0.002426 0.009592 0.001557 0.002276 0.001685
# 4 -0.000232 0.000089 0.001557 0.022362 -0.002278 0.001293
# 5 -0.005064 -0.001442 0.002276 -0.002278 0.030285 -0.003860
# 6 -0.001728 -0.009438 0.001685 0.001293 -0.003860 0.038242
#
#
# Mechanical properties :
#
#
# Convention : Reuss Voigt Hill
#
# Bulk Modulus (GPa) = 44.34108 52.14302 48.24205
# Shear Modulus (GPa) = 36.66842 44.27264 40.47053
#
# Velocity S-wave (km/s) = 3.86841 4.25064 4.06402
# Velocity P-wave (km/s) = 6.16836 6.73576 6.45829
#
# Compressibility (1/GPa) = 0.02255245
#
# Stress axis : x y z
#
# Youngs Moduli (GPa) = 115.37865 83.38737 104.25340
#
# Poissons Ratio (x) = 0.00183 0.14612
# Poissons Ratio (y) = 0.00254 0.25291
# Poissons Ratio (z) = 0.16171 0.20229
#
# Static dielectric constant tensor:
#      x y z
#    x 1.964990 0.000620 0.018320 
#    y 0.000620 2.000690 -0.055330 
#    z 0.018320 -0.055330 2.025170 
# 
# From -- ./inp_files/356526.got.cif
#   From: 2010.05.17/outbox.cif.g08.bks.cpg/sg2_179_cif.got.tgz:356526.got - 2010.06.03 11:33:40.
