data_PCOD9106837
_publ_section_title
;
Structure prediction by ZEFSAII (Michael W. Deem and Ramdas Pophale) SiO2 
 PCOD9106837
Probable space group: P -1
;
_chemical_formula_sum "Si O2"
_cell_formula_units_Z 16
_cell_length_a 8.118871
_cell_length_b 12.795780
_cell_length_c 19.902773
_cell_angle_alpha 38.753806
_cell_angle_beta 40.886393
_cell_angle_gamma 71.197066
_cell_volume 642.174350
_symmetry_space_group_name_H-M "P -1"
_symmetry_group_IT_number 2
_symmetry_cell_setting 'triclinic'
loop_
_space_group_symop_operation_xyz
x,y,z
-x,-y,-z
loop_
_atom_site_type_symbol
_atom_site_label
_atom_site_fract_x
_atom_site_fract_y
_atom_site_fract_z
Si Si1 0.296536 0.727001 0.089937
Si Si2 0.947536 0.502284 0.435703
Si Si3 0.715311 0.897529 0.559532
Si Si4 0.028102 0.841767 0.920269
Si Si5 0.298956 0.026258 0.616284
Si Si6 0.775077 0.738332 0.185921
Si Si7 0.698060 0.052455 0.688302
Si Si8 0.306490 0.434872 0.958964
O O1 0.417802 0.590549 0.109720
O O2 0.210528 0.714357 0.201516
O O3 0.970912 0.655757 0.187950
O O4 0.587525 0.951149 0.848511
O O5 0.573205 0.411603 0.594296
O O6 0.912778 0.309862 0.505042
O O7 0.000000 0.500000 0.500000
O O8 0.604677 0.039520 0.534958
O O9 0.491054 0.687035 0.782481
O O10 0.088904 0.991595 0.395898
O O11 0.625654 0.825807 0.543583
O O12 0.136085 0.020480 0.738813
O O13 0.359691 0.944016 0.807309
O O14 0.748804 0.747833 0.109024
O O15 0.871451 0.635718 0.023668
O O16 0.011962 0.777313 0.797941
O O17 0.000000 0.000000 0.000000
#
# Coordination Sequence:
#
# PCOD9106837 Si02
#       8
#     2   2   2   2   2   2   2   2
#     4  11  22  42  63  88 124 163 200 254 308 355
#     4  12  25  42  64  93 118 167 211 250 307 369
#     4  11  20  39  68  91 120 162 209 246 309 364
#     4   9  21  41  60  88 130 158 200 258 306 352
#     4   9  22  39  65  92 122 160 203 254 306 366
#     4  11  22  43  64  87 127 163 202 254 305 359
#     4  11  22  42  62  88 129 159 201 261 303 361
#     4  10  20  40  61  91 120 163 199 252 298 371
#
# _framework density 24.915351000000001
#
# number of rings (size 3 to 8) (size 9 to 14) (size 15 to 20)
#    0.750    0.750    5.000    1.500    0.000    1.000 
#    9.000    0.000    0.000    4.500    0.000    0.000 
#    0.000    0.000    0.000    0.000    0.000    0.000 
#
# Total GULP energy -89114.011405 kJ/mol
# GULP energy per Si atom -5569.625713 kJ/mol
# Density = 2.485864 g / cm^3
# Si number density = 24.915351 Si / 1000 Ang^3
#
#
#
# Elastic Constant Matrix: (Units=GPa)
#
#
# Indices 1 2 3 4 5 6 
#
# 1 97.7777 26.1390 7.6149 -7.9872 0.7648 -7.6327
# 2 26.1390 41.1827 25.1956 14.6008 -9.7601 -1.4043
# 3 7.6149 25.1956 110.2237 10.5821 17.5661 -0.8837
# 4 -7.9872 14.6008 10.5821 31.5485 3.9842 -3.6782
# 5 0.7648 -9.7601 17.5661 3.9842 30.6445 13.5784
# 6 -7.6327 -1.4043 -0.8837 -3.6782 13.5784 35.1944
#
#
#
# Elastic Compliance Matrix: (Units=1/GPa)
#
#
# Indices 1 2 3 4 5 6 
#
# 1 0.021152 -0.031141 0.007548 0.022097 -0.024407 0.015260
# 2 -0.031141 0.094288 -0.025229 -0.055881 0.068426 -0.035865
# 3 0.007548 -0.025229 0.017214 0.012373 -0.025021 0.012009
# 4 0.022097 -0.055881 0.012373 0.068171 -0.046722 0.028024
# 5 -0.024407 0.068426 -0.025021 -0.046722 0.095325 -0.044852
# 6 0.015260 -0.035865 0.012009 0.028024 -0.044852 0.050827
#
#
# Mechanical properties :
#
#
# Convention : Reuss Voigt Hill
#
# Bulk Modulus (GPa) = 28.56396 40.78701 34.67548
# Shear Modulus (GPa) = 10.95793 32.15979 21.55886
#
# Velocity S-wave (km/s) = 2.09943 3.59662 2.94476
# Velocity P-wave (km/s) = 4.16727 5.80115 5.05071
#
# Compressibility (1/GPa) = 0.03500915
#
# Stress axis : x y z
#
# Youngs Moduli (GPa) = 47.27792 10.60580 58.09252
#
# Poissons Ratio (x) = 0.33027 -0.43847
# Poissons Ratio (y) = 1.47227 1.46562
# Poissons Ratio (z) = -0.35684 0.26757
#
# Static dielectric constant tensor:
#      x y z
#    x 2.022790 -0.001910 -0.005310 
#    y -0.001910 2.033150 0.009590 
#    z -0.005310 0.009590 2.031520 
# 
# From -- ./inp_files/590056.got.cif
#   From: 2010.05.17/outbox.cif.g08.bks.cpg/sg2_296_cif.got.tgz:590056.got - 2010.06.03 11:33:40.
