data_PCOD9106775
_publ_section_title
;
Structure prediction by ZEFSAII (Michael W. Deem and Ramdas Pophale) SiO2 
 PCOD9106775
Probable space group: P -1
;
_chemical_formula_sum "Si O2"
_cell_formula_units_Z 14
_cell_length_a 9.683031
_cell_length_b 16.638006
_cell_length_c 8.618774
_cell_angle_alpha 129.844444
_cell_angle_beta 134.828154
_cell_angle_gamma 42.006038
_cell_volume 638.742073
_symmetry_space_group_name_H-M "P -1"
_symmetry_group_IT_number 2
_symmetry_cell_setting 'triclinic'
loop_
_space_group_symop_operation_xyz
x,y,z
-x,-y,-z
loop_
_atom_site_type_symbol
_atom_site_label
_atom_site_fract_x
_atom_site_fract_y
_atom_site_fract_z
Si Si1 0.809327 0.304784 0.474224
Si Si2 0.115580 0.255191 0.378665
Si Si3 0.791532 0.487203 0.264494
Si Si4 0.411928 0.505661 0.199352
Si Si5 0.394981 0.878862 0.369531
Si Si6 0.080197 0.968048 0.699874
Si Si7 0.394987 0.982819 0.183841
O O1 0.574560 0.387378 0.290109
O O2 0.762384 0.380824 0.689312
O O3 0.871118 0.166584 0.382983
O O4 0.003110 0.302492 0.516242
O O5 0.363692 0.241446 0.532920
O O6 0.923752 0.337431 0.202460
O O7 0.188149 0.113932 0.249696
O O8 0.579697 0.537950 0.278797
O O9 0.000000 0.500000 0.500000
O O10 0.710109 0.523100 0.069558
O O11 0.432512 0.885691 0.224731
O O12 0.403888 0.989157 0.605343
O O13 0.137694 0.917744 0.241739
O O14 0.311302 0.962604 0.929924
O O15 0.000000 0.000000 0.500000
#
# Coordination Sequence:
#
# PCOD9106775 Si02
#       7
#     2   2   2   2   2   2   2
#     4  10  20  40  61  86 117 157 195 241 291 338
#     4   9  19  38  63  83 117 156 188 241 289 342
#     4  10  21  40  63  90 110 152 199 238 294 351
#     4   9  22  42  62  83 121 152 192 248 292 332
#     4   9  19  39  56  83 115 154 193 231 283 349
#     4  12  24  34  58  92 121 154 195 235 291 350
#     4   9  19  38  58  81 116 156 195 227 283 353
#
# _framework density 21.918081000000001
#
# number of rings (size 3 to 8) (size 9 to 14) (size 15 to 20)
#    0.857    1.429    1.429    0.429    2.000    2.857 
#    2.571   10.714    0.000    0.000    0.000    0.000 
#    0.000    0.000    0.000    0.000    0.000    0.000 
#
# Total GULP energy -77940.409864 kJ/mol
# GULP energy per Si atom -5567.172133 kJ/mol
# Density = 2.186819 g / cm^3
# Si number density = 21.918081 Si / 1000 Ang^3
#
#
#
# Elastic Constant Matrix: (Units=GPa)
#
#
# Indices 1 2 3 4 5 6 
#
# 1 39.2374 20.3330 31.8585 0.3792 0.4405 -7.1476
# 2 20.3330 53.0148 6.1880 -5.5235 -7.5932 -12.4026
# 3 31.8585 6.1880 134.8825 -12.8199 -1.0946 8.3532
# 4 0.3792 -5.5235 -12.8199 21.1218 1.9300 -5.0302
# 5 0.4405 -7.5932 -1.0946 1.9300 27.1648 -5.8185
# 6 -7.1476 -12.4026 8.3532 -5.0302 -5.8185 26.4858
#
#
#
# Elastic Compliance Matrix: (Units=1/GPa)
#
#
# Indices 1 2 3 4 5 6 
#
# 1 0.043564 -0.015845 -0.010853 -0.009968 -0.003786 0.005035
# 2 -0.015845 0.030787 0.002720 0.012321 0.011109 0.014063
# 3 -0.010853 0.002720 0.010704 0.006495 0.000097 -0.003776
# 4 -0.009968 0.012321 0.006495 0.057435 0.002460 0.012479
# 5 -0.003786 0.011109 0.000097 0.002460 0.042812 0.014022
# 6 0.005035 0.014063 -0.003776 0.012479 0.014022 0.052342
#
#
# Mechanical properties :
#
#
# Convention : Reuss Voigt Hill
#
# Bulk Modulus (GPa) = 26.95295 38.21041 32.58168
# Shear Modulus (GPa) = 16.78050 26.20483 21.49266
#
# Velocity S-wave (km/s) = 2.76995 3.46147 3.13484
# Velocity P-wave (km/s) = 4.74910 5.78332 5.29154
#
# Compressibility (1/GPa) = 0.03710169
#
# Stress axis : x y z
#
# Youngs Moduli (GPa) = 22.95456 32.48130 93.41982
#
# Poissons Ratio (x) = 0.51465 1.01385
# Poissons Ratio (y) = 0.36370 -0.25412
# Poissons Ratio (z) = 0.24912 -0.08836
#
# Static dielectric constant tensor:
#      x y z
#    x 1.813970 0.039570 0.028820 
#    y 0.039570 1.875850 0.019680 
#    z 0.028820 0.019680 1.811640 
# 
# From -- ./inp_files/275849.got.cif
#   From: 2010.05.17/outbox.cif.g08.bks.cpg/sg2_138_cif.got.tgz:275849.got - 2010.06.03 11:33:40.
