data_PCOD9106695
_publ_section_title
;
Structure prediction by ZEFSAII (Michael W. Deem and Ramdas Pophale) SiO2 
 PCOD9106695
Probable space group: P -1
;
_chemical_formula_sum "Si O2"
_cell_formula_units_Z 14
_cell_length_a 9.029223
_cell_length_b 9.546521
_cell_length_c 9.143007
_cell_angle_alpha 105.622957
_cell_angle_beta 112.951382
_cell_angle_gamma 46.237677
_cell_volume 524.123268
_symmetry_space_group_name_H-M "P -1"
_symmetry_group_IT_number 2
_symmetry_cell_setting 'triclinic'
loop_
_space_group_symop_operation_xyz
x,y,z
-x,-y,-z
loop_
_atom_site_type_symbol
_atom_site_label
_atom_site_fract_x
_atom_site_fract_y
_atom_site_fract_z
Si Si1 0.502838 0.678760 0.386533
Si Si2 0.749790 0.108615 0.395571
Si Si3 0.855988 0.950258 0.798551
Si Si4 0.925487 0.593082 0.162470
Si Si5 0.287385 0.577044 0.863983
Si Si6 0.192880 0.233055 0.536918
Si Si7 0.698898 0.990110 0.065708
O O1 0.433251 0.696553 0.530830
O O2 0.652230 0.479657 0.299695
O O3 0.624902 0.758652 0.425602
O O4 0.267142 0.845730 0.269734
O O5 0.716032 0.963469 0.400780
O O6 0.688816 0.132957 0.209156
O O7 0.000000 0.000000 0.500000
O O8 0.103787 0.803613 0.893509
O O9 0.870210 0.803196 0.651387
O O10 0.730967 0.993650 0.909396
O O11 0.771616 0.547434 0.127485
O O12 0.976978 0.597819 0.361429
O O13 0.884951 0.782907 0.151161
O O14 0.000000 0.500000 0.000000
O O15 0.500000 0.500000 0.000000
O O16 0.500000 0.000000 0.000000
#
# Coordination Sequence:
#
# PCOD9106695 Si02
#       7
#     2   2   2   2   2   2   2
#     4  10  22  43  66  88 128 166 211 256 313 389
#     4  10  21  37  62  91 126 163 202 263 324 359
#     4  11  21  40  68  92 121 166 212 260 307 379
#     4  10  20  40  60  87 122 161 201 264 308 366
#     4  11  25  40  62  93 128 169 210 255 319 372
#     4   9  20  40  63  89 123 162 212 251 315 384
#     4  11  21  38  65  93 122 163 217 259 315 381
#
# _framework density 26.711272000000001
#
# number of rings (size 3 to 8) (size 9 to 14) (size 15 to 20)
#    0.000    1.714    1.429    5.143    2.000    2.857 
#   10.286    0.000    0.000    4.286    0.000    0.000 
#    0.000    0.000    0.000    0.000    0.000    0.000 
#
# Total GULP energy -78030.464531 kJ/mol
# GULP energy per Si atom -5573.604609 kJ/mol
# Density = 2.665048 g / cm^3
# Si number density = 26.711272 Si / 1000 Ang^3
#
#
#
# Elastic Constant Matrix: (Units=GPa)
#
#
# Indices 1 2 3 4 5 6 
#
# 1 120.6748 12.1951 63.1059 18.7057 -25.2970 -2.7187
# 2 12.1951 83.3869 8.9663 31.0863 -9.9714 -9.4152
# 3 63.1059 8.9663 215.4773 43.9261 -42.0150 -23.8979
# 4 18.7057 31.0863 43.9261 49.8809 -18.0056 -7.4484
# 5 -25.2970 -9.9714 -42.0150 -18.0056 58.6882 10.7051
# 6 -2.7187 -9.4152 -23.8979 -7.4484 10.7051 44.1516
#
#
#
# Elastic Compliance Matrix: (Units=1/GPa)
#
#
# Indices 1 2 3 4 5 6 
#
# 1 0.010299 -0.001008 -0.002595 -0.000245 0.002639 -0.001666
# 2 -0.001008 0.016481 0.002244 -0.011477 -0.000050 0.002743
# 3 -0.002595 0.002244 0.007167 -0.005536 0.002197 0.002731
# 4 -0.000245 -0.011477 -0.005536 0.033649 0.004462 -0.000864
# 5 0.002639 -0.000050 0.002197 0.004462 0.021688 -0.003164
# 6 -0.001666 0.002743 0.002731 -0.000864 -0.003164 0.025231
#
#
# Mechanical properties :
#
#
# Convention : Reuss Voigt Hill
#
# Bulk Modulus (GPa) = 32.02173 65.34152 48.68163
# Shear Modulus (GPa) = 39.17156 52.89557 46.03356
#
# Velocity S-wave (km/s) = 3.83362 4.45485 4.15586
# Velocity P-wave (km/s) = 5.62225 7.13976 6.42596
#
# Compressibility (1/GPa) = 0.03122879
#
# Stress axis : x y z
#
# Youngs Moduli (GPa) = 97.09525 60.67642 139.52374
#
# Poissons Ratio (x) = 0.06119 0.36200
# Poissons Ratio (y) = 0.09791 -0.31305
# Poissons Ratio (z) = 0.25192 -0.13614
#
# Static dielectric constant tensor:
#      x y z
#    x 3.698880 -0.241290 -1.462720 
#    y -0.241290 2.229250 0.219170 
#    z -1.462720 0.219170 3.609640 
# 
# From -- ./inp_files/181765.got.cif
#   From: 2010.05.17/outbox.cif.g08.bks.cpg/sg2_91_cif.got.tgz:181765.got - 2010.06.03 11:33:40.
