data_PCOD9106679
_publ_section_title
;
Structure prediction by ZEFSAII (Michael W. Deem and Ramdas Pophale) SiO2 
 PCOD9106679
Probable space group: P -1
;
_chemical_formula_sum "Si O2"
_cell_formula_units_Z 15
_cell_length_a 12.693038
_cell_length_b 14.803679
_cell_length_c 7.746631
_cell_angle_alpha 104.531968
_cell_angle_beta 109.632658
_cell_angle_gamma 134.691372
_cell_volume 668.562735
_symmetry_space_group_name_H-M "P -1"
_symmetry_group_IT_number 2
_symmetry_cell_setting 'triclinic'
loop_
_space_group_symop_operation_xyz
x,y,z
-x,-y,-z
loop_
_atom_site_type_symbol
_atom_site_label
_atom_site_fract_x
_atom_site_fract_y
_atom_site_fract_z
Si Si1 0.383935 0.685355 0.251449
Si Si2 0.754039 0.809196 0.580654
Si Si3 0.978415 0.666671 0.324290
Si Si4 0.000000 0.500000 0.500000
Si Si5 0.392107 0.479654 0.775867
Si Si6 0.521087 0.158721 0.241512
Si Si7 0.523757 0.968541 0.312850
Si Si8 0.758660 0.878022 0.012223
O O1 0.588618 0.761783 0.371822
O O2 0.412641 0.748314 0.489846
O O3 0.387092 0.775292 0.165724
O O4 0.159728 0.467244 0.984855
O O5 0.658916 0.636039 0.448704
O O6 0.767182 0.855981 0.804619
O O7 0.999168 0.975146 0.714865
O O8 0.829417 0.633126 0.327084
O O9 0.008044 0.599413 0.431091
O O10 0.221293 0.874449 0.502571
O O11 0.263174 0.670422 0.672935
O O12 0.563363 0.679354 0.897931
O O13 0.500000 0.500000 0.000000
O O14 0.459978 0.005965 0.165717
O O15 0.314950 0.067118 0.005074
O O16 0.500000 0.000000 0.500000
#
# Coordination Sequence:
#
# PCOD9106679 Si02
#       8
#     2   2   2   1   2   2   2   2
#     4  10  21  40  65  90 121 165 205 252 308 368
#     4  10  23  41  66  91 125 167 209 253 310 372
#     4  11  23  41  63  90 126 161 206 254 311 368
#     4  10  20  40  60  84 124 158 196 262 302 358
#     4  12  24  40  63  95 126 164 207 258 314 370
#     4   9  19  40  63  89 122 159 207 254 309 368
#     4   9  21  39  61  89 118 154 210 251 295 365
#     4  10  22  43  64  91 127 165 207 258 309 372
#
# _framework density 22.43619
#
# number of rings (size 3 to 8) (size 9 to 14) (size 15 to 20)
#    0.000    1.867    2.667    0.400    1.867    6.400 
#    2.400    1.333    0.000    0.000    0.000    0.000 
#    0.000    0.000    0.000    0.000    0.000    0.000 
#
# Total GULP energy -83589.913541 kJ/mol
# GULP energy per Si atom -5572.660903 kJ/mol
# Density = 2.238512 g / cm^3
# Si number density = 22.436190 Si / 1000 Ang^3
#
#
#
# Elastic Constant Matrix: (Units=GPa)
#
#
# Indices 1 2 3 4 5 6 
#
# 1 48.8652 27.0761 60.0834 -35.6998 18.9019 10.1194
# 2 27.0761 63.4735 -7.8346 13.6594 1.3414 9.9999
# 3 60.0834 -7.8346 15.0928 11.3527 -2.0355 -1.9779
# 4 -35.6998 13.6594 11.3527 5.6668 -1.5334 6.5140
# 5 18.9019 1.3414 -2.0355 -1.5334 28.7330 6.8894
# 6 10.1194 9.9999 -1.9779 6.5140 6.8894 32.6506
#
#
#
# Elastic Compliance Matrix: (Units=1/GPa)
#
#
# Indices 1 2 3 4 5 6 
#
# 1 0.001390 0.002828 0.006297 -0.013725 -0.001864 0.002216
# 2 0.002828 0.014307 -0.006197 0.001883 -0.001502 -0.005692
# 3 0.006297 -0.006197 0.015638 0.028840 -0.000043 -0.004851
# 4 -0.013725 0.001883 0.028840 0.037267 0.014172 -0.005001
# 5 -0.001864 -0.001502 -0.000043 0.014172 0.039269 -0.010078
# 6 0.002216 -0.005692 -0.004851 -0.005001 -0.010078 0.034514
#
#
# Mechanical properties :
#
#
# Convention : Reuss Voigt Hill
#
# Bulk Modulus (GPa) = 26.88858 31.78682 29.33770
# Shear Modulus (GPa) = 33.57356 16.61720 25.09538
#
# Velocity S-wave (km/s) = 3.87253 2.72443 3.34806
# Velocity P-wave (km/s) = 5.65737 4.90867 5.29627
#
# Compressibility (1/GPa) = 0.03719051
#
# Stress axis : x y z
#
# Youngs Moduli (GPa) = 719.31467 69.89787 63.94586
#
# Poissons Ratio (x) = -0.19768 -0.40264
# Poissons Ratio (y) = -2.03428 0.39627
# Poissons Ratio (z) = -4.52927 0.43316
#
# Static dielectric constant tensor:
#      x y z
#    x 1.855490 0.002480 -0.033710 
#    y 0.002480 1.768480 -0.011420 
#    z -0.033710 -0.011420 1.876020 
# 
# From -- ./inp_files/40292.got.cif
#   From: 2010.05.17/outbox.cif.g08.bks.cpg/sg2_21_cif.got.tgz:40292.got - 2010.06.03 11:33:40.
