data_PCOD9106946
_publ_section_title
;
Structure prediction by ZEFSAII (Michael W. Deem and Ramdas Pophale) SiO2 
 PCOD9106946
Probable space group: P -1
;
_chemical_formula_sum "Si O2"
_cell_formula_units_Z 16
_cell_length_a 22.650160
_cell_length_b 5.032454
_cell_length_c 24.334742
_cell_angle_alpha 73.929826
_cell_angle_beta 167.593258
_cell_angle_gamma 106.056884
_cell_volume 572.405638
_symmetry_space_group_name_H-M "P -1"
_symmetry_group_IT_number 2
_symmetry_cell_setting 'triclinic'
loop_
_space_group_symop_operation_xyz
x,y,z
-x,-y,-z
loop_
_atom_site_type_symbol
_atom_site_label
_atom_site_fract_x
_atom_site_fract_y
_atom_site_fract_z
Si Si1 0.263259 0.729075 0.900177
Si Si2 0.932162 0.158118 0.628523
Si Si3 0.201894 0.763617 0.716787
Si Si4 0.723653 0.348889 0.324136
Si Si5 0.705588 0.761381 0.662388
Si Si6 0.936528 0.500291 0.092028
Si Si7 0.244795 0.960734 0.170402
Si Si8 0.600043 0.712793 0.412550
O O1 0.293892 0.826343 0.858673
O O2 0.190469 0.968358 0.861959
O O3 0.546131 0.583365 0.176454
O O4 0.035612 0.474169 0.712356
O O5 0.750744 0.001567 0.517852
O O6 0.766707 0.126090 0.422518
O O7 0.385846 0.718429 0.832554
O O8 0.025715 0.479966 0.580556
O O9 0.000000 0.000000 0.500000
O O10 0.500000 0.500000 0.500000
O O11 0.896605 0.688717 0.787973
O O12 0.494455 0.001630 0.439129
O O13 0.950692 0.811234 0.926946
O O14 0.160387 0.503010 0.344289
O O15 0.633860 0.377920 0.838934
O O16 0.859915 0.778977 0.974394
O O17 0.407712 0.763395 0.287676
#
# Coordination Sequence:
#
# PCOD9106946 Si02
#       8
#     2   2   2   2   2   2   2   2
#     4  11  25  41  64  93 123 164 210 263 338 387
#     4  11  26  42  61  95 124 162 219 273 321 398
#     4  10  20  40  62  88 125 160 205 259 322 407
#     4  10  23  40  62  89 126 161 207 263 327 397
#     4  10  21  37  60  96 131 166 215 268 319 389
#     4  10  22  41  64  91 126 172 217 266 328 390
#     4  10  21  39  62  89 128 171 216 264 325 388
#     4  10  24  41  63  90 125 167 221 269 326 391
#
# _framework density 27.952209
#
# number of rings (size 3 to 8) (size 9 to 14) (size 15 to 20)
#    0.000    1.750    1.250    1.500    5.250    2.500 
#    0.000    0.000    0.000    0.000    0.000    0.000 
#    0.000    0.000    0.000    0.000    0.000    0.000 
#
# Total GULP energy -89489.662835 kJ/mol
# GULP energy per Si atom -5593.103927 kJ/mol
# Density = 2.788859 g / cm^3
# Si number density = 27.952209 Si / 1000 Ang^3
#
#
#
# Elastic Constant Matrix: (Units=GPa)
#
#
# Indices 1 2 3 4 5 6 
#
# 1 67.8775 18.9769 41.6219 9.4134 -8.3694 8.8848
# 2 18.9769 117.9833 52.0871 -4.6805 -13.9670 14.5841
# 3 41.6219 52.0871 209.5962 -15.3111 -26.4970 9.6402
# 4 9.4134 -4.6805 -15.3111 56.4918 -2.3378 -0.2784
# 5 -8.3694 -13.9670 -26.4970 -2.3378 28.8790 1.3662
# 6 8.8848 14.5841 9.6402 -0.2784 1.3662 42.8410
#
#
#
# Elastic Compliance Matrix: (Units=1/GPa)
#
#
# Indices 1 2 3 4 5 6 
#
# 1 0.018160 -0.001104 -0.003306 -0.003965 0.001503 -0.002720
# 2 -0.001104 0.010186 -0.001719 0.000681 0.003224 -0.002950
# 3 -0.003306 -0.001719 0.006612 0.002385 0.004486 -0.000345
# 4 -0.003965 0.000681 0.002385 0.019186 0.002917 0.000086
# 5 0.001503 0.003224 0.004486 0.002917 0.041150 -0.003712
# 6 -0.002720 -0.002950 -0.000345 0.000086 -0.003712 0.025107
#
#
# Mechanical properties :
#
#
# Convention : Reuss Voigt Hill
#
# Bulk Modulus (GPa) = 44.05662 68.98096 56.51879
# Shear Modulus (GPa) = 35.65677 44.49375 40.07526
#
# Velocity S-wave (km/s) = 3.57548 3.99404 3.79054
# Velocity P-wave (km/s) = 5.73071 6.78244 6.27864
#
# Compressibility (1/GPa) = 0.02269806
#
# Stress axis : x y z
#
# Youngs Moduli (GPa) = 55.06687 98.17809 151.23908
#
# Poissons Ratio (x) = 0.10843 0.50004
# Poissons Ratio (y) = 0.06082 0.25998
# Poissons Ratio (z) = 0.18207 0.16877
#
# Static dielectric constant tensor:
#      x y z
#    x 2.331920 -0.074680 -0.111120 
#    y -0.074680 2.226740 0.085480 
#    z -0.111120 0.085480 2.215680 
# 
# From -- ./inp_files/12324.got.cif
#   From: 2010.05.17/outbox.cif.g08.bks.cpg/sg2_7_cif.got.tgz:12324.got - 2010.06.03 11:33:40.
