data_PCOD9106497
_publ_section_title
;
Structure prediction by ZEFSAII (Michael W. Deem and Ramdas Pophale) SiO2 
 PCOD9106497
Probable space group: P -1
;
_chemical_formula_sum "Si O2"
_cell_formula_units_Z 16
_cell_length_a 22.266137
_cell_length_b 9.317799
_cell_length_c 13.845075
_cell_angle_alpha 130.451366
_cell_angle_beta 148.466220
_cell_angle_gamma 29.819078
_cell_volume 700.154609
_symmetry_space_group_name_H-M "P -1"
_symmetry_group_IT_number 2
_symmetry_cell_setting 'triclinic'
loop_
_space_group_symop_operation_xyz
x,y,z
-x,-y,-z
loop_
_atom_site_type_symbol
_atom_site_label
_atom_site_fract_x
_atom_site_fract_y
_atom_site_fract_z
Si Si1 0.669918 0.754618 0.701367
Si Si2 0.147352 0.629183 0.392898
Si Si3 0.495278 0.288404 0.370661
Si Si4 0.898786 0.315924 0.349249
Si Si5 0.769895 0.566878 0.071902
Si Si6 0.484594 0.754876 0.994756
Si Si7 0.079416 0.400316 0.351437
Si Si8 0.553596 0.259257 0.846636
O O1 0.829685 0.449829 0.723340
O O2 0.594044 0.724966 0.672072
O O3 0.500000 0.000000 0.500000
O O4 0.701475 0.928411 0.855007
O O5 0.084498 0.528918 0.322340
O O6 0.350849 0.428931 0.624505
O O7 0.011632 0.980413 0.378496
O O8 0.500000 0.500000 0.500000
O O9 0.710206 0.949281 0.499218
O O10 0.366518 0.407622 0.153602
O O11 0.875662 0.366404 0.225305
O O12 0.689483 0.570837 0.214653
O O13 0.979877 0.391774 0.547853
O O14 0.927001 0.433178 0.153434
O O15 0.640398 0.915714 0.073587
O O16 0.399970 0.803950 0.003494
O O17 0.525741 0.510742 0.885522
#
# Coordination Sequence:
#
# PCOD9106497 Si02
#       8
#     2   2   2   2   2   2   2   2
#     4  10  20  45  70 101 138 186 236 284 349 415
#     4  11  23  42  70 102 143 183 237 294 344 420
#     4  12  27  50  76  99 146 192 231 293 354 425
#     4  12  25  44  70 107 144 184 236 295 355 418
#     4  12  27  47  70 106 145 185 235 291 354 429
#     4  11  22  40  71 100 137 183 232 288 357 406
#     4  12  25  48  73 105 141 187 237 296 354 411
#     4  10  20  39  71 101 132 184 231 287 348 414
#
# _framework density 22.852094999999998
#
# number of rings (size 3 to 8) (size 9 to 14) (size 15 to 20)
#    0.000    0.750    6.250    1.875    5.250    2.500 
#    0.000    1.250    0.000    0.000    0.000    0.000 
#    0.000    0.000    0.000    0.000    0.000    0.000 
#
# Total GULP energy -89484.591877 kJ/mol
# GULP energy per Si atom -5592.786992 kJ/mol
# Density = 2.280008 g / cm^3
# Si number density = 22.852095 Si / 1000 Ang^3
#
#
#
# Elastic Constant Matrix: (Units=GPa)
#
#
# Indices 1 2 3 4 5 6 
#
# 1 42.0231 14.5175 14.9757 3.5724 -4.5872 -2.5806
# 2 14.5175 105.1695 27.7909 20.8003 11.4206 -12.8757
# 3 14.9757 27.7909 77.5825 8.3513 19.9203 -4.0966
# 4 3.5724 20.8003 8.3513 37.7986 -1.3974 4.0574
# 5 -4.5872 11.4206 19.9203 -1.3974 25.5208 -2.3410
# 6 -2.5806 -12.8757 -4.0966 4.0574 -2.3410 22.8737
#
#
#
# Elastic Compliance Matrix: (Units=1/GPa)
#
#
# Indices 1 2 3 4 5 6 
#
# 1 0.029177 -0.003508 -0.007816 0.001273 0.013079 0.001030
# 2 -0.003508 0.013445 -0.001581 -0.007738 -0.005127 0.007737
# 3 -0.007816 -0.001581 0.019475 -0.003359 -0.016021 0.000672
# 4 0.001273 -0.007738 -0.003359 0.032661 0.007196 -0.009871
# 5 0.013079 -0.005127 -0.016021 0.007196 0.056751 0.000252
# 6 0.001030 0.007737 0.000672 -0.009871 0.000252 0.050087
#
#
# Mechanical properties :
#
#
# Convention : Reuss Voigt Hill
#
# Bulk Modulus (GPa) = 27.55878 37.70482 32.63180
# Shear Modulus (GPa) = 20.87665 28.40470 24.64067
#
# Velocity S-wave (km/s) = 3.02579 3.52942 3.28726
# Velocity P-wave (km/s) = 4.92879 5.75711 5.35898
#
# Compressibility (1/GPa) = 0.03628608
#
# Stress axis : x y z
#
# Youngs Moduli (GPa) = 34.27413 74.37794 51.34727
#
# Poissons Ratio (x) = 0.26092 0.40134
# Poissons Ratio (y) = 0.12023 0.08118
# Poissons Ratio (z) = 0.26789 0.11760
#
# Static dielectric constant tensor:
#      x y z
#    x 1.878020 -0.016770 -0.000810 
#    y -0.016770 1.873930 0.028410 
#    z -0.000810 0.028410 1.880140 
# 
# From -- ./inp_files/542685.got.cif
#   From: 2010.05.17/outbox.cif.g08.bks.cpg/sg2_272_cif.got.tgz:542685.got - 2010.06.03 11:33:40.
