data_PCOD9106113
_publ_section_title
;
Structure prediction by ZEFSAII (Michael W. Deem and Ramdas Pophale) SiO2 
 PCOD9106113
Probable space group: P -1
;
_chemical_formula_sum "Si O2"
_cell_formula_units_Z 15
_cell_length_a 8.803077
_cell_length_b 11.207232
_cell_length_c 6.607531
_cell_angle_alpha 86.636224
_cell_angle_beta 71.018233
_cell_angle_gamma 86.941490
_cell_volume 614.970718
_symmetry_space_group_name_H-M "P -1"
_symmetry_group_IT_number 2
_symmetry_cell_setting 'triclinic'
loop_
_space_group_symop_operation_xyz
x,y,z
-x,-y,-z
loop_
_atom_site_type_symbol
_atom_site_label
_atom_site_fract_x
_atom_site_fract_y
_atom_site_fract_z
Si Si1 0.204631 0.828613 0.134158
Si Si2 0.000000 0.500000 0.000000
Si Si3 0.985585 0.791136 0.924363
Si Si4 0.632710 0.956482 0.727418
Si Si5 0.469872 0.649980 0.173424
Si Si6 0.744997 0.548538 0.759945
Si Si7 0.885270 0.782334 0.512877
Si Si8 0.365642 0.136555 0.821900
O O1 0.340243 0.724868 0.088044
O O2 0.141364 0.855699 0.933910
O O3 0.041448 0.784513 0.308988
O O4 0.265110 0.937364 0.230577
O O5 0.891467 0.494308 0.835595
O O6 0.996583 0.352199 0.043123
O O7 0.823717 0.839901 0.100958
O O8 0.953306 0.815475 0.701524
O O9 0.738332 0.878853 0.532671
O O10 0.464780 0.017785 0.724722
O O11 0.603932 0.873065 0.942930
O O12 0.360440 0.544170 0.311118
O O13 0.542888 0.743453 0.289494
O O14 0.618244 0.599270 0.979972
O O15 0.809834 0.653046 0.581690
#
# Coordination Sequence:
#
# PCOD9106113 Si02
#       8
#     2   1   2   2   2   2   2   2
#     4  11  22  34  62  84 114 146 196 226 285 332
#     4  10  16  34  56  84 110 144 182 236 268 338
#     4  10  20  37  56  85 113 151 183 235 282 336
#     4   9  18  35  57  83 110 154 185 235 274 338
#     4  10  18  33  56  85 106 155 185 227 278 343
#     4  10  19  33  60  80 116 147 190 227 285 332
#     4  10  21  38  57  85 116 148 184 239 279 332
#     4   9  17  33  58  79 113 148 191 224 286 327
#
# _framework density 24.391407000000001
#
# number of rings (size 3 to 8) (size 9 to 14) (size 15 to 20)
#    0.000    2.133    5.333    0.400    0.000    2.667 
#    0.000    0.667    5.867    4.000    0.000    0.000 
#    0.000    0.000    0.000    0.000    0.000    0.000 
#
# Total GULP energy -83530.103434 kJ/mol
# GULP energy per Si atom -5568.673562 kJ/mol
# Density = 2.433589 g / cm^3
# Si number density = 24.391407 Si / 1000 Ang^3
#
#
#
# Elastic Constant Matrix: (Units=GPa)
#
#
# Indices 1 2 3 4 5 6 
#
# 1 106.8544 19.7965 0.2999 -5.9366 -13.8362 -11.0129
# 2 19.7965 73.7803 -6.5504 -2.4214 -8.3443 -3.2373
# 3 0.2999 -6.5504 45.6647 6.5833 -8.1448 4.6174
# 4 -5.9366 -2.4214 6.5833 24.0224 6.1946 -12.8467
# 5 -13.8362 -8.3443 -8.1448 6.1946 20.3197 -4.8975
# 6 -11.0129 -3.2373 4.6174 -12.8467 -4.8975 47.5487
#
#
#
# Elastic Compliance Matrix: (Units=1/GPa)
#
#
# Indices 1 2 3 4 5 6 
#
# 1 0.011179 -0.001944 0.000069 0.002870 0.006916 0.003938
# 2 -0.001944 0.015149 0.003559 -0.001402 0.006888 0.000566
# 3 0.000069 0.003559 0.027621 -0.013634 0.015653 -0.004495
# 4 0.002870 -0.001402 -0.013634 0.059206 -0.018278 0.016007
# 5 0.006916 0.006888 0.015653 -0.018278 0.069259 0.002746
# 6 0.003938 0.000566 -0.004495 0.016007 0.002746 0.027026
#
#
# Mechanical properties :
#
#
# Convention : Reuss Voigt Hill
#
# Bulk Modulus (GPa) = 17.44661 28.15460 22.80061
# Shear Modulus (GPa) = 22.20470 32.56173 27.38321
#
# Velocity S-wave (km/s) = 3.02047 3.65768 3.35424
# Velocity P-wave (km/s) = 4.39689 5.42274 4.93653
#
# Compressibility (1/GPa) = 0.05731771
#
# Stress axis : x y z
#
# Youngs Moduli (GPa) = 89.45035 66.00995 36.20451
#
# Poissons Ratio (x) = 0.12835 -0.00250
# Poissons Ratio (y) = 0.17392 -0.12886
# Poissons Ratio (z) = -0.00619 -0.23495
#
# Static dielectric constant tensor:
#      x y z
#    x 1.972680 0.028910 0.034650 
#    y 0.028910 1.984510 0.000550 
#    z 0.034650 0.000550 1.999840 
# 
# From -- ./inp_files/178686.got.cif
#   From: 2010.05.17/outbox.cif.g08.bks.cpg/sg2_90_cif.got.tgz:178686.got - 2010.06.03 11:33:40.
