data_PCOD9106359
_publ_section_title
;
Structure prediction by ZEFSAII (Michael W. Deem and Ramdas Pophale) SiO2 
 PCOD9106359
Probable space group: P -1
;
_chemical_formula_sum "Si O2"
_cell_formula_units_Z 16
_cell_length_a 29.313445
_cell_length_b 9.279970
_cell_length_c 13.489791
_cell_angle_alpha 134.128783
_cell_angle_beta 18.980693
_cell_angle_gamma 143.878295
_cell_volume 658.448050
_symmetry_space_group_name_H-M "P -1"
_symmetry_group_IT_number 2
_symmetry_cell_setting 'triclinic'
loop_
_space_group_symop_operation_xyz
x,y,z
-x,-y,-z
loop_
_atom_site_type_symbol
_atom_site_label
_atom_site_fract_x
_atom_site_fract_y
_atom_site_fract_z
Si Si1 0.746150 0.335333 0.112522
Si Si2 0.135414 0.145692 0.884535
Si Si3 0.561177 0.127073 0.599185
Si Si4 0.702018 0.268285 0.784813
Si Si5 0.006519 0.832449 0.489151
Si Si6 0.286537 0.890175 0.517164
Si Si7 0.283108 0.242422 0.258536
Si Si8 0.375334 0.262480 0.283770
O O1 0.871891 0.632809 0.957891
O O2 0.570896 0.161868 0.317397
O O3 0.685723 0.304927 0.336225
O O4 0.848535 0.215432 0.846990
O O5 0.328957 0.313479 0.508316
O O6 0.156050 0.966063 0.822530
O O7 0.000000 0.000000 0.000000
O O8 0.674529 0.161313 0.478568
O O9 0.416111 0.168555 0.944761
O O10 0.779057 0.316180 0.536651
O O11 0.818978 0.536914 0.732894
O O12 0.700319 0.033203 0.708667
O O13 0.490099 0.127057 0.169304
O O14 0.089139 0.019057 0.504270
O O15 0.000000 0.000000 0.500000
O O16 0.274002 0.283695 0.412323
O O17 0.409780 0.517910 0.073285
#
# Coordination Sequence:
#
# PCOD9106359 Si02
#       8
#     2   2   2   2   2   2   2   2
#     4  10  22  42  64  87 132 166 211 261 325 382
#     4  11  23  42  61  93 131 169 207 266 324 379
#     4  10  20  40  66  95 122 172 213 262 313 384
#     4  10  22  39  64  95 130 166 213 268 315 377
#     4  11  26  42  62  93 133 165 211 273 329 371
#     4  10  22  39  68  93 127 169 221 259 316 388
#     4  10  21  39  66  96 126 168 220 263 312 387
#     4  10  20  39  69  92 124 172 219 254 316 383
#
# _framework density 24.299562000000002
#
# number of rings (size 3 to 8) (size 9 to 14) (size 15 to 20)
#    0.000    1.750    2.500    1.500    5.250    1.000 
#    4.500    1.250    0.000    0.000    0.000    0.000 
#    0.000    0.000    0.000    0.000    0.000    0.000 
#
# Total GULP energy -89266.765516 kJ/mol
# GULP energy per Si atom -5579.172845 kJ/mol
# Density = 2.424425 g / cm^3
# Si number density = 24.299562 Si / 1000 Ang^3
#
#
#
# Elastic Constant Matrix: (Units=GPa)
#
#
# Indices 1 2 3 4 5 6 
#
# 1 98.8467 29.0806 11.8197 3.0614 -14.5651 0.4202
# 2 29.0806 123.7193 8.8234 -3.8529 -26.4940 -1.7251
# 3 11.8197 8.8234 45.7833 9.8747 -11.2340 -2.8912
# 4 3.0614 -3.8529 9.8747 38.4264 2.1900 -16.3923
# 5 -14.5651 -26.4940 -11.2340 2.1900 38.3664 3.1293
# 6 0.4202 -1.7251 -2.8912 -16.3923 3.1293 40.3503
#
#
#
# Elastic Compliance Matrix: (Units=1/GPa)
#
#
# Indices 1 2 3 4 5 6 
#
# 1 0.011343 -0.002053 -0.001702 -0.001260 0.002547 -0.001037
# 2 -0.002053 0.009878 -0.000115 0.001011 0.005919 0.000387
# 3 -0.001702 -0.000115 0.025651 -0.007672 0.007373 -0.001838
# 4 -0.001260 0.001011 -0.007672 0.034412 -0.005123 0.013884
# 5 0.002547 0.005919 0.007373 -0.005123 0.033892 -0.003955
# 6 -0.001037 0.000387 -0.001838 0.013884 -0.003955 0.030626
#
#
# Mechanical properties :
#
#
# Convention : Reuss Voigt Hill
#
# Bulk Modulus (GPa) = 25.55407 40.86629 33.21018
# Shear Modulus (GPa) = 30.01458 38.00367 34.00912
#
# Velocity S-wave (km/s) = 3.51834 3.95899 3.74515
# Velocity P-wave (km/s) = 5.20039 6.14429 5.69194
#
# Compressibility (1/GPa) = 0.03913271
#
# Stress axis : x y z
#
# Youngs Moduli (GPa) = 88.16128 101.23493 38.98429
#
# Poissons Ratio (x) = 0.20785 0.06633
# Poissons Ratio (y) = 0.18101 0.00448
# Poissons Ratio (z) = 0.15001 0.01164
#
# Static dielectric constant tensor:
#      x y z
#    x 2.019760 -0.024180 0.014310 
#    y -0.024180 2.066700 0.016140 
#    z 0.014310 0.016140 2.012820 
# 
# From -- ./inp_files/544841.got.cif
#   From: 2010.05.17/outbox.cif.g08.bks.cpg/sg2_273_cif.got.tgz:544841.got - 2010.06.03 11:33:40.
