data_PCOD9106690
_publ_section_title
;
Structure prediction by ZEFSAII (Michael W. Deem and Ramdas Pophale) SiO2 
 PCOD9106690
Probable space group: P -1
;
_chemical_formula_sum "Si O2"
_cell_formula_units_Z 16
_cell_length_a 7.681691
_cell_length_b 9.224155
_cell_length_c 15.810133
_cell_angle_alpha 122.193980
_cell_angle_beta 123.618591
_cell_angle_gamma 94.788062
_cell_volume 665.951386
_symmetry_space_group_name_H-M "P -1"
_symmetry_group_IT_number 2
_symmetry_cell_setting 'triclinic'
loop_
_space_group_symop_operation_xyz
x,y,z
-x,-y,-z
loop_
_atom_site_type_symbol
_atom_site_label
_atom_site_fract_x
_atom_site_fract_y
_atom_site_fract_z
Si Si1 0.740055 0.244011 0.043791
Si Si2 0.039715 0.627706 0.155851
Si Si3 0.408074 0.222733 0.678358
Si Si4 0.692376 0.539447 0.410437
Si Si5 0.037098 0.446822 0.355497
Si Si6 0.735879 0.156805 0.554170
Si Si7 0.295260 0.144941 0.120988
Si Si8 0.584527 0.601007 0.938415
O O1 0.547887 0.316261 0.014311
O O2 0.947411 0.395179 0.079891
O O3 0.873977 0.295486 0.188131
O O4 0.617513 0.012417 0.913462
O O5 0.313980 0.732057 0.225391
O O6 0.060916 0.727991 0.283466
O O7 0.840740 0.641465 0.053692
O O8 0.374494 0.315769 0.611221
O O9 0.405179 0.363342 0.793688
O O10 0.232046 0.981765 0.547453
O O11 0.837677 0.621251 0.562970
O O12 0.441231 0.315961 0.284474
O O13 0.863604 0.500184 0.380386
O O14 0.249075 0.658148 0.434473
O O15 0.500000 0.000000 0.500000
O O16 0.362510 0.276865 0.095939
O O17 0.000000 0.000000 0.000000
#
# Coordination Sequence:
#
# PCOD9106690 Si02
#       8
#     2   2   2   2   2   2   2   2
#     4  11  21  41  62  90 124 158 204 258 305 364
#     4  10  22  39  59  87 123 162 199 252 307 362
#     4  10  20  40  60  86 126 158 206 252 303 369
#     4  10  22  40  61  94 122 162 209 251 317 368
#     4  10  21  40  63  89 127 161 205 260 310 367
#     4   9  21  39  59  86 121 162 206 255 304 368
#     4  11  24  41  63  90 127 162 203 256 308 368
#     4  11  22  38  59  90 121 159 206 249 306 363
#
# _framework density 24.025776
#
# number of rings (size 3 to 8) (size 9 to 14) (size 15 to 20)
#    0.000    1.750    2.500    2.625    0.000    4.500 
#    2.250    8.750    0.000    0.000    0.000    0.000 
#    0.000    0.000    0.000    0.000    0.000    0.000 
#
# Total GULP energy -89432.957838 kJ/mol
# GULP energy per Si atom -5589.559865 kJ/mol
# Density = 2.397109 g / cm^3
# Si number density = 24.025776 Si / 1000 Ang^3
#
#
#
# Elastic Constant Matrix: (Units=GPa)
#
#
# Indices 1 2 3 4 5 6 
#
# 1 66.9784 -3.1064 -4.8363 -5.3434 10.0658 -7.9475
# 2 -3.1064 63.3330 47.6809 -8.3240 0.0413 -21.0881
# 3 -4.8363 47.6809 76.9050 -17.3071 -0.4814 -18.6776
# 4 -5.3434 -8.3240 -17.3071 38.6121 -6.3431 1.0771
# 5 10.0658 0.0413 -0.4814 -6.3431 26.0777 8.8012
# 6 -7.9475 -21.0881 -18.6776 1.0771 8.8012 36.2121
#
#
#
# Elastic Compliance Matrix: (Units=1/GPa)
#
#
# Indices 1 2 3 4 5 6 
#
# 1 0.017769 0.002407 0.002143 0.002190 -0.009184 0.008573
# 2 0.002407 0.033211 -0.017959 -0.001854 -0.005841 0.012080
# 3 0.002143 -0.017959 0.027070 0.008553 0.000573 0.003581
# 4 0.002190 -0.001854 0.008553 0.030633 0.006304 0.001369
# 5 -0.009184 -0.005841 0.000573 0.006304 0.049279 -0.017286
# 6 0.008573 0.012080 0.003581 0.001369 -0.017286 0.042539
#
#
# Mechanical properties :
#
#
# Convention : Reuss Voigt Hill
#
# Bulk Modulus (GPa) = 19.51937 31.85478 25.68707
# Shear Modulus (GPa) = 20.45849 31.34559 25.90204
#
# Velocity S-wave (km/s) = 2.92125 3.61593 3.28700
# Velocity P-wave (km/s) = 4.41817 5.54262 5.01203
#
# Compressibility (1/GPa) = 0.05123117
#
# Stress axis : x y z
#
# Youngs Moduli (GPa) = 56.27862 30.11059 36.94065
#
# Poissons Ratio (x) = -0.07247 -0.07916
# Poissons Ratio (y) = -0.13545 0.66342
# Poissons Ratio (z) = -0.12060 0.54076
#
# Static dielectric constant tensor:
#      x y z
#    x 2.010720 0.001150 -0.010220 
#    y 0.001150 1.895410 0.036830 
#    z -0.010220 0.036830 1.970230 
# 
# From -- ./inp_files/379034.got.cif
#   From: 2010.05.17/outbox.cif.g08.bks.cpg/sg2_190_cif.got.tgz:379034.got - 2010.06.03 11:33:40.
