data_PCOD9106461
_publ_section_title
;
Structure prediction by ZEFSAII (Michael W. Deem and Ramdas Pophale) SiO2 
 PCOD9106461
Probable space group: P -1
;
_chemical_formula_sum "Si O2"
_cell_formula_units_Z 16
_cell_length_a 18.370546
_cell_length_b 15.506594
_cell_length_c 10.963612
_cell_angle_alpha 42.324648
_cell_angle_beta 126.777508
_cell_angle_gamma 158.467129
_cell_volume 720.015494
_symmetry_space_group_name_H-M "P -1"
_symmetry_group_IT_number 2
_symmetry_cell_setting 'triclinic'
loop_
_space_group_symop_operation_xyz
x,y,z
-x,-y,-z
loop_
_atom_site_type_symbol
_atom_site_label
_atom_site_fract_x
_atom_site_fract_y
_atom_site_fract_z
Si Si1 0.379395 0.844722 0.845882
Si Si2 0.293055 0.318460 0.447555
Si Si3 0.409376 0.073459 0.864851
Si Si4 0.540037 0.847431 0.591163
Si Si5 0.302395 0.097249 0.084485
Si Si6 0.957551 0.800237 0.199848
Si Si7 0.908404 0.144224 0.132396
Si Si8 0.688008 0.770070 0.708408
O O1 0.393784 0.964596 0.845480
O O2 0.397930 0.944752 0.634118
O O3 0.560233 0.973594 0.933049
O O4 0.150075 0.485650 0.993195
O O5 0.500000 0.500000 0.500000
O O6 0.376763 0.567072 0.297996
O O7 0.268218 0.242454 0.363239
O O8 0.115148 0.030755 0.657960
O O9 0.200879 0.897367 0.838496
O O10 0.646762 0.954550 0.718114
O O11 0.594423 0.794374 0.611920
O O12 0.289705 0.536343 0.687346
O O13 0.088185 0.885292 0.144867
O O14 0.512355 0.455225 0.927354
O O15 0.243097 0.019926 0.963789
O O16 0.082832 0.933101 0.310277
O O17 0.000000 0.000000 0.000000
#
# Coordination Sequence:
#
# PCOD9106461 Si02
#       8
#     2   2   2   2   2   2   2   2
#     4  11  26  42  65  93 131 174 207 253 322 385
#     4  10  20  39  70  95 122 165 207 269 319 358
#     4  10  23  44  65  92 130 163 217 262 309 382
#     4  11  23  41  62  93 133 170 208 261 311 377
#     4  11  22  38  64  96 127 161 215 260 312 376
#     4  11  21  35  62  94 126 166 207 259 320 361
#     4  11  24  43  68  94 129 168 208 264 321 372
#     4  11  20  38  66  98 125 159 213 267 314 373
#
# _framework density 22.221743
#
# number of rings (size 3 to 8) (size 9 to 14) (size 15 to 20)
#    0.000    1.250    5.000    2.625    0.000    7.000 
#    0.000    1.250    0.000    0.000    0.000    0.000 
#    0.000    0.000    0.000    0.000    0.000    0.000 
#
# Total GULP energy -89296.143812 kJ/mol
# GULP energy per Si atom -5581.008988 kJ/mol
# Density = 2.217117 g / cm^3
# Si number density = 22.221743 Si / 1000 Ang^3
#
#
#
# Elastic Constant Matrix: (Units=GPa)
#
#
# Indices 1 2 3 4 5 6 
#
# 1 -4.0389 22.4410 -11.4042 8.9784 -17.4227 -9.4246
# 2 22.4410 58.2256 21.3200 -5.6811 -7.7934 16.6556
# 3 -11.4042 21.3200 139.1829 -1.9143 -0.7007 3.0761
# 4 8.9784 -5.6811 -1.9143 31.2964 5.3353 -4.5779
# 5 -17.4227 -7.7934 -0.7007 5.3353 22.1131 3.8054
# 6 -9.4246 16.6556 3.0761 -4.5779 3.8054 37.7664
#
#
#
# Elastic Compliance Matrix: (Units=1/GPa)
#
#
# Indices 1 2 3 4 5 6 
#
# 1 -0.028341 0.013803 -0.004155 0.012228 -0.018924 -0.009432
# 2 0.013803 0.016017 -0.001166 -0.005210 0.018781 -0.006048
# 3 -0.004155 -0.001166 0.007041 0.002002 -0.003865 -0.000464
# 4 0.012228 -0.005210 0.002002 0.029014 -0.000647 0.008768
# 5 -0.018924 0.018781 -0.003865 -0.000647 0.039853 -0.016785
# 6 -0.009432 -0.006048 -0.000464 0.008768 -0.016785 0.029584
#
#
# Mechanical properties :
#
#
# Convention : Reuss Voigt Hill
#
# Bulk Modulus (GPa) = 85.61055 28.67589 57.14322
# Shear Modulus (GPa) = 62.42273 28.96935 45.69604
#
# Velocity S-wave (km/s) = 5.30583 3.61452 4.53964
# Velocity P-wave (km/s) = 8.72611 5.50928 7.29716
#
# Compressibility (1/GPa) = 0.01168080
#
# Stress axis : x y z
#
# Youngs Moduli (GPa) = -35.28427 62.43224 142.01973
#
# Poissons Ratio (x) = -0.86174 0.59011
# Poissons Ratio (y) = 0.48702 0.16559
# Poissons Ratio (z) = -0.14661 0.07280
#
# Static dielectric constant tensor:
#      x y z
#    x 1.693330 -0.017170 0.092680 
#    y -0.017170 1.797230 0.027150 
#    z 0.092680 0.027150 1.815240 
# 
# From -- ./inp_files/472196.got.cif
#   From: 2010.05.17/outbox.cif.g08.bks.cpg/sg2_237_cif.got.tgz:472196.got - 2010.06.03 11:33:40.
