data_PCOD9106797
_publ_section_title
;
Structure prediction by ZEFSAII (Michael W. Deem and Ramdas Pophale) SiO2 
 PCOD9106797
Probable space group: P -1
;
_chemical_formula_sum "Si O2"
_cell_formula_units_Z 14
_cell_length_a 7.723925
_cell_length_b 9.654702
_cell_length_c 11.894873
_cell_angle_alpha 59.007951
_cell_angle_beta 71.110358
_cell_angle_gamma 108.516657
_cell_volume 577.117096
_symmetry_space_group_name_H-M "P -1"
_symmetry_group_IT_number 2
_symmetry_cell_setting 'triclinic'
loop_
_space_group_symop_operation_xyz
x,y,z
-x,-y,-z
loop_
_atom_site_type_symbol
_atom_site_label
_atom_site_fract_x
_atom_site_fract_y
_atom_site_fract_z
Si Si1 0.856063 0.841917 0.497401
Si Si2 0.984407 0.314465 0.131784
Si Si3 0.497175 0.139794 0.328671
Si Si4 0.386086 0.650458 0.025476
Si Si5 0.890661 0.920538 0.884509
Si Si6 0.106243 0.719962 0.223137
Si Si7 0.150438 0.709137 0.478083
O O1 0.606656 0.782747 0.596702
O O2 0.907253 0.677512 0.554237
O O3 0.000000 0.000000 0.500000
O O4 0.977839 0.967631 0.306535
O O5 0.736153 0.184384 0.293070
O O6 0.194947 0.414066 0.133910
O O7 0.003414 0.200191 0.072364
O O8 0.000000 0.500000 0.000000
O O9 0.328755 0.907772 0.425672
O O10 0.535066 0.249874 0.155682
O O11 0.258798 0.719060 0.096344
O O12 0.621661 0.743166 0.001721
O O13 0.925061 0.105836 0.865561
O O14 0.212075 0.755581 0.312963
O O15 0.884598 0.488711 0.384224
#
# Coordination Sequence:
#
# PCOD9106797 Si02
#       7
#     2   2   2   2   2   2   2
#     4   9  17  33  62  90 115 149 199 248 299 336
#     4  10  25  40  57  89 124 161 199 246 304 353
#     4  10  20  40  61  87 129 154 194 254 303 344
#     4  11  21  38  65  91 117 157 205 248 294 356
#     4  11  21  39  62  90 119 159 203 249 293 355
#     4  10  21  36  63  93 116 154 207 242 301 350
#     4   9  19  37  62  90 123 153 196 253 294 358
#
# _framework density 24.258507000000002
#
# number of rings (size 3 to 8) (size 9 to 14) (size 15 to 20)
#    0.000    2.000    4.286    0.857    4.000    2.857 
#    0.000    3.571    6.286    0.000    0.000    0.000 
#    0.000    0.000    0.000    0.000    0.000    0.000 
#
# Total GULP energy -78132.784827 kJ/mol
# GULP energy per Si atom -5580.913202 kJ/mol
# Density = 2.420329 g / cm^3
# Si number density = 24.258507 Si / 1000 Ang^3
#
#
#
# Elastic Constant Matrix: (Units=GPa)
#
#
# Indices 1 2 3 4 5 6 
#
# 1 43.9171 38.5300 37.6106 -12.4388 -19.8506 -12.9753
# 2 38.5300 166.3332 49.9257 5.8559 -19.5040 -32.0392
# 3 37.6106 49.9257 70.6251 14.2098 -21.2207 -1.2905
# 4 -12.4388 5.8559 14.2098 54.9960 2.9820 0.9734
# 5 -19.8506 -19.5040 -21.2207 2.9820 40.8514 0.0228
# 6 -12.9753 -32.0392 -1.2905 0.9734 0.0228 37.1679
#
#
#
# Elastic Compliance Matrix: (Units=1/GPa)
#
#
# Indices 1 2 3 4 5 6 
#
# 1 0.087754 0.000267 -0.047920 0.030852 0.015609 0.028384
# 2 0.000267 0.009598 -0.006489 0.000501 0.001301 0.008128
# 3 -0.047920 -0.006489 0.048541 -0.022360 0.000475 -0.020052
# 4 0.030852 0.000501 -0.022360 0.030640 0.001374 0.009622
# 5 0.015609 0.001301 0.000475 0.001374 0.032827 0.006531
# 6 0.028384 0.008128 -0.020052 0.009622 0.006531 0.042868
#
#
# Mechanical properties :
#
#
# Convention : Reuss Voigt Hill
#
# Bulk Modulus (GPa) = 26.58898 59.22310 42.90604
# Shear Modulus (GPa) = 13.40309 36.92367 25.16338
#
# Velocity S-wave (km/s) = 2.35310 3.90563 3.22421
# Velocity P-wave (km/s) = 4.28571 6.69365 5.62015
#
# Compressibility (1/GPa) = 0.03760957
#
# Stress axis : x y z
#
# Youngs Moduli (GPa) = 11.39551 104.18531 20.60125
#
# Poissons Ratio (x) = -0.02784 0.98721
# Poissons Ratio (y) = -0.00305 0.13368
# Poissons Ratio (z) = 0.54607 0.67604
#
# Static dielectric constant tensor:
#      x y z
#    x 2.083720 -0.038650 0.021730 
#    y -0.038650 1.980380 -0.028420 
#    z 0.021730 -0.028420 2.037600 
# 
# From -- ./inp_files/304109.got.cif
#   From: 2010.05.17/outbox.cif.g08.bks.cpg/sg2_153_cif.got.tgz:304109.got - 2010.06.03 11:33:40.
