data_PCOD9106531
_publ_section_title
;
Structure prediction by ZEFSAII (Michael W. Deem and Ramdas Pophale) SiO2 
 PCOD9106531
Probable space group: P -1
;
_chemical_formula_sum "Si O2"
_cell_formula_units_Z 16
_cell_length_a 15.063384
_cell_length_b 13.112799
_cell_length_c 8.467482
_cell_angle_alpha 62.552502
_cell_angle_beta 45.692810
_cell_angle_gamma 31.571763
_cell_volume 585.074159
_symmetry_space_group_name_H-M "P -1"
_symmetry_group_IT_number 2
_symmetry_cell_setting 'triclinic'
loop_
_space_group_symop_operation_xyz
x,y,z
-x,-y,-z
loop_
_atom_site_type_symbol
_atom_site_label
_atom_site_fract_x
_atom_site_fract_y
_atom_site_fract_z
Si Si1 0.101164 0.337818 0.855082
Si Si2 0.308070 0.519797 0.771394
Si Si3 0.218308 0.202707 0.467182
Si Si4 0.795942 0.191585 0.950926
Si Si5 0.999268 0.880740 0.673575
Si Si6 0.412163 0.931159 0.951194
Si Si7 0.735609 0.469716 0.827133
Si Si8 0.693745 0.124420 0.390144
O O1 0.179168 0.307448 0.601627
O O2 0.303781 0.104305 0.838442
O O3 0.000000 0.500000 0.000000
O O4 0.888687 0.421112 0.029684
O O5 0.542782 0.278922 0.613986
O O6 0.296236 0.566978 0.933593
O O7 0.231965 0.659528 0.621165
O O8 0.376899 0.153952 0.188105
O O9 0.973865 0.350666 0.603347
O O10 0.330513 0.992550 0.520991
O O11 0.867207 0.019725 0.896020
O O12 0.723916 0.360943 0.818442
O O13 0.628797 0.260604 0.233265
O O14 0.045020 0.046243 0.793835
O O15 0.824150 0.927571 0.774187
O O16 0.000000 0.000000 0.500000
O O17 0.544701 0.713593 0.889744
#
# Coordination Sequence:
#
# PCOD9106531 Si02
#       8
#     2   2   2   2   2   2   2   2
#     4  10  21  40  62  94 130 169 207 255 317 388
#     4  10  22  40  66  91 126 167 218 259 319 375
#     4  10  21  43  66  93 129 168 215 259 318 384
#     4  10  22  40  63  94 129 165 219 260 318 377
#     4  11  26  44  59  94 135 170 216 266 314 384
#     4  11  23  41  65  93 132 167 211 262 324 376
#     4  10  23  42  67  99 126 167 214 269 315 381
#     4  10  20  39  72  93 118 173 218 264 309 375
#
# _framework density 27.346959999999999
#
# number of rings (size 3 to 8) (size 9 to 14) (size 15 to 20)
#    0.000    1.750    0.000    5.250    3.500    2.500 
#    6.750    5.625    0.000    0.000    0.000    0.000 
#    0.000    0.000    0.000    0.000    0.000    0.000 
#
# Total GULP energy -89221.979283 kJ/mol
# GULP energy per Si atom -5576.373705 kJ/mol
# Density = 2.728472 g / cm^3
# Si number density = 27.346960 Si / 1000 Ang^3
#
#
#
# Elastic Constant Matrix: (Units=GPa)
#
#
# Indices 1 2 3 4 5 6 
#
# 1 31.5495 24.4009 10.6732 5.1863 -4.5583 0.7994
# 2 24.4009 177.5531 33.3020 2.4392 -3.1081 3.2988
# 3 10.6732 33.3020 67.2693 13.1446 -4.5688 1.6320
# 4 5.1863 2.4392 13.1446 41.1159 9.2591 5.8395
# 5 -4.5583 -3.1081 -4.5688 9.2591 35.7091 4.6082
# 6 0.7994 3.2988 1.6320 5.8395 4.6082 35.0934
#
#
#
# Elastic Compliance Matrix: (Units=1/GPa)
#
#
# Indices 1 2 3 4 5 6 
#
# 1 0.037617 -0.004557 -0.002384 -0.004898 0.005398 -0.000211
# 2 -0.004557 0.006788 -0.002927 0.001328 -0.000641 -0.000535
# 3 -0.002384 -0.002927 0.018103 -0.006070 0.003323 0.000061
# 4 -0.004898 0.001328 -0.006070 0.029189 -0.008405 -0.003484
# 5 0.005398 -0.000641 0.003323 -0.008405 0.031625 -0.002971
# 6 -0.000211 -0.000535 0.000061 -0.003484 -0.002971 0.029518
#
#
# Mechanical properties :
#
#
# Convention : Reuss Voigt Hill
#
# Bulk Modulus (GPa) = 23.37951 45.90268 34.64109
# Shear Modulus (GPa) = 26.76166 36.25006 31.50586
#
# Velocity S-wave (km/s) = 3.13165 3.64477 3.39791
# Velocity P-wave (km/s) = 4.65232 5.87658 5.29992
#
# Compressibility (1/GPa) = 0.04277249
#
# Stress axis : x y z
#
# Youngs Moduli (GPa) = 26.58343 147.32052 55.23796
#
# Poissons Ratio (x) = 0.67133 0.13168
# Poissons Ratio (y) = 0.12114 0.16171
# Poissons Ratio (z) = 0.06337 0.43128
#
# Static dielectric constant tensor:
#      x y z
#    x 2.377680 -0.013560 0.138020 
#    y -0.013560 2.303740 0.086440 
#    z 0.138020 0.086440 2.255300 
# 
# From -- ./inp_files/471718.got.cif
#   From: 2010.05.17/outbox.cif.g08.bks.cpg/sg2_236_cif.got.tgz:471718.got - 2010.06.03 11:33:40.
