data_PCOD9106951
_publ_section_title
;
Structure prediction by ZEFSAII (Michael W. Deem and Ramdas Pophale) SiO2 
 PCOD9106951
Probable space group: P -1
;
_chemical_formula_sum "Si O2"
_cell_formula_units_Z 16
_cell_length_a 11.491615
_cell_length_b 9.219157
_cell_length_c 17.998338
_cell_angle_alpha 138.713458
_cell_angle_beta 100.455036
_cell_angle_gamma 108.026753
_cell_volume 898.991351
_symmetry_space_group_name_H-M "P -1"
_symmetry_group_IT_number 2
_symmetry_cell_setting 'triclinic'
loop_
_space_group_symop_operation_xyz
x,y,z
-x,-y,-z
loop_
_atom_site_type_symbol
_atom_site_label
_atom_site_fract_x
_atom_site_fract_y
_atom_site_fract_z
Si Si1 0.901626 0.235147 0.327485
Si Si2 0.828596 0.565936 0.927209
Si Si3 0.389719 0.669079 0.325660
Si Si4 0.407992 0.010400 0.891925
Si Si5 0.574324 0.778485 0.861346
Si Si6 0.240722 0.410684 0.902113
Si Si7 0.955982 0.727782 0.793499
Si Si8 0.915185 0.382062 0.098795
O O1 0.000000 0.500000 0.500000
O O2 0.020483 0.316758 0.305280
O O3 0.749497 0.163300 0.243724
O O4 0.823875 0.918423 0.232902
O O5 0.675239 0.352739 0.772591
O O6 0.952212 0.525101 0.909947
O O7 0.782560 0.533745 0.994861
O O8 0.926955 0.910595 0.045277
O O9 0.471099 0.532151 0.276090
O O10 0.226592 0.445935 0.271057
O O11 0.500000 0.000000 0.500000
O O12 0.446481 0.803739 0.833516
O O13 0.385679 0.113915 0.006522
O O14 0.571000 0.320423 0.994132
O O15 0.742126 0.038832 0.937053
O O16 0.133063 0.426658 0.841812
O O17 0.013933 0.611531 0.812182
#
# Coordination Sequence:
#
# PCOD9106951 Si02
#       8
#     2   2   2   2   2   2   2   2
#     4  11  23  40  55  82 121 153 185 229 301 343
#     4  10  18  35  58  83 115 145 188 231 282 338
#     4  11  21  34  57  90 115 147 188 237 292 335
#     4  10  21  37  62  82 112 153 200 234 276 335
#     4  10  18  36  62  86 110 147 200 242 272 334
#     4  10  22  34  59  85 110 148 193 240 274 336
#     4  10  19  37  62  79 110 154 193 229 273 348
#     4  10  16  34  61  84 104 140 201 235 271 324
#
# _framework density 17.797723999999999
#
# number of rings (size 3 to 8) (size 9 to 14) (size 15 to 20)
#    0.000    1.750    3.750    2.250    0.000    2.000 
#    4.500    0.625    0.000    2.250    0.000    0.000 
#    0.000    0.000    0.000    0.000    0.000    0.000 
#
# Total GULP energy -89278.072599 kJ/mol
# GULP energy per Si atom -5579.879537 kJ/mol
# Density = 1.775722 g / cm^3
# Si number density = 17.797724 Si / 1000 Ang^3
#
#
#
# Elastic Constant Matrix: (Units=GPa)
#
#
# Indices 1 2 3 4 5 6 
#
# 1 97.5104 32.2395 51.9535 2.0752 -7.0561 -11.7166
# 2 32.2395 55.9834 32.0137 0.3660 4.5423 -6.9423
# 3 51.9535 32.0137 112.5852 -9.7944 -13.5387 -16.0733
# 4 2.0752 0.3660 -9.7944 13.7681 1.6572 1.9749
# 5 -7.0561 4.5423 -13.5387 1.6572 17.1455 3.3273
# 6 -11.7166 -6.9423 -16.0733 1.9749 3.3273 31.6334
#
#
#
# Elastic Compliance Matrix: (Units=1/GPa)
#
#
# Indices 1 2 3 4 5 6 
#
# 1 0.015805 -0.006087 -0.005403 -0.006818 0.004168 0.001760
# 2 -0.006087 0.026538 -0.006478 -0.002908 -0.014760 0.002012
# 3 -0.005403 -0.006478 0.015792 0.010562 0.010389 0.002849
# 4 -0.006818 -0.002908 0.010562 0.081778 -0.001058 -0.002791
# 5 0.004168 -0.014760 0.010389 -0.001058 0.073038 -0.004033
# 6 0.001760 0.002012 0.002849 -0.002791 -0.004033 0.034752
#
#
# Mechanical properties :
#
#
# Convention : Reuss Voigt Hill
#
# Bulk Modulus (GPa) = 45.04680 55.38805 50.21743
# Shear Modulus (GPa) = 17.17977 22.50090 19.84034
#
# Velocity S-wave (km/s) = 3.11027 3.55950 3.34244
# Velocity P-wave (km/s) = 6.18577 6.93410 6.57060
#
# Compressibility (1/GPa) = 0.02219913
#
# Stress axis : x y z
#
# Youngs Moduli (GPa) = 63.27170 37.68118 63.32183
#
# Poissons Ratio (x) = 0.22938 0.34213
# Poissons Ratio (y) = 0.38516 0.41019
# Poissons Ratio (z) = 0.34186 0.24409
#
# Static dielectric constant tensor:
#      x y z
#    x 1.639880 -0.006240 -0.008590 
#    y -0.006240 1.627300 0.002590 
#    z -0.008590 0.002590 1.566260 
# 
# From -- ./inp_files/167796.got.cif
#   From: 2010.05.17/outbox.cif.g08.bks.cpg/sg2_84_cif.got.tgz:167796.got - 2010.06.03 11:33:40.
