data_PCOD9106744
_publ_section_title
;
Structure prediction by ZEFSAII (Michael W. Deem and Ramdas Pophale) SiO2 
 PCOD9106744
Probable space group: P -1
;
_chemical_formula_sum "Si O2"
_cell_formula_units_Z 15
_cell_length_a 12.385986
_cell_length_b 5.691799
_cell_length_c 11.263073
_cell_angle_alpha 97.536738
_cell_angle_beta 51.349507
_cell_angle_gamma 80.507692
_cell_volume 582.676839
_symmetry_space_group_name_H-M "P -1"
_symmetry_group_IT_number 2
_symmetry_cell_setting 'triclinic'
loop_
_space_group_symop_operation_xyz
x,y,z
-x,-y,-z
loop_
_atom_site_type_symbol
_atom_site_label
_atom_site_fract_x
_atom_site_fract_y
_atom_site_fract_z
Si Si1 0.531018 0.310877 0.075976
Si Si2 0.212962 0.167503 0.170988
Si Si3 0.556145 0.753941 0.365823
Si Si4 0.994591 0.919982 0.216587
Si Si5 0.756436 0.520904 0.031927
Si Si6 0.000000 0.000000 0.500000
Si Si7 0.793868 0.542961 0.604484
Si Si8 0.724990 0.351169 0.413023
O O1 0.636380 0.378742 0.103955
O O2 0.376924 0.330838 0.240351
O O3 0.500000 0.500000 0.000000
O O4 0.635968 0.049068 0.938082
O O5 0.140605 0.260157 0.356237
O O6 0.106126 0.080723 0.154579
O O7 0.236759 0.396777 0.102514
O O8 0.671129 0.759717 0.184903
O O9 0.650064 0.523776 0.367247
O O10 0.405133 0.708276 0.429985
O O11 0.500000 0.000000 0.500000
O O12 0.978514 0.902642 0.368895
O O13 0.081732 0.666514 0.071110
O O14 0.843197 0.090712 0.279294
O O15 0.140376 0.735707 0.407883
O O16 0.802256 0.502977 0.455253
#
# Coordination Sequence:
#
# PCOD9106744 Si02
#       8
#     2   2   2   2   2   1   2   2
#     4  11  21  36  60  97 132 168 209 265 329 383
#     4  11  23  37  66 104 132 168 218 254 328 416
#     4  11  26  46  68  94 123 173 235 280 319 383
#     4  10  23  44  66  99 136 175 205 269 329 399
#     4  11  23  42  66  93 134 170 218 278 322 386
#     4  10  20  40  60  92 140 170 200 250 326 394
#     4  11  20  39  63  96 133 170 205 262 325 390
#     4  10  25  45  66  93 131 175 218 276 330 371
#
# _framework density 25.743255999999999
#
# number of rings (size 3 to 8) (size 9 to 14) (size 15 to 20)
#    0.000    1.333    4.000    1.200    1.867    4.800 
#    4.800    1.333    0.000    0.000    0.000    0.000 
#    0.000    0.000    0.000    0.000    0.000    0.000 
#
# Total GULP energy -83623.416507 kJ/mol
# GULP energy per Si atom -5574.894434 kJ/mol
# Density = 2.568466 g / cm^3
# Si number density = 25.743256 Si / 1000 Ang^3
#
#
#
# Elastic Constant Matrix: (Units=GPa)
#
#
# Indices 1 2 3 4 5 6 
#
# 1 76.9215 25.3242 21.0227 23.4208 -17.5134 -18.4379
# 2 25.3242 32.4351 30.3990 29.8168 -21.8541 -19.3900
# 3 21.0227 30.3990 169.6055 42.3147 -32.5909 -9.9402
# 4 23.4208 29.8168 42.3147 48.1999 -7.6821 -10.2652
# 5 -17.5134 -21.8541 -32.5909 -7.6821 47.8235 19.6228
# 6 -18.4379 -19.3900 -9.9402 -10.2652 19.6228 35.3400
#
#
#
# Elastic Compliance Matrix: (Units=1/GPa)
#
#
# Indices 1 2 3 4 5 6 
#
# 1 0.017681 -0.010709 0.000390 -0.001655 0.000465 0.002720
# 2 -0.010709 0.171727 0.004133 -0.089081 0.047699 0.037436
# 3 0.000390 0.004133 0.008820 -0.009738 0.007261 -0.001909
# 4 -0.001655 -0.089081 -0.009738 0.077594 -0.030047 -0.013256
# 5 0.000465 0.047699 0.007261 -0.030047 0.045203 -0.005371
# 6 0.002720 0.037436 -0.001909 -0.013256 -0.005371 0.048850
#
#
# Mechanical properties :
#
#
# Convention : Reuss Voigt Hill
#
# Bulk Modulus (GPa) = 5.38057 48.05044 26.71551
# Shear Modulus (GPa) = 11.25615 39.75375 25.50495
#
# Velocity S-wave (km/s) = 2.09331 3.93394 3.15102
# Velocity P-wave (km/s) = 2.81731 6.27219 4.86197
#
# Compressibility (1/GPa) = 0.18585391
#
# Stress axis : x y z
#
# Youngs Moduli (GPa) = 56.55700 5.82320 113.37989
#
# Poissons Ratio (x) = 0.06236 -0.04417
# Poissons Ratio (y) = 0.60569 -0.46855
# Poissons Ratio (z) = -0.02203 -0.02406
#
# Static dielectric constant tensor:
#      x y z
#    x 2.134630 0.248680 -0.007380 
#    y 0.248680 2.271320 -0.072270 
#    z -0.007380 -0.072270 2.115180 
# 
# From -- ./inp_files/97464.got.cif
#   From: 2010.05.17/outbox.cif.g08.bks.cpg/sg2_49_cif.got.tgz:97464.got - 2010.06.03 11:33:40.
