data_PCOD9106526
_publ_section_title
;
Structure prediction by ZEFSAII (Michael W. Deem and Ramdas Pophale) SiO2 
 PCOD9106526
Probable space group: P -1
;
_chemical_formula_sum "Si O2"
_cell_formula_units_Z 16
_cell_length_a 15.594235
_cell_length_b 12.907525
_cell_length_c 15.179335
_cell_angle_alpha 58.613029
_cell_angle_beta 149.550059
_cell_angle_gamma 144.724688
_cell_volume 697.923986
_symmetry_space_group_name_H-M "P -1"
_symmetry_group_IT_number 2
_symmetry_cell_setting 'triclinic'
loop_
_space_group_symop_operation_xyz
x,y,z
-x,-y,-z
loop_
_atom_site_type_symbol
_atom_site_label
_atom_site_fract_x
_atom_site_fract_y
_atom_site_fract_z
Si Si1 0.660201 0.219351 0.077717
Si Si2 0.810456 0.509630 0.833796
Si Si3 0.797056 0.898962 0.644708
Si Si4 0.530155 0.172421 0.349951
Si Si5 0.300664 0.012673 0.020010
Si Si6 0.337883 0.534037 0.551873
Si Si7 0.955477 0.220874 0.756733
Si Si8 0.529061 0.399453 0.819724
O O1 0.035806 0.428872 0.296179
O O2 0.482685 0.229690 0.877189
O O3 0.500000 0.000000 0.000000
O O4 0.596067 0.181212 0.141868
O O5 0.471839 0.277891 0.589813
O O6 0.748895 0.518244 0.874589
O O7 0.031984 0.746811 0.880457
O O8 0.000000 0.500000 0.000000
O O9 0.630925 0.729966 0.656309
O O10 0.113895 0.024515 0.838817
O O11 0.894620 0.090561 0.681273
O O12 0.569517 0.338102 0.333490
O O13 0.845188 0.285843 0.598800
O O14 0.276704 0.967499 0.287300
O O15 0.414054 0.074832 0.193011
O O16 0.280830 0.355892 0.594292
O O17 0.290808 0.437636 0.007135
#
# Coordination Sequence:
#
# PCOD9106526 Si02
#       8
#     2   2   2   2   2   2   2   2
#     4  12  29  48  65  98 148 184 223 285 354 410
#     4  12  24  41  71 103 134 177 238 285 338 402
#     4  11  23  41  72 106 135 176 234 291 331 408
#     4  10  20  39  72 103 136 177 228 287 342 401
#     4  12  24  44  67 102 139 177 230 290 341 398
#     4  11  23  45  74  97 140 183 229 278 351 408
#     4  10  20  40  70 107 135 174 232 285 341 405
#     4  12  24  46  72 100 135 189 232 276 345 417
#
# _framework density 22.925132000000001
#
# number of rings (size 3 to 8) (size 9 to 14) (size 15 to 20)
#    0.000    0.750    3.750    4.125    3.500    3.000 
#    4.500    1.250    0.000    0.000    0.000    0.000 
#    0.000    0.000    0.000    0.000    0.000    0.000 
#
# Total GULP energy -89415.149684 kJ/mol
# GULP energy per Si atom -5588.446855 kJ/mol
# Density = 2.287295 g / cm^3
# Si number density = 22.925132 Si / 1000 Ang^3
#
#
#
# Elastic Constant Matrix: (Units=GPa)
#
#
# Indices 1 2 3 4 5 6 
#
# 1 76.0542 25.7357 22.2474 -3.9906 5.3340 -13.9757
# 2 25.7357 103.6677 12.3237 -17.1618 6.0754 -37.4844
# 3 22.2474 12.3237 72.2856 -16.6059 -0.6833 -13.7704
# 4 -3.9906 -17.1618 -16.6059 35.6884 -9.7608 9.9465
# 5 5.3340 6.0754 -0.6833 -9.7608 28.3594 -1.9203
# 6 -13.9757 -37.4844 -13.7704 9.9465 -1.9203 30.9298
#
#
#
# Elastic Compliance Matrix: (Units=1/GPa)
#
#
# Indices 1 2 3 4 5 6 
#
# 1 0.016058 -0.002864 -0.004806 -0.003501 -0.003555 0.002550
# 2 -0.002864 0.018158 0.002555 0.003680 -0.000626 0.020626
# 3 -0.004806 0.002555 0.018095 0.008422 0.004133 0.006529
# 4 -0.003501 0.003680 0.008422 0.038196 0.012891 -0.004855
# 5 -0.003555 -0.000626 0.004133 0.012891 0.040455 -0.002159
# 6 0.002550 0.020626 0.006529 -0.004855 -0.002159 0.062815
#
#
# Mechanical properties :
#
#
# Convention : Reuss Voigt Hill
#
# Bulk Modulus (GPa) = 23.76442 41.40234 32.58338
# Shear Modulus (GPa) = 22.93224 31.77558 27.35391
#
# Velocity S-wave (km/s) = 3.16620 3.72702 3.45800
# Velocity P-wave (km/s) = 4.87391 6.05144 5.49431
#
# Compressibility (1/GPa) = 0.04207971
#
# Stress axis : x y z
#
# Youngs Moduli (GPa) = 62.27516 55.07317 55.26349
#
# Poissons Ratio (x) = 0.15775 0.26559
# Poissons Ratio (y) = 0.17837 -0.14119
# Poissons Ratio (z) = 0.29929 -0.14070
#
# Static dielectric constant tensor:
#      x y z
#    x 1.842220 -0.035820 -0.033290 
#    y -0.035820 1.912710 0.022780 
#    z -0.033290 0.022780 1.902190 
# 
# From -- ./inp_files/206253.got.cif
#   From: 2010.05.17/outbox.cif.g08.bks.cpg/sg2_104_cif.got.tgz:206253.got - 2010.06.03 11:33:40.
