data_PCOD9106740
_publ_section_title
;
Structure prediction by ZEFSAII (Michael W. Deem and Ramdas Pophale) SiO2 
 PCOD9106740
Probable space group: P -1
;
_chemical_formula_sum "Si O2"
_cell_formula_units_Z 15
_cell_length_a 9.976886
_cell_length_b 11.310690
_cell_length_c 15.318835
_cell_angle_alpha 147.816685
_cell_angle_beta 61.719316
_cell_angle_gamma 96.918458
_cell_volume 649.826945
_symmetry_space_group_name_H-M "P -1"
_symmetry_group_IT_number 2
_symmetry_cell_setting 'triclinic'
loop_
_space_group_symop_operation_xyz
x,y,z
-x,-y,-z
loop_
_atom_site_type_symbol
_atom_site_label
_atom_site_fract_x
_atom_site_fract_y
_atom_site_fract_z
Si Si1 0.779015 0.574202 0.218610
Si Si2 0.855457 0.384618 0.256470
Si Si3 0.367256 0.861628 0.579565
Si Si4 0.733087 0.877640 0.034841
Si Si5 0.017730 0.189120 0.756013
Si Si6 0.000000 0.500000 0.500000
Si Si7 0.008492 0.277521 0.539781
Si Si8 0.386174 0.389320 0.368833
O O1 0.839019 0.354181 0.140761
O O2 0.556411 0.804885 0.445656
O O3 0.909667 0.680883 0.248592
O O4 0.835020 0.426775 0.015702
O O5 0.702790 0.432086 0.401217
O O6 0.838098 0.671420 0.445023
O O7 0.072187 0.166635 0.085283
O O8 0.313160 0.022637 0.789045
O O9 0.420433 0.562792 0.402200
O O10 0.191018 0.018443 0.665963
O O11 0.566853 0.090062 0.154360
O O12 0.806920 0.561458 0.807997
O O13 0.975331 0.987838 0.603509
O O14 0.986121 0.704898 0.555483
O O15 0.218256 0.385790 0.381808
#
# Coordination Sequence:
#
# PCOD9106740 Si02
#       8
#     2   2   2   2   2   1   2   2
#     4  11  24  41  69  87 124 171 210 265 299 368
#     4   9  21  41  60  93 124 166 207 254 303 377
#     4  12  23  41  63  98 125 162 214 258 306 373
#     4  10  22  39  64  90 133 157 207 254 310 375
#     4  11  23  45  62  91 126 166 214 256 316 359
#     4  10  20  40  60  92 130 160 204 254 304 388
#     4   9  21  41  59  90 124 164 201 258 306 370
#     4  11  22  39  66  93 128 166 201 254 318 369
#
# _framework density 23.083069999999999
#
# number of rings (size 3 to 8) (size 9 to 14) (size 15 to 20)
#    0.800    0.800    4.000    0.800    0.000    3.733 
#    4.800    0.667    0.000    0.000    0.000    0.000 
#    0.000    0.000    0.000    0.000    0.000    0.000 
#
# Total GULP energy -83513.620473 kJ/mol
# GULP energy per Si atom -5567.574698 kJ/mol
# Density = 2.303053 g / cm^3
# Si number density = 23.083070 Si / 1000 Ang^3
#
#
#
# Elastic Constant Matrix: (Units=GPa)
#
#
# Indices 1 2 3 4 5 6 
#
# 1 57.2594 14.5365 4.6590 -4.7257 -15.6303 15.9674
# 2 14.5365 99.7757 24.0465 -18.9649 -6.8384 3.9590
# 3 4.6590 24.0465 73.7223 -5.6947 -5.0679 31.3795
# 4 -4.7257 -18.9649 -5.6947 28.3606 10.7528 -3.3331
# 5 -15.6303 -6.8384 -5.0679 10.7528 27.8993 3.1276
# 6 15.9674 3.9590 31.3795 -3.3331 3.1276 36.8905
#
#
#
# Elastic Compliance Matrix: (Units=1/GPa)
#
#
# Indices 1 2 3 4 5 6 
#
# 1 0.031480 -0.006563 0.012370 -0.009144 0.024755 -0.026368
# 2 -0.006563 0.014008 -0.007882 0.010370 -0.006742 0.009550
# 3 0.012370 -0.007882 0.029374 -0.007358 0.016709 -0.031575
# 4 -0.009144 0.010370 -0.007358 0.050604 -0.025193 0.015811
# 5 0.024755 -0.006742 0.016709 -0.025193 0.064385 -0.031939
# 6 -0.026368 0.009550 -0.031575 0.015811 -0.031939 0.068490
#
#
# Mechanical properties :
#
#
# Convention : Reuss Voigt Hill
#
# Bulk Modulus (GPa) = 14.14171 35.24905 24.69538
# Shear Modulus (GPa) = 17.47883 31.13112 24.30498
#
# Velocity S-wave (km/s) = 2.75474 3.67639 3.24842
# Velocity P-wave (km/s) = 4.03210 5.77276 4.97909
#
# Compressibility (1/GPa) = 0.07071281
#
# Stress axis : x y z
#
# Youngs Moduli (GPa) = 31.76644 71.38678 34.04396
#
# Poissons Ratio (x) = 0.46849 -0.42113
# Poissons Ratio (y) = 0.20847 0.26833
# Poissons Ratio (z) = -0.39295 0.56266
#
# Static dielectric constant tensor:
#      x y z
#    x 1.902110 0.010310 0.054290 
#    y 0.010310 1.881090 0.028420 
#    z 0.054290 0.028420 1.909780 
# 
# From -- ./inp_files/568314.got.cif
#   From: 2010.05.17/outbox.cif.g08.bks.cpg/sg2_285_cif.got.tgz:568314.got - 2010.06.03 11:33:40.
