data_PCOD9106431
_publ_section_title
;
Structure prediction by ZEFSAII (Michael W. Deem and Ramdas Pophale) SiO2 
 PCOD9106431
Probable space group: P -1
;
_chemical_formula_sum "Si O2"
_cell_formula_units_Z 16
_cell_length_a 17.968192
_cell_length_b 5.298313
_cell_length_c 8.822408
_cell_angle_alpha 103.018814
_cell_angle_beta 77.647294
_cell_angle_gamma 68.470602
_cell_volume 719.303823
_symmetry_space_group_name_H-M "P -1"
_symmetry_group_IT_number 2
_symmetry_cell_setting 'triclinic'
loop_
_space_group_symop_operation_xyz
x,y,z
-x,-y,-z
loop_
_atom_site_type_symbol
_atom_site_label
_atom_site_fract_x
_atom_site_fract_y
_atom_site_fract_z
Si Si1 0.055365 0.656153 0.431790
Si Si2 0.444245 0.747675 0.937617
Si Si3 0.799941 0.852287 0.580864
Si Si4 0.561248 0.052439 0.358980
Si Si5 0.822937 0.318343 0.832355
Si Si6 0.307284 0.751322 0.543529
Si Si7 0.334572 0.258564 0.230378
Si Si8 0.698070 0.421105 0.140096
O O1 0.140166 0.487335 0.475065
O O2 0.100331 0.607184 0.239109
O O3 0.000000 0.500000 0.500000
O O4 0.000000 0.000000 0.500000
O O5 0.475466 0.756316 0.752053
O O6 0.355508 0.723855 0.941416
O O7 0.500000 0.500000 0.000000
O O8 0.417026 0.046806 0.079540
O O9 0.705850 0.921294 0.686615
O O10 0.834656 0.028684 0.698363
O O11 0.779223 0.988848 0.443584
O O12 0.385079 0.826689 0.549482
O O13 0.500000 0.000000 0.500000
O O14 0.631717 0.755957 0.217822
O O15 0.736816 0.565312 0.836079
O O16 0.791084 0.320238 0.015105
O O17 0.335203 0.491476 0.378187
O O18 0.289826 0.659448 0.701404
#
# Coordination Sequence:
#
# PCOD9106431 Si02
#       8
#     2   2   2   2   2   2   2   2
#     4  11  22  39  67 112 153 181 223 292 360 427
#     4  11  25  43  68  95 134 180 241 306 372 423
#     4  10  20  39  70 104 134 178 230 290 344 431
#     4  11  26  49  63  93 140 188 239 305 375 425
#     4  10  20  39  71 100 134 180 234 287 345 429
#     4  10  24  41  71  96 132 182 238 295 360 429
#     4  10  20  41  67  98 126 175 241 297 347 421
#     4  11  23  44  66  96 132 183 237 293 355 432
#
# _framework density 22.243728999999998
#
# number of rings (size 3 to 8) (size 9 to 14) (size 15 to 20)
#    0.000    1.500    3.750    0.750    0.000    5.500 
#    4.500    2.500    0.000    1.500    0.000    0.000 
#    0.000    0.000    0.000    0.000    0.000    0.000 
#
# Total GULP energy -89260.778179 kJ/mol
# GULP energy per Si atom -5578.798636 kJ/mol
# Density = 2.219310 g / cm^3
# Si number density = 22.243729 Si / 1000 Ang^3
#
#
#
# Elastic Constant Matrix: (Units=GPa)
#
#
# Indices 1 2 3 4 5 6 
#
# 1 67.3390 21.9209 58.0037 1.0055 -22.0471 15.1164
# 2 21.9209 140.6735 62.5471 -5.4788 -5.8493 -16.1698
# 3 58.0037 62.5471 113.4703 -1.7078 -21.3772 -6.7919
# 4 1.0055 -5.4788 -1.7078 33.3550 4.5643 -2.4331
# 5 -22.0471 -5.8493 -21.3772 4.5643 48.0320 -4.7313
# 6 15.1164 -16.1698 -6.7919 -2.4331 -4.7313 41.0019
#
#
#
# Elastic Compliance Matrix: (Units=1/GPa)
#
#
# Indices 1 2 3 4 5 6 
#
# 1 0.036993 0.001066 -0.019101 -0.004087 0.007445 -0.015765
# 2 0.001066 0.009930 -0.006009 0.001595 -0.000879 0.002521
# 3 -0.019101 -0.006009 0.022676 0.001199 0.001331 0.008653
# 4 -0.004087 0.001595 0.001199 0.031213 -0.003744 0.003755
# 5 0.007445 -0.000879 0.001331 -0.003744 0.025058 -0.000201
# 6 -0.015765 0.002521 0.008653 0.003755 -0.000201 0.032828
#
#
# Mechanical properties :
#
#
# Convention : Reuss Voigt Hill
#
# Bulk Modulus (GPa) = 46.48622 67.38069 56.93346
# Shear Modulus (GPa) = 23.36924 36.41185 29.89055
#
# Velocity S-wave (km/s) = 3.24481 4.05031 3.66973
# Velocity P-wave (km/s) = 5.91459 7.22711 6.60354
#
# Compressibility (1/GPa) = 0.02151175
#
# Stress axis : x y z
#
# Youngs Moduli (GPa) = 27.03196 100.70810 44.09959
#
# Poissons Ratio (x) = -0.10738 0.84233
# Poissons Ratio (y) = -0.02882 0.26500
# Poissons Ratio (z) = 0.51633 0.60518
#
# Static dielectric constant tensor:
#      x y z
#    x 1.893610 0.063700 -0.048530 
#    y 0.063700 1.962920 -0.039290 
#    z -0.048530 -0.039290 1.905020 
# 
# From -- ./inp_files/339852.got.cif
#   From: 2010.05.17/outbox.cif.g08.bks.cpg/sg2_170_cif.got.tgz:339852.got - 2010.06.03 11:33:40.
