data_PCOD9106687
_publ_section_title
;
Structure prediction by ZEFSAII (Michael W. Deem and Ramdas Pophale) SiO2 
 PCOD9106687
Probable space group: P -1
;
_chemical_formula_sum "Si O2"
_cell_formula_units_Z 13
_cell_length_a 25.159704
_cell_length_b 25.494298
_cell_length_c 7.924085
_cell_angle_alpha 145.012043
_cell_angle_beta 145.334224
_cell_angle_gamma 11.378690
_cell_volume 566.560163
_symmetry_space_group_name_H-M "P -1"
_symmetry_group_IT_number 2
_symmetry_cell_setting 'triclinic'
loop_
_space_group_symop_operation_xyz
x,y,z
-x,-y,-z
loop_
_atom_site_type_symbol
_atom_site_label
_atom_site_fract_x
_atom_site_fract_y
_atom_site_fract_z
Si Si1 0.079460 0.653829 0.356210
Si Si2 0.217194 0.727195 0.787350
Si Si3 0.000000 0.000000 0.500000
Si Si4 0.508973 0.126705 0.238800
Si Si5 0.642433 0.474687 0.744419
Si Si6 0.426903 0.006465 0.576399
Si Si7 0.847735 0.483701 0.186074
O O1 0.143257 0.698561 0.596827
O O2 0.315253 0.386859 0.368787
O O3 0.051456 0.632548 0.044222
O O4 0.809961 0.886926 0.371329
O O5 0.241189 0.692472 0.555478
O O6 0.500000 0.500000 0.000000
O O7 0.000000 0.000000 0.000000
O O8 0.847907 0.237480 0.788569
O O9 0.682583 0.241480 0.330028
O O10 0.470989 0.125751 0.325225
O O11 0.462941 0.081687 0.879273
O O12 0.711353 0.516592 0.993587
O O13 0.624697 0.769221 0.343671
O O14 0.112353 0.271231 0.421364
#
# Coordination Sequence:
#
# PCOD9106687 Si02
#       7
#     2   2   1   2   2   2   2
#     4  11  24  43  68  95 128 170 224 272 309 398
#     4  11  23  43  64  91 128 170 210 266 326 376
#     4  10  20  40  60  86 122 168 200 268 310 380
#     4  11  24  44  63  98 134 169 217 262 335 384
#     4  10  22  41  61  90 129 162 212 266 324 369
#     4  11  24  42  66  94 138 172 204 275 328 392
#     4  11  23  42  66  95 127 173 217 266 325 382
#
# _framework density 22.945489999999999
#
# number of rings (size 3 to 8) (size 9 to 14) (size 15 to 20)
#    0.000    1.231    0.000    5.538    0.000   11.077 
#   27.692    0.000    0.000    0.000    0.000    0.000 
#    0.000    0.000    0.000    0.000    0.000    0.000 
#
# Total GULP energy -72515.505679 kJ/mol
# GULP energy per Si atom -5578.115821 kJ/mol
# Density = 2.289326 g / cm^3
# Si number density = 22.945490 Si / 1000 Ang^3
#
#
#
# Elastic Constant Matrix: (Units=GPa)
#
#
# Indices 1 2 3 4 5 6 
#
# 1 124.1460 43.4349 -14.3937 -14.8192 -8.5524 -68.6671
# 2 43.4349 195.7376 10.5369 -3.7439 2.1121 -58.1708
# 3 -14.3937 10.5369 80.1461 17.2656 1.2417 17.0107
# 4 -14.8192 -3.7439 17.2656 47.6887 3.7378 30.9355
# 5 -8.5524 2.1121 1.2417 3.7378 17.0532 19.4239
# 6 -68.6671 -58.1708 17.0107 30.9355 19.4239 103.8847
#
#
#
# Elastic Compliance Matrix: (Units=1/GPa)
#
#
# Indices 1 2 3 4 5 6 
#
# 1 0.013145 0.000064 0.000790 -0.002436 -0.004517 0.010165
# 2 0.000064 0.007129 -0.001656 -0.002400 -0.007525 0.006427
# 3 0.000790 -0.001656 0.014064 -0.003842 0.002797 -0.002087
# 4 -0.002436 -0.002400 -0.003842 0.028780 0.006934 -0.012192
# 5 -0.004517 -0.007525 0.002797 0.006934 0.084694 -0.025558
# 6 0.010165 0.006427 -0.002087 -0.012192 -0.025558 0.028695
#
#
# Mechanical properties :
#
#
# Convention : Reuss Voigt Hill
#
# Bulk Modulus (GPa) = 30.55106 53.24289 41.89698
# Shear Modulus (GPa) = 26.45163 57.75544 42.10353
#
# Velocity S-wave (km/s) = 3.39898 5.02249 4.28826
# Velocity P-wave (km/s) = 5.36168 7.54243 6.54354
#
# Compressibility (1/GPa) = 0.03273208
#
# Stress axis : x y z
#
# Youngs Moduli (GPa) = 76.07612 140.26693 71.10313
#
# Poissons Ratio (x) = -0.00893 -0.05615
# Poissons Ratio (y) = -0.00484 0.11777
# Poissons Ratio (z) = -0.06007 0.23233
#
# Static dielectric constant tensor:
#      x y z
#    x 1.711760 -0.120350 0.014090 
#    y -0.120350 1.713170 0.049140 
#    z 0.014090 0.049140 1.859180 
# 
# From -- ./inp_files/293713.got.cif
#   From: 2010.05.17/outbox.cif.g08.bks.cpg/sg2_147_cif.got.tgz:293713.got - 2010.06.03 11:33:40.
