data_PCOD9106921
_publ_section_title
;
Structure prediction by ZEFSAII (Michael W. Deem and Ramdas Pophale) SiO2 
 PCOD9106921
Probable space group: P -1
;
_chemical_formula_sum "Si O2"
_cell_formula_units_Z 16
_cell_length_a 17.765447
_cell_length_b 6.473240
_cell_length_c 13.706811
_cell_angle_alpha 91.607068
_cell_angle_beta 27.745127
_cell_angle_gamma 105.965493
_cell_volume 618.452419
_symmetry_space_group_name_H-M "P -1"
_symmetry_group_IT_number 2
_symmetry_cell_setting 'triclinic'
loop_
_space_group_symop_operation_xyz
x,y,z
-x,-y,-z
loop_
_atom_site_type_symbol
_atom_site_label
_atom_site_fract_x
_atom_site_fract_y
_atom_site_fract_z
Si Si1 0.541373 0.009580 0.253928
Si Si2 0.196662 0.749093 0.760965
Si Si3 0.787039 0.959398 0.816952
Si Si4 0.844258 0.975220 0.037456
Si Si5 0.361693 0.556502 0.722385
Si Si6 0.189239 0.698436 0.346020
Si Si7 0.463278 0.578230 0.939806
Si Si8 0.860404 0.675603 0.446257
O O1 0.577850 0.273942 0.247618
O O2 0.316283 0.818396 0.526066
O O3 0.665176 0.946232 0.182442
O O4 0.628754 0.992444 0.053241
O O5 0.323181 0.715139 0.694732
O O6 0.175485 0.967099 0.827328
O O7 0.000000 0.500000 0.000000
O O8 0.801682 0.053807 0.690299
O O9 0.707907 0.674547 0.913544
O O10 0.984238 0.127447 0.651521
O O11 0.024841 0.215367 0.785033
O O12 0.823415 0.715024 0.048032
O O13 0.500000 0.500000 0.500000
O O14 0.177868 0.578183 0.463510
O O15 0.000000 0.500000 0.500000
O O16 0.372493 0.727360 0.081567
O O17 0.665004 0.672349 0.658038
O O18 0.500000 0.500000 0.000000
#
# Coordination Sequence:
#
# PCOD9106921 Si02
#       8
#     2   2   2   2   2   2   2   2
#     4  10  21  39  61  90 122 166 207 256 309 364
#     4  11  23  37  58  92 128 157 201 265 314 359
#     4  10  22  40  63  90 125 168 209 253 313 375
#     4  10  20  40  62  87 123 166 209 251 310 373
#     4  11  19  40  65  82 116 170 212 245 307 377
#     4   9  20  41  63  91 123 159 203 249 312 371
#     4  10  22  40  61  90 124 161 205 260 311 363
#     4   9  21  39  62  89 124 162 203 258 306 363
#
# _framework density 25.871030000000001
#
# number of rings (size 3 to 8) (size 9 to 14) (size 15 to 20)
#    0.000    2.000    2.500    0.750    1.750    9.000 
#    2.250    8.750    0.000    0.000    0.000    0.000 
#    0.000    0.000    0.000    0.000    0.000    0.000 
#
# Total GULP energy -89263.878721 kJ/mol
# GULP energy per Si atom -5578.992420 kJ/mol
# Density = 2.581215 g / cm^3
# Si number density = 25.871030 Si / 1000 Ang^3
#
#
#
# Elastic Constant Matrix: (Units=GPa)
#
#
# Indices 1 2 3 4 5 6 
#
# 1 34.8522 9.0334 11.4904 0.8010 7.1421 -5.9215
# 2 9.0334 90.5413 23.8281 -6.3090 15.0587 12.9650
# 3 11.4904 23.8281 153.9744 -1.3302 9.8894 -0.2520
# 4 0.8010 -6.3090 -1.3302 39.2280 5.4136 -3.0889
# 5 7.1421 15.0587 9.8894 5.4136 38.0006 -3.5280
# 6 -5.9215 12.9650 -0.2520 -3.0889 -3.5280 26.4546
#
#
#
# Elastic Compliance Matrix: (Units=1/GPa)
#
#
# Indices 1 2 3 4 5 6 
#
# 1 0.032265 -0.003419 -0.001642 -0.000122 -0.003484 0.008403
# 2 -0.003419 0.014064 -0.001552 0.002415 -0.005626 -0.008141
# 3 -0.001642 -0.001552 0.006915 0.000166 -0.000866 0.000363
# 4 -0.000122 0.002415 0.000166 0.026631 -0.004652 0.001280
# 5 -0.003484 -0.005626 -0.000866 -0.004652 0.030599 0.005507
# 6 0.008403 -0.008141 0.000363 0.001280 0.005507 0.044559
#
#
# Mechanical properties :
#
#
# Convention : Reuss Voigt Hill
#
# Bulk Modulus (GPa) = 24.98973 40.89685 32.94329
# Shear Modulus (GPa) = 27.53307 36.40435 31.96871
#
# Velocity S-wave (km/s) = 3.26581 3.75527 3.51906
# Velocity P-wave (km/s) = 4.88887 5.88600 5.41045
#
# Compressibility (1/GPa) = 0.04001644
#
# Stress axis : x y z
#
# Youngs Moduli (GPa) = 30.99350 71.10252 144.61288
#
# Poissons Ratio (x) = 0.24312 0.23748
# Poissons Ratio (y) = 0.10597 0.22450
# Poissons Ratio (z) = 0.05090 0.11038
#
# Static dielectric constant tensor:
#      x y z
#    x 2.067930 0.017360 -0.029230 
#    y 0.017360 2.136780 0.004940 
#    z -0.029230 0.004940 2.148370 
# 
# From -- ./inp_files/138790.got.cif
#   From: 2010.05.17/outbox.cif.g08.bks.cpg/sg2_70_cif.got.tgz:138790.got - 2010.06.03 11:33:40.
