data_PCOD9106148
_publ_section_title
;
Structure prediction by ZEFSAII (Michael W. Deem and Ramdas Pophale) SiO2 
 PCOD9106148
Probable space group: P -1
;
_chemical_formula_sum "Si O2"
_cell_formula_units_Z 16
_cell_length_a 11.194601
_cell_length_b 8.508716
_cell_length_c 11.798615
_cell_angle_alpha 123.833831
_cell_angle_beta 51.281886
_cell_angle_gamma 116.114428
_cell_volume 721.004889
_symmetry_space_group_name_H-M "P -1"
_symmetry_group_IT_number 2
_symmetry_cell_setting 'triclinic'
loop_
_space_group_symop_operation_xyz
x,y,z
-x,-y,-z
loop_
_atom_site_type_symbol
_atom_site_label
_atom_site_fract_x
_atom_site_fract_y
_atom_site_fract_z
Si Si1 0.827240 0.485359 0.053020
Si Si2 0.234992 0.306940 0.367699
Si Si3 0.104349 0.875532 0.247618
Si Si4 0.655917 0.611294 0.896007
Si Si5 0.900123 0.334951 0.598059
Si Si6 0.171135 0.122712 0.928295
Si Si7 0.653643 0.624727 0.421184
Si Si8 0.217039 0.010304 0.616430
O O1 0.827821 0.666621 0.043120
O O2 0.725151 0.513590 0.233545
O O3 0.801940 0.277990 0.928291
O O4 0.000000 0.500000 0.000000
O O5 0.362531 0.375598 0.224351
O O6 0.259850 0.354004 0.502315
O O7 0.074238 0.386027 0.468144
O O8 0.203032 0.080814 0.279658
O O9 0.072723 0.797624 0.362000
O O10 0.945394 0.907317 0.288299
O O11 0.798732 0.488218 0.767237
O O12 0.500000 0.500000 0.000000
O O13 0.722697 0.815005 0.998906
O O14 0.800830 0.196632 0.511591
O O15 0.237097 0.010558 0.739693
O O16 0.000000 0.000000 0.000000
O O17 0.500000 0.500000 0.500000
O O18 0.652951 0.837187 0.457299
#
# Coordination Sequence:
#
# PCOD9106148 Si02
#       8
#     2   2   2   2   2   2   2   2
#     4  11  21  39  68  97 125 162 217 275 316 372
#     4  11  23  42  69  95 128 168 222 262 317 398
#     4  11  18  39  71 102 119 157 221 278 309 373
#     4  12  29  45  62  95 139 176 211 271 330 384
#     4  11  20  43  69  95 124 172 220 260 322 389
#     4  11  23  41  66  94 132 171 218 261 321 387
#     4  11  23  38  62  97 133 163 206 268 331 371
#     4  10  20  39  67  96 126 158 215 276 315 373
#
# _framework density 22.191251000000001
#
# number of rings (size 3 to 8) (size 9 to 14) (size 15 to 20)
#    0.000    1.000    6.250    2.625    3.500    0.000 
#    2.250    1.875    0.000    0.000    0.000    0.000 
#    0.000    0.000    0.000    0.000    0.000    0.000 
#
# Total GULP energy -89271.598197 kJ/mol
# GULP energy per Si atom -5579.474887 kJ/mol
# Density = 2.214074 g / cm^3
# Si number density = 22.191251 Si / 1000 Ang^3
#
#
#
# Elastic Constant Matrix: (Units=GPa)
#
#
# Indices 1 2 3 4 5 6 
#
# 1 27.0031 17.4973 29.9691 1.1310 17.3512 11.0404
# 2 17.4973 85.1584 70.4731 -10.9383 -2.2585 31.0722
# 3 29.9691 70.4731 158.1187 -9.2126 24.2271 18.6930
# 4 1.1310 -10.9383 -9.2126 54.9593 12.1233 4.0989
# 5 17.3512 -2.2585 24.2271 12.1233 28.3269 -4.1695
# 6 11.0404 31.0722 18.6930 4.0989 -4.1695 32.7549
#
#
#
# Elastic Compliance Matrix: (Units=1/GPa)
#
#
# Indices 1 2 3 4 5 6 
#
# 1 0.113180 -0.008448 0.001846 0.018606 -0.086088 -0.044475
# 2 -0.008448 0.030548 -0.011926 0.002468 0.014130 -0.017834
# 3 0.001846 -0.011926 0.013726 0.003181 -0.015103 0.000538
# 4 0.018606 0.002468 0.003181 0.026228 -0.027682 -0.017233
# 5 -0.086088 0.014130 -0.015103 -0.027682 0.120255 0.043004
# 6 -0.044475 -0.017834 0.000538 -0.017233 0.043004 0.069763
#
#
# Mechanical properties :
#
#
# Convention : Reuss Voigt Hill
#
# Bulk Modulus (GPa) = 8.30592 56.23991 32.27291
# Shear Modulus (GPa) = 11.08922 33.36426 22.22674
#
# Velocity S-wave (km/s) = 2.23785 3.88169 3.16824
# Velocity P-wave (km/s) = 3.22929 6.74450 5.28756
#
# Compressibility (1/GPa) = 0.12039606
#
# Stress axis : x y z
#
# Youngs Moduli (GPa) = 8.83550 32.73585 72.85490
#
# Poissons Ratio (x) = 0.27657 -0.13451
# Poissons Ratio (y) = 0.07465 0.86890
# Poissons Ratio (z) = -0.01631 0.39042
#
# Static dielectric constant tensor:
#      x y z
#    x 1.787290 -0.038140 0.132800 
#    y -0.038140 1.851640 -0.003090 
#    z 0.132800 -0.003090 1.725420 
# 
# From -- ./inp_files/418030.got.cif
#   From: 2010.05.17/outbox.cif.g08.bks.cpg/sg2_210_cif.got.tgz:418030.got - 2010.06.03 11:33:40.
