data_PCOD9106583
_publ_section_title
;
Structure prediction by ZEFSAII (Michael W. Deem and Ramdas Pophale) SiO2 
 PCOD9106583
Probable space group: P -1
;
_chemical_formula_sum "Si O2"
_cell_formula_units_Z 12
_cell_length_a 9.470204
_cell_length_b 10.790116
_cell_length_c 9.435812
_cell_angle_alpha 124.607241
_cell_angle_beta 43.990703
_cell_angle_gamma 98.444228
_cell_volume 490.002476
_symmetry_space_group_name_H-M "P -1"
_symmetry_group_IT_number 2
_symmetry_cell_setting 'triclinic'
loop_
_space_group_symop_operation_xyz
x,y,z
-x,-y,-z
loop_
_atom_site_type_symbol
_atom_site_label
_atom_site_fract_x
_atom_site_fract_y
_atom_site_fract_z
Si Si1 0.275659 0.161204 0.819189
Si Si2 0.193227 0.498800 0.247494
Si Si3 0.343321 0.997159 0.942754
Si Si4 0.230347 0.267667 0.429922
Si Si5 0.420610 0.520875 0.370914
Si Si6 0.181349 0.743611 0.930800
O O1 0.298297 0.323260 0.969795
O O2 0.211171 0.083825 0.952872
O O3 0.500000 0.000000 0.500000
O O4 0.610116 0.858059 0.645545
O O5 0.637076 0.472807 0.748696
O O6 0.040192 0.650090 0.348086
O O7 0.212239 0.906489 0.057687
O O8 0.337684 0.149023 0.138581
O O9 0.072241 0.222986 0.894311
O O10 0.294031 0.421039 0.472906
O O11 0.000000 0.500000 0.500000
O O12 0.312183 0.693125 0.649873
O O13 0.679484 0.406963 0.158409
#
# Coordination Sequence:
#
# PCOD9106583 Si02
#       6
#     2   2   2   2   2   2
#     4  12  23  36  54  86 121 148 175 228 296 336
#     4  10  16  34  59  77 101 157 191 211 263 349
#     4  10  19  32  57  90 108 136 194 242 263 309
#     4   9  16  31  60  84 103 141 197 225 263 322
#     4   9  16  31  60  84 103 141 197 225 263 322
#     4  10  19  32  57  90 108 136 194 242 263 309
#
# _framework density 24.489674000000001
#
# number of rings (size 3 to 8) (size 9 to 14) (size 15 to 20)
#    0.000    2.000    6.667    0.500    0.000    0.000 
#    0.000    1.667    0.000    2.000    0.000    0.000 
#    0.000    0.000    0.000    0.000    0.000    0.000 
#
# Total GULP energy -66941.072167 kJ/mol
# GULP energy per Si atom -5578.422681 kJ/mol
# Density = 2.443393 g / cm^3
# Si number density = 24.489674 Si / 1000 Ang^3
#
#
#
# Elastic Constant Matrix: (Units=GPa)
#
#
# Indices 1 2 3 4 5 6 
#
# 1 187.3590 12.0082 63.8106 4.2457 -33.8221 -10.1422
# 2 12.0082 20.9281 11.6304 -1.1350 -2.2193 -0.2295
# 3 63.8106 11.6304 116.4796 13.3819 -19.5058 -6.9640
# 4 4.2457 -1.1350 13.3819 33.2403 -8.5424 3.4141
# 5 -33.8221 -2.2193 -19.5058 -8.5424 43.2025 21.6940
# 6 -10.1422 -0.2295 -6.9640 3.4141 21.6940 16.1126
#
#
#
# Elastic Compliance Matrix: (Units=1/GPa)
#
#
# Indices 1 2 3 4 5 6 
#
# 1 0.008217 -0.000990 -0.003675 0.005939 0.014622 -0.017376
# 2 -0.000990 0.052431 -0.005008 0.008194 0.009799 -0.016971
# 3 -0.003675 -0.005008 0.011761 -0.006114 -0.003208 0.008313
# 4 0.005939 0.008194 -0.006114 0.056035 0.057865 -0.088570
# 5 0.014622 0.009799 -0.003208 0.057865 0.145882 -0.200720
# 6 -0.017376 -0.016971 0.008313 -0.088570 -0.200720 0.343495
#
#
# Mechanical properties :
#
#
# Convention : Reuss Voigt Hill
#
# Bulk Modulus (GPa) = 18.84560 55.51834 37.18197
# Shear Modulus (GPa) = 7.63528 34.33225 20.98376
#
# Velocity S-wave (km/s) = 1.76763 3.74827 2.93036
# Velocity P-wave (km/s) = 3.44646 6.43832 5.16382
#
# Compressibility (1/GPa) = 0.05306277
#
# Stress axis : x y z
#
# Youngs Moduli (GPa) = 121.70050 19.07259 85.02819
#
# Poissons Ratio (x) = 0.01889 0.31248
# Poissons Ratio (y) = 0.12052 0.42580
# Poissons Ratio (z) = 0.44725 0.09551
#
# Static dielectric constant tensor:
#      x y z
#    x 1.973550 -0.038240 -0.050480 
#    y -0.038240 1.941750 -0.026420 
#    z -0.050480 -0.026420 1.952610 
# 
# From -- ./inp_files/426642.got.cif
#   From: 2010.05.17/outbox.cif.g08.bks.cpg/sg2_214_cif.got.tgz:426642.got - 2010.06.03 11:33:40.
