data_PCOD9106357
_publ_section_title
;
Structure prediction by ZEFSAII (Michael W. Deem and Ramdas Pophale) SiO2 
 PCOD9106357
Probable space group: P -1
;
_chemical_formula_sum "Si O2"
_cell_formula_units_Z 14
_cell_length_a 10.510789
_cell_length_b 9.878142
_cell_length_c 7.387005
_cell_angle_alpha 73.970848
_cell_angle_beta 119.111428
_cell_angle_gamma 86.586082
_cell_volume 626.628559
_symmetry_space_group_name_H-M "P -1"
_symmetry_group_IT_number 2
_symmetry_cell_setting 'triclinic'
loop_
_space_group_symop_operation_xyz
x,y,z
-x,-y,-z
loop_
_atom_site_type_symbol
_atom_site_label
_atom_site_fract_x
_atom_site_fract_y
_atom_site_fract_z
Si Si1 0.668156 0.517676 0.569046
Si Si2 0.161501 0.390896 0.669630
Si Si3 0.254244 0.081636 0.700283
Si Si4 0.264101 0.256202 0.176435
Si Si5 0.806595 0.190767 0.822928
Si Si6 0.062141 0.046708 0.270031
Si Si7 0.432919 0.973784 0.229639
O O1 0.500000 0.500000 0.500000
O O2 0.709813 0.558348 0.378510
O O3 0.705368 0.635049 0.690028
O O4 0.777476 0.361184 0.736110
O O5 0.158434 0.237944 0.632553
O O6 0.000000 0.500000 0.500000
O O7 0.207442 0.352011 0.923137
O O8 0.143433 0.013140 0.529750
O O9 0.394136 0.086998 0.665349
O O10 0.343095 0.012933 0.964227
O O11 0.145250 0.163287 0.190892
O O12 0.402864 0.125848 0.258517
O O13 0.908792 0.102269 0.767858
O O14 0.650978 0.142498 0.705878
O O15 0.890653 0.126176 0.089052
#
# Coordination Sequence:
#
# PCOD9106357 Si02
#       7
#     2   2   2   2   2   2   2
#     4  12  26  43  67  99 136 174 216 273 335 387
#     4  11  24  42  67  98 131 173 222 265 327 403
#     4  10  20  39  69  91 124 174 227 259 326 389
#     4  10  23  42  69  92 130 174 222 264 326 394
#     4  10  23  38  58  97 130 160 219 272 322 379
#     4  10  21  40  66  89 126 175 214 269 322 385
#     4   9  21  41  65  94 124 169 223 276 310 396
#
# _framework density 22.341785000000002
#
# number of rings (size 3 to 8) (size 9 to 14) (size 15 to 20)
#    0.000    1.714    1.429    1.714    4.000    4.571 
#    2.571    0.000    0.000    0.000    0.000    0.000 
#    0.000    0.000    0.000    0.000    0.000    0.000 
#
# Total GULP energy -78204.922281 kJ/mol
# GULP energy per Si atom -5586.065877 kJ/mol
# Density = 2.229093 g / cm^3
# Si number density = 22.341785 Si / 1000 Ang^3
#
#
#
# Elastic Constant Matrix: (Units=GPa)
#
#
# Indices 1 2 3 4 5 6 
#
# 1 106.7005 35.8828 36.0485 -1.7446 8.1572 11.5390
# 2 35.8828 150.7814 64.1985 -0.7301 6.0674 -18.0953
# 3 36.0485 64.1985 118.8504 9.2964 -9.3452 -10.8807
# 4 -1.7446 -0.7301 9.2964 32.5917 0.9484 8.3596
# 5 8.1572 6.0674 -9.3452 0.9484 40.0967 -3.4356
# 6 11.5390 -18.0953 -10.8807 8.3596 -3.4356 21.8309
#
#
#
# Elastic Compliance Matrix: (Units=1/GPa)
#
#
# Indices 1 2 3 4 5 6 
#
# 1 0.014257 -0.002859 -0.005117 0.006334 -0.005155 -0.015693
# 2 -0.002859 0.009922 -0.003775 -0.000879 -0.001092 0.008019
# 3 -0.005117 -0.003775 0.013960 -0.007127 0.005908 0.010192
# 4 0.006334 -0.000879 -0.007127 0.039247 -0.005764 -0.023564
# 5 -0.005155 -0.001092 0.005908 -0.005764 0.028651 0.011480
# 6 -0.015693 0.008019 0.010192 -0.023564 0.011480 0.076658
#
#
# Mechanical properties :
#
#
# Convention : Reuss Voigt Hill
#
# Bulk Modulus (GPa) = 68.32526 72.06578 70.19552
# Shear Modulus (GPa) = 23.68801 34.91736 29.30268
#
# Velocity S-wave (km/s) = 3.25969 3.95761 3.62548
# Velocity P-wave (km/s) = 6.69445 7.29449 7.00090
#
# Compressibility (1/GPa) = 0.01463588
#
# Stress axis : x y z
#
# Youngs Moduli (GPa) = 70.13956 100.78677 71.63122
#
# Poissons Ratio (x) = 0.28818 0.36656
# Poissons Ratio (y) = 0.20055 0.27042
# Poissons Ratio (z) = 0.35893 0.38049
#
# Static dielectric constant tensor:
#      x y z
#    x 1.933990 0.024290 -0.084740 
#    y 0.024290 1.768890 -0.023950 
#    z -0.084740 -0.023950 1.879460 
# 
# From -- ./inp_files/204458.got.cif
#   From: 2010.05.17/outbox.cif.g08.bks.cpg/sg2_103_cif.got.tgz:204458.got - 2010.06.03 11:33:40.
