data_PCOD9106543
_publ_section_title
;
Structure prediction by ZEFSAII (Michael W. Deem and Ramdas Pophale) SiO2 
 PCOD9106543
Probable space group: P -1
;
_chemical_formula_sum "Si O2"
_cell_formula_units_Z 16
_cell_length_a 16.778804
_cell_length_b 9.378920
_cell_length_c 7.380019
_cell_angle_alpha 52.956223
_cell_angle_beta 57.888517
_cell_angle_gamma 42.923662
_cell_volume 622.495773
_symmetry_space_group_name_H-M "P -1"
_symmetry_group_IT_number 2
_symmetry_cell_setting 'triclinic'
loop_
_space_group_symop_operation_xyz
x,y,z
-x,-y,-z
loop_
_atom_site_type_symbol
_atom_site_label
_atom_site_fract_x
_atom_site_fract_y
_atom_site_fract_z
Si Si1 0.603364 0.368534 0.833767
Si Si2 0.019524 0.315705 0.867987
Si Si3 0.198186 0.101448 0.140805
Si Si4 0.779931 0.490171 0.577317
Si Si5 0.776397 0.536582 0.126413
Si Si6 0.570357 0.919904 0.670479
Si Si7 0.044156 0.203911 0.546221
Si Si8 0.474358 0.304271 0.774553
O O1 0.684934 0.444016 0.708522
O O2 0.542016 0.400645 0.690492
O O3 0.695358 0.101831 0.945724
O O4 0.500000 0.500000 0.000000
O O5 0.092387 0.245296 0.016383
O O6 0.085675 0.155614 0.739343
O O7 0.982586 0.558773 0.664992
O O8 0.899505 0.345437 0.030342
O O9 0.144440 0.032476 0.413165
O O10 0.460409 0.865863 0.343671
O O11 0.245234 0.229838 0.075164
O O12 0.708782 0.718314 0.608838
O O13 0.910915 0.278631 0.643452
O O14 0.796090 0.531770 0.320123
O O15 0.666139 0.539485 0.215633
O O16 0.500000 0.000000 0.500000
O O17 0.525625 0.822407 0.944297
#
# Coordination Sequence:
#
# PCOD9106543 Si02
#       8
#     2   2   2   2   2   2   2   2
#     4  12  29  47  65 100 152 193 227 290 350 414
#     4  10  20  39  73 111 133 166 235 296 347 405
#     4  11  22  46  70 101 140 177 232 289 349 411
#     4  12  23  43  70 100 146 183 226 289 358 405
#     4  11  21  42  75 104 135 180 234 293 339 417
#     4  11  22  39  70 100 126 181 241 289 330 407
#     4  10  21  40  72 108 133 174 229 292 350 413
#     4  11  24  44  67  98 140 186 237 279 344 409
#
# _framework density 25.702985000000002
#
# number of rings (size 3 to 8) (size 9 to 14) (size 15 to 20)
#    0.000    1.000    5.000    3.000    0.000    3.000 
#    0.000    1.875    0.000    0.000    0.000    0.000 
#    0.000    0.000    0.000    0.000    0.000    0.000 
#
# Total GULP energy -89520.034512 kJ/mol
# GULP energy per Si atom -5595.002157 kJ/mol
# Density = 2.564448 g / cm^3
# Si number density = 25.702985 Si / 1000 Ang^3
#
#
#
# Elastic Constant Matrix: (Units=GPa)
#
#
# Indices 1 2 3 4 5 6 
#
# 1 140.5306 13.6225 45.9543 19.5734 -5.5198 -4.9523
# 2 13.6225 61.3985 10.4829 27.8915 0.9636 -0.8531
# 3 45.9543 10.4829 94.9826 34.2876 7.5410 3.0482
# 4 19.5734 27.8915 34.2876 34.8038 -1.1985 2.8337
# 5 -5.5198 0.9636 7.5410 -1.1985 58.7714 11.6470
# 6 -4.9523 -0.8531 3.0482 2.8337 11.6470 32.9383
#
#
#
# Elastic Compliance Matrix: (Units=1/GPa)
#
#
# Indices 1 2 3 4 5 6 
#
# 1 0.008699 -0.001392 -0.004349 0.000448 0.001164 0.001224
# 2 -0.001392 0.030085 0.009406 -0.033005 -0.003234 0.003682
# 3 -0.004349 0.009406 0.021427 -0.026452 -0.004117 0.001338
# 4 0.000448 -0.033005 -0.026452 0.081885 0.007220 -0.007937
# 5 0.001164 -0.003234 -0.004117 0.007220 0.019230 -0.006949
# 6 0.001224 0.003682 0.001338 -0.007937 -0.006949 0.033655
#
#
# Mechanical properties :
#
#
# Convention : Reuss Voigt Hill
#
# Bulk Modulus (GPa) = 14.80572 48.55900 31.68236
# Shear Modulus (GPa) = 23.79075 40.42617 32.10846
#
# Velocity S-wave (km/s) = 3.04567 3.97018 3.53825
# Velocity P-wave (km/s) = 4.25922 6.32059 5.38938
#
# Compressibility (1/GPa) = 0.06754145
#
# Stress axis : x y z
#
# Youngs Moduli (GPa) = 114.95061 33.23912 46.67005
#
# Poissons Ratio (x) = 0.04629 0.20296
# Poissons Ratio (y) = 0.16007 -0.43899
# Poissons Ratio (z) = 0.49989 -0.31266
#
# Static dielectric constant tensor:
#      x y z
#    x 2.025120 0.028430 -0.032040 
#    y 0.028430 2.118050 -0.079000 
#    z -0.032040 -0.079000 2.106170 
# 
# From -- ./inp_files/330744.got.cif
#   From: 2010.05.17/outbox.cif.g08.bks.cpg/sg2_166_cif.got.tgz:330744.got - 2010.06.03 11:33:40.
