data_PCOD9106552
_publ_section_title
;
Structure prediction by ZEFSAII (Michael W. Deem and Ramdas Pophale) SiO2 
 PCOD9106552
Probable space group: P -1
;
_chemical_formula_sum "Si O2"
_cell_formula_units_Z 14
_cell_length_a 12.839094
_cell_length_b 6.618741
_cell_length_c 7.962464
_cell_angle_alpha 83.913786
_cell_angle_beta 68.002942
_cell_angle_gamma 122.086885
_cell_volume 489.849002
_symmetry_space_group_name_H-M "P -1"
_symmetry_group_IT_number 2
_symmetry_cell_setting 'triclinic'
loop_
_space_group_symop_operation_xyz
x,y,z
-x,-y,-z
loop_
_atom_site_type_symbol
_atom_site_label
_atom_site_fract_x
_atom_site_fract_y
_atom_site_fract_z
Si Si1 0.053928 0.778252 0.634272
Si Si2 0.692132 0.722732 0.047350
Si Si3 0.860730 0.652332 0.451980
Si Si4 0.381880 0.802160 0.869341
Si Si5 0.472197 0.661133 0.380019
Si Si6 0.961937 0.192130 0.989592
Si Si7 0.302869 0.964637 0.233413
O O1 0.925465 0.645499 0.589598
O O2 0.009323 0.672027 0.861294
O O3 0.813037 0.190650 0.535544
O O4 0.105777 0.069168 0.596107
O O5 0.703692 0.498043 0.100459
O O6 0.532850 0.631559 0.174643
O O7 0.792839 0.972112 0.083000
O O8 0.734336 0.849895 0.828255
O O9 0.690965 0.455408 0.534460
O O10 0.428263 0.026826 0.687392
O O11 0.537128 0.882880 0.811950
O O12 0.043626 0.336757 0.756004
O O13 0.311541 0.826730 0.075032
O O14 0.500000 0.500000 0.500000
O O15 0.000000 0.000000 0.000000
#
# Coordination Sequence:
#
# PCOD9106552 Si02
#       7
#     2   2   2   2   2   2   2
#     4  10  20  39  74 110 148 200 262 306 388 472
#     4  11  22  44  79 109 153 205 248 326 393 453
#     4  10  21  41  72 111 147 206 255 311 397 461
#     4  10  24  42  73 117 154 197 267 314 387 474
#     4  11  24  45  75 109 156 205 257 322 389 462
#     4  10  21  41  72 113 147 198 261 312 384 462
#     4  10  21  44  72 116 152 198 256 323 384 468
#
# _framework density 28.580234999999998
#
# number of rings (size 3 to 8) (size 9 to 14) (size 15 to 20)
#    0.000    1.714    1.429    3.000    0.000    2.857 
#    0.000    2.143    3.143   11.143    0.000    0.000 
#    0.000    0.000    0.000    0.000    0.000    0.000 
#
# Total GULP energy -78333.637584 kJ/mol
# GULP energy per Si atom -5595.259827 kJ/mol
# Density = 2.851519 g / cm^3
# Si number density = 28.580235 Si / 1000 Ang^3
#
#
#
# Elastic Constant Matrix: (Units=GPa)
#
#
# Indices 1 2 3 4 5 6 
#
# 1 184.5113 76.5605 70.9311 4.2078 -24.6806 8.1673
# 2 76.5605 123.4200 93.0376 7.3660 -31.3831 -8.3578
# 3 70.9311 93.0376 237.9711 13.0708 -1.7530 2.6515
# 4 4.2078 7.3660 13.0708 47.8591 -5.6537 -0.7510
# 5 -24.6806 -31.3831 -1.7530 -5.6537 57.0102 9.1468
# 6 8.1673 -8.3578 2.6515 -0.7510 9.1468 49.6202
#
#
#
# Elastic Compliance Matrix: (Units=1/GPa)
#
#
# Indices 1 2 3 4 5 6 
#
# 1 0.007631 -0.004010 -0.000687 0.000271 0.001448 -0.002157
# 2 -0.004010 0.016375 -0.005189 0.000083 0.006733 0.002455
# 3 -0.000687 -0.005189 0.006490 -0.001276 -0.002988 -0.000576
# 4 0.000271 0.000083 -0.001276 0.021473 0.002262 -0.000054
# 5 0.001448 0.006733 -0.002988 0.002262 0.022497 -0.003057
# 6 -0.002157 0.002455 -0.000576 -0.000054 -0.003057 0.021515
#
#
# Mechanical properties :
#
#
# Convention : Reuss Voigt Hill
#
# Bulk Modulus (GPa) = 93.24854 114.10676 103.67765
# Shear Modulus (GPa) = 41.90183 51.25613 46.57898
#
# Velocity S-wave (km/s) = 3.83314 4.23946 4.04141
# Velocity P-wave (km/s) = 7.23107 7.99849 7.62444
#
# Compressibility (1/GPa) = 0.01072403
#
# Stress axis : x y z
#
# Youngs Moduli (GPa) = 131.05185 61.06974 154.07928
#
# Poissons Ratio (x) = 0.24487 0.10585
# Poissons Ratio (y) = 0.52547 0.79953
# Poissons Ratio (z) = 0.09003 0.31690
#
# Static dielectric constant tensor:
#      x y z
#    x 2.284100 0.040080 0.065390 
#    y 0.040080 2.292900 -0.072060 
#    z 0.065390 -0.072060 2.346910 
# 
# From -- ./inp_files/445655.got.cif
#   From: 2010.05.17/outbox.cif.g08.bks.cpg/sg2_223_cif.got.tgz:445655.got - 2010.06.03 11:33:40.
