data_PCOD9106173
_publ_section_title
;
Structure prediction by ZEFSAII (Michael W. Deem and Ramdas Pophale) SiO2 
 PCOD9106173
Probable space group: P -1
;
_chemical_formula_sum "Si O2"
_cell_formula_units_Z 16
_cell_length_a 10.429287
_cell_length_b 15.048447
_cell_length_c 8.942559
_cell_angle_alpha 59.294329
_cell_angle_beta 62.932824
_cell_angle_gamma 110.423326
_cell_volume 699.314314
_symmetry_space_group_name_H-M "P -1"
_symmetry_group_IT_number 2
_symmetry_cell_setting 'triclinic'
loop_
_space_group_symop_operation_xyz
x,y,z
-x,-y,-z
loop_
_atom_site_type_symbol
_atom_site_label
_atom_site_fract_x
_atom_site_fract_y
_atom_site_fract_z
Si Si1 0.946570 0.569457 0.140004
Si Si2 0.325743 0.281249 0.419005
Si Si3 0.554739 0.987262 0.651430
Si Si4 0.746734 0.670514 0.259601
Si Si5 0.237349 0.449008 0.184675
Si Si6 0.229222 0.635062 0.176563
Si Si7 0.065469 0.970455 0.636796
Si Si8 0.805869 0.282934 0.427409
O O1 0.888215 0.641473 0.195732
O O2 0.762128 0.378878 0.405789
O O3 0.154427 0.625754 0.057263
O O4 0.031140 0.634003 0.874183
O O5 0.247632 0.271740 0.632391
O O6 0.266433 0.345174 0.288857
O O7 0.207133 0.117039 0.553028
O O8 0.593992 0.426127 0.144481
O O9 0.595677 0.104923 0.639735
O O10 0.500000 0.000000 0.500000
O O11 0.778017 0.041446 0.474447
O O12 0.388383 0.816513 0.968089
O O13 0.500000 0.500000 0.500000
O O14 0.848357 0.805415 0.971109
O O15 0.325448 0.572277 0.166010
O O16 0.973977 0.325076 0.421031
O O17 0.000000 0.500000 0.500000
O O18 0.000000 0.000000 0.500000
#
# Coordination Sequence:
#
# PCOD9106173 Si02
#       8
#     2   2   2   2   2   2   2   2
#     4  10  21  39  64  96 131 174 230 287 345 415
#     4  11  24  42  69  99 147 187 237 286 357 422
#     4  12  23  42  69 101 133 181 232 290 349 419
#     4  12  26  43  69 104 143 184 238 296 353 418
#     4  10  22  40  67  99 133 189 228 285 354 429
#     4  11  22  40  65  97 132 173 229 286 350 418
#     4  12  27  46  70 106 147 188 239 292 355 428
#     4  10  20  39  67  97 133 173 237 286 350 417
#
# _framework density 22.879553000000001
#
# number of rings (size 3 to 8) (size 9 to 14) (size 15 to 20)
#    0.000    1.000    3.750    2.625    3.500    2.000 
#    0.000    5.000    0.000    0.000    0.000    0.000 
#    0.000    0.000    0.000    0.000    0.000    0.000 
#
# Total GULP energy -89304.261982 kJ/mol
# GULP energy per Si atom -5581.516374 kJ/mol
# Density = 2.282748 g / cm^3
# Si number density = 22.879553 Si / 1000 Ang^3
#
#
#
# Elastic Constant Matrix: (Units=GPa)
#
#
# Indices 1 2 3 4 5 6 
#
# 1 58.8160 -1.6625 4.5431 4.9561 7.3139 -2.9351
# 2 -1.6625 113.3069 25.1263 -18.5630 12.2062 -10.5264
# 3 4.5431 25.1263 128.3792 -18.0361 5.8529 -2.4863
# 4 4.9561 -18.5630 -18.0361 49.6535 -6.9893 -2.6868
# 5 7.3139 12.2062 5.8529 -6.9893 17.6265 -3.5204
# 6 -2.9351 -10.5264 -2.4863 -2.6868 -3.5204 34.2047
#
#
#
# Elastic Compliance Matrix: (Units=1/GPa)
#
#
# Indices 1 2 3 4 5 6 
#
# 1 0.018526 0.001013 -0.000849 -0.003036 -0.009179 0.000657
# 2 0.001013 0.010451 -0.001398 0.002668 -0.005569 0.002838
# 3 -0.000849 -0.001398 0.008482 0.002601 -0.000410 0.000276
# 4 -0.003036 0.002668 0.002601 0.023797 0.008686 0.003513
# 5 -0.009179 -0.005569 -0.000410 0.008686 0.069028 0.005255
# 6 0.000657 0.002838 0.000276 0.003513 0.005255 0.031002
#
#
# Mechanical properties :
#
#
# Convention : Reuss Voigt Hill
#
# Bulk Modulus (GPa) = 28.57823 39.61287 34.09555
# Shear Modulus (GPa) = 28.50309 38.46328 33.48319
#
# Velocity S-wave (km/s) = 3.53340 4.10459 3.82966
# Velocity P-wave (km/s) = 5.40041 6.30990 5.87279
#
# Compressibility (1/GPa) = 0.03499167
#
# Stress axis : x y z
#
# Youngs Moduli (GPa) = 53.97713 95.68436 117.89101
#
# Poissons Ratio (x) = -0.09689 0.10010
# Poissons Ratio (y) = -0.05466 0.16477
# Poissons Ratio (z) = 0.04583 0.13373
#
# Static dielectric constant tensor:
#      x y z
#    x 2.004810 0.086130 0.043750 
#    y 0.086130 2.019610 0.022870 
#    z 0.043750 0.022870 1.924590 
# 
# From -- ./inp_files/272118.got.cif
#   From: 2010.05.17/outbox.cif.g08.bks.cpg/sg2_137_cif.got.tgz:272118.got - 2010.06.03 11:33:40.
