data_PCOD9106053
_publ_section_title
;
Structure prediction by ZEFSAII (Michael W. Deem and Ramdas Pophale) SiO2 
 PCOD9106053
Probable space group: P -1
;
_chemical_formula_sum "Si O2"
_cell_formula_units_Z 15
_cell_length_a 6.070365
_cell_length_b 8.359385
_cell_length_c 15.649815
_cell_angle_alpha 53.638780
_cell_angle_beta 101.772180
_cell_angle_gamma 121.361896
_cell_volume 539.736467
_symmetry_space_group_name_H-M "P -1"
_symmetry_group_IT_number 2
_symmetry_cell_setting 'triclinic'
loop_
_space_group_symop_operation_xyz
x,y,z
-x,-y,-z
loop_
_atom_site_type_symbol
_atom_site_label
_atom_site_fract_x
_atom_site_fract_y
_atom_site_fract_z
Si Si1 0.459263 0.376427 0.894048
Si Si2 0.632581 0.970458 0.437997
Si Si3 0.920857 0.229554 0.616691
Si Si4 0.284370 0.431781 0.432142
Si Si5 0.953448 0.777546 0.737597
Si Si6 0.245564 0.804129 0.218304
Si Si7 0.331065 0.687738 0.900286
Si Si8 0.500000 0.000000 0.000000
O O1 0.328923 0.477773 0.916023
O O2 0.652020 0.587097 0.783605
O O3 0.634932 0.312583 0.993801
O O4 0.325070 0.127833 0.919084
O O5 0.868904 0.194281 0.340289
O O6 0.500000 0.000000 0.500000
O O7 0.388255 0.860469 0.388272
O O8 0.729157 0.797642 0.530028
O O9 0.996841 0.295634 0.702152
O O10 0.041204 0.372878 0.493156
O O11 0.980062 0.023585 0.671900
O O12 0.500000 0.500000 0.500000
O O13 0.348816 0.631972 0.307549
O O14 0.097915 0.723390 0.841991
O O15 0.273101 0.834162 0.109455
O O16 0.408208 0.072091 0.175157
#
# Coordination Sequence:
#
# PCOD9106053 Si02
#       8
#     2   2   2   2   2   2   2   1
#     4  10  21  40  63  91 125 168 213 270 320 384
#     4  11  25  41  62 100 130 166 221 272 334 389
#     4  11  22  41  69  96 132 175 218 270 333 389
#     4  11  23  40  69 100 130 177 222 268 326 397
#     4  11  20  38  67  93 122 169 219 263 325 395
#     4  11  20  42  64  94 133 171 217 267 322 395
#     4  10  20  39  67  89 122 167 223 261 316 389
#     4  10  26  40  66  96 130 172 208 268 340 378
#
# _framework density 27.791338
#
# number of rings (size 3 to 8) (size 9 to 14) (size 15 to 20)
#    0.000    1.333    4.000    1.600    0.000    5.333 
#    0.000    0.667    2.933    0.000    0.000    0.000 
#    0.000    0.000    0.000    0.000    0.000    0.000 
#
# Total GULP energy -83511.425595 kJ/mol
# GULP energy per Si atom -5567.428373 kJ/mol
# Density = 2.772808 g / cm^3
# Si number density = 27.791338 Si / 1000 Ang^3
#
#
#
# Elastic Constant Matrix: (Units=GPa)
#
#
# Indices 1 2 3 4 5 6 
#
# 1 64.5120 9.3842 27.4899 13.5251 -6.8962 -7.0686
# 2 9.3842 53.8118 15.4253 12.3350 -4.7502 -20.9760
# 3 27.4899 15.4253 217.0400 6.3373 -35.1555 -7.8394
# 4 13.5251 12.3350 6.3373 42.7224 -10.9480 -9.3716
# 5 -6.8962 -4.7502 -35.1555 -10.9480 49.2364 3.3019
# 6 -7.0686 -20.9760 -7.8394 -9.3716 3.3019 45.7312
#
#
#
# Elastic Compliance Matrix: (Units=1/GPa)
#
#
# Indices 1 2 3 4 5 6 
#
# 1 0.017601 -0.001045 -0.002015 -0.004823 -0.000208 0.000923
# 2 -0.001045 0.023843 -0.001128 -0.004323 -0.000264 0.009715
# 3 -0.002015 -0.001128 0.005529 0.001135 0.003804 0.000077
# 4 -0.004823 -0.004323 0.001135 0.028111 0.005780 0.002810
# 5 -0.000208 -0.000264 0.003804 0.005780 0.024261 -0.000068
# 6 0.000923 0.009715 0.000077 0.002810 -0.000068 0.027059
#
#
# Mechanical properties :
#
#
# Convention : Reuss Voigt Hill
#
# Bulk Modulus (GPa) = 25.90833 48.88473 37.39653
# Shear Modulus (GPa) = 33.86475 46.40896 40.13685
#
# Velocity S-wave (km/s) = 3.49454 4.09088 3.80441
# Velocity P-wave (km/s) = 5.06212 6.31996 5.72569
#
# Compressibility (1/GPa) = 0.03859762
#
# Stress axis : x y z
#
# Youngs Moduli (GPa) = 56.81359 41.94059 180.88021
#
# Poissons Ratio (x) = 0.04384 0.36441
# Poissons Ratio (y) = 0.05939 0.20400
# Poissons Ratio (z) = 0.11446 0.04730
#
# Static dielectric constant tensor:
#      x y z
#    x 2.287220 0.105240 -0.036040 
#    y 0.105240 2.028880 0.194140 
#    z -0.036040 0.194140 2.215130 
# 
# From -- ./inp_files/546901.got.cif
#   From: 2010.05.17/outbox.cif.g08.bks.cpg/sg2_274_cif.got.tgz:546901.got - 2010.06.03 11:33:40.
