data_PCOD9106586
_publ_section_title
;
Structure prediction by ZEFSAII (Michael W. Deem and Ramdas Pophale) SiO2 
 PCOD9106586
Probable space group: P -1
;
_chemical_formula_sum "Si O2"
_cell_formula_units_Z 12
_cell_length_a 5.326819
_cell_length_b 12.914876
_cell_length_c 14.797847
_cell_angle_alpha 29.611826
_cell_angle_beta 72.914230
_cell_angle_gamma 85.241474
_cell_volume 447.620380
_symmetry_space_group_name_H-M "P -1"
_symmetry_group_IT_number 2
_symmetry_cell_setting 'triclinic'
loop_
_space_group_symop_operation_xyz
x,y,z
-x,-y,-z
loop_
_atom_site_type_symbol
_atom_site_label
_atom_site_fract_x
_atom_site_fract_y
_atom_site_fract_z
Si Si1 0.948212 0.413173 0.798322
Si Si2 0.990522 0.810029 0.215850
Si Si3 0.520903 0.651005 0.526590
Si Si4 0.585737 0.765290 0.775963
Si Si5 0.658845 0.790108 0.027866
Si Si6 0.159780 0.022207 0.603296
O O1 0.214529 0.650907 0.592207
O O2 0.056295 0.264228 0.970847
O O3 0.963757 0.367774 0.722096
O O4 0.613493 0.319092 0.923109
O O5 0.693137 0.732163 0.356415
O O6 0.242095 0.949230 0.153153
O O7 0.000000 0.000000 0.000000
O O8 0.447503 0.383428 0.744345
O O9 0.739349 0.788530 0.474649
O O10 0.328507 0.854624 0.730103
O O11 0.827849 0.886707 0.731784
O O12 0.735005 0.843334 0.603569
O O13 0.500000 0.500000 0.000000
#
# Coordination Sequence:
#
# PCOD9106586 Si02
#       6
#     2   2   2   2   2   2
#     4   9  20  38  57  81 119 167 208 259 310 360
#     4  10  20  40  57  86 124 172 218 260 311 370
#     4  10  23  38  62  91 127 163 214 267 317 377
#     4  10  22  45  71  96 132 166 207 263 334 404
#     4   9  21  37  56  82 117 163 211 259 311 363
#     4  10  23  41  69 101 129 168 211 265 329 394
#
# _framework density 26.808429
#
# number of rings (size 3 to 8) (size 9 to 14) (size 15 to 20)
#    1.000    1.333    0.000    1.500    2.333    2.000 
#    6.000    3.333    0.000    0.000    0.000    0.000 
#    0.000    0.000    0.000    0.000    0.000    0.000 
#
# Total GULP energy -66868.569653 kJ/mol
# GULP energy per Si atom -5572.380804 kJ/mol
# Density = 2.674741 g / cm^3
# Si number density = 26.808429 Si / 1000 Ang^3
#
#
#
# Elastic Constant Matrix: (Units=GPa)
#
#
# Indices 1 2 3 4 5 6 
#
# 1 194.2341 18.6811 61.0647 -7.8517 -35.5041 21.7106
# 2 18.6811 83.4926 46.5183 -3.3635 -22.1162 14.2174
# 3 61.0647 46.5183 160.1949 -7.2530 -28.0826 1.2059
# 4 -7.8517 -3.3635 -7.2530 55.2029 1.6368 -16.0023
# 5 -35.5041 -22.1162 -28.0826 1.6368 38.4469 -5.4201
# 6 21.7106 14.2174 1.2059 -16.0023 -5.4201 24.3598
#
#
#
# Elastic Compliance Matrix: (Units=1/GPa)
#
#
# Indices 1 2 3 4 5 6 
#
# 1 0.007558 0.002518 -0.002672 -0.001573 0.005429 -0.007899
# 2 0.002518 0.018287 -0.005006 -0.003208 0.007476 -0.013113
# 3 -0.002672 -0.005006 0.009164 0.002473 0.002224 0.006969
# 4 -0.001573 -0.003208 0.002473 0.023394 0.000127 0.018548
# 5 0.005429 0.007476 0.002224 0.000127 0.036796 -0.001042
# 6 -0.007899 -0.013113 0.006969 0.018548 -0.001042 0.067352
#
#
# Mechanical properties :
#
#
# Convention : Reuss Voigt Hill
#
# Bulk Modulus (GPa) = 40.50580 76.71666 58.61123
# Shear Modulus (GPa) = 27.60887 44.37907 35.99397
#
# Velocity S-wave (km/s) = 3.21262 4.07309 3.66818
# Velocity P-wave (km/s) = 5.37619 7.12733 6.31277
#
# Compressibility (1/GPa) = 0.02468782
#
# Stress axis : x y z
#
# Youngs Moduli (GPa) = 132.30834 54.68410 109.12331
#
# Poissons Ratio (x) = -0.13767 0.29159
# Poissons Ratio (y) = -0.33309 0.54627
# Poissons Ratio (z) = 0.35354 0.27375
#
# Static dielectric constant tensor:
#      x y z
#    x 2.469790 -0.123590 0.012360 
#    y -0.123590 2.215520 -0.022970 
#    z 0.012360 -0.022970 2.126360 
# 
# From -- ./inp_files/549637.got.cif
#   From: 2010.05.17/outbox.cif.g08.bks.cpg/sg2_275_cif.got.tgz:549637.got - 2010.06.03 11:33:40.
