data_PCOD9106564
_publ_section_title
;
Structure prediction by ZEFSAII (Michael W. Deem and Ramdas Pophale) SiO2 
 PCOD9106564
Probable space group: P -1
;
_chemical_formula_sum "Si O2"
_cell_formula_units_Z 12
_cell_length_a 8.950200
_cell_length_b 9.286597
_cell_length_c 9.812660
_cell_angle_alpha 100.944689
_cell_angle_beta 83.152292
_cell_angle_gamma 44.134334
_cell_volume 517.205023
_symmetry_space_group_name_H-M "P -1"
_symmetry_group_IT_number 2
_symmetry_cell_setting 'triclinic'
loop_
_space_group_symop_operation_xyz
x,y,z
-x,-y,-z
loop_
_atom_site_type_symbol
_atom_site_label
_atom_site_fract_x
_atom_site_fract_y
_atom_site_fract_z
Si Si1 0.033546 0.690610 0.568849
Si Si2 0.515292 0.747083 0.669692
Si Si3 0.264052 0.024468 0.108236
Si Si4 0.983055 0.996871 0.257212
Si Si5 0.928470 0.400668 0.741790
Si Si6 0.703799 0.816581 0.141468
O O1 0.889864 0.761923 0.731798
O O2 0.948774 0.683588 0.435612
O O3 0.303240 0.446792 0.496237
O O4 0.006875 0.886883 0.604501
O O5 0.286515 0.819190 0.716864
O O6 0.666017 0.630678 0.771227
O O7 0.430168 0.975810 0.701230
O O8 0.140517 0.958710 0.118907
O O9 0.520332 0.833757 0.112354
O O10 0.255311 0.107171 0.978549
O O11 0.066536 0.773560 0.245143
O O12 0.061351 0.391451 0.841604
#
# Coordination Sequence:
#
# PCOD9106564 Si02
#       6
#     2   2   2   2   2   2
#     4   8  18  34  56  80 103 134 178 212 259 310
#     4   9  19  33  59  78 106 131 179 216 261 302
#     4   9  21  35  57  73 108 147 170 205 275 306
#     4   9  17  36  56  77 108 136 171 215 264 308
#     4   9  19  33  59  78 106 131 179 216 261 302
#     4  10  20  40  52  73 112 144 168 217 256 313
#
# _framework density 23.201630999999999
#
# number of rings (size 3 to 8) (size 9 to 14) (size 15 to 20)
#    2.000    1.000    0.000    1.000    0.000    4.000 
#    0.000    8.333    7.333    0.000    0.000    0.000 
#    0.000    0.000    0.000    0.000    0.000    0.000 
#
# Total GULP energy -66860.890943 kJ/mol
# GULP energy per Si atom -5571.740912 kJ/mol
# Density = 2.314882 g / cm^3
# Si number density = 23.201631 Si / 1000 Ang^3
#
#
#
# Elastic Constant Matrix: (Units=GPa)
#
#
# Indices 1 2 3 4 5 6 
#
# 1 75.7567 22.1818 7.9185 0.5991 -16.0950 -12.9163
# 2 22.1818 101.4598 6.7326 -8.7501 -5.6698 -17.8882
# 3 7.9185 6.7326 78.7380 -8.0687 2.4462 -1.4348
# 4 0.5991 -8.7501 -8.0687 20.6656 -2.0389 12.6345
# 5 -16.0950 -5.6698 2.4462 -2.0389 40.6631 0.9713
# 6 -12.9163 -17.8882 -1.4348 12.6345 0.9713 38.4278
#
#
#
# Elastic Compliance Matrix: (Units=1/GPa)
#
#
# Indices 1 2 3 4 5 6 
#
# 1 0.016459 -0.002560 -0.002063 -0.005386 0.005871 0.005886
# 2 -0.002560 0.011324 -0.000397 0.002627 0.000637 0.003516
# 3 -0.002063 -0.000397 0.013614 0.006615 -0.001299 -0.002512
# 4 -0.005386 0.002627 0.006615 0.065882 0.001666 -0.022044
# 5 0.005871 0.000637 -0.001299 0.001666 0.027143 0.000988
# 6 0.005886 0.003516 -0.002512 -0.022044 0.000988 0.036767
#
#
# Mechanical properties :
#
#
# Convention : Reuss Voigt Hill
#
# Bulk Modulus (GPa) = 31.89207 36.62448 34.25827
# Shear Modulus (GPa) = 26.08470 34.55940 30.32205
#
# Velocity S-wave (km/s) = 3.35664 3.86362 3.61902
# Velocity P-wave (km/s) = 5.36639 5.97687 5.67984
#
# Compressibility (1/GPa) = 0.03135576
#
# Stress axis : x y z
#
# Youngs Moduli (GPa) = 60.75736 88.30550 73.45224
#
# Poissons Ratio (x) = 0.22607 0.15156
# Poissons Ratio (y) = 0.15555 0.02919
# Poissons Ratio (z) = 0.12537 0.03509
#
# Static dielectric constant tensor:
#      x y z
#    x 1.901050 0.007190 0.016090 
#    y 0.007190 1.859940 0.020230 
#    z 0.016090 0.020230 1.943970 
# 
# From -- ./inp_files/296945.got.cif
#   From: 2010.05.17/outbox.cif.g08.bks.cpg/sg2_149_cif.got.tgz:296945.got - 2010.06.03 11:33:40.
