data_PCOD9106691
_publ_section_title
;
Structure prediction by ZEFSAII (Michael W. Deem and Ramdas Pophale) SiO2 
 PCOD9106691
Probable space group: P -1
;
_chemical_formula_sum "Si O2"
_cell_formula_units_Z 14
_cell_length_a 9.250890
_cell_length_b 12.226343
_cell_length_c 13.602558
_cell_angle_alpha 56.516598
_cell_angle_beta 116.500575
_cell_angle_gamma 156.443838
_cell_volume 504.582856
_symmetry_space_group_name_H-M "P -1"
_symmetry_group_IT_number 2
_symmetry_cell_setting 'triclinic'
loop_
_space_group_symop_operation_xyz
x,y,z
-x,-y,-z
loop_
_atom_site_type_symbol
_atom_site_label
_atom_site_fract_x
_atom_site_fract_y
_atom_site_fract_z
Si Si1 0.182504 0.957357 0.720415
Si Si2 0.442539 0.573212 0.705193
Si Si3 0.145663 0.941153 0.934256
Si Si4 0.876059 0.407347 0.394831
Si Si5 0.525691 0.682858 0.890342
Si Si6 0.726471 0.542471 0.500446
Si Si7 0.471365 0.039259 0.170346
O O1 0.796910 0.747096 0.704926
O O2 0.329062 0.091210 0.809665
O O3 0.419898 0.203743 0.588433
O O4 0.176375 0.796135 0.794261
O O5 0.482464 0.760764 0.628129
O O6 0.368587 0.498511 0.835240
O O7 0.206053 0.375323 0.634126
O O8 0.937279 0.925239 0.906927
O O9 0.783692 0.583398 0.992677
O O10 0.396304 0.052525 0.035826
O O11 0.000000 0.500000 0.500000
O O12 0.928841 0.294613 0.434386
O O13 0.155272 0.703744 0.270010
O O14 0.527730 0.839886 0.814854
O O15 0.500000 0.500000 0.500000
#
# Coordination Sequence:
#
# PCOD9106691 Si02
#       7
#     2   2   2   2   2   2   2
#     4  10  23  40  60  92 124 160 204 256 302 366
#     4  10  20  40  60  86 127 152 206 255 292 367
#     4  10  21  41  60  90 132 155 208 253 295 371
#     4   9  20  38  62  87 123 159 203 252 295 369
#     4  10  22  38  65  94 118 167 203 251 307 358
#     4  10  22  41  63  89 122 163 203 252 316 358
#     4  11  21  40  64  90 127 161 205 248 314 357
#
# _framework density 27.745688999999999
#
# number of rings (size 3 to 8) (size 9 to 14) (size 15 to 20)
#    0.000    2.000    1.429    1.286    0.000    6.286 
#    7.714    7.143    0.000    0.000    0.000    0.000 
#    0.000    0.000    0.000    0.000    0.000    0.000 
#
# Total GULP energy -78098.063960 kJ/mol
# GULP energy per Si atom -5578.433140 kJ/mol
# Density = 2.768254 g / cm^3
# Si number density = 27.745689 Si / 1000 Ang^3
#
#
#
# Elastic Constant Matrix: (Units=GPa)
#
#
# Indices 1 2 3 4 5 6 
#
# 1 224.1648 35.2863 65.6351 10.6099 60.9993 15.4784
# 2 35.2863 49.0403 39.1408 15.9035 10.7433 -8.9239
# 3 65.6351 39.1408 119.4195 21.2358 5.6406 0.8449
# 4 10.6099 15.9035 21.2358 45.3113 4.6040 4.6231
# 5 60.9993 10.7433 5.6406 4.6040 78.2427 15.7689
# 6 15.4784 -8.9239 0.8449 4.6231 15.7689 36.2836
#
#
#
# Elastic Compliance Matrix: (Units=1/GPa)
#
#
# Indices 1 2 3 4 5 6 
#
# 1 0.007071 -0.002241 -0.003139 0.001246 -0.004730 -0.001598
# 2 -0.002241 0.034945 -0.008575 -0.008569 -0.004508 0.012802
# 3 -0.003139 -0.008575 0.013227 -0.002564 0.003259 -0.002168
# 4 0.001246 -0.008569 -0.002564 0.026594 0.000031 -0.005981
# 5 -0.004730 -0.004508 0.003259 0.000031 0.018285 -0.007118
# 6 -0.001598 0.012802 -0.002168 -0.005981 -0.007118 0.035297
#
#
# Mechanical properties :
#
#
# Convention : Reuss Voigt Hill
#
# Bulk Modulus (GPa) = 36.58699 74.74990 55.66844
# Shear Modulus (GPa) = 28.99550 48.80501 38.90026
#
# Velocity S-wave (km/s) = 3.23622 4.19861 3.74843
# Velocity P-wave (km/s) = 5.21338 7.10662 6.23231
#
# Compressibility (1/GPa) = 0.02733212
#
# Stress axis : x y z
#
# Youngs Moduli (GPa) = 141.41512 28.61680 75.60344
#
# Poissons Ratio (x) = 0.06414 0.23729
# Poissons Ratio (y) = 0.31698 0.64832
# Poissons Ratio (z) = 0.44385 0.24540
#
# Static dielectric constant tensor:
#      x y z
#    x 2.304110 0.102320 0.006720 
#    y 0.102320 2.293780 0.019370 
#    z 0.006720 0.019370 2.139890 
# 
# From -- ./inp_files/131533.got.cif
#   From: 2010.05.17/outbox.cif.g08.bks.cpg/sg2_66_cif.got.tgz:131533.got - 2010.06.03 11:33:40.
