data_PCOD9106550
_publ_section_title
;
Structure prediction by ZEFSAII (Michael W. Deem and Ramdas Pophale) SiO2 
 PCOD9106550
Probable space group: P -1
;
_chemical_formula_sum "Si O2"
_cell_formula_units_Z 14
_cell_length_a 7.652623
_cell_length_b 9.344054
_cell_length_c 8.974678
_cell_angle_alpha 65.105452
_cell_angle_beta 89.556324
_cell_angle_gamma 68.493595
_cell_volume 533.358685
_symmetry_space_group_name_H-M "P -1"
_symmetry_group_IT_number 2
_symmetry_cell_setting 'triclinic'
loop_
_space_group_symop_operation_xyz
x,y,z
-x,-y,-z
loop_
_atom_site_type_symbol
_atom_site_label
_atom_site_fract_x
_atom_site_fract_y
_atom_site_fract_z
Si Si1 0.254982 0.938093 0.619251
Si Si2 0.645651 0.129031 0.688398
Si Si3 0.837842 0.309126 0.787749
Si Si4 0.524438 0.315889 0.018708
Si Si5 0.684685 0.547632 0.447012
Si Si6 0.991393 0.278258 0.349360
Si Si7 0.836136 0.743221 0.955727
O O1 0.360840 0.881530 0.485370
O O2 0.103647 0.848721 0.659509
O O3 0.390073 0.841887 0.796514
O O4 0.154144 0.145011 0.515123
O O5 0.816178 0.191458 0.704003
O O6 0.430600 0.254509 0.678439
O O7 0.714059 0.944446 0.840313
O O8 0.673406 0.292434 0.897473
O O9 0.790790 0.493230 0.628926
O O10 0.017046 0.267603 0.909794
O O11 0.316014 0.333728 0.970961
O O12 0.500000 0.500000 0.000000
O O13 0.500000 0.500000 0.500000
O O14 0.832455 0.430548 0.375817
O O15 0.069926 0.329636 0.174933
#
# Coordination Sequence:
#
# PCOD9106550 Si02
#       7
#     2   2   2   2   2   2   2
#     4  10  20  42  73 103 138 191 241 294 352 419
#     4  10  22  42  76 109 143 190 240 294 354 426
#     4  11  23  42  74 106 150 187 226 297 364 431
#     4  12  28  46  73 102 148 191 239 303 358 421
#     4  10  20  39  74 108 143 188 236 289 363 418
#     4  10  20  40  75 106 136 186 247 289 349 427
#     4  11  26  47  74 109 140 192 247 286 362 433
#
# _framework density 26.248750000000001
#
# number of rings (size 3 to 8) (size 9 to 14) (size 15 to 20)
#    0.000    1.429    4.286    1.286    2.000    4.571 
#    0.000    1.429    3.143   16.286    0.000    0.000 
#    0.000    0.000    0.000    0.000    0.000    0.000 
#
# Total GULP energy -78390.787392 kJ/mol
# GULP energy per Si atom -5599.341957 kJ/mol
# Density = 2.618901 g / cm^3
# Si number density = 26.248750 Si / 1000 Ang^3
#
#
#
# Elastic Constant Matrix: (Units=GPa)
#
#
# Indices 1 2 3 4 5 6 
#
# 1 157.4932 50.7114 65.9918 1.8468 8.5276 -10.5249
# 2 50.7114 156.3307 83.8322 -9.6899 -1.0155 -37.8400
# 3 65.9918 83.8322 230.3552 -19.2577 9.3153 -22.8460
# 4 1.8468 -9.6899 -19.2577 30.4546 -0.6961 -2.8658
# 5 8.5276 -1.0155 9.3153 -0.6961 28.9532 0.6572
# 6 -10.5249 -37.8400 -22.8460 -2.8658 0.6572 32.2754
#
#
#
# Elastic Compliance Matrix: (Units=1/GPa)
#
#
# Indices 1 2 3 4 5 6 
#
# 1 0.007781 -0.002068 -0.001729 -0.002386 -0.001836 -0.001285
# 2 -0.002068 0.011124 -0.002129 0.003401 0.001513 0.011132
# 3 -0.001729 -0.002129 0.006116 0.003411 -0.001487 0.001602
# 4 -0.002386 0.003401 0.003411 0.037067 0.000414 0.008906
# 5 -0.001836 0.001513 -0.001487 0.000414 0.035634 -0.000566
# 6 -0.001285 0.011132 0.001602 0.008906 -0.000566 0.045552
#
#
# Mechanical properties :
#
#
# Convention : Reuss Voigt Hill
#
# Bulk Modulus (GPa) = 75.93537 105.02777 90.48157
# Shear Modulus (GPa) = 31.34489 41.24623 36.29556
#
# Velocity S-wave (km/s) = 3.45939 3.96834 3.72257
# Velocity P-wave (km/s) = 6.70436 7.81641 7.28165
#
# Compressibility (1/GPa) = 0.01316909
#
# Stress axis : x y z
#
# Youngs Moduli (GPa) = 128.51101 89.89429 163.51765
#
# Poissons Ratio (x) = 0.18588 0.28279
# Poissons Ratio (y) = 0.26573 0.34811
# Poissons Ratio (z) = 0.22225 0.19137
#
# Static dielectric constant tensor:
#      x y z
#    x 2.072560 0.026780 0.014470 
#    y 0.026780 2.451220 0.198330 
#    z 0.014470 0.198330 2.239160 
# 
# From -- ./inp_files/309744.got.cif
#   From: 2010.05.17/outbox.cif.g08.bks.cpg/sg2_155_cif.got.tgz:309744.got - 2010.06.03 11:33:40.
