data_PCOD9106066
_publ_section_title
;
Structure prediction by ZEFSAII (Michael W. Deem and Ramdas Pophale) SiO2 
 PCOD9106066
Probable space group: P -1
;
_chemical_formula_sum "Si O2"
_cell_formula_units_Z 16
_cell_length_a 5.155491
_cell_length_b 15.015811
_cell_length_c 12.079728
_cell_angle_alpha 120.407221
_cell_angle_beta 88.579867
_cell_angle_gamma 59.998363
_cell_volume 648.312281
_symmetry_space_group_name_H-M "P -1"
_symmetry_group_IT_number 2
_symmetry_cell_setting 'triclinic'
loop_
_space_group_symop_operation_xyz
x,y,z
-x,-y,-z
loop_
_atom_site_type_symbol
_atom_site_label
_atom_site_fract_x
_atom_site_fract_y
_atom_site_fract_z
Si Si1 0.616295 0.088163 0.061445
Si Si2 0.354010 0.762194 0.658274
Si Si3 0.390035 0.631964 0.030074
Si Si4 0.786120 0.529663 0.629085
Si Si5 0.213332 0.288066 0.576194
Si Si6 0.348343 0.811058 0.311335
Si Si7 0.849744 0.926844 0.595221
Si Si8 0.842946 0.667015 0.914811
O O1 0.525297 0.170368 0.226717
O O2 0.447285 0.189447 0.028009
O O3 0.500000 0.000000 0.000000
O O4 0.000000 0.000000 0.000000
O O5 0.426617 0.646613 0.663997
O O6 0.566102 0.704716 0.509550
O O7 0.008676 0.872118 0.679764
O O8 0.234667 0.746313 0.192912
O O9 0.500000 0.500000 0.000000
O O10 0.696163 0.623541 0.978180
O O11 0.143061 0.660551 0.953001
O O12 0.904845 0.582035 0.753547
O O13 0.000000 0.500000 0.500000
O O14 0.858604 0.402086 0.605910
O O15 0.305384 0.296437 0.704645
O O16 0.309914 0.145219 0.474300
O O17 0.112439 0.873100 0.459136
O O18 0.347270 0.920976 0.317867
#
# Coordination Sequence:
#
# PCOD9106066 Si02
#       8
#     2   2   2   2   2   2   2   2
#     4  11  25  43  68  97 138 182 226 282 351 422
#     4   9  22  39  59  96 127 163 221 279 338 413
#     4  12  27  46  73 100 144 189 235 290 353 422
#     4   9  20  44  66  97 134 171 226 285 347 410
#     4  10  20  39  67  91 125 173 219 283 345 403
#     4  10  24  40  60  95 130 172 228 281 337 401
#     4  10  22  39  63  92 127 167 229 278 340 398
#     4  11  26  46  68 108 138 185 237 286 351 426
#
# _framework density 24.679463999999999
#
# number of rings (size 3 to 8) (size 9 to 14) (size 15 to 20)
#    0.000    1.750    0.000    2.250    8.750    0.500 
#    6.750    0.000    0.000    0.000    0.000    0.000 
#    0.000    0.000    0.000    0.000    0.000    0.000 
#
# Total GULP energy -89449.479294 kJ/mol
# GULP energy per Si atom -5590.592456 kJ/mol
# Density = 2.462329 g / cm^3
# Si number density = 24.679464 Si / 1000 Ang^3
#
#
#
# Elastic Constant Matrix: (Units=GPa)
#
#
# Indices 1 2 3 4 5 6 
#
# 1 64.4182 19.5918 15.5868 -0.2833 14.3152 8.3051
# 2 19.5918 157.4972 45.2007 9.5021 4.7849 -3.3845
# 3 15.5868 45.2007 92.3270 -6.5293 22.7663 -4.6078
# 4 -0.2833 9.5021 -6.5293 33.6570 -3.5918 12.2165
# 5 14.3152 4.7849 22.7663 -3.5918 25.1652 -0.9357
# 6 8.3051 -3.3845 -4.6078 12.2165 -0.9357 35.8773
#
#
#
# Elastic Compliance Matrix: (Units=1/GPa)
#
#
# Indices 1 2 3 4 5 6 
#
# 1 0.019288 -0.002429 0.000467 0.001783 -0.010884 -0.005525
# 2 -0.002429 0.008121 -0.004594 -0.003567 0.003560 0.002046
# 3 0.000467 -0.004594 0.016688 0.002955 -0.014059 0.000229
# 4 0.001783 -0.003567 0.002955 0.036060 0.001669 -0.012605
# 5 -0.010884 0.003560 -0.014059 0.001669 0.058283 0.002001
# 6 -0.005525 0.002046 0.000229 -0.012605 0.002001 0.033718
#
#
# Mechanical properties :
#
#
# Convention : Reuss Voigt Hill
#
# Bulk Modulus (GPa) = 32.27293 52.77790 42.52542
# Shear Modulus (GPa) = 25.56247 34.53077 30.04662
#
# Velocity S-wave (km/s) = 3.22184 3.74461 3.49302
# Velocity P-wave (km/s) = 5.19091 6.33466 5.79109
#
# Compressibility (1/GPa) = 0.03098572
#
# Stress axis : x y z
#
# Youngs Moduli (GPa) = 51.84568 123.13995 59.92175
#
# Poissons Ratio (x) = 0.29910 -0.02798
# Poissons Ratio (y) = 0.12593 0.27527
# Poissons Ratio (z) = -0.02421 0.56568
#
# Static dielectric constant tensor:
#      x y z
#    x 1.967670 -0.064620 -0.043430 
#    y -0.064620 2.031480 0.076550 
#    z -0.043430 0.076550 2.026180 
# 
# From -- ./inp_files/367684.got.cif
#   From: 2010.05.17/outbox.cif.g08.bks.cpg/sg2_184_cif.got.tgz:367684.got - 2010.06.03 11:33:40.
