data_PCOD9106683
_publ_section_title
;
Structure prediction by ZEFSAII (Michael W. Deem and Ramdas Pophale) SiO2 
 PCOD9106683
Probable space group: P -1
;
_chemical_formula_sum "Si O2"
_cell_formula_units_Z 12
_cell_length_a 6.490827
_cell_length_b 14.672907
_cell_length_c 6.855616
_cell_angle_alpha 103.054354
_cell_angle_beta 60.699742
_cell_angle_gamma 119.464122
_cell_volume 495.655684
_symmetry_space_group_name_H-M "P -1"
_symmetry_group_IT_number 2
_symmetry_cell_setting 'triclinic'
loop_
_space_group_symop_operation_xyz
x,y,z
-x,-y,-z
loop_
_atom_site_type_symbol
_atom_site_label
_atom_site_fract_x
_atom_site_fract_y
_atom_site_fract_z
Si Si1 0.295974 0.759525 0.479681
Si Si2 0.161302 0.588863 0.754438
Si Si3 0.927456 0.744875 0.967996
Si Si4 0.610934 0.417716 0.963774
Si Si5 0.689047 0.938851 0.642800
Si Si6 0.658739 0.136016 0.878442
O O1 0.275056 0.652594 0.534436
O O2 0.553932 0.854807 0.495902
O O3 0.270757 0.775680 0.273075
O O4 0.055307 0.772300 0.707061
O O5 0.919782 0.474143 0.786262
O O6 0.372468 0.590819 0.813209
O O7 0.025556 0.657945 0.943466
O O8 0.614819 0.690067 0.070027
O O9 0.086306 0.837334 0.088467
O O10 0.500000 0.500000 0.000000
O O11 0.588621 0.028218 0.746475
O O12 0.575890 0.877799 0.871027
O O13 0.000000 0.000000 0.500000
#
# Coordination Sequence:
#
# PCOD9106683 Si02
#       6
#     2   2   2   2   2   2
#     4   9  19  36  56  85 121 156 196 254 295 352
#     4   8  17  32  56  88 118 158 203 241 299 359
#     4   8  18  34  57  86 119 161 194 248 297 347
#     4   9  15  32  61  83 118 166 193 241 309 347
#     4  10  22  39  59  89 118 161 204 245 302 365
#     4  10  20  40  60  85 127 156 200 250 303 355
#
# _framework density 24.210353000000001
#
# number of rings (size 3 to 8) (size 9 to 14) (size 15 to 20)
#    1.000    2.000    0.000    0.500    0.000    2.000 
#    3.000    0.833    0.000    5.000    0.000    0.000 
#    0.000    0.000    0.000    0.000    0.000    0.000 
#
# Total GULP energy -66933.301537 kJ/mol
# GULP energy per Si atom -5577.775128 kJ/mol
# Density = 2.415525 g / cm^3
# Si number density = 24.210353 Si / 1000 Ang^3
#
#
#
# Elastic Constant Matrix: (Units=GPa)
#
#
# Indices 1 2 3 4 5 6 
#
# 1 87.4997 30.5319 67.4657 -21.1711 10.9176 19.7825
# 2 30.5319 98.9496 39.9200 -17.6077 10.1531 37.7801
# 3 67.4657 39.9200 149.5686 -34.9833 28.9196 22.8064
# 4 -21.1711 -17.6077 -34.9833 43.7681 -2.3784 -6.4116
# 5 10.9176 10.1531 28.9196 -2.3784 36.7213 -8.9007
# 6 19.7825 37.7801 22.8064 -6.4116 -8.9007 52.5712
#
#
#
# Elastic Compliance Matrix: (Units=1/GPa)
#
#
# Indices 1 2 3 4 5 6 
#
# 1 0.018500 -0.001466 -0.006985 0.002392 -0.000069 -0.002598
# 2 -0.001466 0.016513 0.000481 0.004134 -0.007207 -0.012240
# 3 -0.006985 0.000481 0.013814 0.006672 -0.009599 -0.004522
# 4 0.002392 0.004134 0.006672 0.030059 -0.006166 -0.004143
# 5 -0.000069 -0.007207 -0.009599 -0.006166 0.040142 0.015414
# 6 -0.002598 -0.012240 -0.004522 -0.004143 0.015414 0.032862
#
#
# Mechanical properties :
#
#
# Convention : Reuss Voigt Hill
#
# Bulk Modulus (GPa) = 30.40626 67.98368 49.19497
# Shear Modulus (GPa) = 27.96527 39.81880 33.89204
#
# Velocity S-wave (km/s) = 3.40236 4.05989 3.74558
# Velocity P-wave (km/s) = 5.29350 7.07943 6.25058
#
# Compressibility (1/GPa) = 0.03288796
#
# Stress axis : x y z
#
# Youngs Moduli (GPa) = 54.05297 60.55814 72.38829
#
# Poissons Ratio (x) = 0.08877 0.50561
# Poissons Ratio (y) = 0.07923 -0.03479
# Poissons Ratio (z) = 0.37754 -0.02911
#
# Static dielectric constant tensor:
#      x y z
#    x 1.904540 -0.040520 -0.036240 
#    y -0.040520 2.027180 0.014400 
#    z -0.036240 0.014400 1.970270 
# 
# From -- ./inp_files/7783.got.cif
#   From: 2010.05.17/outbox.cif.g08.bks.cpg/sg2_4_cif.got.tgz:7783.got - 2010.06.03 11:33:40.
