data_PCOD9106011
_publ_section_title
;
Structure prediction by ZEFSAII (Michael W. Deem and Ramdas Pophale) SiO2 
 PCOD9106011
Probable space group: P -1
;
_chemical_formula_sum "Si O2"
_cell_formula_units_Z 16
_cell_length_a 5.519374
_cell_length_b 12.961204
_cell_length_c 25.414719
_cell_angle_alpha 24.400145
_cell_angle_beta 61.822336
_cell_angle_gamma 63.205316
_cell_volume 660.985299
_symmetry_space_group_name_H-M "P -1"
_symmetry_group_IT_number 2
_symmetry_cell_setting 'triclinic'
loop_
_space_group_symop_operation_xyz
x,y,z
-x,-y,-z
loop_
_atom_site_type_symbol
_atom_site_label
_atom_site_fract_x
_atom_site_fract_y
_atom_site_fract_z
Si Si1 0.693770 0.274474 0.623903
Si Si2 0.839492 0.459798 0.981348
Si Si3 0.338489 0.646442 0.211652
Si Si4 0.185709 0.028806 0.842040
Si Si5 0.507093 0.270953 0.524021
Si Si6 0.890719 0.089990 0.301140
Si Si7 0.688349 0.050200 0.026324
Si Si8 0.955229 0.839808 0.526715
O O1 0.628449 0.305842 0.553635
O O2 0.736637 0.510096 0.549101
O O3 0.420858 0.169253 0.724605
O O4 0.932202 0.061541 0.692258
O O5 0.984392 0.641522 0.840684
O O6 0.500000 0.500000 0.000000
O O7 0.920402 0.174405 0.091321
O O8 0.000000 0.500000 0.000000
O O9 0.286140 0.354458 0.353745
O O10 0.557372 0.781292 0.161989
O O11 0.422988 0.744871 0.099353
O O12 0.056190 0.789109 0.194735
O O13 0.319943 0.868005 0.951152
O O14 0.752575 0.315333 0.438841
O O15 0.406910 0.997794 0.646591
O O16 0.916551 0.991401 0.404883
O O17 0.000000 0.000000 0.000000
O O18 0.000000 0.000000 0.500000
#
# Coordination Sequence:
#
# PCOD9106011 Si02
#       8
#     2   2   2   2   2   2   2   2
#     4  10  20  39  67 100 133 169 225 288 354 423
#     4  12  28  48  71 105 150 191 237 294 364 440
#     4  10  22  44  66  98 134 182 241 298 361 427
#     4  11  22  40  71  95 134 187 230 299 351 433
#     4  10  22  42  63  97 137 175 226 286 353 433
#     4  11  25  43  67 101 137 184 232 290 362 434
#     4   9  22  41  66  99 129 172 239 296 351 421
#     4  11  26  44  68  98 141 183 235 299 361 433
#
# _framework density 24.206285999999999
#
# number of rings (size 3 to 8) (size 9 to 14) (size 15 to 20)
#    0.000    1.500    2.500    1.125    7.000    1.500 
#    6.750    0.000    0.000    0.000    0.000    0.000 
#    0.000    0.000    0.000    0.000    0.000    0.000 
#
# Total GULP energy -89235.940836 kJ/mol
# GULP energy per Si atom -5577.246302 kJ/mol
# Density = 2.415119 g / cm^3
# Si number density = 24.206286 Si / 1000 Ang^3
#
#
#
# Elastic Constant Matrix: (Units=GPa)
#
#
# Indices 1 2 3 4 5 6 
#
# 1 63.6924 17.1206 25.0250 7.9679 -19.0756 17.1601
# 2 17.1206 115.7938 36.6649 13.7342 -2.7741 22.8496
# 3 25.0250 36.6649 156.1016 4.3347 -24.8952 15.9214
# 4 7.9679 13.7342 4.3347 26.8831 9.2392 -2.5869
# 5 -19.0756 -2.7741 -24.8952 9.2392 41.2187 2.6458
# 6 17.1601 22.8496 15.9214 -2.5869 2.6458 34.8907
#
#
#
# Elastic Compliance Matrix: (Units=1/GPa)
#
#
# Indices 1 2 3 4 5 6 
#
# 1 0.027144 0.001685 0.000288 -0.016684 0.017691 -0.017163
# 2 0.001685 0.011553 -0.001394 -0.008060 0.003074 -0.008589
# 3 0.000288 -0.001394 0.008063 -0.003015 0.005814 -0.003573
# 4 -0.016684 -0.008060 -0.003015 0.057086 -0.024224 0.020929
# 5 0.017691 0.003074 0.005814 -0.024224 0.042778 -0.018407
# 6 -0.017163 -0.008589 -0.003573 0.020929 -0.018407 0.047305
#
#
# Mechanical properties :
#
#
# Convention : Reuss Voigt Hill
#
# Bulk Modulus (GPa) = 20.86895 54.80099 37.83497
# Shear Modulus (GPa) = 23.95294 37.71700 30.83497
#
# Velocity S-wave (km/s) = 3.14910 3.95162 3.57296
# Velocity P-wave (km/s) = 4.67573 6.59611 5.71713
#
# Compressibility (1/GPa) = 0.04791808
#
# Stress axis : x y z
#
# Youngs Moduli (GPa) = 36.84044 86.56035 124.02875
#
# Poissons Ratio (x) = -0.14586 -0.03571
# Poissons Ratio (y) = -0.06208 0.17284
# Poissons Ratio (z) = -0.01061 0.12063
#
# Static dielectric constant tensor:
#      x y z
#    x 3.172990 0.536670 -0.253880 
#    y 0.536670 2.303540 -0.211890 
#    z -0.253880 -0.211890 2.124180 
# 
# From -- ./inp_files/427280.got.cif
#   From: 2010.05.17/outbox.cif.g08.bks.cpg/sg2_214_cif.got.tgz:427280.got - 2010.06.03 11:33:40.
