data_PCOD9106142
_publ_section_title
;
Structure prediction by ZEFSAII (Michael W. Deem and Ramdas Pophale) SiO2 
 PCOD9106142
Probable space group: P -1
;
_chemical_formula_sum "Si O2"
_cell_formula_units_Z 16
_cell_length_a 10.966657
_cell_length_b 8.133513
_cell_length_c 19.760308
_cell_angle_alpha 100.511323
_cell_angle_beta 30.812220
_cell_angle_gamma 120.966989
_cell_volume 624.598250
_symmetry_space_group_name_H-M "P -1"
_symmetry_group_IT_number 2
_symmetry_cell_setting 'triclinic'
loop_
_space_group_symop_operation_xyz
x,y,z
-x,-y,-z
loop_
_atom_site_type_symbol
_atom_site_label
_atom_site_fract_x
_atom_site_fract_y
_atom_site_fract_z
Si Si1 0.616938 0.517653 0.167922
Si Si2 0.161372 0.444210 0.479830
Si Si3 0.522497 0.263450 0.834135
Si Si4 0.295507 0.047801 0.066155
Si Si5 0.906955 0.429066 0.142034
Si Si6 0.363091 0.452364 0.634507
Si Si7 0.491106 0.977968 0.388270
Si Si8 0.045653 0.230726 0.262509
O O1 0.255608 0.395748 0.361798
O O2 0.710786 0.739667 0.103336
O O3 0.788831 0.510795 0.149562
O O4 0.732879 0.450545 0.048362
O O5 0.316928 0.402074 0.459058
O O6 0.775989 0.282525 0.669477
O O7 0.352704 0.720834 0.417331
O O8 0.759245 0.508403 0.783717
O O9 0.348889 0.074714 0.962258
O O10 0.327993 0.240551 0.103051
O O11 0.896797 0.823673 0.248991
O O12 0.500000 0.000000 0.000000
O O13 0.867474 0.503220 0.237369
O O14 0.643931 0.146635 0.261467
O O15 0.500000 0.500000 0.500000
O O16 0.797662 0.129094 0.308627
O O17 0.197077 0.928367 0.568162
#
# Coordination Sequence:
#
# PCOD9106142 Si02
#       8
#     2   2   2   2   2   2   2   2
#     4  10  23  44  63  89 131 173 223 254 321 376
#     4  10  22  43  66  93 121 176 217 264 315 378
#     4  11  24  42  65  92 132 171 209 269 323 382
#     4  12  25  38  60 101 131 166 208 261 330 384
#     4  10  23  40  66  93 126 172 213 271 312 378
#     4  11  23  41  66  94 132 166 212 264 321 385
#     4  10  20  39  67  96 121 164 222 262 323 382
#     4  10  22  39  63  95 132 165 205 266 334 385
#
# _framework density 25.616465000000002
#
# number of rings (size 3 to 8) (size 9 to 14) (size 15 to 20)
#    0.000    1.500    1.250    3.000    7.000    1.500 
#    4.500    2.500    0.000    0.000    0.000    0.000 
#    0.000    0.000    0.000    0.000    0.000    0.000 
#
# Total GULP energy -89239.623158 kJ/mol
# GULP energy per Si atom -5577.476447 kJ/mol
# Density = 2.555816 g / cm^3
# Si number density = 25.616465 Si / 1000 Ang^3
#
#
#
# Elastic Constant Matrix: (Units=GPa)
#
#
# Indices 1 2 3 4 5 6 
#
# 1 134.1192 27.5612 74.7318 8.3055 22.9538 -23.0844
# 2 27.5612 77.9603 60.9672 25.0148 10.9122 5.3213
# 3 74.7318 60.9672 169.8469 44.7197 38.0446 -8.5368
# 4 8.3055 25.0148 44.7197 61.8327 -1.7963 -0.5226
# 5 22.9538 10.9122 38.0446 -1.7963 34.1970 1.4918
# 6 -23.0844 5.3213 -8.5368 -0.5226 1.4918 38.2124
#
#
#
# Elastic Compliance Matrix: (Units=1/GPa)
#
#
# Indices 1 2 3 4 5 6 
#
# 1 0.011514 -0.001569 -0.004059 0.001994 -0.002886 0.006407
# 2 -0.001569 0.019207 -0.005967 -0.003240 0.001613 -0.005063
# 3 -0.004059 -0.005967 0.014827 -0.008107 -0.012383 0.002064
# 4 0.001994 -0.003240 -0.008107 0.023366 0.009951 -0.000224
# 5 -0.002886 0.001613 -0.012383 0.009951 0.045242 -0.006365
# 6 0.006407 -0.005063 0.002064 -0.000224 -0.006365 0.031452
#
#
# Mechanical properties :
#
#
# Convention : Reuss Voigt Hill
#
# Bulk Modulus (GPa) = 44.72663 78.71630 61.72147
# Shear Modulus (GPa) = 28.36866 41.42617 34.89742
#
# Velocity S-wave (km/s) = 3.33143 4.02577 3.69494
# Velocity P-wave (km/s) = 5.68295 7.23910 6.50771
#
# Compressibility (1/GPa) = 0.02235804
#
# Stress axis : x y z
#
# Youngs Moduli (GPa) = 86.85400 52.06301 67.44256
#
# Poissons Ratio (x) = 0.08170 0.27376
# Poissons Ratio (y) = 0.13629 0.40242
# Poissons Ratio (z) = 0.35256 0.31065
#
# Static dielectric constant tensor:
#      x y z
#    x 4.591010 2.531990 -0.988500 
#    y 2.531990 4.645020 -1.032190 
#    z -0.988500 -1.032190 2.409190 
# 
# From -- ./inp_files/281980.got.cif
#   From: 2010.05.17/outbox.cif.g08.bks.cpg/sg2_141_cif.got.tgz:281980.got - 2010.06.03 11:33:40.
