data_PCOD9106823
_publ_section_title
;
Structure prediction by ZEFSAII (Michael W. Deem and Ramdas Pophale) SiO2 
 PCOD9106823
Probable space group: P -1
;
_chemical_formula_sum "Si O2"
_cell_formula_units_Z 16
_cell_length_a 12.807097
_cell_length_b 12.797069
_cell_length_c 20.717604
_cell_angle_alpha 158.117838
_cell_angle_beta 147.291220
_cell_angle_gamma 31.879229
_cell_volume 643.235582
_symmetry_space_group_name_H-M "P -1"
_symmetry_group_IT_number 2
_symmetry_cell_setting 'triclinic'
loop_
_space_group_symop_operation_xyz
x,y,z
-x,-y,-z
loop_
_atom_site_type_symbol
_atom_site_label
_atom_site_fract_x
_atom_site_fract_y
_atom_site_fract_z
Si Si1 0.367531 0.865268 0.209172
Si Si2 0.971713 0.790733 0.958357
Si Si3 0.297485 0.090683 0.998515
Si Si4 0.228519 0.432257 0.379078
Si Si5 0.256309 0.119237 0.434307
Si Si6 0.310259 0.944430 0.774391
Si Si7 0.174311 0.523786 0.733238
Si Si8 0.891843 0.305338 0.792260
O O1 0.599525 0.669329 0.234324
O O2 0.353824 0.104783 0.284012
O O3 0.247039 0.065618 0.322674
O O4 0.215460 0.678670 0.009238
O O5 0.905522 0.839790 0.026015
O O6 0.850202 0.601287 0.752222
O O7 0.881098 0.130496 0.080377
O O8 0.499601 0.930747 0.055391
O O9 0.301695 0.427714 0.182323
O O10 0.292933 0.928490 0.835509
O O11 0.350056 0.652740 0.585387
O O12 0.013714 0.552181 0.376360
O O13 0.178334 0.444696 0.613469
O O14 0.500000 0.000000 0.500000
O O15 0.174761 0.914939 0.322650
O O16 0.078663 0.143893 0.748700
O O17 0.000000 0.500000 0.000000
#
# Coordination Sequence:
#
# PCOD9106823 Si02
#       8
#     2   2   2   2   2   2   2   2
#     4  10  22  38  63  92 126 167 197 264 321 370
#     4  11  25  41  59  96 127 168 213 255 303 390
#     4  10  24  40  66  89 123 166 212 256 318 369
#     4  11  24  39  62  92 131 164 213 251 313 379
#     4  10  21  35  65 102 121 156 214 268 318 377
#     4  10  22  39  65  88 119 165 208 260 314 364
#     4  10  22  39  63  92 129 160 210 261 320 371
#     4  10  20  40  61  89 128 159 203 264 316 376
#
# _framework density 24.874245999999999
#
# number of rings (size 3 to 8) (size 9 to 14) (size 15 to 20)
#    0.000    1.750    1.250    3.000    5.250    9.500 
#    0.000    0.625    0.000    0.000    0.000    0.000 
#    0.000    0.000    0.000    0.000    0.000    0.000 
#
# Total GULP energy -89245.421022 kJ/mol
# GULP energy per Si atom -5577.838814 kJ/mol
# Density = 2.481763 g / cm^3
# Si number density = 24.874246 Si / 1000 Ang^3
#
#
#
# Elastic Constant Matrix: (Units=GPa)
#
#
# Indices 1 2 3 4 5 6 
#
# 1 31.4484 1.6398 -11.9286 -2.8142 -8.3612 -8.0252
# 2 1.6398 103.2964 5.7215 -15.9506 3.3739 -18.7883
# 3 -11.9286 5.7215 93.1977 -13.4670 -14.4630 -0.2309
# 4 -2.8142 -15.9506 -13.4670 30.3206 -0.3012 1.0525
# 5 -8.3612 3.3739 -14.4630 -0.3012 34.4715 -7.8512
# 6 -8.0252 -18.7883 -0.2309 1.0525 -7.8512 30.3983
#
#
#
# Elastic Compliance Matrix: (Units=1/GPa)
#
#
# Indices 1 2 3 4 5 6 
#
# 1 0.046562 0.003054 0.010337 0.010056 0.019750 0.019011
# 2 0.003054 0.012128 0.000957 0.006810 0.001970 0.008582
# 3 0.010337 0.000957 0.014693 0.007889 0.009952 0.005730
# 4 0.010056 0.006810 0.007889 0.040816 0.007112 0.007348
# 5 0.019750 0.001970 0.009952 0.007112 0.041725 0.017037
# 6 0.019011 0.008582 0.005730 0.007348 0.017037 0.047409
#
#
# Mechanical properties :
#
#
# Convention : Reuss Voigt Hill
#
# Bulk Modulus (GPa) = 9.79637 24.31201 17.05419
# Shear Modulus (GPa) = 23.96213 34.53874 29.25044
#
# Velocity S-wave (km/s) = 3.10712 3.73035 3.43291
# Velocity P-wave (km/s) = 4.10112 5.32439 4.75228
#
# Compressibility (1/GPa) = 0.10207861
#
# Stress axis : x y z
#
# Youngs Moduli (GPa) = 21.47684 82.45637 68.06098
#
# Poissons Ratio (x) = -0.25181 -0.70355
# Poissons Ratio (y) = -0.06559 -0.06516
# Poissons Ratio (z) = -0.22201 -0.07894
#
# Static dielectric constant tensor:
#      x y z
#    x 2.017630 0.036330 -0.017140 
#    y 0.036330 2.115810 0.025930 
#    z -0.017140 0.025930 2.050860 
# 
# From -- ./inp_files/612159.got.cif
#   From: 2010.05.17/outbox.cif.g08.bks.cpg/sg2_307_cif.got.tgz:612159.got - 2010.06.03 11:33:40.
