data_PCOD9106441
_publ_section_title
;
Structure prediction by ZEFSAII (Michael W. Deem and Ramdas Pophale) SiO2 
 PCOD9106441
Probable space group: P -1
;
_chemical_formula_sum "Si O2"
_cell_formula_units_Z 16
_cell_length_a 8.471171
_cell_length_b 8.396915
_cell_length_c 16.084578
_cell_angle_alpha 57.841293
_cell_angle_beta 119.973812
_cell_angle_gamma 135.455110
_cell_volume 665.356610
_symmetry_space_group_name_H-M "P -1"
_symmetry_group_IT_number 2
_symmetry_cell_setting 'triclinic'
loop_
_space_group_symop_operation_xyz
x,y,z
-x,-y,-z
loop_
_atom_site_type_symbol
_atom_site_label
_atom_site_fract_x
_atom_site_fract_y
_atom_site_fract_z
Si Si1 0.408977 0.028114 0.360501
Si Si2 0.919614 0.852754 0.356287
Si Si3 0.510533 0.878094 0.954608
Si Si4 0.186490 0.810272 0.202148
Si Si5 0.834455 0.635614 0.688498
Si Si6 0.968694 0.313261 0.107278
Si Si7 0.588163 0.368332 0.451371
Si Si8 0.779159 0.804038 0.150230
O O1 0.366146 0.019146 0.255050
O O2 0.453140 0.838152 0.445453
O O3 0.165966 0.937132 0.364015
O O4 0.590681 0.273658 0.386279
O O5 0.817923 0.631463 0.451057
O O6 0.756178 0.764410 0.255458
O O7 0.959331 0.081866 0.343940
O O8 0.260346 0.760997 0.882625
O O9 0.707674 0.076687 0.890670
O O10 0.568851 0.713706 0.057518
O O11 0.500000 0.000000 0.000000
O O12 0.161252 0.574330 0.282865
O O13 0.940409 0.747351 0.170683
O O14 0.614372 0.607366 0.605097
O O15 0.833300 0.602757 0.797657
O O16 0.923544 0.090585 0.109778
O O17 0.000000 0.500000 0.000000
#
# Coordination Sequence:
#
# PCOD9106441 Si02
#       8
#     2   2   2   2   2   2   2   2
#     4   9  21  41  61  97 120 162 206 267 315 353
#     4   9  19  37  64  91 121 164 213 247 307 386
#     4  10  21  37  64  87 119 174 208 244 316 378
#     4  11  22  41  60  91 139 152 207 272 303 371
#     4  10  22  35  59  89 126 167 200 253 312 361
#     4  10  21  38  60  87 123 161 220 252 300 383
#     4  10  20  39  70  85 123 168 213 249 312 388
#     4   9  20  38  60  88 122 162 206 258 311 355
#
# _framework density 24.047253000000001
#
# number of rings (size 3 to 8) (size 9 to 14) (size 15 to 20)
#    0.000    2.250    0.000    3.000    7.000    0.500 
#    4.500    1.875    0.000    0.000    0.000    0.000 
#    0.000    0.000    0.000    0.000    0.000    0.000 
#
# Total GULP energy -89314.317902 kJ/mol
# GULP energy per Si atom -5582.144869 kJ/mol
# Density = 2.399252 g / cm^3
# Si number density = 24.047253 Si / 1000 Ang^3
#
#
#
# Elastic Constant Matrix: (Units=GPa)
#
#
# Indices 1 2 3 4 5 6 
#
# 1 72.0247 11.3073 16.2120 -2.3943 23.6929 -15.7550
# 2 11.3073 51.0140 8.4155 -13.8902 -0.7537 -6.6718
# 3 16.2120 8.4155 61.0710 -5.3118 28.6994 -7.3826
# 4 -2.3943 -13.8902 -5.3118 43.7604 -5.5024 4.8024
# 5 23.6929 -0.7537 28.6994 -5.5024 41.5592 -4.1737
# 6 -15.7550 -6.6718 -7.3826 4.8024 -4.1737 20.0388
#
#
#
# Elastic Compliance Matrix: (Units=1/GPa)
#
#
# Indices 1 2 3 4 5 6 
#
# 1 0.021248 -0.004278 0.002445 -0.003078 -0.012856 0.014242
# 2 -0.004278 0.023769 -0.004610 0.007383 0.007292 0.002601
# 3 0.002445 -0.004610 0.025889 -0.001253 -0.018889 0.006291
# 4 -0.003078 0.007383 -0.001253 0.026193 0.005667 -0.005521
# 5 -0.012856 0.007292 -0.018889 0.005667 0.044646 -0.006699
# 6 0.014242 0.002601 0.006291 -0.005521 -0.006699 0.064212
#
#
# Mechanical properties :
#
#
# Convention : Reuss Voigt Hill
#
# Bulk Modulus (GPa) = 17.23590 28.44215 22.83902
# Shear Modulus (GPa) = 20.99223 30.95001 25.97112
#
# Velocity S-wave (km/s) = 2.95779 3.59144 3.28991
# Velocity P-wave (km/s) = 4.34140 5.38992 4.89382
#
# Compressibility (1/GPa) = 0.05801845
#
# Stress axis : x y z
#
# Youngs Moduli (GPa) = 47.06410 42.07104 38.62648
#
# Poissons Ratio (x) = 0.17999 -0.09443
# Poissons Ratio (y) = 0.20136 0.17807
# Poissons Ratio (z) = -0.11505 0.19395
#
# Static dielectric constant tensor:
#      x y z
#    x 1.926970 0.031400 0.019160 
#    y 0.031400 1.990390 0.061500 
#    z 0.019160 0.061500 1.950510 
# 
# From -- ./inp_files/223070.got.cif
#   From: 2010.05.17/outbox.cif.g08.bks.cpg/sg2_112_cif.got.tgz:223070.got - 2010.06.03 11:33:40.
