data_PCOD9106942
_publ_section_title
;
Structure prediction by ZEFSAII (Michael W. Deem and Ramdas Pophale) SiO2 
 PCOD9106942
Probable space group: P -1
;
_chemical_formula_sum "Si O2"
_cell_formula_units_Z 13
_cell_length_a 9.519746
_cell_length_b 12.857470
_cell_length_c 9.473792
_cell_angle_alpha 127.425407
_cell_angle_beta 45.120094
_cell_angle_gamma 131.083730
_cell_volume 596.393476
_symmetry_space_group_name_H-M "P -1"
_symmetry_group_IT_number 2
_symmetry_cell_setting 'triclinic'
loop_
_space_group_symop_operation_xyz
x,y,z
-x,-y,-z
loop_
_atom_site_type_symbol
_atom_site_label
_atom_site_fract_x
_atom_site_fract_y
_atom_site_fract_z
Si Si1 0.181999 0.198736 0.127261
Si Si2 0.000000 0.000000 0.500000
Si Si3 0.474247 0.211189 0.688698
Si Si4 0.235537 0.906969 0.491125
Si Si5 0.386986 0.512847 0.372073
Si Si6 0.426604 0.128592 0.139568
Si Si7 0.762871 0.451790 0.192506
O O1 0.276746 0.362885 0.246193
O O2 0.297340 0.119732 0.078035
O O3 0.930283 0.129647 0.288691
O O4 0.258370 0.198695 0.913711
O O5 0.753786 0.890872 0.630600
O O6 0.100303 0.904785 0.446832
O O7 0.644987 0.199377 0.671091
O O8 0.574509 0.354398 0.646576
O O9 0.408332 0.070024 0.523459
O O10 0.618784 0.522766 0.273343
O O11 0.243031 0.511766 0.608628
O O12 0.625949 0.281142 0.133796
O O13 0.500000 0.000000 0.000000
O O14 0.000000 0.500000 0.000000
#
# Coordination Sequence:
#
# PCOD9106942 Si02
#       7
#     2   1   2   2   2   2   2
#     4  10  22  38  58  87 122 160 206 252 305 371
#     4  10  20  40  62  88 124 158 202 258 302 364
#     4  11  22  40  61  90 126 160 204 257 310 369
#     4  10  23  38  62  90 121 161 207 257 311 364
#     4  10  23  40  60  88 123 166 209 253 311 373
#     4  10  21  36  61  90 118 160 207 255 310 363
#     4  10  23  41  61  91 128 165 209 259 314 374
#
# _framework density 21.797689999999999
#
# number of rings (size 3 to 8) (size 9 to 14) (size 15 to 20)
#    0.000    1.846    0.000    2.769    0.000   14.154 
#    0.000    0.000    0.000    0.000    0.000    0.000 
#    0.000    0.000    0.000    0.000    0.000    0.000 
#
# Total GULP energy -72418.135621 kJ/mol
# GULP energy per Si atom -5570.625817 kJ/mol
# Density = 2.174808 g / cm^3
# Si number density = 21.797690 Si / 1000 Ang^3
#
#
#
# Elastic Constant Matrix: (Units=GPa)
#
#
# Indices 1 2 3 4 5 6 
#
# 1 51.2402 42.6349 19.0461 -10.4866 -18.3201 -21.9161
# 2 42.6349 117.5632 34.3580 -19.0965 -19.7870 -22.2695
# 3 19.0461 34.3580 86.7876 -27.8410 -21.3836 -2.1096
# 4 -10.4866 -19.0965 -27.8410 39.6990 7.7233 -7.0984
# 5 -18.3201 -19.7870 -21.3836 7.7233 29.4811 -4.4696
# 6 -21.9161 -22.2695 -2.1096 -7.0984 -4.4696 39.2154
#
#
#
# Elastic Compliance Matrix: (Units=1/GPa)
#
#
# Indices 1 2 3 4 5 6 
#
# 1 0.049739 -0.006265 0.003808 0.012189 0.030847 0.030167
# 2 -0.006265 0.013514 -0.001690 0.003866 0.003728 0.005206
# 3 0.003808 -0.001690 0.018242 0.011608 0.012280 0.005651
# 4 0.012189 0.003866 0.011608 0.039499 0.010975 0.018033
# 5 0.030847 0.003728 0.012280 0.010975 0.066101 0.029537
# 6 0.030167 0.005206 0.005651 0.018033 0.029537 0.052251
#
#
# Mechanical properties :
#
#
# Convention : Reuss Voigt Hill
#
# Bulk Modulus (GPa) = 13.66072 49.74100 31.70086
# Shear Modulus (GPa) = 18.37969 32.31591 25.34780
#
# Velocity S-wave (km/s) = 2.90693 3.85455 3.41378
# Velocity P-wave (km/s) = 4.18899 6.53292 5.48756
#
# Compressibility (1/GPa) = 0.07320258
#
# Stress axis : x y z
#
# Youngs Moduli (GPa) = 20.10482 73.99935 54.81730
#
# Poissons Ratio (x) = 0.46362 -0.20877
# Poissons Ratio (y) = 0.12596 0.09262
# Poissons Ratio (z) = -0.07657 0.12503
#
# Static dielectric constant tensor:
#      x y z
#    x 1.805280 0.004650 0.036560 
#    y 0.004650 1.746970 0.010460 
#    z 0.036560 0.010460 1.840800 
# 
# From -- ./inp_files/175849.got.cif
#   From: 2010.05.17/outbox.cif.g08.bks.cpg/sg2_88_cif.got.tgz:175849.got - 2010.06.03 11:33:40.
