data_PCOD9106573
_publ_section_title
;
Structure prediction by ZEFSAII (Michael W. Deem and Ramdas Pophale) SiO2 
 PCOD9106573
Probable space group: P -1
;
_chemical_formula_sum "Si O2"
_cell_formula_units_Z 16
_cell_length_a 11.597861
_cell_length_b 10.722868
_cell_length_c 21.264334
_cell_angle_alpha 126.902061
_cell_angle_beta 28.828727
_cell_angle_gamma 138.690148
_cell_volume 827.866054
_symmetry_space_group_name_H-M "P -1"
_symmetry_group_IT_number 2
_symmetry_cell_setting 'triclinic'
loop_
_space_group_symop_operation_xyz
x,y,z
-x,-y,-z
loop_
_atom_site_type_symbol
_atom_site_label
_atom_site_fract_x
_atom_site_fract_y
_atom_site_fract_z
Si Si1 0.283605 0.206026 0.757007
Si Si2 0.578754 0.518618 0.602939
Si Si3 0.210888 0.673285 0.782281
Si Si4 0.148220 0.888203 0.642409
Si Si5 0.634807 0.378279 0.907900
Si Si6 0.858731 0.046359 0.024231
Si Si7 0.889929 0.290155 0.514965
Si Si8 0.158132 0.622855 0.652524
O O1 0.426476 0.392225 0.700614
O O2 0.542769 0.190224 0.654419
O O3 0.097709 0.184222 0.899113
O O4 0.094818 0.029594 0.744992
O O5 0.410698 0.605044 0.685927
O O6 0.601641 0.393147 0.500948
O O7 0.920691 0.676123 0.504689
O O8 0.271658 0.735743 0.698501
O O9 0.866007 0.485324 0.887641
O O10 0.256429 0.839560 0.854302
O O11 0.032762 0.809119 0.604537
O O12 0.058172 0.716225 0.680054
O O13 0.500000 0.000000 0.500000
O O14 0.861655 0.424509 0.756809
O O15 0.500000 0.500000 0.000000
O O16 0.380264 0.153793 0.957461
O O17 0.000000 0.000000 0.000000
O O18 0.000000 0.500000 0.500000
#
# Coordination Sequence:
#
# PCOD9106573 Si02
#       8
#     2   2   2   2   2   2   2   2
#     4  10  22  36  64  92 125 161 210 264 308 370
#     4  11  21  42  60  95 129 163 203 259 331 374
#     4  10  25  41  65  92 129 170 206 255 321 379
#     4  10  16  34  58  94 120 150 208 255 310 363
#     4  10  22  41  63  92 119 165 213 257 307 363
#     4  12  23  43  66  92 123 165 223 258 305 377
#     4   9  18  33  58  91 119 156 198 252 311 363
#     4  10  20  39  65  88 130 160 205 265 319 363
#
# _framework density 19.326796999999999
#
# number of rings (size 3 to 8) (size 9 to 14) (size 15 to 20)
#    0.750    1.000    5.000    1.875    1.750    0.500 
#    6.750    1.250    0.000    0.000    0.000    0.000 
#    0.000    0.000    0.000    0.000    0.000    0.000 
#
# Total GULP energy -89082.382071 kJ/mol
# GULP energy per Si atom -5567.648879 kJ/mol
# Density = 1.928281 g / cm^3
# Si number density = 19.326797 Si / 1000 Ang^3
#
#
#
# Elastic Constant Matrix: (Units=GPa)
#
#
# Indices 1 2 3 4 5 6 
#
# 1 39.7913 7.7536 24.8480 8.1427 -4.1254 9.1063
# 2 7.7536 59.8776 15.2415 9.8973 -0.7324 16.6271
# 3 24.8480 15.2415 75.4792 9.1450 16.6304 -0.5468
# 4 8.1427 9.8973 9.1450 30.4695 -0.7289 8.6184
# 5 -4.1254 -0.7324 16.6304 -0.7289 37.6457 -0.3992
# 6 9.1063 16.6271 -0.5468 8.6184 -0.3992 25.6079
#
#
#
# Elastic Compliance Matrix: (Units=1/GPa)
#
#
# Indices 1 2 3 4 5 6 
#
# 1 0.039878 0.003988 -0.016303 -0.002204 0.011435 -0.016199
# 2 0.003988 0.022500 -0.006512 -0.001965 0.003550 -0.015450
# 3 -0.016303 -0.006512 0.023178 -0.004085 -0.012108 0.011707
# 4 -0.002204 -0.001965 -0.004085 0.038414 0.002153 -0.010922
# 5 0.011435 0.003550 -0.012108 0.002153 0.033203 -0.006837
# 6 -0.016199 -0.015450 0.011707 -0.010922 -0.006837 0.058662
#
#
# Mechanical properties :
#
#
# Convention : Reuss Voigt Hill
#
# Bulk Modulus (GPa) = 20.87586 30.09271 25.48428
# Shear Modulus (GPa) = 18.55568 27.23162 22.89365
#
# Velocity S-wave (km/s) = 3.10191 3.75775 3.44547
# Velocity P-wave (km/s) = 4.86355 5.86786 5.38915
#
# Compressibility (1/GPa) = 0.04790223
#
# Stress axis : x y z
#
# Youngs Moduli (GPa) = 25.07618 44.44354 43.14375
#
# Poissons Ratio (x) = -0.17726 0.70339
# Poissons Ratio (y) = -0.10001 0.28097
# Poissons Ratio (z) = 0.40883 0.28944
#
# Static dielectric constant tensor:
#      x y z
#    x 1.683460 0.023630 0.030440 
#    y 0.023630 1.742370 -0.030780 
#    z 0.030440 -0.030780 1.713080 
# 
# From -- ./inp_files/594963.got.cif
#   From: 2010.05.17/outbox.cif.g08.bks.cpg/sg2_298_cif.got.tgz:594963.got - 2010.06.03 11:33:40.
