data_PCOD9106309
_publ_section_title
;
Structure prediction by ZEFSAII (Michael W. Deem and Ramdas Pophale) SiO2 
 PCOD9106309
Probable space group: P -1
;
_chemical_formula_sum "Si O2"
_cell_formula_units_Z 16
_cell_length_a 9.319648
_cell_length_b 11.464530
_cell_length_c 11.880032
_cell_angle_alpha 42.593007
_cell_angle_beta 116.387975
_cell_angle_gamma 131.503048
_cell_volume 641.007878
_symmetry_space_group_name_H-M "P -1"
_symmetry_group_IT_number 2
_symmetry_cell_setting 'triclinic'
loop_
_space_group_symop_operation_xyz
x,y,z
-x,-y,-z
loop_
_atom_site_type_symbol
_atom_site_label
_atom_site_fract_x
_atom_site_fract_y
_atom_site_fract_z
Si Si1 0.084164 0.004434 0.744381
Si Si2 0.661088 0.704409 0.753700
Si Si3 0.320819 0.731387 0.715006
Si Si4 0.417616 0.719182 0.987405
Si Si5 0.546388 0.680933 0.474850
Si Si6 0.212472 0.605977 0.543982
Si Si7 0.820175 0.800138 0.134585
Si Si8 0.929733 0.394040 0.927639
O O1 0.874382 0.908603 0.688308
O O2 0.262958 0.110596 0.648260
O O3 0.137372 0.172963 0.737465
O O4 0.072514 0.812109 0.936362
O O5 0.505777 0.717168 0.761501
O O6 0.599752 0.651011 0.640388
O O7 0.665803 0.508987 0.933370
O O8 0.386451 0.832076 0.792141
O O9 0.293122 0.787246 0.537238
O O10 0.090098 0.563145 0.780052
O O11 0.634539 0.801570 0.035894
O O12 0.294548 0.685804 0.080879
O O13 0.500000 0.500000 0.500000
O O14 0.356093 0.677616 0.437433
O O15 0.209475 0.419366 0.743390
O O16 0.000000 0.500000 0.500000
O O17 0.000000 0.000000 0.000000
O O18 0.000000 0.500000 0.000000
#
# Coordination Sequence:
#
# PCOD9106309 Si02
#       8
#     2   2   2   2   2   2   2   2
#     4  12  23  40  66  99 137 177 228 274 337 411
#     4  11  21  38  69  94 127 180 223 273 331 409
#     4  10  20  39  68  98 130 176 220 279 337 399
#     4  11  21  41  68  99 135 174 223 277 345 389
#     4  11  23  45  64  93 134 184 227 267 337 411
#     4  11  25  45  67 100 137 182 223 281 345 400
#     4  12  25  41  70 105 136 173 234 281 340 410
#     4  10  22  39  65 103 133 167 225 285 338 391
#
# _framework density 24.960691000000001
#
# number of rings (size 3 to 8) (size 9 to 14) (size 15 to 20)
#    0.000    1.000    6.250    2.250    0.000    3.500 
#    0.000    0.000    0.000    8.250    0.000    0.000 
#    0.000    0.000    0.000    0.000    0.000    0.000 
#
# Total GULP energy -89237.599606 kJ/mol
# GULP energy per Si atom -5577.349975 kJ/mol
# Density = 2.490388 g / cm^3
# Si number density = 24.960691 Si / 1000 Ang^3
#
#
#
# Elastic Constant Matrix: (Units=GPa)
#
#
# Indices 1 2 3 4 5 6 
#
# 1 183.2456 64.6874 32.9988 2.7137 -35.4478 36.6778
# 2 64.6874 124.6469 21.2802 12.6575 -7.3548 26.5765
# 3 32.9988 21.2802 48.3187 -3.4384 -28.1486 7.3553
# 4 2.7137 12.6575 -3.4384 43.6797 2.4159 -3.0047
# 5 -35.4478 -7.3548 -28.1486 2.4159 45.4723 -0.3880
# 6 36.6778 26.5765 7.3553 -3.0047 -0.3880 60.3644
#
#
#
# Elastic Compliance Matrix: (Units=1/GPa)
#
#
# Indices 1 2 3 4 5 6 
#
# 1 0.008542 -0.003196 -0.000489 -0.000219 0.005820 -0.003697
# 2 -0.003196 0.011155 -0.004508 -0.003385 -0.003320 -0.002610
# 3 -0.000489 -0.004508 0.035574 0.002867 0.020743 -0.001777
# 4 -0.000219 -0.003385 0.002867 0.024297 -0.000213 0.002482
# 5 0.005820 -0.003320 0.020743 -0.000213 0.038806 -0.004363
# 6 -0.003697 -0.002610 -0.001777 0.002482 -0.004363 0.020274
#
#
# Mechanical properties :
#
#
# Convention : Reuss Voigt Hill
#
# Bulk Modulus (GPa) = 25.71605 66.01601 45.86603
# Shear Modulus (GPa) = 29.76273 45.71961 37.74117
#
# Velocity S-wave (km/s) = 3.45684 4.28444 3.89269
# Velocity P-wave (km/s) = 5.12425 7.14007 6.21444
#
# Compressibility (1/GPa) = 0.03888623
#
# Stress axis : x y z
#
# Youngs Moduli (GPa) = 117.06245 89.64534 28.11039
#
# Poissons Ratio (x) = 0.28648 0.01374
# Poissons Ratio (y) = 0.37410 0.12672
# Poissons Ratio (z) = 0.05723 0.40412
#
# Static dielectric constant tensor:
#      x y z
#    x 2.049910 0.010250 -0.010850 
#    y 0.010250 2.015210 0.010720 
#    z -0.010850 0.010720 2.065030 
# 
# From -- ./inp_files/392145.got.cif
#   From: 2010.05.17/outbox.cif.g08.bks.cpg/sg2_197_cif.got.tgz:392145.got - 2010.06.03 11:33:40.
