data_PCOD9106729
_publ_section_title
;
Structure prediction by ZEFSAII (Michael W. Deem and Ramdas Pophale) SiO2 
 PCOD9106729
Probable space group: P -1
;
_chemical_formula_sum "Si O2"
_cell_formula_units_Z 16
_cell_length_a 8.725874
_cell_length_b 23.669513
_cell_length_c 10.802494
_cell_angle_alpha 155.299273
_cell_angle_beta 139.191039
_cell_angle_gamma 46.241572
_cell_volume 609.253181
_symmetry_space_group_name_H-M "P -1"
_symmetry_group_IT_number 2
_symmetry_cell_setting 'triclinic'
loop_
_space_group_symop_operation_xyz
x,y,z
-x,-y,-z
loop_
_atom_site_type_symbol
_atom_site_label
_atom_site_fract_x
_atom_site_fract_y
_atom_site_fract_z
Si Si1 0.720034 0.114638 0.661347
Si Si2 0.759730 0.130878 0.316288
Si Si3 0.872383 0.827867 0.153333
Si Si4 0.939408 0.349873 0.722322
Si Si5 0.651638 0.833546 0.677012
Si Si6 0.260359 0.447240 0.413741
Si Si7 0.768380 0.534115 0.201760
Si Si8 0.559561 0.678305 0.988454
O O1 0.543583 0.165451 0.547896
O O2 0.977066 0.142220 0.818076
O O3 0.707785 0.953958 0.339338
O O4 0.632965 0.202402 0.899306
O O5 0.502693 0.148596 0.256135
O O6 0.948097 0.180282 0.634987
O O7 0.784564 0.212479 0.364888
O O8 0.798605 0.968491 0.011702
O O9 0.747453 0.686384 0.777279
O O10 0.191864 0.277783 0.722573
O O11 0.000000 0.500000 0.000000
O O12 0.828162 0.417717 0.909714
O O13 0.778481 0.688870 0.472346
O O14 0.443249 0.565425 0.780751
O O15 0.355337 0.389798 0.224124
O O16 0.999157 0.510961 0.382044
O O17 0.500000 0.500000 0.000000
#
# Coordination Sequence:
#
# PCOD9106729 Si02
#       8
#     2   2   2   2   2   2   2   2
#     4  10  22  38  61  90 124 160 204 265 312 359
#     4  10  20  40  60  91 124 163 209 256 315 377
#     4  10  20  41  62  86 123 162 210 258 307 368
#     4  11  22  39  62  89 129 165 204 263 315 373
#     4  10  21  37  64  93 122 158 212 262 315 370
#     4  10  22  39  63  88 123 168 212 250 308 388
#     4  11  19  38  64  91 119 162 211 261 310 369
#     4  10  22  41  57  90 125 163 209 248 316 377
#
# _framework density 26.261659000000002
#
# number of rings (size 3 to 8) (size 9 to 14) (size 15 to 20)
#    0.000    1.750    3.750    1.500    1.750    2.000 
#    0.000    2.500    0.000    0.000    0.000    0.000 
#    0.000    0.000    0.000    0.000    0.000    0.000 
#
# Total GULP energy -89218.792113 kJ/mol
# GULP energy per Si atom -5576.174507 kJ/mol
# Density = 2.620189 g / cm^3
# Si number density = 26.261659 Si / 1000 Ang^3
#
#
#
# Elastic Constant Matrix: (Units=GPa)
#
#
# Indices 1 2 3 4 5 6 
#
# 1 87.5132 39.8230 50.0407 2.6962 16.6400 -23.1286
# 2 39.8230 118.5238 45.4348 33.4062 0.6737 -25.6850
# 3 50.0407 45.4348 150.6557 42.3699 27.0221 -16.1312
# 4 2.6962 33.4062 42.3699 55.6488 -3.5040 2.1621
# 5 16.6400 0.6737 27.0221 -3.5040 43.6935 5.6341
# 6 -23.1286 -25.6850 -16.1312 2.1621 5.6341 43.0941
#
#
#
# Elastic Compliance Matrix: (Units=1/GPa)
#
#
# Indices 1 2 3 4 5 6 
#
# 1 0.018359 -0.004465 -0.004736 0.004901 -0.004341 0.005740
# 2 -0.004465 0.013525 0.000574 -0.008610 -0.000373 0.006360
# 3 -0.004736 0.000574 0.012749 -0.010449 -0.007453 0.004071
# 4 0.004901 -0.008610 -0.010449 0.031743 0.008449 -0.009110
# 5 -0.004341 -0.000373 -0.007453 0.008449 0.031100 -0.009832
# 6 0.005740 0.006360 0.004071 -0.009110 -0.009832 0.033343
#
#
# Mechanical properties :
#
#
# Convention : Reuss Voigt Hill
#
# Bulk Modulus (GPa) = 36.52746 69.69888 53.11317
# Shear Modulus (GPa) = 29.90442 43.24690 36.57566
#
# Velocity S-wave (km/s) = 3.37814 4.06244 3.73599
# Velocity P-wave (km/s) = 5.39954 6.97154 6.23528
#
# Compressibility (1/GPa) = 0.02737667
#
# Stress axis : x y z
#
# Youngs Moduli (GPa) = 54.47057 73.93921 78.43663
#
# Poissons Ratio (x) = 0.33017 0.37150
# Poissons Ratio (y) = 0.24323 -0.04501
# Poissons Ratio (z) = 0.25799 -0.04243
#
# Static dielectric constant tensor:
#      x y z
#    x 2.147280 0.124670 -0.060910 
#    y 0.124670 2.089350 0.064340 
#    z -0.060910 0.064340 1.608200 
# 
# From -- ./inp_files/509216.got.cif
#   From: 2010.05.17/outbox.cif.g08.bks.cpg/sg2_255_cif.got.tgz:509216.got - 2010.06.03 11:33:40.
