data_PCOD9106769
_publ_section_title
;
Structure prediction by ZEFSAII (Michael W. Deem and Ramdas Pophale) SiO2 
 PCOD9106769
Probable space group: P -1
;
_chemical_formula_sum "Si O2"
_cell_formula_units_Z 14
_cell_length_a 17.699157
_cell_length_b 5.051182
_cell_length_c 7.326456
_cell_angle_alpha 67.714233
_cell_angle_beta 80.512483
_cell_angle_gamma 95.846903
_cell_volume 588.005351
_symmetry_space_group_name_H-M "P -1"
_symmetry_group_IT_number 2
_symmetry_cell_setting 'triclinic'
loop_
_space_group_symop_operation_xyz
x,y,z
-x,-y,-z
loop_
_atom_site_type_symbol
_atom_site_label
_atom_site_fract_x
_atom_site_fract_y
_atom_site_fract_z
Si Si1 0.941332 0.839736 0.817416
Si Si2 0.431319 0.168072 0.530528
Si Si3 0.738392 0.901790 0.396565
Si Si4 0.106917 0.677113 0.753383
Si Si5 0.461785 0.740848 0.211852
Si Si6 0.872292 0.396856 0.668812
Si Si7 0.285566 0.759462 0.354107
O O1 0.902427 0.695942 0.682892
O O2 0.032115 0.829350 0.767112
O O3 0.920820 0.154304 0.778219
O O4 0.907562 0.616617 0.047678
O O5 0.343941 0.009794 0.647865
O O6 0.430164 0.393070 0.304581
O O7 0.464861 0.293235 0.678025
O O8 0.500000 0.000000 0.500000
O O9 0.730142 0.558268 0.454201
O O10 0.817487 0.106707 0.255113
O O11 0.737321 0.974548 0.593724
O O12 0.115705 0.598775 0.556660
O O13 0.378040 0.823646 0.273935
O O14 0.500000 0.000000 0.000000
O O15 0.779318 0.297154 0.763271
#
# Coordination Sequence:
#
# PCOD9106769 Si02
#       7
#     2   2   2   2   2   2   2
#     4  11  25  41  65  96 128 164 221 261 314 390
#     4  10  20  40  61  85 123 161 206 254 309 380
#     4  10  21  39  65  88 124 168 204 255 319 367
#     4  10  24  43  65  95 128 170 211 267 321 374
#     4  10  22  39  61  91 123 164 206 262 316 372
#     4  11  23  42  65  91 129 171 207 264 322 374
#     4  10  21  40  62  92 126 161 209 258 308 378
#
# _framework density 23.809305999999999
#
# number of rings (size 3 to 8) (size 9 to 14) (size 15 to 20)
#    0.000    1.714    1.429    2.571    0.000    9.714 
#    2.571    0.000    0.000    0.000    0.000    0.000 
#    0.000    0.000    0.000    0.000    0.000    0.000 
#
# Total GULP energy -78002.273628 kJ/mol
# GULP energy per Si atom -5571.590973 kJ/mol
# Density = 2.375512 g / cm^3
# Si number density = 23.809306 Si / 1000 Ang^3
#
#
#
# Elastic Constant Matrix: (Units=GPa)
#
#
# Indices 1 2 3 4 5 6 
#
# 1 172.6986 16.3046 32.7387 -5.0148 -30.5038 7.7290
# 2 16.3046 74.5114 12.8117 -14.1657 -5.1325 -0.6962
# 3 32.7387 12.8117 93.0146 -18.1159 2.8753 6.7055
# 4 -5.0148 -14.1657 -18.1159 18.1211 0.2232 5.6903
# 5 -30.5038 -5.1325 2.8753 0.2232 23.9849 -11.5554
# 6 7.7290 -0.6962 6.7055 5.6903 -11.5554 44.9811
#
#
#
# Elastic Compliance Matrix: (Units=1/GPa)
#
#
# Indices 1 2 3 4 5 6 
#
# 1 0.008713 -0.000961 -0.004247 -0.003645 0.012802 0.002871
# 2 -0.000961 0.016146 0.000748 0.013397 0.001539 -0.000996
# 3 -0.004247 0.000748 0.016492 0.018146 -0.010637 -0.006745
# 4 -0.003645 0.013397 0.018146 0.088045 -0.012589 -0.016243
# 5 0.012802 0.001539 -0.010637 -0.012589 0.068679 0.018646
# 6 0.002871 -0.000996 -0.006745 -0.016243 0.018646 0.029573
#
#
# Mechanical properties :
#
#
# Convention : Reuss Voigt Hill
#
# Bulk Modulus (GPa) = 30.83441 51.54830 41.19135
# Shear Modulus (GPa) = 20.21192 35.97541 28.09366
#
# Velocity S-wave (km/s) = 2.91676 3.89135 3.43876
# Velocity P-wave (km/s) = 4.93174 6.47207 5.75368
#
# Compressibility (1/GPa) = 0.03243130
#
# Stress axis : x y z
#
# Youngs Moduli (GPa) = 114.76920 61.93435 60.63520
#
# Poissons Ratio (x) = 0.05950 0.25752
# Poissons Ratio (y) = 0.11025 -0.04533
# Poissons Ratio (z) = 0.48743 -0.04631
#
# Static dielectric constant tensor:
#      x y z
#    x 1.963330 0.043120 -0.105440 
#    y 0.043120 1.970830 -0.072730 
#    z -0.105440 -0.072730 2.041520 
# 
# From -- ./inp_files/322112.got.cif
#   From: 2010.05.17/outbox.cif.g08.bks.cpg/sg2_162_cif.got.tgz:322112.got - 2010.06.03 11:33:40.
