data_PCOD9106898
_publ_section_title
;
Structure prediction by ZEFSAII (Michael W. Deem and Ramdas Pophale) SiO2 
 PCOD9106898
Probable space group: P -1
;
_chemical_formula_sum "Si O2"
_cell_formula_units_Z 10
_cell_length_a 8.384683
_cell_length_b 11.515735
_cell_length_c 7.674592
_cell_angle_alpha 112.759432
_cell_angle_beta 97.361040
_cell_angle_gamma 34.453518
_cell_volume 359.777789
_symmetry_space_group_name_H-M "P -1"
_symmetry_group_IT_number 2
_symmetry_cell_setting 'triclinic'
loop_
_space_group_symop_operation_xyz
x,y,z
-x,-y,-z
loop_
_atom_site_type_symbol
_atom_site_label
_atom_site_fract_x
_atom_site_fract_y
_atom_site_fract_z
Si Si1 0.325736 0.707505 0.228669
Si Si2 0.285726 0.899363 0.038572
Si Si3 0.972351 0.427516 0.735203
Si Si4 0.737058 0.951502 0.213632
Si Si5 0.228219 0.470558 0.584182
O O1 0.540927 0.577472 0.348096
O O2 0.999701 0.862706 0.286516
O O3 0.500000 0.500000 0.000000
O O4 0.292095 0.866916 0.225812
O O5 0.631354 0.635283 0.878789
O O6 0.234038 0.054605 0.996173
O O7 0.000000 0.000000 0.000000
O O8 0.973801 0.354337 0.505980
O O9 0.207698 0.218462 0.787850
O O10 0.064730 0.507819 0.741552
O O11 0.434202 0.222165 0.386067
#
# Coordination Sequence:
#
# PCOD9106898 Si02
#       5
#     2   2   2   2   2
#     4  11  21  40  60  88 121 158 193 245 296 346
#     4   9  20  37  61  85 121 150 196 244 290 351
#     4  10  20  41  62  87 118 157 197 244 295 346
#     4  10  20  40  62  85 117 158 201 239 289 355
#     4  10  23  38  62  88 121 153 200 244 289 352
#
# _framework density 27.794933
#
# number of rings (size 3 to 8) (size 9 to 14) (size 15 to 20)
#    0.000    2.000    2.000    1.200    0.000    1.600 
#   10.800    1.000    0.000    0.000    0.000    0.000 
#    0.000    0.000    0.000    0.000    0.000    0.000 
#
# Total GULP energy -55910.107244 kJ/mol
# GULP energy per Si atom -5591.010724 kJ/mol
# Density = 2.773167 g / cm^3
# Si number density = 27.794933 Si / 1000 Ang^3
#
#
#
# Elastic Constant Matrix: (Units=GPa)
#
#
# Indices 1 2 3 4 5 6 
#
# 1 80.9543 22.4018 20.2256 9.1766 -18.8693 9.6077
# 2 22.4018 116.2978 21.9964 -11.7308 3.7309 26.3503
# 3 20.2256 21.9964 68.5449 -11.8897 -9.7069 18.8123
# 4 9.1766 -11.7308 -11.8897 55.4827 -9.9919 -7.5365
# 5 -18.8693 3.7309 -9.7069 -9.9919 41.0917 -9.6809
# 6 9.6077 26.3503 18.8123 -7.5365 -9.6809 67.7771
#
#
#
# Elastic Compliance Matrix: (Units=1/GPa)
#
#
# Indices 1 2 3 4 5 6 
#
# 1 0.015714 -0.002954 -0.003430 -0.002803 0.006094 0.000432
# 2 -0.002954 0.010532 -0.001787 0.001271 -0.003251 -0.003503
# 3 -0.003430 -0.001787 0.018176 0.004268 0.003229 -0.002928
# 4 -0.002803 0.001271 0.004268 0.020825 0.005085 0.001760
# 5 0.006094 -0.003251 0.003229 0.005085 0.030470 0.004421
# 6 0.000432 -0.003503 -0.002928 0.001760 0.004421 0.017695
#
#
# Mechanical properties :
#
#
# Convention : Reuss Voigt Hill
#
# Bulk Modulus (GPa) = 35.61335 43.89386 39.75361
# Shear Modulus (GPa) = 35.94179 46.28186 41.11182
#
# Velocity S-wave (km/s) = 3.59988 4.08501 3.85010
# Velocity P-wave (km/s) = 5.48813 6.17058 5.83933
#
# Compressibility (1/GPa) = 0.02807936
#
# Stress axis : x y z
#
# Youngs Moduli (GPa) = 63.63735 94.95108 55.01839
#
# Poissons Ratio (x) = 0.28050 0.18874
# Poissons Ratio (y) = 0.18799 0.09829
# Poissons Ratio (z) = 0.21830 0.16963
#
# Static dielectric constant tensor:
#      x y z
#    x 2.146120 0.058690 0.004960 
#    y 0.058690 2.255270 0.045260 
#    z 0.004960 0.045260 2.216680 
# 
# From -- ./inp_files/17120.got.cif
#   From: 2010.05.17/outbox.cif.g08.bks.cpg/sg2_9_cif.got.tgz:17120.got - 2010.06.03 11:33:40.
