data_PCOD9106708
_publ_section_title
;
Structure prediction by ZEFSAII (Michael W. Deem and Ramdas Pophale) SiO2 
 PCOD9106708
Probable space group: P -1
;
_chemical_formula_sum "Si O2"
_cell_formula_units_Z 12
_cell_length_a 4.917095
_cell_length_b 6.590862
_cell_length_c 23.281737
_cell_angle_alpha 39.810393
_cell_angle_beta 97.336245
_cell_angle_gamma 107.794056
_cell_volume 452.817634
_symmetry_space_group_name_H-M "P -1"
_symmetry_group_IT_number 2
_symmetry_cell_setting 'triclinic'
loop_
_space_group_symop_operation_xyz
x,y,z
-x,-y,-z
loop_
_atom_site_type_symbol
_atom_site_label
_atom_site_fract_x
_atom_site_fract_y
_atom_site_fract_z
Si Si1 0.097471 0.721720 0.324737
Si Si2 0.400597 0.733731 0.992454
Si Si3 0.650595 0.829218 0.207145
Si Si4 0.369133 0.341511 0.590510
Si Si5 0.140445 0.459415 0.896581
Si Si6 0.910467 0.665384 0.740462
O O1 0.657028 0.149010 0.177357
O O2 0.193045 0.106805 0.266003
O O3 0.919353 0.723995 0.261001
O O4 0.862302 0.532625 0.408697
O O5 0.894109 0.435258 0.943388
O O6 0.354354 0.021615 0.889046
O O7 0.500000 0.500000 0.000000
O O8 0.670651 0.781839 0.032848
O O9 0.372591 0.612016 0.367566
O O10 0.356573 0.519158 0.266394
O O11 0.500000 0.500000 0.500000
O O12 0.186642 0.948887 0.659646
O O13 0.008583 0.419238 0.838275
#
# Coordination Sequence:
#
# PCOD9106708 Si02
#       6
#     2   2   2   2   2   2
#     4   9  22  40  62  87 119 154 192 244 299 351
#     4  10  21  38  59  84 120 166 199 238 287 346
#     4  10  20  40  60  89 120 159 199 243 292 340
#     4  10  21  44  66  84 120 157 188 243 307 359
#     4  10  22  39  57  84 124 160 200 241 290 336
#     4   9  23  38  62  91 118 156 200 246 291 350
#
# _framework density 26.500736
#
# number of rings (size 3 to 8) (size 9 to 14) (size 15 to 20)
#    1.000    1.333    0.000    2.500    4.667    2.667 
#   12.000    1.667    0.000    0.000    0.000    0.000 
#    0.000    0.000    0.000    0.000    0.000    0.000 
#
# Total GULP energy -67093.362531 kJ/mol
# GULP energy per Si atom -5591.113544 kJ/mol
# Density = 2.644042 g / cm^3
# Si number density = 26.500736 Si / 1000 Ang^3
#
#
#
# Elastic Constant Matrix: (Units=GPa)
#
#
# Indices 1 2 3 4 5 6 
#
# 1 136.4913 49.8077 30.9885 -4.2324 -13.4305 32.4764
# 2 49.8077 160.0253 62.6436 29.5120 2.6266 45.7383
# 3 30.9885 62.6436 170.5966 14.3754 -26.9301 29.0346
# 4 -4.2324 29.5120 14.3754 37.9902 13.9722 1.6499
# 5 -13.4305 2.6266 -26.9301 13.9722 30.1317 6.4673
# 6 32.4764 45.7383 29.0346 1.6499 6.4673 42.2065
#
#
#
# Elastic Compliance Matrix: (Units=1/GPa)
#
#
# Indices 1 2 3 4 5 6 
#
# 1 0.010366 -0.001123 0.001577 -0.001383 0.008729 -0.009128
# 2 -0.001123 0.012376 -0.000163 -0.011457 0.006370 -0.012963
# 3 0.001577 -0.000163 0.011122 -0.009906 0.017612 -0.010999
# 4 -0.001383 -0.011457 -0.009906 0.051583 -0.037548 0.024031
# 5 0.008729 0.006370 0.017612 -0.037548 0.077429 -0.036131
# 6 -0.009128 -0.012963 -0.010999 0.024031 -0.036131 0.056928
#
#
# Mechanical properties :
#
#
# Convention : Reuss Voigt Hill
#
# Bulk Modulus (GPa) = 29.03107 83.77697 56.40402
# Shear Modulus (GPa) = 21.67280 43.64392 32.65836
#
# Velocity S-wave (km/s) = 2.86286 4.06260 3.51430
# Velocity P-wave (km/s) = 4.68044 7.32721 6.14795
#
# Compressibility (1/GPa) = 0.03444586
#
# Stress axis : x y z
#
# Youngs Moduli (GPa) = 96.46903 80.80145 89.91129
#
# Poissons Ratio (x) = 0.09076 -0.14183
# Poissons Ratio (y) = 0.10836 0.01469
# Poissons Ratio (z) = -0.15217 0.01320
#
# Static dielectric constant tensor:
#      x y z
#    x 2.173030 -0.021240 -0.064800 
#    y -0.021240 2.232340 0.014960 
#    z -0.064800 0.014960 2.102000 
# 
# From -- ./inp_files/133094.got.cif
#   From: 2010.05.17/outbox.cif.g08.bks.cpg/sg2_67_cif.got.tgz:133094.got - 2010.06.03 11:33:40.
