data_PCOD9106934
_publ_section_title
;
Structure prediction by ZEFSAII (Michael W. Deem and Ramdas Pophale) SiO2 
 PCOD9106934
Probable space group: P -1
;
_chemical_formula_sum "Si O2"
_cell_formula_units_Z 10
_cell_length_a 13.749276
_cell_length_b 20.255983
_cell_length_c 9.261583
_cell_angle_alpha 25.561615
_cell_angle_beta 143.335007
_cell_angle_gamma 159.469449
_cell_volume 374.474427
_symmetry_space_group_name_H-M "P -1"
_symmetry_group_IT_number 2
_symmetry_cell_setting 'triclinic'
loop_
_space_group_symop_operation_xyz
x,y,z
-x,-y,-z
loop_
_atom_site_type_symbol
_atom_site_label
_atom_site_fract_x
_atom_site_fract_y
_atom_site_fract_z
Si Si1 0.820813 0.611208 0.564285
Si Si2 0.439264 0.570403 0.657049
Si Si3 0.896500 0.775627 0.629556
Si Si4 0.583805 0.266010 0.445232
Si Si5 0.591673 0.110483 0.230155
O O1 0.798706 0.677663 0.252378
O O2 0.776317 0.683781 0.504457
O O3 0.099308 0.734123 0.708400
O O4 0.616514 0.311178 0.866214
O O5 0.750450 0.800624 0.493656
O O6 0.312286 0.620342 0.491756
O O7 0.500000 0.500000 0.000000
O O8 0.753564 0.513560 0.052391
O O9 0.240666 0.031625 0.525233
O O10 0.592398 0.109768 0.682476
O O11 0.500000 0.000000 0.500000
#
# Coordination Sequence:
#
# PCOD9106934 Si02
#       5
#     2   2   2   2   2
#     4  10  21  39  65  88 120 163 204 252 304 361
#     4  10  22  41  60  92 126 158 199 254 311 366
#     4  10  20  40  62  90 123 162 204 248 302 369
#     4  10  21  39  63  89 126 160 200 255 306 359
#     4  10  20  40  62  88 119 159 213 250 295 363
#
# _framework density 26.704093
#
# number of rings (size 3 to 8) (size 9 to 14) (size 15 to 20)
#    0.000    2.000    2.000    1.200    0.000    0.800 
#   14.400   10.000    0.000    0.000    0.000    0.000 
#    0.000    0.000    0.000    0.000    0.000    0.000 
#
# Total GULP energy -55745.581117 kJ/mol
# GULP energy per Si atom -5574.558112 kJ/mol
# Density = 2.664331 g / cm^3
# Si number density = 26.704093 Si / 1000 Ang^3
#
#
#
# Elastic Constant Matrix: (Units=GPa)
#
#
# Indices 1 2 3 4 5 6 
#
# 1 169.3136 39.5502 17.0109 -14.5272 -12.6427 -64.5817
# 2 39.5502 88.9571 23.1239 -3.2300 -19.9035 -4.6007
# 3 17.0109 23.1239 69.0726 -15.2087 -2.7309 1.2733
# 4 -14.5272 -3.2300 -15.2087 36.2712 -6.2934 -5.9711
# 5 -12.6427 -19.9035 -2.7309 -6.2934 31.4955 7.8249
# 6 -64.5817 -4.6007 1.2733 -5.9711 7.8249 68.3672
#
#
#
# Elastic Compliance Matrix: (Units=1/GPa)
#
#
# Indices 1 2 3 4 5 6 
#
# 1 0.011848 -0.004274 -0.000319 0.006182 0.000430 0.011401
# 2 -0.004274 0.015920 -0.004112 -0.001158 0.008748 -0.003992
# 3 -0.000319 -0.004112 0.017447 0.006806 0.000229 -0.000335
# 4 0.006182 -0.001158 0.006806 0.035387 0.007455 0.007873
# 5 0.000430 0.008748 0.000229 0.007455 0.039682 -0.002900
# 6 0.011401 -0.003992 -0.000335 0.007873 -0.002900 0.026154
#
#
# Mechanical properties :
#
#
# Convention : Reuss Voigt Hill
#
# Bulk Modulus (GPa) = 35.96713 54.07927 45.02320
# Shear Modulus (GPa) = 28.88254 43.73734 36.30994
#
# Velocity S-wave (km/s) = 3.29230 4.05143 3.69143
# Velocity P-wave (km/s) = 5.28681 6.49467 5.92161
#
# Compressibility (1/GPa) = 0.02780316
#
# Stress axis : x y z
#
# Youngs Moduli (GPa) = 84.40279 62.81549 57.31775
#
# Poissons Ratio (x) = 0.26850 0.01827
# Poissons Ratio (y) = 0.36077 0.23571
# Poissons Ratio (z) = 0.02691 0.25832
#
# Static dielectric constant tensor:
#      x y z
#    x 2.943080 -0.910260 -1.188560 
#    y -0.910260 2.745640 0.851640 
#    z -1.188560 0.851640 3.434210 
# 
# From -- ./inp_files/15327.got.cif
#   From: 2010.05.17/outbox.cif.g08.bks.cpg/sg2_8_cif.got.tgz:15327.got - 2010.06.03 11:33:40.
