data_PCOD9106932
_publ_section_title
;
Structure prediction by ZEFSAII (Michael W. Deem and Ramdas Pophale) SiO2 
 PCOD9106932
Probable space group: P -1
;
_chemical_formula_sum "Si O2"
_cell_formula_units_Z 11
_cell_length_a 7.511874
_cell_length_b 13.806722
_cell_length_c 13.313541
_cell_angle_alpha 21.021722
_cell_angle_beta 118.002768
_cell_angle_gamma 118.913820
_cell_volume 432.852874
_symmetry_space_group_name_H-M "P -1"
_symmetry_group_IT_number 2
_symmetry_cell_setting 'triclinic'
loop_
_space_group_symop_operation_xyz
x,y,z
-x,-y,-z
loop_
_atom_site_type_symbol
_atom_site_label
_atom_site_fract_x
_atom_site_fract_y
_atom_site_fract_z
Si Si1 0.371939 0.235261 0.266485
Si Si2 0.172636 0.477604 0.151767
Si Si3 0.349140 0.517124 0.560617
Si Si4 0.982288 0.761106 0.142747
Si Si5 0.500000 0.000000 0.000000
Si Si6 0.929875 0.029651 0.256111
O O1 0.331501 0.318675 0.289520
O O2 0.500000 0.000000 0.500000
O O3 0.153908 0.154338 0.234716
O O4 0.500000 0.500000 0.000000
O O5 0.098526 0.280599 0.415173
O O6 0.000000 0.500000 0.000000
O O7 0.217720 0.781723 0.911317
O O8 0.241863 0.414352 0.737991
O O9 0.479432 0.807594 0.288510
O O10 0.145333 0.558245 0.404094
O O11 0.453491 0.269903 0.786314
O O12 0.065194 0.913357 0.915832
O O13 0.000000 0.000000 0.000000
#
# Coordination Sequence:
#
# PCOD9106932 Si02
#       6
#     2   2   2   2   1   2
#     4  11  21  41  66  94 129 160 204 276 336 385
#     4  10  21  41  65  94 127 167 218 270 329 399
#     4  10  22  40  65  86 130 168 230 268 332 367
#     4  11  24  43  67  97 133 183 236 270 315 399
#     4  10  20  40  62  88 114 176 208 286 336 372
#     4  11  24  40  68  95 128 178 221 264 331 395
#
# _framework density 25.412793000000001
#
# number of rings (size 3 to 8) (size 9 to 14) (size 15 to 20)
#    0.000    1.455    1.818    5.455    5.091    0.000 
#    0.000   10.909    0.000    0.000    0.000    0.000 
#    0.000    0.000    0.000    0.000    0.000    0.000 
#
# Total GULP energy -61250.327840 kJ/mol
# GULP energy per Si atom -5568.211622 kJ/mol
# Density = 2.535495 g / cm^3
# Si number density = 25.412793 Si / 1000 Ang^3
#
#
#
# Elastic Constant Matrix: (Units=GPa)
#
#
# Indices 1 2 3 4 5 6 
#
# 1 79.5380 20.6471 49.0536 -7.4172 11.5198 -29.8931
# 2 20.6471 69.5613 35.1472 -0.2664 17.4154 -16.7920
# 3 49.0536 35.1472 252.9302 -20.4548 3.6627 -21.2192
# 4 -7.4172 -0.2664 -20.4548 38.2400 -18.8001 -6.1401
# 5 11.5198 17.4154 3.6627 -18.8001 62.6226 -0.8303
# 6 -29.8931 -16.7920 -21.2192 -6.1401 -0.8303 40.8920
#
#
#
# Elastic Compliance Matrix: (Units=1/GPa)
#
#
# Indices 1 2 3 4 5 6 
#
# 1 0.019957 -0.001025 -0.002248 0.003900 -0.001904 0.013548
# 2 -0.001025 0.018389 -0.002101 -0.003167 -0.005686 0.005121
# 3 -0.002248 -0.002101 0.004956 0.003100 0.001646 0.000564
# 4 0.003900 -0.003167 0.003100 0.035172 0.010656 0.008657
# 5 -0.001904 -0.005686 0.001646 0.010656 0.020992 -0.000846
# 6 0.013548 0.005121 0.000564 0.008657 -0.000846 0.038037
#
#
# Mechanical properties :
#
#
# Convention : Reuss Voigt Hill
#
# Bulk Modulus (GPa) = 30.71941 67.96945 49.34443
# Shear Modulus (GPa) = 31.42635 48.16303 39.79469
#
# Velocity S-wave (km/s) = 3.52040 4.35814 3.96148
# Velocity P-wave (km/s) = 5.35151 7.22003 6.35482
#
# Compressibility (1/GPa) = 0.03255271
#
# Stress axis : x y z
#
# Youngs Moduli (GPa) = 50.10836 54.38034 201.78262
#
# Poissons Ratio (x) = 0.05576 0.45368
# Poissons Ratio (y) = 0.05138 0.42389
# Poissons Ratio (z) = 0.11266 0.11424
#
# Static dielectric constant tensor:
#      x y z
#    x 1.923050 0.010820 -0.118290 
#    y 0.010820 2.122350 0.090790 
#    z -0.118290 0.090790 1.936010 
# 
# From -- ./inp_files/501351.got.cif
#   From: 2010.05.17/outbox.cif.g08.bks.cpg/sg2_251_cif.got.tgz:501351.got - 2010.06.03 11:33:40.
