data_PCOD9106067
_publ_section_title
;
Structure prediction by ZEFSAII (Michael W. Deem and Ramdas Pophale) SiO2 
 PCOD9106067
Probable space group: P -1
;
_chemical_formula_sum "Si O2"
_cell_formula_units_Z 12
_cell_length_a 9.214629
_cell_length_b 24.940303
_cell_length_c 15.962311
_cell_angle_alpha 20.237017
_cell_angle_beta 22.213357
_cell_angle_gamma 24.084617
_cell_volume 451.342917
_symmetry_space_group_name_H-M "P -1"
_symmetry_group_IT_number 2
_symmetry_cell_setting 'triclinic'
loop_
_space_group_symop_operation_xyz
x,y,z
-x,-y,-z
loop_
_atom_site_type_symbol
_atom_site_label
_atom_site_fract_x
_atom_site_fract_y
_atom_site_fract_z
Si Si1 0.578799 0.559179 0.569646
Si Si2 0.153983 0.426513 0.764997
Si Si3 0.604500 0.016264 0.516852
Si Si4 0.510511 0.859451 0.266906
Si Si5 0.568078 0.964289 0.788287
Si Si6 0.710429 0.622757 0.865664
O O1 0.907982 0.511755 0.388472
O O2 0.701370 0.683710 0.381263
O O3 0.139754 0.646358 0.629064
O O4 0.456938 0.434805 0.877123
O O5 0.500000 0.500000 0.500000
O O6 0.814182 0.499197 0.911975
O O7 0.318113 0.228139 0.968921
O O8 0.601262 0.202352 0.252272
O O9 0.500000 0.000000 0.500000
O O10 0.364410 0.000748 0.751744
O O11 0.037810 0.876896 0.503149
O O12 0.658893 0.912737 0.196039
O O13 0.500000 0.000000 0.000000
O O14 0.000000 0.000000 0.500000
#
# Coordination Sequence:
#
# PCOD9106067 Si02
#       6
#     2   2   2   2   2   2
#     4  10  20  39  67  91 127 176 207 263 332 389
#     4  10  21  38  63  96 125 171 219 259 327 393
#     4  11  23  40  65  97 125 169 222 272 322 381
#     4  11  21  42  64  91 130 170 214 260 330 396
#     4  10  22  40  66  91 127 174 213 261 332 394
#     4  10  21  39  63  94 129 164 217 273 317 381
#
# _framework density 26.587325
#
# number of rings (size 3 to 8) (size 9 to 14) (size 15 to 20)
#    0.000    1.667    3.333    2.000    4.667    0.000 
#    3.000   12.500    0.000    0.000    0.000    0.000 
#    0.000    0.000    0.000    0.000    0.000    0.000 
#
# Total GULP energy -67099.836909 kJ/mol
# GULP energy per Si atom -5591.653076 kJ/mol
# Density = 2.652681 g / cm^3
# Si number density = 26.587325 Si / 1000 Ang^3
#
#
#
# Elastic Constant Matrix: (Units=GPa)
#
#
# Indices 1 2 3 4 5 6 
#
# 1 204.3460 51.4146 40.0339 12.4904 16.0331 53.4412
# 2 51.4146 85.5072 21.6742 -1.3808 -2.2233 27.9722
# 3 40.0339 21.6742 142.6794 -0.7994 13.8121 19.3832
# 4 12.4904 -1.3808 -0.7994 40.0693 6.7715 -3.4626
# 5 16.0331 -2.2233 13.8121 6.7715 56.2620 15.2756
# 6 53.4412 27.9722 19.3832 -3.4626 15.2756 56.2292
#
#
#
# Elastic Compliance Matrix: (Units=1/GPa)
#
#
# Indices 1 2 3 4 5 6 
#
# 1 0.007324 -0.002380 -0.000940 -0.002854 -0.000085 -0.005605
# 2 -0.002380 0.015422 -0.001184 0.000215 0.003138 -0.005841
# 3 -0.000940 -0.001184 0.007703 0.000606 -0.001549 -0.000715
# 4 -0.002854 0.000215 0.000606 0.026980 -0.003969 0.005136
# 5 -0.000085 0.003138 -0.001549 -0.003969 0.020625 -0.006794
# 6 -0.005605 -0.005841 -0.000715 0.005136 -0.006794 0.028426
#
#
# Mechanical properties :
#
#
# Convention : Reuss Voigt Hill
#
# Bulk Modulus (GPa) = 46.63981 73.19755 59.91868
# Shear Modulus (GPa) = 40.77181 51.80608 46.28895
#
# Velocity S-wave (km/s) = 3.92025 4.41900 4.17707
# Velocity P-wave (km/s) = 6.17020 7.32308 6.77122
#
# Compressibility (1/GPa) = 0.02144091
#
# Stress axis : x y z
#
# Youngs Moduli (GPa) = 136.54548 64.84215 129.82451
#
# Poissons Ratio (x) = 0.15433 0.12199
# Poissons Ratio (y) = 0.32499 0.15371
# Poissons Ratio (z) = 0.12830 0.07677
#
# Static dielectric constant tensor:
#      x y z
#    x 2.234790 -0.081980 -0.052260 
#    y -0.081980 2.309380 0.148920 
#    z -0.052260 0.148920 2.065690 
# 
# From -- ./inp_files/153920.got.cif
#   From: 2010.05.17/outbox.cif.g08.bks.cpg/sg2_77_cif.got.tgz:153920.got - 2010.06.03 11:33:40.
