data_PCOD9106024
_publ_section_title
;
Structure prediction by ZEFSAII (Michael W. Deem and Ramdas Pophale) SiO2 
 PCOD9106024
Probable space group: P -1
;
_chemical_formula_sum "Si O2"
_cell_formula_units_Z 12
_cell_length_a 6.557377
_cell_length_b 18.710108
_cell_length_c 10.677390
_cell_angle_alpha 28.583533
_cell_angle_beta 52.110929
_cell_angle_gamma 45.497351
_cell_volume 447.010134
_symmetry_space_group_name_H-M "P -1"
_symmetry_group_IT_number 2
_symmetry_cell_setting 'triclinic'
loop_
_space_group_symop_operation_xyz
x,y,z
-x,-y,-z
loop_
_atom_site_type_symbol
_atom_site_label
_atom_site_fract_x
_atom_site_fract_y
_atom_site_fract_z
Si Si1 0.979290 0.750000 0.000000
Si Si2 0.633055 0.805686 0.262722
Si Si3 0.618757 0.305686 0.262721
Si Si4 0.457200 0.938428 0.746270
Si Si5 0.703449 0.561573 0.253730
Si Si6 0.889627 0.250000 0.500000
O O1 0.931927 0.742885 0.175750
O O2 0.937922 0.593435 0.199499
O O3 0.710659 0.906565 0.800501
O O4 0.254966 0.757115 0.824251
O O5 0.599986 0.750000 0.500000
O O6 0.414814 0.753217 0.348353
O O7 0.500000 0.000000 0.000000
O O8 0.875610 0.253218 0.348352
O O9 0.500000 0.500000 0.000000
O O10 0.846010 0.923684 0.301222
O O11 0.500000 0.000000 0.500000
O O12 0.502188 0.750000 1.000000
O O13 0.500000 0.500000 0.500000
O O14 0.856812 0.423683 0.301223
#
# Coordination Sequence:
#
# PCOD9106024 Si02
#       6
#     2   2   2   2   2   2
#     4  10  22  42  68  98 128 170 220 264 346 380
#     4  10  23  45  63  94 132 176 225 265 317 403
#     4  10  23  45  63  94 132 176 225 265 317 403
#     4  10  20  39  67 102 133 167 210 279 331 397
#     4  10  20  39  67 102 133 167 210 279 331 397
#     4  10  20  44  64 100 132 166 224 262 336 386
#
# _framework density 26.845027999999999
#
# number of rings (size 3 to 8) (size 9 to 14) (size 15 to 20)
#    2.000    0.000    3.333    0.000    0.000    6.667 
#   12.000    0.000    0.000    0.000    0.000    0.000 
#    0.000    0.000    0.000    0.000    0.000    0.000 
#
# Total GULP energy -67045.850689 kJ/mol
# GULP energy per Si atom -5587.154224 kJ/mol
# Density = 2.678393 g / cm^3
# Si number density = 26.845028 Si / 1000 Ang^3
#
#
#
# Elastic Constant Matrix: (Units=GPa)
#
#
# Indices 1 2 3 4 5 6 
#
# 1 63.5532 33.0783 19.8108 -7.4071 3.1962 -6.7535
# 2 33.0783 170.2223 79.6369 10.6033 0.6323 -2.8481
# 3 19.8108 79.6369 214.8937 17.4934 10.3055 -0.0489
# 4 -7.4071 10.6033 17.4934 77.6129 -0.3153 0.4845
# 5 3.1962 0.6323 10.3055 -0.3153 24.7001 -16.7757
# 6 -6.7535 -2.8481 -0.0489 0.4845 -16.7757 41.0286
#
#
#
# Elastic Compliance Matrix: (Units=1/GPa)
#
#
# Indices 1 2 3 4 5 6 
#
# 1 0.018236 -0.003354 -0.000618 0.002321 -0.000173 0.002670
# 2 -0.003354 0.007799 -0.002603 -0.000796 0.001810 0.000736
# 3 -0.000618 -0.002603 0.005927 -0.001043 -0.003486 -0.001689
# 4 0.002321 -0.000796 -0.001043 0.013450 0.000609 0.000416
# 5 -0.000173 0.001810 -0.003486 0.000609 0.058123 0.023851
# 6 0.002670 0.000736 -0.001689 0.000416 0.023851 0.034609
#
#
# Mechanical properties :
#
#
# Convention : Reuss Voigt Hill
#
# Bulk Modulus (GPa) = 53.15705 79.30235 66.22970
# Shear Modulus (GPa) = 31.73294 49.74453 40.73874
#
# Velocity S-wave (km/s) = 3.44187 4.30935 3.89980
# Velocity P-wave (km/s) = 5.96990 7.37330 6.70840
#
# Compressibility (1/GPa) = 0.01881218
#
# Stress axis : x y z
#
# Youngs Moduli (GPa) = 54.83665 128.21627 168.72498
#
# Poissons Ratio (x) = 0.42999 0.10433
# Poissons Ratio (y) = 0.18390 0.43919
# Poissons Ratio (z) = 0.03391 0.33374
#
# Static dielectric constant tensor:
#      x y z
#    x 2.134320 0.001610 -0.005490 
#    y 0.001610 2.140390 0.025420 
#    z -0.005490 0.025420 2.086140 
# 
# From -- ./inp_files/172431.got.cif
#   From: 2010.05.17/outbox.cif.g08.bks.cpg/sg2_87_cif.got.tgz:172431.got - 2010.06.03 11:33:40.
