data_PCOD9106505
_publ_section_title
;
Structure prediction by ZEFSAII (Michael W. Deem and Ramdas Pophale) SiO2 
 PCOD9106505
Probable space group: P -1
;
_chemical_formula_sum "Si O2"
_cell_formula_units_Z 12
_cell_length_a 21.694378
_cell_length_b 12.952805
_cell_length_c 13.712597
_cell_angle_alpha 147.918483
_cell_angle_beta 24.943902
_cell_angle_gamma 160.298891
_cell_volume 547.278237
_symmetry_space_group_name_H-M "P -1"
_symmetry_group_IT_number 2
_symmetry_cell_setting 'triclinic'
loop_
_space_group_symop_operation_xyz
x,y,z
-x,-y,-z
loop_
_atom_site_type_symbol
_atom_site_label
_atom_site_fract_x
_atom_site_fract_y
_atom_site_fract_z
Si Si1 0.854742 0.892083 0.255206
Si Si2 0.584291 0.536696 0.558482
Si Si3 0.163811 0.560309 0.390432
Si Si4 0.007696 0.383522 0.137246
Si Si5 0.025467 0.748245 0.132333
Si Si6 0.646587 0.963316 0.942578
O O1 0.708355 0.719432 0.425770
O O2 0.673932 0.799888 0.364387
O O3 0.911190 0.728339 0.013108
O O4 0.071828 0.244717 0.256253
O O5 0.775915 0.592198 0.373849
O O6 0.563008 0.711725 0.788705
O O7 0.000000 0.500000 0.500000
O O8 0.123432 0.611192 0.595773
O O9 0.429171 0.840900 0.205783
O O10 0.210529 0.727201 0.075352
O O11 0.892999 0.175858 0.036800
O O12 0.205901 0.998453 0.155425
O O13 0.000000 0.500000 0.000000
#
# Coordination Sequence:
#
# PCOD9106505 Si02
#       6
#     2   2   2   2   2   2
#     4  10  23  42  65  98 132 173 208 269 334 373
#     4  10  20  39  71  91 131 172 216 265 321 388
#     4  12  27  40  66 103 131 168 220 266 328 386
#     4  10  23  47  65  95 138 168 214 271 319 387
#     4   9  21  40  67  96 124 177 220 257 326 382
#     4  11  23  42  71  96 128 177 217 263 324 385
#
# _framework density 21.926689
#
# number of rings (size 3 to 8) (size 9 to 14) (size 15 to 20)
#    0.000    1.667    1.667    1.500    9.333    4.667 
#    0.000    3.333    0.000    0.000    0.000    0.000 
#    0.000    0.000    0.000    0.000    0.000    0.000 
#
# Total GULP energy -66947.916600 kJ/mol
# GULP energy per Si atom -5578.993050 kJ/mol
# Density = 2.187678 g / cm^3
# Si number density = 21.926689 Si / 1000 Ang^3
#
#
#
# Elastic Constant Matrix: (Units=GPa)
#
#
# Indices 1 2 3 4 5 6 
#
# 1 -13.5148 -4.6362 31.4792 -3.4960 -37.9234 -25.3460
# 2 -4.6362 50.7656 41.5895 7.2707 4.5734 -10.6028
# 3 31.4792 41.5895 155.2116 -1.4583 8.7349 -11.7111
# 4 -3.4960 7.2707 -1.4583 36.8879 0.1615 6.5772
# 5 -37.9234 4.5734 8.7349 0.1615 37.5986 -9.1833
# 6 -25.3460 -10.6028 -11.7111 6.5772 -9.1833 14.8642
#
#
#
# Elastic Compliance Matrix: (Units=1/GPa)
#
#
# Indices 1 2 3 4 5 6 
#
# 1 -0.005226 -0.005663 0.001694 0.004209 -0.009758 -0.019507
# 2 -0.005663 0.025553 -0.005140 -0.006295 -0.006848 0.003076
# 3 0.001694 -0.005140 0.007857 0.000301 0.002116 0.006587
# 4 0.004209 -0.006295 0.000301 0.030329 0.002646 -0.008862
# 5 -0.009758 -0.006848 0.002116 0.002646 0.014071 -0.012334
# 6 -0.019507 0.003076 0.006587 -0.008862 -0.012334 0.037698
#
#
# Mechanical properties :
#
#
# Convention : Reuss Voigt Hill
#
# Bulk Modulus (GPa) = 100.33789 36.59193 68.46491
# Shear Modulus (GPa) = 37.92962 26.13881 32.03421
#
# Velocity S-wave (km/s) = 4.16364 3.45643 3.82641
# Velocity P-wave (km/s) = 8.30509 5.71434 7.12840
#
# Compressibility (1/GPa) = 0.00996633
#
# Stress axis : x y z
#
# Youngs Moduli (GPa) = -191.35232 39.13416 127.27022
#
# Poissons Ratio (x) = 0.22162 -0.21562
# Poissons Ratio (y) = -1.08365 0.65419
# Poissons Ratio (z) = 0.32419 0.20116
#
# Static dielectric constant tensor:
#      x y z
#    x 1.906080 0.073930 -0.034900 
#    y 0.073930 1.871470 -0.009480 
#    z -0.034900 -0.009480 1.800690 
# 
# From -- ./inp_files/259783.got.cif
#   From: 2010.05.17/outbox.cif.g08.bks.cpg/sg2_130_cif.got.tgz:259783.got - 2010.06.03 11:33:40.
