data_PCOD9106667
_publ_section_title
;
Structure prediction by ZEFSAII (Michael W. Deem and Ramdas Pophale) SiO2 
 PCOD9106667
Probable space group: P -1
;
_chemical_formula_sum "Si O2"
_cell_formula_units_Z 16
_cell_length_a 11.863715
_cell_length_b 11.328265
_cell_length_c 9.217658
_cell_angle_alpha 96.659804
_cell_angle_beta 123.744506
_cell_angle_gamma 107.310114
_cell_volume 919.653791
_symmetry_space_group_name_H-M "P -1"
_symmetry_group_IT_number 2
_symmetry_cell_setting 'triclinic'
loop_
_space_group_symop_operation_xyz
x,y,z
-x,-y,-z
loop_
_atom_site_type_symbol
_atom_site_label
_atom_site_fract_x
_atom_site_fract_y
_atom_site_fract_z
Si Si1 0.943566 0.290620 0.078136
Si Si2 0.882324 0.476208 0.281535
Si Si3 0.041977 0.000033 0.363537
Si Si4 0.851896 0.000044 0.979298
Si Si5 0.347030 0.290500 0.212388
Si Si6 0.952348 0.712811 0.151682
Si Si7 0.760407 0.712757 0.561130
Si Si8 0.593847 0.476147 0.194638
O O1 0.887589 0.374693 0.150547
O O2 0.092624 0.296389 0.267408
O O3 0.839152 0.134031 0.963849
O O4 0.978673 0.332646 0.941592
O O5 0.924378 0.614732 0.250218
O O6 0.714206 0.428389 0.214191
O O7 0.000000 0.500000 0.500000
O O8 0.181942 0.135646 0.430345
O O9 0.000000 0.000000 0.500000
O O10 0.046347 0.864418 0.294724
O O11 0.899090 0.000051 0.178092
O O12 0.705148 0.866091 0.829879
O O13 0.000000 0.000000 0.000000
O O14 0.353980 0.332581 0.390971
O O15 0.487053 0.374553 0.224014
O O16 0.203740 0.296282 0.028898
O O17 0.690231 0.614630 0.364513
O O18 0.500000 0.500000 0.000000
#
# Coordination Sequence:
#
# PCOD9106667 Si02
#       8
#     2   2   2   2   2   2   2   2
#     4  10  19  36  60  84 117 149 197 238 292 343
#     4  12  24  38  55  85 123 155 193 238 290 344
#     4  10  18  28  56  89 116 136 193 248 286 321
#     4  10  16  34  59  87 112 145 190 245 285 341
#     4  10  19  36  60  84 117 149 197 238 292 343
#     4  10  19  36  57  87 114 151 191 242 289 341
#     4  10  19  36  57  87 114 151 191 242 289 341
#     4  12  24  38  55  85 123 155 193 238 290 344
#
# _framework density 17.397850999999999
#
# number of rings (size 3 to 8) (size 9 to 14) (size 15 to 20)
#    0.000    1.500    7.500    1.500    3.500    0.000 
#    0.000    0.625    0.000    0.000    0.000    3.500 
#    0.000    0.000    0.000    0.000    0.000    0.000 
#
# Total GULP energy -89111.596418 kJ/mol
# GULP energy per Si atom -5569.474776 kJ/mol
# Density = 1.735825 g / cm^3
# Si number density = 17.397851 Si / 1000 Ang^3
#
#
#
# Elastic Constant Matrix: (Units=GPa)
#
#
# Indices 1 2 3 4 5 6 
#
# 1 126.4404 52.3884 37.1912 7.5254 -24.6382 11.0313
# 2 52.3884 99.2945 20.1386 12.1783 -12.6016 12.6205
# 3 37.1912 20.1386 77.0834 -2.3114 -24.5490 2.9288
# 4 7.5254 12.1783 -2.3114 34.0108 0.6762 -8.0748
# 5 -24.6382 -12.6016 -24.5490 0.6762 27.0337 -4.6101
# 6 11.0313 12.6205 2.9288 -8.0748 -4.6101 18.0519
#
#
#
# Elastic Compliance Matrix: (Units=1/GPa)
#
#
# Indices 1 2 3 4 5 6 
#
# 1 0.012123 -0.004381 -0.002729 -0.002216 0.006011 -0.003359
# 2 -0.004381 0.014907 -0.001643 -0.007007 -0.000178 -0.010658
# 3 -0.002729 -0.001643 0.019472 0.003416 0.015209 0.005069
# 4 -0.002216 -0.007007 0.003416 0.038060 0.000773 0.022921
# 5 0.006011 -0.000178 0.015209 0.000773 0.057725 0.009071
# 6 -0.003359 -0.010658 0.005069 0.022921 0.009071 0.076646
#
#
# Mechanical properties :
#
#
# Convention : Reuss Voigt Hill
#
# Bulk Modulus (GPa) = 34.48651 58.02832 46.25741
# Shear Modulus (GPa) = 20.31652 28.69259 24.50456
#
# Velocity S-wave (km/s) = 3.42096 4.06544 3.75705
# Velocity P-wave (km/s) = 5.95561 7.44737 6.74287
#
# Compressibility (1/GPa) = 0.02899684
#
# Stress axis : x y z
#
# Youngs Moduli (GPa) = 82.48738 67.08182 51.35538
#
# Poissons Ratio (x) = 0.29390 0.14015
# Poissons Ratio (y) = 0.36139 0.08436
# Poissons Ratio (z) = 0.22511 0.11019
#
# Static dielectric constant tensor:
#      x y z
#    x 1.617880 0.012950 -0.031690 
#    y 0.012950 1.626210 0.014240 
#    z -0.031690 0.014240 1.596370 
# 
# From -- ./inp_files/254327.got.cif
#   From: 2010.05.17/outbox.cif.g08.bks.cpg/sg2_128_cif.got.tgz:254327.got - 2010.06.03 11:33:40.
