data_PCOD9106020
_publ_section_title
;
Structure prediction by ZEFSAII (Michael W. Deem and Ramdas Pophale) SiO2 
 PCOD9106020
Probable space group: P -1
;
_chemical_formula_sum "Si O2"
_cell_formula_units_Z 15
_cell_length_a 16.008166
_cell_length_b 12.256929
_cell_length_c 10.321843
_cell_angle_alpha 115.849488
_cell_angle_beta 144.098348
_cell_angle_gamma 39.964182
_cell_volume 664.643462
_symmetry_space_group_name_H-M "P -1"
_symmetry_group_IT_number 2
_symmetry_cell_setting 'triclinic'
loop_
_space_group_symop_operation_xyz
x,y,z
-x,-y,-z
loop_
_atom_site_type_symbol
_atom_site_label
_atom_site_fract_x
_atom_site_fract_y
_atom_site_fract_z
Si Si1 0.690005 0.459169 0.487284
Si Si2 0.792559 0.091288 0.875858
Si Si3 0.368971 0.848897 0.907156
Si Si4 0.164200 0.229311 0.915136
Si Si5 0.203671 0.281702 0.694357
Si Si6 0.166775 0.888256 0.423150
Si Si7 0.626963 0.039266 0.451306
Si Si8 0.500000 0.500000 0.000000
O O1 0.446460 0.681560 0.324215
O O2 0.735441 0.312575 0.558368
O O3 0.663780 0.426310 0.291571
O O4 0.908276 0.401926 0.737809
O O5 0.738389 0.991210 0.707424
O O6 0.000000 0.000000 0.000000
O O7 0.903594 0.055950 0.133570
O O8 0.188698 0.927514 0.613488
O O9 0.256558 0.030144 0.945023
O O10 0.571237 0.785065 0.052270
O O11 0.481697 0.658128 0.017307
O O12 0.158380 0.259228 0.768448
O O13 0.359280 0.186014 0.196048
O O14 0.000000 0.500000 0.500000
O O15 0.253714 0.144812 0.579553
O O16 0.315000 0.877439 0.512448
#
# Coordination Sequence:
#
# PCOD9106020 Si02
#       8
#     2   2   2   2   2   2   2   1
#     4  11  26  40  65 104 134 176 222 280 344 395
#     4  10  25  44  67  93 134 179 235 270 325 415
#     4  10  20  39  67 101 134 177 215 279 343 395
#     4  11  22  41  68  99 137 172 219 288 344 395
#     4  11  21  39  68 102 132 171 229 275 335 406
#     4  10  21  43  68  94 135 174 225 277 327 400
#     4  10  21  45  67  91 132 181 224 274 334 398
#     4  10  24  38  68 102 140 166 224 276 338 398
#
# _framework density 22.568491000000002
#
# number of rings (size 3 to 8) (size 9 to 14) (size 15 to 20)
#    0.000    1.600    2.667    1.600    3.733    8.000 
#    2.400    0.667    0.000    0.000    0.000    0.000 
#    0.000    0.000    0.000    0.000    0.000    0.000 
#
# Total GULP energy -83537.526566 kJ/mol
# GULP energy per Si atom -5569.168438 kJ/mol
# Density = 2.251712 g / cm^3
# Si number density = 22.568491 Si / 1000 Ang^3
#
#
#
# Elastic Constant Matrix: (Units=GPa)
#
#
# Indices 1 2 3 4 5 6 
#
# 1 67.6040 39.9008 32.5279 -3.0444 37.9523 22.2258
# 2 39.9008 92.9412 62.5808 -3.5204 24.9706 19.4540
# 3 32.5279 62.5808 161.6908 12.7664 36.3514 -6.8191
# 4 -3.0444 -3.5204 12.7664 39.1419 -9.9964 -0.8458
# 5 37.9523 24.9706 36.3514 -9.9964 27.0885 -3.8198
# 6 22.2258 19.4540 -6.8191 -0.8458 -3.8198 30.4264
#
#
#
# Elastic Compliance Matrix: (Units=1/GPa)
#
#
# Indices 1 2 3 4 5 6 
#
# 1 -0.037616 -0.010231 -0.007920 0.021906 0.087017 0.043777
# 2 -0.010231 0.019904 -0.008188 0.005638 0.008223 -0.005899
# 3 -0.007920 -0.008188 0.010624 -0.003194 0.005177 0.013962
# 4 0.021906 0.005638 -0.003194 0.021416 -0.026959 -0.023111
# 5 0.087017 0.008223 0.005177 -0.026959 -0.121269 -0.083636
# 6 0.043777 -0.005899 0.013962 -0.023111 -0.083636 -0.003354
#
#
# Mechanical properties :
#
#
# Convention : Reuss Voigt Hill
#
# Bulk Modulus (GPa) = -16.73219 65.80612 24.53696
# Shear Modulus (GPa) = -64.48414 31.81312 -16.33551
#
# Velocity S-wave (km/s) = -5.35114 3.75857 -2.69331
# Velocity P-wave (km/s) = 6.75349 6.93235 1.10632
#
# Compressibility (1/GPa) = -0.05976503
#
# Stress axis : x y z
#
# Youngs Moduli (GPa) = -26.58468 50.24101 94.12582
#
# Poissons Ratio (x) = 0.51403 0.74543
# Poissons Ratio (y) = -0.27199 0.77070
# Poissons Ratio (z) = -0.21054 0.41137
#
# Static dielectric constant tensor:
#      x y z
#    x 1.917320 -0.056290 -0.034570 
#    y -0.056290 1.859160 0.021250 
#    z -0.034570 0.021250 1.845060 
# 
# From -- ./inp_files/464762.got.cif
#   From: 2010.05.17/outbox.cif.g08.bks.cpg/sg2_233_cif.got.tgz:464762.got - 2010.06.03 11:33:40.
