data_PCOD9106143
_publ_section_title
;
Structure prediction by ZEFSAII (Michael W. Deem and Ramdas Pophale) SiO2 
 PCOD9106143
Probable space group: P -1
;
_chemical_formula_sum "Si O2"
_cell_formula_units_Z 16
_cell_length_a 28.334993
_cell_length_b 13.309409
_cell_length_c 29.679145
_cell_angle_alpha 23.915776
_cell_angle_beta 9.787294
_cell_angle_gamma 24.228961
_cell_volume 761.295749
_symmetry_space_group_name_H-M "P -1"
_symmetry_group_IT_number 2
_symmetry_cell_setting 'triclinic'
loop_
_space_group_symop_operation_xyz
x,y,z
-x,-y,-z
loop_
_atom_site_type_symbol
_atom_site_label
_atom_site_fract_x
_atom_site_fract_y
_atom_site_fract_z
Si Si1 0.219172 0.885006 0.304333
Si Si2 0.069718 0.603625 0.940996
Si Si3 0.823955 0.408792 0.744361
Si Si4 0.254167 0.063610 0.026982
Si Si5 0.470578 0.356558 0.319301
Si Si6 0.922589 0.719839 0.193707
Si Si7 0.626881 0.830970 0.335731
Si Si8 0.905123 0.886087 0.509428
O O1 0.300300 0.587307 0.357852
O O2 0.055562 0.958454 0.382292
O O3 0.000000 0.000000 0.500000
O O4 0.500000 0.000000 0.000000
O O5 0.343619 0.734346 0.627919
O O6 0.147705 0.351340 0.000375
O O7 0.000000 0.500000 0.000000
O O8 0.832202 0.785293 0.118210
O O9 0.900368 0.584994 0.639974
O O10 0.000000 0.500000 0.500000
O O11 0.837113 0.110336 0.856762
O O12 0.500000 0.500000 0.000000
O O13 0.096769 0.960120 0.258854
O O14 0.586223 0.010746 0.746957
O O15 0.287475 0.294655 0.560569
O O16 0.548153 0.113850 0.313406
O O17 0.767505 0.432127 0.025890
O O18 0.774525 0.674745 0.304198
O O19 0.000000 0.000000 0.000000
#
# Coordination Sequence:
#
# PCOD9106143 Si02
#       8
#     2   2   2   2   2   2   2   2
#     4  12  27  42  60  93 132 164 206 258 314 377
#     4  12  26  41  60  94 130 161 206 259 314 377
#     4   8  16  33  57  83 108 141 194 244 283 345
#     4  10  21  39  63  88 119 156 199 257 312 354
#     4  11  23  42  66  94 128 167 208 265 322 366
#     4  10  20  39  67  96 122 158 216 264 303 373
#     4  11  23  42  65  90 122 168 213 251 307 383
#     4  10  21  40  63  88 117 161 209 244 299 377
#
# _framework density 21.016798999999999
#
# number of rings (size 3 to 8) (size 9 to 14) (size 15 to 20)
#    0.000    1.500    0.000    6.375    0.000    7.000 
#    0.000    6.250    0.000    0.000    0.000    0.000 
#    0.000    0.000    0.000    0.000    0.000    0.000 
#
# Total GULP energy -89292.564725 kJ/mol
# GULP energy per Si atom -5580.785295 kJ/mol
# Density = 2.096896 g / cm^3
# Si number density = 21.016799 Si / 1000 Ang^3
#
#
#
# Elastic Constant Matrix: (Units=GPa)
#
#
# Indices 1 2 3 4 5 6 
#
# 1 120.6117 33.2349 67.0356 4.6664 -13.6417 17.5073
# 2 33.2349 86.9438 36.5562 7.0192 -4.3727 -5.3103
# 3 67.0356 36.5562 190.7735 21.9567 -13.3393 9.9099
# 4 4.6664 7.0192 21.9567 28.2524 9.6177 -3.1095
# 5 -13.6417 -4.3727 -13.3393 9.6177 30.9775 -2.5333
# 6 17.5073 -5.3103 9.9099 -3.1095 -2.5333 32.0085
#
#
#
# Elastic Compliance Matrix: (Units=1/GPa)
#
#
# Indices 1 2 3 4 5 6 
#
# 1 0.012227 -0.003578 -0.002994 -0.000595 0.003272 -0.006153
# 2 -0.003578 0.013903 -0.001440 -0.001437 0.000590 0.004617
# 3 -0.002994 -0.001440 0.007640 -0.006480 0.003673 -0.001305
# 4 -0.000595 -0.001437 -0.006480 0.047445 -0.017551 0.005313
# 5 0.003272 0.000590 0.003673 -0.017551 0.040729 -0.001310
# 6 -0.006153 0.004617 -0.001305 0.005313 -0.001310 0.036190
#
#
# Mechanical properties :
#
#
# Convention : Reuss Voigt Hill
#
# Bulk Modulus (GPa) = 56.35167 74.66473 65.50820
# Shear Modulus (GPa) = 27.76630 35.68116 31.72373
#
# Velocity S-wave (km/s) = 3.63870 4.12484 3.88937
# Velocity P-wave (km/s) = 6.67266 7.63473 7.16985
#
# Compressibility (1/GPa) = 0.01774570
#
# Stress axis : x y z
#
# Youngs Moduli (GPa) = 81.78328 71.92904 130.88719
#
# Poissons Ratio (x) = 0.25739 0.39188
# Poissons Ratio (y) = 0.29266 0.18845
# Poissons Ratio (z) = 0.24486 0.10356
#
# Static dielectric constant tensor:
#      x y z
#    x 1.731370 0.011680 -0.005150 
#    y 0.011680 1.824100 -0.000850 
#    z -0.005150 -0.000850 1.713990 
# 
# From -- ./inp_files/621240.got.cif
#   From: 2010.05.17/outbox.cif.g08.bks.cpg/sg2_311_cif.got.tgz:621240.got - 2010.06.03 11:33:40.
