data_PCOD9106603
_publ_section_title
;
Structure prediction by ZEFSAII (Michael W. Deem and Ramdas Pophale) SiO2 
 PCOD9106603
Probable space group: P -1
;
_chemical_formula_sum "Si O2"
_cell_formula_units_Z 16
_cell_length_a 11.904317
_cell_length_b 8.641368
_cell_length_c 18.941743
_cell_angle_alpha 82.317019
_cell_angle_beta 30.450525
_cell_angle_gamma 65.056893
_cell_volume 775.328035
_symmetry_space_group_name_H-M "P -1"
_symmetry_group_IT_number 2
_symmetry_cell_setting 'triclinic'
loop_
_space_group_symop_operation_xyz
x,y,z
-x,-y,-z
loop_
_atom_site_type_symbol
_atom_site_label
_atom_site_fract_x
_atom_site_fract_y
_atom_site_fract_z
Si Si1 0.300834 0.955785 0.344185
Si Si2 0.483857 0.877610 0.402114
Si Si3 0.085765 0.646024 0.157887
Si Si4 0.138887 0.377532 0.273144
Si Si5 0.096864 0.272402 0.532882
Si Si6 0.796278 0.291929 0.369231
Si Si7 0.417956 0.742484 0.156238
Si Si8 0.741400 0.075648 0.921192
O O1 0.472245 0.831077 0.328847
O O2 0.449893 0.843542 0.198881
O O3 0.222831 0.166631 0.395451
O O4 0.000000 0.000000 0.500000
O O5 0.281849 0.845988 0.553222
O O6 0.781396 0.748151 0.284895
O O7 0.343376 0.109145 0.462404
O O8 0.133321 0.524951 0.210660
O O9 0.133325 0.808497 0.134852
O O10 0.315562 0.479157 0.990064
O O11 0.002728 0.514007 0.407316
O O12 0.947575 0.326533 0.345786
O O13 0.459012 0.183032 0.113227
O O14 0.838987 0.264828 0.687924
O O15 0.500000 0.500000 0.500000
O O16 0.025229 0.161140 0.191483
O O17 0.357988 0.865865 0.110213
#
# Coordination Sequence:
#
# PCOD9106603 Si02
#       8
#     2   2   2   2   2   2   2   2
#     4   8  17  32  57  79 105 133 180 223 261 308
#     4  10  21  35  51  84 108 139 173 222 268 307
#     4  11  20  32  57  84 110 134 173 227 271 313
#     4  11  20  34  53  80 109 142 175 210 269 326
#     4   9  17  34  54  78 100 137 179 220 255 306
#     4  12  23  33  50  77 117 147 169 216 267 321
#     4  10  16  34  59  80 105 134 178 227 262 308
#     4  11  21  36  54  82 109 140 176 220 267 316
#
# _framework density 20.636426
#
# number of rings (size 3 to 8) (size 9 to 14) (size 15 to 20)
#    0.750    1.000    5.000    1.125    1.750    1.500 
#    0.000    0.000    0.000    6.750    0.000    1.750 
#    0.000    0.000    0.000    0.000    0.000    0.000 
#
# Total GULP energy -89243.526558 kJ/mol
# GULP energy per Si atom -5577.720410 kJ/mol
# Density = 2.058946 g / cm^3
# Si number density = 20.636426 Si / 1000 Ang^3
#
#
#
# Elastic Constant Matrix: (Units=GPa)
#
#
# Indices 1 2 3 4 5 6 
#
# 1 68.3682 22.3714 40.5751 16.2807 12.0392 25.4169
# 2 22.3714 59.1057 34.1780 29.4589 -3.5728 11.6408
# 3 40.5751 34.1780 115.3100 38.7450 2.6415 26.0111
# 4 16.2807 29.4589 38.7450 39.1539 12.5268 5.8547
# 5 12.0392 -3.5728 2.6415 12.5268 37.7901 8.0369
# 6 25.4169 11.6408 26.0111 5.8547 8.0369 31.3235
#
#
#
# Elastic Compliance Matrix: (Units=1/GPa)
#
#
# Indices 1 2 3 4 5 6 
#
# 1 0.024542 -0.005810 -0.004911 0.002931 -0.006316 -0.012605
# 2 -0.005810 0.036859 0.004814 -0.034401 0.018823 -0.011381
# 3 -0.004911 0.004814 0.018704 -0.021636 0.010430 -0.011968
# 4 0.002931 -0.034401 -0.021636 0.079042 -0.033600 0.022220
# 5 -0.006316 0.018823 0.010430 -0.033600 0.043965 -0.015531
# 6 -0.012605 -0.011381 -0.011968 0.022220 -0.015531 0.056153
#
#
# Mechanical properties :
#
#
# Convention : Reuss Voigt Hill
#
# Bulk Modulus (GPa) = 14.64278 48.55921 31.60100
# Shear Modulus (GPa) = 17.01598 31.36413 24.19005
#
# Velocity S-wave (km/s) = 2.87463 3.90275 3.42746
# Velocity P-wave (km/s) = 4.25782 6.62499 5.56864
#
# Compressibility (1/GPa) = 0.06829302
#
# Stress axis : x y z
#
# Youngs Moduli (GPa) = 40.74584 27.13059 53.46452
#
# Poissons Ratio (x) = 0.15762 0.26255
# Poissons Ratio (y) = 0.23672 -0.25739
# Poissons Ratio (z) = 0.20009 -0.13061
#
# Static dielectric constant tensor:
#      x y z
#    x 1.749230 -0.018990 0.026690 
#    y -0.018990 1.786660 0.054210 
#    z 0.026690 0.054210 1.802470 
# 
# From -- ./inp_files/609612.got.cif
#   From: 2010.05.17/outbox.cif.g08.bks.cpg/sg2_305_cif.got.tgz:609612.got - 2010.06.03 11:33:40.
