data_PCOD9106996
_publ_section_title
;
Structure prediction by ZEFSAII (Michael W. Deem and Ramdas Pophale) SiO2 
 PCOD9106996
Probable space group: P -1
;
_chemical_formula_sum "Si O2"
_cell_formula_units_Z 14
_cell_length_a 10.355235
_cell_length_b 14.041831
_cell_length_c 8.293466
_cell_angle_alpha 56.684890
_cell_angle_beta 57.609117
_cell_angle_gamma 102.293790
_cell_volume 591.681021
_symmetry_space_group_name_H-M "P -1"
_symmetry_group_IT_number 2
_symmetry_cell_setting 'triclinic'
loop_
_space_group_symop_operation_xyz
x,y,z
-x,-y,-z
loop_
_atom_site_type_symbol
_atom_site_label
_atom_site_fract_x
_atom_site_fract_y
_atom_site_fract_z
Si Si1 0.509376 0.183754 0.710791
Si Si2 0.194150 0.109132 0.394583
Si Si3 0.608945 0.571911 0.184890
Si Si4 0.584447 0.981399 0.747037
Si Si5 0.198840 0.663752 0.114511
Si Si6 0.414251 0.272924 0.390235
Si Si7 0.909418 0.553172 0.120705
O O1 0.380503 0.178321 0.660485
O O2 0.680914 0.367362 0.494725
O O3 0.621905 0.134360 0.596842
O O4 0.387549 0.060233 0.056241
O O5 0.261733 0.014522 0.467454
O O6 0.204180 0.165525 0.514355
O O7 0.361457 0.284253 0.027879
O O8 0.000000 0.000000 0.500000
O O9 0.500000 0.500000 0.500000
O O10 0.479009 0.430305 0.269897
O O11 0.840810 0.628647 0.998349
O O12 0.342916 0.822942 0.984968
O O13 0.000000 0.500000 0.500000
O O14 0.066738 0.657458 0.068187
O O15 0.375751 0.671658 0.900541
O O16 0.000000 0.500000 0.000000
#
# Coordination Sequence:
#
# PCOD9106996 Si02
#       7
#     2   2   2   2   2   2   2
#     4  10  20  40  62  91 124 163 203 271 318 362
#     4  11  25  41  61  92 130 172 213 259 321 392
#     4  11  24  43  67  92 132 175 213 264 325 386
#     4  10  23  38  62  90 131 160 209 265 320 373
#     4  11  21  36  63  97 124 159 211 267 309 373
#     4  10  23  42  67  88 131 168 218 262 320 379
#     4  11  21  39  66  93 122 163 219 259 307 381
#
# _framework density 23.661398999999999
#
# number of rings (size 3 to 8) (size 9 to 14) (size 15 to 20)
#    0.000    1.429    4.286    2.143    4.000    3.429 
#    0.000    2.857    0.000    0.000    0.000    0.000 
#    0.000    0.000    0.000    0.000    0.000    0.000 
#
# Total GULP energy -78117.980283 kJ/mol
# GULP energy per Si atom -5579.855734 kJ/mol
# Density = 2.360754 g / cm^3
# Si number density = 23.661399 Si / 1000 Ang^3
#
#
#
# Elastic Constant Matrix: (Units=GPa)
#
#
# Indices 1 2 3 4 5 6 
#
# 1 96.9238 45.3517 13.8355 -22.2216 -0.7608 31.5184
# 2 45.3517 137.9036 33.6029 -24.6954 -3.2587 19.2018
# 3 13.8355 33.6029 49.7112 -11.3003 16.7607 12.9453
# 4 -22.2216 -24.6954 -11.3003 37.2886 -0.4674 2.9862
# 5 -0.7608 -3.2587 16.7607 -0.4674 32.5620 -4.4160
# 6 31.5184 19.2018 12.9453 2.9862 -4.4160 64.0134
#
#
#
# Elastic Compliance Matrix: (Units=1/GPa)
#
#
# Indices 1 2 3 4 5 6 
#
# 1 0.016100 -0.003281 0.002593 0.008823 -0.002250 -0.008034
# 2 -0.003281 0.010757 -0.007313 0.003008 0.004816 0.000060
# 3 0.002593 -0.007313 0.034647 0.007582 -0.019452 -0.007785
# 4 0.008823 0.003008 0.007582 0.037018 -0.004056 -0.008786
# 5 -0.002250 0.004816 -0.019452 -0.004056 0.042001 0.006684
# 6 -0.008034 0.000060 -0.007785 -0.008786 0.006684 0.022005
#
#
# Mechanical properties :
#
#
# Convention : Reuss Voigt Hill
#
# Bulk Modulus (GPa) = 21.97704 52.23544 37.10624
# Shear Modulus (GPa) = 25.81336 39.55602 32.68469
#
# Velocity S-wave (km/s) = 3.30653 4.09314 3.72068
# Velocity P-wave (km/s) = 4.88732 6.66803 5.84587
#
# Compressibility (1/GPa) = 0.04550203
#
# Stress axis : x y z
#
# Youngs Moduli (GPa) = 62.11050 92.96570 28.86221
#
# Poissons Ratio (x) = 0.30505 -0.07485
# Poissons Ratio (y) = 0.20380 0.21108
# Poissons Ratio (z) = -0.16108 0.67989
#
# Static dielectric constant tensor:
#      x y z
#    x 1.927960 -0.018540 -0.082750 
#    y -0.018540 1.908670 0.063800 
#    z -0.082750 0.063800 1.960010 
# 
# From -- ./inp_files/272113.got.cif
#   From: 2010.05.17/outbox.cif.g08.bks.cpg/sg2_137_cif.got.tgz:272113.got - 2010.06.03 11:33:40.
