data_PCOD9106255
_publ_section_title
;
Structure prediction by ZEFSAII (Michael W. Deem and Ramdas Pophale) SiO2 
 PCOD9106255
Probable space group: P -1
;
_chemical_formula_sum "Si O2"
_cell_formula_units_Z 14
_cell_length_a 7.571577
_cell_length_b 5.678585
_cell_length_c 14.423953
_cell_angle_alpha 98.244703
_cell_angle_beta 110.407019
_cell_angle_gamma 91.691393
_cell_volume 573.122558
_symmetry_space_group_name_H-M "P -1"
_symmetry_group_IT_number 2
_symmetry_cell_setting 'triclinic'
loop_
_space_group_symop_operation_xyz
x,y,z
-x,-y,-z
loop_
_atom_site_type_symbol
_atom_site_label
_atom_site_fract_x
_atom_site_fract_y
_atom_site_fract_z
Si Si1 0.904925 0.311674 0.043495
Si Si2 0.294764 0.044234 0.426571
Si Si3 0.729049 0.643243 0.157656
Si Si4 0.201635 0.578225 0.496930
Si Si5 0.428211 0.978890 0.091381
Si Si6 0.026539 0.064217 0.226180
Si Si7 0.297920 0.697380 0.716281
O O1 0.736673 0.432180 0.073920
O O2 0.029948 0.241763 0.149954
O O3 0.795398 0.085465 0.958969
O O4 0.000000 0.500000 0.000000
O O5 0.182485 0.808023 0.440493
O O6 0.500000 0.000000 0.500000
O O7 0.268117 0.325195 0.458843
O O8 0.224938 0.022808 0.306040
O O9 0.532703 0.756000 0.134525
O O10 0.765028 0.554789 0.262223
O O11 0.899669 0.825264 0.163134
O O12 0.331228 0.674130 0.613069
O O13 0.000000 0.500000 0.500000
O O14 0.522527 0.190936 0.184916
O O15 0.500000 0.000000 0.000000
O O16 0.884019 0.157762 0.284453
#
# Coordination Sequence:
#
# PCOD9106255 Si02
#       7
#     2   2   2   2   2   2   2
#     4  11  24  42  65 102 138 187 235 293 368 440
#     4  12  28  50  74 108 156 196 240 310 393 440
#     4  10  20  39  68  93 139 177 234 291 367 417
#     4  12  25  47  81 111 142 192 260 309 358 447
#     4  11  20  40  65  98 135 181 233 295 360 430
#     4  10  22  43  70  97 140 187 240 299 369 439
#     4  10  22  38  71 108 130 179 250 302 356 420
#
# _framework density 24.427584
#
# number of rings (size 3 to 8) (size 9 to 14) (size 15 to 20)
#    0.000    1.143    5.714    2.143    6.000    0.571 
#    5.143    0.000    0.000    0.000    0.000    0.000 
#    0.000    0.000    0.000    0.000    0.000    0.000 
#
# Total GULP energy -78132.740875 kJ/mol
# GULP energy per Si atom -5580.910062 kJ/mol
# Density = 2.437199 g / cm^3
# Si number density = 24.427584 Si / 1000 Ang^3
#
#
#
# Elastic Constant Matrix: (Units=GPa)
#
#
# Indices 1 2 3 4 5 6 
#
# 1 62.6784 15.4913 28.9147 -5.7694 14.9823 15.0338
# 2 15.4913 114.3812 57.1921 -17.5734 -11.3928 10.5982
# 3 28.9147 57.1921 148.7108 -5.1475 20.5784 28.8618
# 4 -5.7694 -17.5734 -5.1475 37.4746 5.5390 -11.7166
# 5 14.9823 -11.3928 20.5784 5.5390 41.1730 3.7318
# 6 15.0338 10.5982 28.8618 -11.7166 3.7318 44.7046
#
#
#
# Elastic Compliance Matrix: (Units=1/GPa)
#
#
# Indices 1 2 3 4 5 6 
#
# 1 0.019924 -0.002189 -0.001133 0.001541 -0.007093 -0.004454
# 2 -0.002189 0.013081 -0.005730 0.004687 0.006466 0.002023
# 3 -0.001133 -0.005730 0.010931 -0.002184 -0.005854 -0.005402
# 4 0.001541 0.004687 -0.002184 0.031930 -0.003231 0.008419
# 5 -0.007093 0.006466 -0.005854 -0.003231 0.031917 0.001120
# 6 -0.004454 0.002023 -0.005402 0.008419 0.001120 0.028988
#
#
# Mechanical properties :
#
#
# Convention : Reuss Voigt Hill
#
# Bulk Modulus (GPa) = 38.71197 58.77406 48.74301
# Shear Modulus (GPa) = 30.58378 39.61525 35.09951
#
# Velocity S-wave (km/s) = 3.54223 4.03146 3.79473
# Velocity P-wave (km/s) = 5.71068 6.76631 6.26078
#
# Compressibility (1/GPa) = 0.02583181
#
# Stress axis : x y z
#
# Youngs Moduli (GPa) = 50.19143 76.44558 91.48017
#
# Poissons Ratio (x) = 0.16735 0.10362
# Poissons Ratio (y) = 0.10987 0.52422
# Poissons Ratio (z) = 0.05685 0.43807
#
# Static dielectric constant tensor:
#      x y z
#    x 2.024420 -0.040840 0.033100 
#    y -0.040840 2.064650 -0.002090 
#    z 0.033100 -0.002090 2.039900 
# 
# From -- ./inp_files/487794.got.cif
#   From: 2010.05.17/outbox.cif.g08.bks.cpg/sg2_244_cif.got.tgz:487794.got - 2010.06.03 11:33:40.
