data_PCOD9106210
_publ_section_title
;
Structure prediction by ZEFSAII (Michael W. Deem and Ramdas Pophale) SiO2 
 PCOD9106210
Probable space group: P -1
;
_chemical_formula_sum "Si O2"
_cell_formula_units_Z 16
_cell_length_a 11.726516
_cell_length_b 7.500325
_cell_length_c 11.670020
_cell_angle_alpha 56.580494
_cell_angle_beta 96.241377
_cell_angle_gamma 128.435459
_cell_volume 626.744859
_symmetry_space_group_name_H-M "P -1"
_symmetry_group_IT_number 2
_symmetry_cell_setting 'triclinic'
loop_
_space_group_symop_operation_xyz
x,y,z
-x,-y,-z
loop_
_atom_site_type_symbol
_atom_site_label
_atom_site_fract_x
_atom_site_fract_y
_atom_site_fract_z
Si Si1 0.579395 0.923207 0.617020
Si Si2 0.427833 0.356399 0.665872
Si Si3 0.047099 0.417115 0.204898
Si Si4 0.881927 0.655260 0.118306
Si Si5 0.095689 0.133051 0.716382
Si Si6 0.125917 0.949285 0.456326
Si Si7 0.445168 0.676088 0.922651
Si Si8 0.640707 0.353803 0.814698
O O1 0.487864 0.594237 0.685139
O O2 0.557412 0.921809 0.750806
O O3 0.500000 0.000000 0.500000
O O4 0.758640 0.097202 0.547414
O O5 0.500000 0.500000 0.500000
O O6 0.247865 0.181111 0.694346
O O7 0.492024 0.210010 0.767302
O O8 0.230811 0.673417 0.162736
O O9 0.963203 0.536139 0.136863
O O10 0.952763 0.192426 0.380262
O O11 0.030634 0.222587 0.168894
O O12 0.856647 0.648435 0.254183
O O13 0.723650 0.503974 0.089114
O O14 0.000000 0.000000 0.000000
O O15 0.016681 0.187331 0.595853
O O16 0.240887 0.301283 0.333026
O O17 0.500000 0.500000 0.000000
O O18 0.425605 0.717256 0.038562
#
# Coordination Sequence:
#
# PCOD9106210 Si02
#       8
#     2   2   2   2   2   2   2   2
#     4  11  23  42  68 102 140 189 238 285 354 426
#     4  11  21  40  67 102 141 178 234 293 352 424
#     4  11  24  45  69 102 143 184 234 295 365 426
#     4  12  27  44  68 101 137 183 241 291 350 428
#     4  11  22  42  68 101 136 180 231 294 352 416
#     4  10  20  39  68 102 142 184 232 290 362 425
#     4  12  22  45  70  97 144 190 233 290 360 426
#     4  10  21  41  71 100 140 195 228 290 368 424
#
# _framework density 25.528728000000001
#
# number of rings (size 3 to 8) (size 9 to 14) (size 15 to 20)
#    0.000    1.000    3.750    6.000    0.000    2.500 
#    2.250    1.250    0.000    5.250    0.000    0.000 
#    0.000    0.000    0.000    0.000    0.000    0.000 
#
# Total GULP energy -89419.525149 kJ/mol
# GULP energy per Si atom -5588.720322 kJ/mol
# Density = 2.547062 g / cm^3
# Si number density = 25.528728 Si / 1000 Ang^3
#
#
#
# Elastic Constant Matrix: (Units=GPa)
#
#
# Indices 1 2 3 4 5 6 
#
# 1 227.1032 43.1072 64.8858 20.2381 20.9741 32.5433
# 2 43.1072 85.4516 17.0096 23.9840 12.5278 10.9452
# 3 64.8858 17.0096 148.4277 24.7889 6.3415 7.6727
# 4 20.2381 23.9840 24.7889 41.1866 10.3349 8.5939
# 5 20.9741 12.5278 6.3415 10.3349 51.0408 2.9278
# 6 32.5433 10.9452 7.6727 8.5939 2.9278 62.1868
#
#
#
# Elastic Compliance Matrix: (Units=1/GPa)
#
#
# Indices 1 2 3 4 5 6 
#
# 1 0.005894 -0.002154 -0.002238 0.000615 -0.001600 -0.002439
# 2 -0.002154 0.015071 0.000570 -0.007632 -0.001312 -0.000480
# 3 -0.002238 0.000570 0.008350 -0.004548 0.000627 0.000640
# 4 0.000615 -0.007632 -0.004548 0.032812 -0.004301 -0.002750
# 5 -0.001600 -0.001312 0.000627 -0.004301 0.021331 0.000581
# 6 -0.002439 -0.000480 0.000640 -0.002750 0.000581 0.017715
#
#
# Mechanical properties :
#
#
# Convention : Reuss Voigt Hill
#
# Bulk Modulus (GPa) = 46.14323 78.99863 62.57093
# Shear Modulus (GPa) = 43.08801 53.28149 48.18475
#
# Velocity S-wave (km/s) = 4.11277 4.57346 4.34922
# Velocity P-wave (km/s) = 6.37710 7.67469 7.05579
#
# Compressibility (1/GPa) = 0.02167165
#
# Stress axis : x y z
#
# Youngs Moduli (GPa) = 169.66629 66.35109 119.75777
#
# Poissons Ratio (x) = 0.14289 0.26803
# Poissons Ratio (y) = 0.36538 -0.06823
# Poissons Ratio (z) = 0.37973 -0.03780
#
# Static dielectric constant tensor:
#      x y z
#    x 2.084000 -0.131430 -0.083300 
#    y -0.131430 2.159550 -0.180590 
#    z -0.083300 -0.180590 1.833190 
# 
# From -- ./inp_files/416586.got.cif
#   From: 2010.05.17/outbox.cif.g08.bks.cpg/sg2_209_cif.got.tgz:416586.got - 2010.06.03 11:33:40.
