data_PCOD9106954
_publ_section_title
;
Structure prediction by ZEFSAII (Michael W. Deem and Ramdas Pophale) SiO2 
 PCOD9106954
Probable space group: P -1
;
_chemical_formula_sum "Si O2"
_cell_formula_units_Z 16
_cell_length_a 9.488813
_cell_length_b 8.895109
_cell_length_c 18.001645
_cell_angle_alpha 94.934946
_cell_angle_beta 43.711216
_cell_angle_gamma 121.301325
_cell_volume 781.876160
_symmetry_space_group_name_H-M "P -1"
_symmetry_group_IT_number 2
_symmetry_cell_setting 'triclinic'
loop_
_space_group_symop_operation_xyz
x,y,z
-x,-y,-z
loop_
_atom_site_type_symbol
_atom_site_label
_atom_site_fract_x
_atom_site_fract_y
_atom_site_fract_z
Si Si1 0.796106 0.005347 0.125105
Si Si2 0.153410 0.641548 0.375729
Si Si3 0.661685 0.938111 0.543950
Si Si4 0.198300 0.004523 0.347326
Si Si5 0.088892 0.246814 0.173379
Si Si6 0.412455 0.915660 0.915565
Si Si7 0.603855 0.293065 0.954957
Si Si8 0.215093 0.743772 0.590990
O O1 0.484364 0.794131 0.249424
O O2 0.777263 0.138568 0.083286
O O3 0.918166 0.111421 0.161639
O O4 0.000000 0.000000 0.000000
O O5 0.078064 0.780247 0.402334
O O6 0.000000 0.500000 0.500000
O O7 0.018984 0.484921 0.352779
O O8 0.601617 0.877601 0.651717
O O9 0.678483 0.121973 0.519241
O O10 0.437238 0.774946 0.562096
O O11 0.960381 0.009247 0.430264
O O12 0.347606 0.058234 0.214712
O O13 0.201890 0.472896 0.129383
O O14 0.908163 0.176583 0.312228
O O15 0.333603 0.248232 0.083741
O O16 0.518726 0.128162 0.917806
O O17 0.286055 0.756590 0.022583
#
# Coordination Sequence:
#
# PCOD9106954 Si02
#       8
#     2   2   2   2   2   2   2   2
#     4  11  23  41  64  90 126 169 209 265 318 375
#     4  11  23  41  64  90 126 169 209 265 318 375
#     4  10  22  38  62  91 121 160 209 255 314 379
#     4  10  20  40  62  88 127 162 200 259 324 367
#     4  11  22  38  63  91 122 163 212 258 313 380
#     4  10  20  40  62  88 127 162 200 259 324 367
#     4  10  22  38  62  91 121 160 209 255 314 379
#     4  11  22  38  63  91 122 163 212 258 313 380
#
# _framework density 20.463598999999999
#
# number of rings (size 3 to 8) (size 9 to 14) (size 15 to 20)
#    0.000    1.500    2.500    3.750    3.500    1.000 
#    0.000    1.250    0.000    0.000    0.000    0.000 
#    0.000    0.000    0.000    0.000    0.000    0.000 
#
# Total GULP energy -89121.069049 kJ/mol
# GULP energy per Si atom -5570.066816 kJ/mol
# Density = 2.041702 g / cm^3
# Si number density = 20.463599 Si / 1000 Ang^3
#
#
#
# Elastic Constant Matrix: (Units=GPa)
#
#
# Indices 1 2 3 4 5 6 
#
# 1 111.8823 37.7558 37.0981 -9.2988 4.9658 12.3511
# 2 37.7558 72.2185 11.4524 6.2636 -4.9200 13.6070
# 3 37.0981 11.4524 66.8980 14.0419 -0.0025 -5.5421
# 4 -9.2988 6.2636 14.0419 30.8854 0.8363 3.0554
# 5 4.9658 -4.9200 -0.0025 0.8363 34.6979 1.0839
# 6 12.3511 13.6070 -5.5421 3.0554 1.0839 23.7886
#
#
#
# Elastic Compliance Matrix: (Units=1/GPa)
#
#
# Indices 1 2 3 4 5 6 
#
# 1 0.017605 -0.006856 -0.012169 0.013268 -0.003512 -0.009598
# 2 -0.006856 0.019279 0.001210 -0.005981 0.004065 -0.006603
# 3 -0.012169 0.001210 0.026265 -0.017275 0.001898 0.013878
# 4 0.013268 -0.005981 -0.017275 0.046854 -0.003460 -0.013353
# 5 -0.003512 0.004065 0.001898 -0.003460 0.030014 -0.000983
# 6 -0.009598 -0.006603 0.013878 -0.013353 -0.000983 0.055790
#
#
# Mechanical properties :
#
#
# Convention : Reuss Voigt Hill
#
# Bulk Modulus (GPa) = 36.33886 47.06797 41.70341
# Shear Modulus (GPa) = 20.78051 28.85388 24.81719
#
# Velocity S-wave (km/s) = 3.19013 3.75908 3.48623
# Velocity P-wave (km/s) = 5.60050 6.47238 6.05216
#
# Compressibility (1/GPa) = 0.02751875
#
# Stress axis : x y z
#
# Youngs Moduli (GPa) = 56.80267 51.87015 38.07310
#
# Poissons Ratio (x) = 0.35560 0.46332
# Poissons Ratio (y) = 0.38941 -0.04606
# Poissons Ratio (z) = 0.69125 -0.06275
#
# Static dielectric constant tensor:
#      x y z
#    x 1.736260 0.034730 0.004320 
#    y 0.034730 1.752430 0.037800 
#    z 0.004320 0.037800 1.802610 
# 
# From -- ./inp_files/201890.got.cif
#   From: 2010.05.17/outbox.cif.g08.bks.cpg/sg2_101_cif.got.tgz:201890.got - 2010.06.03 11:33:40.
