data_PCOD9106529
_publ_section_title
;
Structure prediction by ZEFSAII (Michael W. Deem and Ramdas Pophale) SiO2 
 PCOD9106529
Probable space group: P -1
;
_chemical_formula_sum "Si O2"
_cell_formula_units_Z 16
_cell_length_a 15.145872
_cell_length_b 8.814886
_cell_length_c 5.423257
_cell_angle_alpha 85.999543
_cell_angle_beta 87.439577
_cell_angle_gamma 86.059754
_cell_volume 720.004129
_symmetry_space_group_name_H-M "P -1"
_symmetry_group_IT_number 2
_symmetry_cell_setting 'triclinic'
loop_
_space_group_symop_operation_xyz
x,y,z
-x,-y,-z
loop_
_atom_site_type_symbol
_atom_site_label
_atom_site_fract_x
_atom_site_fract_y
_atom_site_fract_z
Si Si1 0.018677 0.674093 0.410649
Si Si2 0.856455 0.692658 0.049687
Si Si3 0.173133 0.646530 0.066539
Si Si4 0.492814 0.901424 0.261518
Si Si5 0.060221 0.915399 0.779892
Si Si6 0.308813 0.850589 0.093069
Si Si7 0.189989 0.071166 0.383981
Si Si8 0.681365 0.854335 0.281121
O O1 0.945684 0.703844 0.197658
O O2 0.000000 0.500000 0.500000
O O3 0.122471 0.654162 0.331839
O O4 0.015220 0.823343 0.572153
O O5 0.763724 0.752276 0.176222
O O6 0.846872 0.517502 0.012478
O O7 0.856187 0.797610 0.794130
O O8 0.274356 0.689166 0.037196
O O9 0.117555 0.776888 0.910348
O O10 0.397391 0.834306 0.248156
O O11 0.584315 0.796103 0.268859
O O12 0.500000 0.000000 0.500000
O O13 0.500000 0.000000 0.000000
O O14 0.867809 0.981851 0.373199
O O15 0.000000 0.000000 0.000000
O O16 0.222680 0.924906 0.238953
O O17 0.321232 0.976717 0.863721
O O18 0.285454 0.127358 0.447447
#
# Coordination Sequence:
#
# PCOD9106529 Si02
#       8
#     2   2   2   2   2   2   2   2
#     4  12  28  49  71  99 146 197 248 300 369 444
#     4  11  28  44  72 104 144 197 243 299 374 440
#     4  12  26  46  68 103 141 194 246 292 374 435
#     4  10  20  39  72 111 145 185 238 304 372 442
#     4  12  29  47  73 106 143 192 253 311 360 428
#     4  10  21  42  71 106 138 186 240 298 358 435
#     4  11  23  46  72 102 145 182 242 307 363 426
#     4  10  22  41  70 106 142 184 237 299 362 434
#
# _framework density 22.222096000000001
#
# number of rings (size 3 to 8) (size 9 to 14) (size 15 to 20)
#    0.000    1.000    5.000    0.375    3.500    2.000 
#    0.000    0.625    0.000    0.750    0.000    0.000 
#    0.000    0.000    0.000    0.000    0.000    0.000 
#
# Total GULP energy -89210.880285 kJ/mol
# GULP energy per Si atom -5575.680018 kJ/mol
# Density = 2.217152 g / cm^3
# Si number density = 22.222096 Si / 1000 Ang^3
#
#
#
# Elastic Constant Matrix: (Units=GPa)
#
#
# Indices 1 2 3 4 5 6 
#
# 1 137.9159 54.7309 44.7300 7.9815 36.9339 10.8750
# 2 54.7309 115.2648 38.5520 12.6202 11.6862 12.3691
# 3 44.7300 38.5520 99.6914 9.9463 25.3944 4.4624
# 4 7.9815 12.6202 9.9463 37.9267 5.6374 4.6355
# 5 36.9339 11.6862 25.3944 5.6374 45.8000 1.7643
# 6 10.8750 12.3691 4.4624 4.6355 1.7643 26.0139
#
#
#
# Elastic Compliance Matrix: (Units=1/GPa)
#
#
# Indices 1 2 3 4 5 6 
#
# 1 0.011472 -0.003968 -0.001729 0.000716 -0.007282 -0.002246
# 2 -0.003968 0.011947 -0.003038 -0.002280 0.002242 -0.003246
# 3 -0.001729 -0.003038 0.013404 -0.001439 -0.005104 0.000470
# 4 0.000716 -0.002280 -0.001439 0.028194 -0.002521 -0.003821
# 5 -0.007282 0.002242 -0.005104 -0.002521 0.030226 0.001253
# 6 -0.002246 -0.003246 0.000470 -0.003821 0.001253 0.041439
#
#
# Mechanical properties :
#
#
# Convention : Reuss Voigt Hill
#
# Bulk Modulus (GPa) = 51.67086 69.87753 60.77420
# Shear Modulus (GPa) = 31.13295 36.27206 33.70251
#
# Velocity S-wave (km/s) = 3.74704 4.04450 3.89861
# Velocity P-wave (km/s) = 6.48251 7.30232 6.90460
#
# Compressibility (1/GPa) = 0.01935327
#
# Stress axis : x y z
#
# Youngs Moduli (GPa) = 87.16934 83.70621 74.60458
#
# Poissons Ratio (x) = 0.33215 0.12898
# Poissons Ratio (y) = 0.34590 0.22663
# Poissons Ratio (z) = 0.15070 0.25427
#
# Static dielectric constant tensor:
#      x y z
#    x 1.890730 0.003650 -0.050120 
#    y 0.003650 1.841130 0.037320 
#    z -0.050120 0.037320 2.061030 
# 
# From -- ./inp_files/51163.got.cif
#   From: 2010.05.17/outbox.cif.g08.bks.cpg/sg2_26_cif.got.tgz:51163.got - 2010.06.03 11:33:40.
