data_PCOD9106154
_publ_section_title
;
Structure prediction by ZEFSAII (Michael W. Deem and Ramdas Pophale) SiO2 
 PCOD9106154
Probable space group: P -1
;
_chemical_formula_sum "Si O2"
_cell_formula_units_Z 16
_cell_length_a 18.629464
_cell_length_b 13.544712
_cell_length_c 10.839066
_cell_angle_alpha 32.554809
_cell_angle_beta 148.617432
_cell_angle_gamma 150.359504
_cell_volume 648.093882
_symmetry_space_group_name_H-M "P -1"
_symmetry_group_IT_number 2
_symmetry_cell_setting 'triclinic'
loop_
_space_group_symop_operation_xyz
x,y,z
-x,-y,-z
loop_
_atom_site_type_symbol
_atom_site_label
_atom_site_fract_x
_atom_site_fract_y
_atom_site_fract_z
Si Si1 0.697819 0.000493 0.350464
Si Si2 0.965348 0.189213 0.752282
Si Si3 0.542844 0.242489 0.544416
Si Si4 0.337775 0.310784 0.835343
Si Si5 0.696316 0.079297 0.654954
Si Si6 0.805756 0.400664 0.956169
Si Si7 0.165580 0.155496 0.500771
Si Si8 0.130790 0.466531 0.489454
O O1 0.554138 0.799353 0.424447
O O2 0.781995 0.944488 0.424317
O O3 0.829310 0.118523 0.524980
O O4 0.677747 0.192887 0.068710
O O5 0.879564 0.178610 0.765095
O O6 0.104550 0.407286 0.661057
O O7 0.000000 0.000000 0.000000
O O8 0.533167 0.431016 0.259196
O O9 0.725637 0.329336 0.775177
O O10 0.435350 0.018141 0.546738
O O11 0.301794 0.239296 0.716895
O O12 0.187890 0.315013 0.674440
O O13 0.351551 0.128679 0.114741
O O14 0.721670 0.282224 0.555684
O O15 0.831093 0.634586 0.766040
O O16 0.979275 0.434947 0.218230
O O17 0.000000 0.000000 0.500000
#
# Coordination Sequence:
#
# PCOD9106154 Si02
#       8
#     2   2   2   2   2   2   2   2
#     4  10  23  43  65  94 132 175 217 271 333 385
#     4  10  20  39  67  96 131 164 215 279 328 386
#     4  10  24  45  64  96 135 180 217 271 331 400
#     4  11  24  41  65  95 134 173 227 272 325 392
#     4  11  23  43  67  96 135 174 222 269 337 400
#     4  10  23  41  65  94 135 164 222 271 322 390
#     4  11  23  39  66  99 130 170 218 270 333 390
#     4  11  23  40  68 103 128 174 221 281 331 383
#
# _framework density 24.687781000000001
#
# number of rings (size 3 to 8) (size 9 to 14) (size 15 to 20)
#    0.000    1.500    1.250    3.375    1.750    9.000 
#    0.000    3.750    0.000    0.000    0.000    0.000 
#    0.000    0.000    0.000    0.000    0.000    0.000 
#
# Total GULP energy -89247.198163 kJ/mol
# GULP energy per Si atom -5577.949885 kJ/mol
# Density = 2.463159 g / cm^3
# Si number density = 24.687781 Si / 1000 Ang^3
#
#
#
# Elastic Constant Matrix: (Units=GPa)
#
#
# Indices 1 2 3 4 5 6 
#
# 1 88.3383 23.6570 26.7288 -15.3754 -10.8294 11.1696
# 2 23.6570 119.0043 36.6452 -20.3280 -10.5909 -3.3247
# 3 26.7288 36.6452 125.0163 -36.6845 -17.2967 2.9883
# 4 -15.3754 -20.3280 -36.6845 35.9858 7.2387 -10.2636
# 5 -10.8294 -10.5909 -17.2967 7.2387 24.8452 -7.9158
# 6 11.1696 -3.3247 2.9883 -10.2636 -7.9158 43.8343
#
#
#
# Elastic Compliance Matrix: (Units=1/GPa)
#
#
# Indices 1 2 3 4 5 6 
#
# 1 0.013166 -0.001685 -0.001247 0.002165 0.002760 -0.002392
# 2 -0.001685 0.010074 -0.001114 0.004106 0.002439 0.002671
# 3 -0.001247 -0.001114 0.012643 0.011508 0.005400 0.003041
# 4 0.002165 0.004106 0.011508 0.045421 0.000567 0.009713
# 5 0.002760 0.002439 0.005400 0.000567 0.048644 0.008031
# 6 -0.002392 0.002671 0.003041 0.009713 0.008031 0.027143
#
#
# Mechanical properties :
#
#
# Convention : Reuss Voigt Hill
#
# Bulk Modulus (GPa) = 35.98118 56.26898 46.12508
# Shear Modulus (GPa) = 28.66197 37.28826 32.97511
#
# Velocity S-wave (km/s) = 3.41101 3.89059 3.65867
# Velocity P-wave (km/s) = 5.48812 6.55927 6.04746
#
# Compressibility (1/GPa) = 0.02779231
#
# Stress axis : x y z
#
# Youngs Moduli (GPa) = 75.95197 99.26334 79.09311
#
# Poissons Ratio (x) = 0.16724 0.09861
# Poissons Ratio (y) = 0.12796 0.08812
# Poissons Ratio (z) = 0.09469 0.11060
#
# Static dielectric constant tensor:
#      x y z
#    x 2.117530 0.103090 0.040880 
#    y 0.103090 2.054410 -0.067220 
#    z 0.040880 -0.067220 1.752810 
# 
# From -- ./inp_files/471872.got.cif
#   From: 2010.05.17/outbox.cif.g08.bks.cpg/sg2_236_cif.got.tgz:471872.got - 2010.06.03 11:33:40.
