data_PCOD9106652
_publ_section_title
;
Structure prediction by ZEFSAII (Michael W. Deem and Ramdas Pophale) SiO2 
 PCOD9106652
Probable space group: P -1
;
_chemical_formula_sum "Si O2"
_cell_formula_units_Z 16
_cell_length_a 10.497735
_cell_length_b 15.178304
_cell_length_c 8.207569
_cell_angle_alpha 98.039956
_cell_angle_beta 63.242553
_cell_angle_gamma 55.683371
_cell_volume 815.568088
_symmetry_space_group_name_H-M "P -1"
_symmetry_group_IT_number 2
_symmetry_cell_setting 'triclinic'
loop_
_space_group_symop_operation_xyz
x,y,z
-x,-y,-z
loop_
_atom_site_type_symbol
_atom_site_label
_atom_site_fract_x
_atom_site_fract_y
_atom_site_fract_z
Si Si1 0.196468 0.780306 0.450352
Si Si2 0.538251 0.383778 0.021992
Si Si3 0.609670 0.137661 0.497625
Si Si4 0.275748 0.029616 0.296044
Si Si5 0.226403 0.413136 0.400672
Si Si6 0.462866 0.492872 0.702581
Si Si7 0.219803 0.428867 0.788042
Si Si8 0.500118 0.881495 0.795106
O O1 0.243784 0.840989 0.559931
O O2 0.312461 0.641494 0.411442
O O3 0.322768 0.739202 0.199215
O O4 0.965550 0.866557 0.562412
O O5 0.335704 0.426842 0.209179
O O6 0.634558 0.374974 0.131817
O O7 0.500000 0.500000 0.000000
O O8 0.661645 0.052931 0.599928
O O9 0.382427 0.278342 0.682991
O O10 0.613178 0.089466 0.304706
O O11 0.366690 0.087864 0.285355
O O12 0.365169 0.953011 0.053716
O O13 0.220556 0.449167 0.599696
O O14 0.352870 0.266541 0.296843
O O15 0.000000 0.500000 0.500000
O O16 0.500000 0.500000 0.500000
O O17 0.316676 0.474645 0.821628
O O18 0.000000 0.500000 0.000000
#
# Coordination Sequence:
#
# PCOD9106652 Si02
#       8
#     2   2   2   2   2   2   2   2
#     4  10  23  39  67  92 127 170 227 264 331 390
#     4  10  22  38  62  92 129 168 213 266 322 390
#     4  10  22  44  62  91 132 168 219 280 321 391
#     4  11  23  44  66  94 130 178 219 277 325 396
#     4  11  24  38  65  93 130 171 214 269 332 391
#     4  10  20  40  59  92 134 166 211 273 319 391
#     4  10  23  38  62  96 127 171 216 265 333 397
#     4  10  25  42  65  94 135 169 225 269 332 398
#
# _framework density 19.618226
#
# number of rings (size 3 to 8) (size 9 to 14) (size 15 to 20)
#    0.000    1.750    1.250    1.500   10.500    1.500 
#    4.500    0.000    0.000    0.000    0.000    0.000 
#    0.000    0.000    0.000    0.000    0.000    0.000 
#
# Total GULP energy -89132.403247 kJ/mol
# GULP energy per Si atom -5570.775203 kJ/mol
# Density = 1.957357 g / cm^3
# Si number density = 19.618226 Si / 1000 Ang^3
#
#
#
# Elastic Constant Matrix: (Units=GPa)
#
#
# Indices 1 2 3 4 5 6 
#
# 1 132.3931 45.1022 67.9598 8.3707 11.3618 -12.6518
# 2 45.1022 92.0587 38.4085 -14.1859 -12.4746 -16.3661
# 3 67.9598 38.4085 113.9768 -8.7615 -5.4793 -11.9103
# 4 8.3707 -14.1859 -8.7615 16.7690 -6.3239 0.2318
# 5 11.3618 -12.4746 -5.4793 -6.3239 38.1867 4.7042
# 6 -12.6518 -16.3661 -11.9103 0.2318 4.7042 31.1532
#
#
#
# Elastic Compliance Matrix: (Units=1/GPa)
#
#
# Indices 1 2 3 4 5 6 
#
# 1 0.023188 -0.014540 -0.012784 -0.038024 -0.019801 0.000164
# 2 -0.014540 0.025686 0.004524 0.038420 0.018969 0.006168
# 3 -0.012784 0.004524 0.017441 0.023614 0.011455 0.001947
# 4 -0.038024 0.038420 0.023614 0.142310 0.050188 0.005132
# 5 -0.019801 0.018969 0.011455 0.050188 0.048400 -0.001379
# 6 0.000164 0.006168 0.001947 0.005132 -0.001379 0.036321
#
#
# Mechanical properties :
#
#
# Convention : Reuss Voigt Hill
#
# Bulk Modulus (GPa) = 48.27520 71.26329 59.76924
# Shear Modulus (GPa) = 14.45704 29.68564 22.07134
#
# Velocity S-wave (km/s) = 2.71757 3.89416 3.35780
# Velocity P-wave (km/s) = 5.87432 7.52484 6.75022
#
# Compressibility (1/GPa) = 0.02071457
#
# Stress axis : x y z
#
# Youngs Moduli (GPa) = 43.12596 38.93129 57.33539
#
# Poissons Ratio (x) = 0.56607 0.73297
# Poissons Ratio (y) = 0.62706 -0.25936
# Poissons Ratio (z) = 0.55132 -0.17611
#
# Static dielectric constant tensor:
#      x y z
#    x 1.742160 -0.029620 -0.129300 
#    y -0.029620 1.708440 -0.036180 
#    z -0.129300 -0.036180 1.102600 
# 
# From -- ./inp_files/207609.got.cif
#   From: 2010.05.17/outbox.cif.g08.bks.cpg/sg2_104_cif.got.tgz:207609.got - 2010.06.03 11:33:40.
