data_PCOD9106876
_publ_section_title
;
Structure prediction by ZEFSAII (Michael W. Deem and Ramdas Pophale) SiO2 
 PCOD9106876
Probable space group: P -1
;
_chemical_formula_sum "Si O2"
_cell_formula_units_Z 16
_cell_length_a 14.557608
_cell_length_b 10.453821
_cell_length_c 9.716788
_cell_angle_alpha 98.585221
_cell_angle_beta 27.908634
_cell_angle_gamma 98.522851
_cell_volume 683.957785
_symmetry_space_group_name_H-M "P -1"
_symmetry_group_IT_number 2
_symmetry_cell_setting 'triclinic'
loop_
_space_group_symop_operation_xyz
x,y,z
-x,-y,-z
loop_
_atom_site_type_symbol
_atom_site_label
_atom_site_fract_x
_atom_site_fract_y
_atom_site_fract_z
Si Si1 0.597087 0.412733 0.065910
Si Si2 0.158612 0.582938 0.525401
Si Si3 0.156433 0.317644 0.611423
Si Si4 0.448000 0.882844 0.649659
Si Si5 0.118631 0.811032 0.255196
Si Si6 0.462235 0.686759 0.353591
Si Si7 0.879180 0.780402 0.811823
Si Si8 0.868707 0.869546 0.150376
O O1 0.391306 0.335053 0.301559
O O2 0.532316 0.539289 0.255333
O O3 0.694967 0.456387 0.798046
O O4 0.747151 0.314880 0.919910
O O5 0.089291 0.462332 0.691134
O O6 0.286593 0.678271 0.473038
O O7 0.979901 0.644064 0.690610
O O8 0.073514 0.248789 0.847898
O O9 0.070596 0.231243 0.588299
O O10 0.417492 0.757681 0.568932
O O11 0.639340 0.881534 0.492329
O O12 0.500000 0.000000 0.500000
O O13 0.257172 0.903934 0.996262
O O14 0.034808 0.853259 0.518803
O O15 0.658417 0.760294 0.047072
O O16 0.865007 0.835668 0.990585
O O17 0.000000 0.000000 0.000000
#
# Coordination Sequence:
#
# PCOD9106876 Si02
#       8
#     2   2   2   2   2   2   2   2
#     4  10  20  40  62 101 136 165 207 259 320 386
#     4  10  21  37  66  99 136 166 205 261 318 390
#     4  11  21  38  66  95 128 170 207 254 323 373
#     4  11  25  45  65  92 125 171 222 271 314 371
#     4  11  22  41  67  94 131 168 207 262 318 385
#     4  10  21  39  64  92 129 169 205 259 316 375
#     4  10  23  42  63  97 129 168 211 256 324 379
#     4  11  25  46  66  91 128 168 221 275 308 375
#
# _framework density 23.393257999999999
#
# number of rings (size 3 to 8) (size 9 to 14) (size 15 to 20)
#    0.000    1.500    1.250    4.500    3.500    3.000 
#    4.500    8.750    0.000    0.000    0.000    0.000 
#    0.000    0.000    0.000    0.000    0.000    0.000 
#
# Total GULP energy -89386.441568 kJ/mol
# GULP energy per Si atom -5586.652598 kJ/mol
# Density = 2.334001 g / cm^3
# Si number density = 23.393258 Si / 1000 Ang^3
#
#
#
# Elastic Constant Matrix: (Units=GPa)
#
#
# Indices 1 2 3 4 5 6 
#
# 1 63.5208 11.9477 31.5732 -13.2769 0.1393 4.5722
# 2 11.9477 53.3306 31.4358 -16.9436 8.6172 -3.6536
# 3 31.5732 31.4358 132.9411 -18.0321 7.8271 0.1302
# 4 -13.2769 -16.9436 -18.0321 35.1618 -7.6913 0.9695
# 5 0.1393 8.6172 7.8271 -7.6913 33.3538 -9.0895
# 6 4.5722 -3.6536 0.1302 0.9695 -9.0895 30.7530
#
#
#
# Elastic Compliance Matrix: (Units=1/GPa)
#
#
# Indices 1 2 3 4 5 6 
#
# 1 0.019026 -0.000828 -0.003691 0.005294 0.001504 -0.002634
# 2 -0.000828 0.024871 -0.004329 0.008776 -0.002843 0.001979
# 3 -0.003691 -0.004329 0.009650 0.001276 -0.000924 -0.000320
# 4 0.005294 0.008776 0.001276 0.036632 0.006104 0.000899
# 5 0.001504 -0.002843 -0.000924 0.006104 0.034944 0.009579
# 6 -0.002634 0.001979 -0.000320 0.000899 0.009579 0.035948
#
#
# Mechanical properties :
#
#
# Convention : Reuss Voigt Hill
#
# Bulk Modulus (GPa) = 27.89268 44.41174 36.15221
# Shear Modulus (GPa) = 26.21676 31.50945 28.86311
#
# Velocity S-wave (km/s) = 3.35131 3.67406 3.51639
# Velocity P-wave (km/s) = 5.18887 6.08476 5.65459
#
# Compressibility (1/GPa) = 0.03585170
#
# Stress axis : x y z
#
# Youngs Moduli (GPa) = 52.56002 40.20719 103.62701
#
# Poissons Ratio (x) = 0.03331 0.38245
# Poissons Ratio (y) = 0.04355 0.44856
# Poissons Ratio (z) = 0.19398 0.17404
#
# Static dielectric constant tensor:
#      x y z
#    x 1.977200 -0.121610 -0.043820 
#    y -0.121610 2.065220 0.034930 
#    z -0.043820 0.034930 1.907580 
# 
# From -- ./inp_files/307460.got.cif
#   From: 2010.05.17/outbox.cif.g08.bks.cpg/sg2_154_cif.got.tgz:307460.got - 2010.06.03 11:33:40.
