data_PCOD9106545
_publ_section_title
;
Structure prediction by ZEFSAII (Michael W. Deem and Ramdas Pophale) SiO2 
 PCOD9106545
Probable space group: P -1
;
_chemical_formula_sum "Si O2"
_cell_formula_units_Z 16
_cell_length_a 13.861123
_cell_length_b 14.195068
_cell_length_c 13.351877
_cell_angle_alpha 132.325892
_cell_angle_beta 44.707257
_cell_angle_gamma 158.169816
_cell_volume 686.310970
_symmetry_space_group_name_H-M "P -1"
_symmetry_group_IT_number 2
_symmetry_cell_setting 'triclinic'
loop_
_space_group_symop_operation_xyz
x,y,z
-x,-y,-z
loop_
_atom_site_type_symbol
_atom_site_label
_atom_site_fract_x
_atom_site_fract_y
_atom_site_fract_z
Si Si1 0.957163 0.892010 0.706706
Si Si2 0.505379 0.824100 0.569313
Si Si3 0.304006 0.771256 0.369981
Si Si4 0.814162 0.530991 0.624227
Si Si5 0.216457 0.884793 0.230618
Si Si6 0.786338 0.724906 0.503213
Si Si7 0.830442 0.069436 0.930315
Si Si8 0.218065 0.605868 0.102769
O O1 0.843348 0.704893 0.740851
O O2 0.749421 0.724432 0.646428
O O3 0.993616 0.069187 0.828787
O O4 0.225274 0.037136 0.568197
O O5 0.274373 0.564089 0.493450
O O6 0.498646 0.963068 0.630739
O O7 0.550582 0.878318 0.693741
O O8 0.381998 0.709656 0.332484
O O9 0.156824 0.598363 0.256138
O O10 0.108698 0.700187 0.533851
O O11 0.209601 0.726884 0.128093
O O12 0.935297 0.712516 0.360428
O O13 0.232232 0.952858 0.156601
O O14 0.500000 0.500000 0.500000
O O15 0.000000 0.000000 0.500000
O O16 0.534499 0.817923 0.019389
O O17 0.010010 0.331730 0.023908
#
# Coordination Sequence:
#
# PCOD9106545 Si02
#       8
#     2   2   2   2   2   2   2   2
#     4  10  24  38  58  99 123 168 214 260 326 385
#     4   9  20  38  66  98 125 159 208 278 326 383
#     4   9  21  42  63 102 119 164 214 273 329 381
#     4  10  20  39  73  92 129 156 209 278 340 377
#     4  10  23  43  64  98 127 173 221 260 321 382
#     4  11  24  39  65  95 132 167 206 273 324 373
#     4  12  26  44  64  89 136 180 216 260 306 383
#     4  11  27  45  65  91 128 178 223 263 306 379
#
# _framework density 23.313047000000001
#
# number of rings (size 3 to 8) (size 9 to 14) (size 15 to 20)
#    0.000    1.750    1.250    1.875   10.500    1.000 
#    4.500    1.250    0.000    0.000    0.000    0.000 
#    0.000    0.000    0.000    0.000    0.000    0.000 
#
# Total GULP energy -89368.500718 kJ/mol
# GULP energy per Si atom -5585.531295 kJ/mol
# Density = 2.325999 g / cm^3
# Si number density = 23.313047 Si / 1000 Ang^3
#
#
#
# Elastic Constant Matrix: (Units=GPa)
#
#
# Indices 1 2 3 4 5 6 
#
# 1 98.9175 30.7898 29.5253 19.4035 -13.6986 -30.3151
# 2 30.7898 85.8337 26.2812 16.5039 -9.9121 -6.2788
# 3 29.5253 26.2812 75.1463 16.3305 -20.2927 -13.3754
# 4 19.4035 16.5039 16.3305 33.5979 -6.9650 -10.0200
# 5 -13.6986 -9.9121 -20.2927 -6.9650 33.2281 9.0652
# 6 -30.3151 -6.2788 -13.3754 -10.0200 9.0652 37.4659
#
#
#
# Elastic Compliance Matrix: (Units=1/GPa)
#
#
# Indices 1 2 3 4 5 6 
#
# 1 0.015751 -0.003541 -0.002289 -0.003029 0.000571 0.010386
# 2 -0.003541 0.014573 -0.003034 -0.004308 0.000917 -0.002880
# 3 -0.002289 -0.003034 0.018632 -0.004170 0.008340 0.001158
# 4 -0.003029 -0.004308 -0.004170 0.037441 0.001400 0.005013
# 5 0.000571 0.000917 0.008340 0.001400 0.037376 -0.005076
# 6 0.010386 -0.002880 0.001158 0.005013 -0.005076 0.037594
#
#
# Mechanical properties :
#
#
# Convention : Reuss Voigt Hill
#
# Bulk Modulus (GPa) = 32.02330 48.12111 40.07221
# Shear Modulus (GPa) = 26.38436 32.41182 29.39809
#
# Velocity S-wave (km/s) = 3.36779 3.73270 3.55493
# Velocity P-wave (km/s) = 5.37482 6.26606 5.83747
#
# Compressibility (1/GPa) = 0.03122726
#
# Stress axis : x y z
#
# Youngs Moduli (GPa) = 63.48757 68.61885 53.66980
#
# Poissons Ratio (x) = 0.24299 0.12287
# Poissons Ratio (y) = 0.22482 0.16285
# Poissons Ratio (z) = 0.14534 0.20821
#
# Static dielectric constant tensor:
#      x y z
#    x 1.940740 -0.022050 -0.025010 
#    y -0.022050 1.913280 -0.022520 
#    z -0.025010 -0.022520 1.885650 
# 
# From -- ./inp_files/97174.got.cif
#   From: 2010.05.17/outbox.cif.g08.bks.cpg/sg2_49_cif.got.tgz:97174.got - 2010.06.03 11:33:40.
