data_PCOD9106310
_publ_section_title
;
Structure prediction by ZEFSAII (Michael W. Deem and Ramdas Pophale) SiO2 
 PCOD9106310
Probable space group: P -1
;
_chemical_formula_sum "Si O2"
_cell_formula_units_Z 16
_cell_length_a 7.709134
_cell_length_b 11.608928
_cell_length_c 19.170730
_cell_angle_alpha 132.459326
_cell_angle_beta 54.960205
_cell_angle_gamma 149.005697
_cell_volume 651.757562
_symmetry_space_group_name_H-M "P -1"
_symmetry_group_IT_number 2
_symmetry_cell_setting 'triclinic'
loop_
_space_group_symop_operation_xyz
x,y,z
-x,-y,-z
loop_
_atom_site_type_symbol
_atom_site_label
_atom_site_fract_x
_atom_site_fract_y
_atom_site_fract_z
Si Si1 0.048026 0.216898 0.931536
Si Si2 0.763474 0.951143 0.092497
Si Si3 0.845764 0.225736 0.552727
Si Si4 0.059652 0.372845 0.703144
Si Si5 0.205732 0.271241 0.370218
Si Si6 0.080744 0.371748 0.302775
Si Si7 0.834625 0.733835 0.227440
Si Si8 0.333477 0.826106 0.884537
O O1 0.288679 0.228197 0.917645
O O2 0.198871 0.353299 0.878357
O O3 0.665771 0.935194 0.885244
O O4 0.932726 0.283586 0.038747
O O5 0.556472 0.951060 0.089501
O O6 0.900092 0.153942 0.200679
O O7 0.000000 0.000000 0.000000
O O8 0.987378 0.483167 0.621098
O O9 0.789136 0.170024 0.625609
O O10 0.104446 0.264308 0.467847
O O11 0.500000 0.000000 0.500000
O O12 0.401017 0.497883 0.643118
O O13 0.009706 0.286988 0.757938
O O14 0.137894 0.600009 0.785804
O O15 0.038259 0.282618 0.354233
O O16 0.067647 0.018930 0.286949
O O17 0.472366 0.579351 0.275182
#
# Coordination Sequence:
#
# PCOD9106310 Si02
#       8
#     2   2   2   2   2   2   2   2
#     4  10  20  40  66  99 137 170 217 276 331 398
#     4  10  20  39  69  97 130 176 220 270 334 405
#     4  12  25  45  66  99 133 171 229 289 336 396
#     4  11  24  43  67  95 133 176 228 274 338 410
#     4  11  23  45  67  93 127 183 218 278 343 396
#     4  11  22  43  69  92 135 171 221 278 340 400
#     4  11  22  41  68  97 131 176 220 278 337 399
#     4  10  20  39  68  98 131 177 222 266 335 408
#
# _framework density 24.549005999999999
#
# number of rings (size 3 to 8) (size 9 to 14) (size 15 to 20)
#    0.000    1.250    5.000    1.500    0.000    1.000 
#    9.000    2.500    0.000    0.000    0.000    0.000 
#    0.000    0.000    0.000    0.000    0.000    0.000 
#
# Total GULP energy -89355.509826 kJ/mol
# GULP energy per Si atom -5584.719364 kJ/mol
# Density = 2.449313 g / cm^3
# Si number density = 24.549006 Si / 1000 Ang^3
#
#
#
# Elastic Constant Matrix: (Units=GPa)
#
#
# Indices 1 2 3 4 5 6 
#
# 1 73.7152 20.7179 21.0255 -14.3131 10.1272 -24.8067
# 2 20.7179 52.5605 15.2305 -17.0676 6.3613 -2.2826
# 3 21.0255 15.2305 152.8499 -21.9838 8.9809 -2.3620
# 4 -14.3131 -17.0676 -21.9838 35.9690 -7.6082 7.9184
# 5 10.1272 6.3613 8.9809 -7.6082 40.1727 -2.7696
# 6 -24.8067 -2.2826 -2.3620 7.9184 -2.7696 37.9248
#
#
#
# Elastic Compliance Matrix: (Units=1/GPa)
#
#
# Indices 1 2 3 4 5 6 
#
# 1 0.020681 -0.006539 -0.001735 0.000686 -0.002786 0.012679
# 2 -0.006539 0.024763 -0.000168 0.009987 -0.000684 -0.004932
# 3 -0.001735 -0.000168 0.007376 0.003966 -0.000541 -0.001553
# 4 0.000686 0.009987 0.003966 0.037460 0.004024 -0.006231
# 5 -0.002786 -0.000684 -0.000541 0.004024 0.026531 -0.000800
# 6 0.012679 -0.004932 -0.001553 -0.006231 -0.000800 0.035510
#
#
# Mechanical properties :
#
#
# Convention : Reuss Voigt Hill
#
# Bulk Modulus (GPa) = 27.82593 43.67481 35.75037
# Shear Modulus (GPa) = 27.59633 37.62341 32.60987
#
# Velocity S-wave (km/s) = 3.35645 3.91907 3.64862
# Velocity P-wave (km/s) = 5.13619 6.18937 5.68721
#
# Compressibility (1/GPa) = 0.03593771
#
# Stress axis : x y z
#
# Youngs Moduli (GPa) = 48.35345 40.38244 135.57724
#
# Poissons Ratio (x) = 0.26404 0.23522
# Poissons Ratio (y) = 0.31616 0.02274
# Poissons Ratio (z) = 0.08389 0.00677
#
# Static dielectric constant tensor:
#      x y z
#    x 2.033170 -0.013530 0.047280 
#    y -0.013530 1.980460 -0.008820 
#    z 0.047280 -0.008820 1.899890 
# 
# From -- ./inp_files/110712.got.cif
#   From: 2010.05.17/outbox.cif.g08.bks.cpg/sg2_56_cif.got.tgz:110712.got - 2010.06.03 11:33:40.
