data_PCOD9106510
_publ_section_title
;
Structure prediction by ZEFSAII (Michael W. Deem and Ramdas Pophale) SiO2 
 PCOD9106510
Probable space group: P -1
;
_chemical_formula_sum "Si O2"
_cell_formula_units_Z 16
_cell_length_a 12.549057
_cell_length_b 8.618819
_cell_length_c 30.355583
_cell_angle_alpha 150.423783
_cell_angle_beta 150.683438
_cell_angle_gamma 46.550959
_cell_volume 758.846957
_symmetry_space_group_name_H-M "P -1"
_symmetry_group_IT_number 2
_symmetry_cell_setting 'triclinic'
loop_
_space_group_symop_operation_xyz
x,y,z
-x,-y,-z
loop_
_atom_site_type_symbol
_atom_site_label
_atom_site_fract_x
_atom_site_fract_y
_atom_site_fract_z
Si Si1 0.929480 0.831466 0.806233
Si Si2 0.146606 0.777443 0.302857
Si Si3 0.723216 0.378876 0.545719
Si Si4 0.591849 0.797723 0.421598
Si Si5 0.544164 0.810734 0.924321
Si Si6 0.247497 0.759226 0.653242
Si Si7 0.538062 0.973662 0.296556
Si Si8 0.689961 0.832825 0.141012
O O1 0.897554 0.538745 0.758781
O O2 0.908954 0.668504 0.709397
O O3 0.714903 0.979521 0.773993
O O4 0.185135 0.069383 0.959713
O O5 0.339418 0.786898 0.339491
O O6 0.924551 0.781594 0.197025
O O7 0.263801 0.091181 0.453907
O O8 0.500000 0.500000 0.500000
O O9 0.698517 0.065732 0.490320
O O10 0.710026 0.226058 0.454709
O O11 0.594003 0.443937 0.319833
O O12 0.472613 0.411440 0.800441
O O13 0.404345 0.937071 0.867481
O O14 0.500000 0.000000 0.000000
O O15 0.000000 0.500000 0.500000
O O16 0.359679 0.900283 0.682898
O O17 0.239592 0.035654 0.752220
O O18 0.500000 0.500000 0.000000
#
# Coordination Sequence:
#
# PCOD9106510 Si02
#       8
#     2   2   2   2   2   2   2   2
#     4  10  21  44  70  98 135 181 226 277 331 408
#     4  10  20  39  71  97 129 173 228 277 324 396
#     4   9  21  38  69 102 132 164 221 282 340 391
#     4  10  20  40  68 100 127 173 227 276 333 393
#     4  12  27  45  68  98 141 182 221 280 349 404
#     4  12  25  43  69  98 133 176 227 283 333 399
#     4  11  24  45  68 103 137 176 230 281 342 399
#     4  12  25  44  66  97 138 179 225 273 339 409
#
# _framework density 21.084620000000001
#
# number of rings (size 3 to 8) (size 9 to 14) (size 15 to 20)
#    0.000    1.250    3.750    1.875    1.750    3.000 
#    0.000    6.875    0.000    0.000    0.000    0.000 
#    0.000    0.000    0.000    0.000    0.000    0.000 
#
# Total GULP energy -89255.269352 kJ/mol
# GULP energy per Si atom -5578.454335 kJ/mol
# Density = 2.103663 g / cm^3
# Si number density = 21.084620 Si / 1000 Ang^3
#
#
#
# Elastic Constant Matrix: (Units=GPa)
#
#
# Indices 1 2 3 4 5 6 
#
# 1 81.7063 24.5123 28.0419 -4.8454 -0.2703 -8.2864
# 2 24.5123 116.4782 38.6968 0.3038 6.2045 -2.4942
# 3 28.0419 38.6968 103.9451 -5.6237 7.4790 -7.1894
# 4 -4.8454 0.3038 -5.6237 39.9638 -6.2380 2.7164
# 5 -0.2703 6.2045 7.4790 -6.2380 28.2074 -3.9392
# 6 -8.2864 -2.4942 -7.1894 2.7164 -3.9392 27.4601
#
#
#
# Elastic Compliance Matrix: (Units=1/GPa)
#
#
# Indices 1 2 3 4 5 6 
#
# 1 0.014319 -0.002087 -0.002920 0.001441 0.002183 0.003537
# 2 -0.002087 0.010167 -0.003200 -0.001003 -0.001727 -0.000693
# 3 -0.002920 -0.003200 0.011905 0.000918 -0.002060 0.001559
# 4 0.001441 -0.001003 0.000918 0.026296 0.005638 -0.001208
# 5 0.002183 -0.001727 -0.002060 0.005638 0.038330 0.004904
# 6 0.003537 -0.000693 0.001559 -0.001208 0.004904 0.038652
#
#
# Mechanical properties :
#
#
# Convention : Reuss Voigt Hill
#
# Bulk Modulus (GPa) = 50.05935 53.84794 51.95365
# Shear Modulus (GPa) = 30.72305 33.18483 31.95394
#
# Velocity S-wave (km/s) = 3.82138 3.97153 3.89718
# Velocity P-wave (km/s) = 6.57756 6.82826 6.70408
#
# Compressibility (1/GPa) = 0.01997629
#
# Stress axis : x y z
#
# Youngs Moduli (GPa) = 69.83784 98.35304 83.99653
#
# Poissons Ratio (x) = 0.20531 0.24529
# Poissons Ratio (y) = 0.14579 0.26878
# Poissons Ratio (z) = 0.20394 0.31472
#
# Static dielectric constant tensor:
#      x y z
#    x 1.769220 -0.086690 0.031770 
#    y -0.086690 1.888640 -0.079900 
#    z 0.031770 -0.079900 1.781180 
# 
# From -- ./inp_files/495558.got.cif
#   From: 2010.05.17/outbox.cif.g08.bks.cpg/sg2_248_cif.got.tgz:495558.got - 2010.06.03 11:33:40.
