data_PCOD9106003
_publ_section_title
;
Structure prediction by ZEFSAII (Michael W. Deem and Ramdas Pophale) SiO2 
 PCOD9106003
Probable space group: P -1
;
_chemical_formula_sum "Si O2"
_cell_formula_units_Z 16
_cell_length_a 9.076175
_cell_length_b 15.544842
_cell_length_c 15.440201
_cell_angle_alpha 142.981402
_cell_angle_beta 75.995294
_cell_angle_gamma 130.785297
_cell_volume 784.418740
_symmetry_space_group_name_H-M "P -1"
_symmetry_group_IT_number 2
_symmetry_cell_setting 'triclinic'
loop_
_space_group_symop_operation_xyz
x,y,z
-x,-y,-z
loop_
_atom_site_type_symbol
_atom_site_label
_atom_site_fract_x
_atom_site_fract_y
_atom_site_fract_z
Si Si1 0.567663 0.667812 0.312811
Si Si2 0.494012 0.288408 0.991202
Si Si3 0.966452 0.937881 0.332068
Si Si4 0.181429 0.075348 0.110002
Si Si5 0.012427 0.146707 0.330458
Si Si6 0.730805 0.420064 0.243363
Si Si7 0.881159 0.549719 0.012934
Si Si8 0.944891 0.612296 0.847549
O O1 0.452227 0.426593 0.119448
O O2 0.741647 0.829850 0.335541
O O3 0.341853 0.603910 0.314770
O O4 0.770194 0.807805 0.471096
O O5 0.693536 0.404839 0.131981
O O6 0.606392 0.344588 0.925678
O O7 0.243029 0.012813 0.812357
O O8 0.977306 0.775599 0.212682
O O9 0.936069 0.963032 0.259009
O O10 0.197577 0.215447 0.290290
O O11 0.449931 0.229068 0.162070
O O12 0.000000 0.000000 0.000000
O O13 0.061364 0.847231 0.988050
O O14 0.115920 0.347984 0.538139
O O15 0.877418 0.381532 0.205557
O O16 0.917768 0.579562 0.929169
O O17 0.000000 0.500000 0.000000
#
# Coordination Sequence:
#
# PCOD9106003 Si02
#       8
#     2   2   2   2   2   2   2   2
#     4  10  20  39  66  99 135 179 225 275 328 417
#     4  11  21  42  70  98 138 174 229 272 333 420
#     4  10  21  37  68 103 133 179 234 269 331 418
#     4  12  25  48  74  94 131 188 238 279 333 401
#     4  12  23  43  73  99 127 183 233 280 338 398
#     4  12  26  44  67 105 138 173 230 290 337 399
#     4  11  22  39  66 101 140 179 214 275 348 408
#     4  12  24  44  69 100 142 180 218 286 353 389
#
# _framework density 20.397269000000001
#
# number of rings (size 3 to 8) (size 9 to 14) (size 15 to 20)
#    0.000    0.750    6.250    1.500    0.000    3.000 
#    0.000    2.500    0.000    0.000    0.000    0.000 
#    0.000    0.000    0.000    0.000    0.000    0.000 
#
# Total GULP energy -89246.081209 kJ/mol
# GULP energy per Si atom -5577.880076 kJ/mol
# Density = 2.035084 g / cm^3
# Si number density = 20.397269 Si / 1000 Ang^3
#
#
#
# Elastic Constant Matrix: (Units=GPa)
#
#
# Indices 1 2 3 4 5 6 
#
# 1 127.0654 37.2404 49.7866 6.3691 0.0879 18.1355
# 2 37.2404 66.3515 29.7733 -1.3174 -5.5992 10.8250
# 3 49.7866 29.7733 111.4658 4.0238 13.3831 10.3423
# 4 6.3691 -1.3174 4.0238 26.8221 3.7665 5.3735
# 5 0.0879 -5.5992 13.3831 3.7665 25.5448 2.0328
# 6 18.1355 10.8250 10.3423 5.3735 2.0328 39.6571
#
#
#
# Elastic Compliance Matrix: (Units=1/GPa)
#
#
# Indices 1 2 3 4 5 6 
#
# 1 0.010971 -0.003948 -0.003703 -0.001900 0.001539 -0.002795
# 2 -0.003948 0.020329 -0.004239 0.002302 0.006613 -0.003289
# 3 -0.003703 -0.004239 0.012671 -0.000164 -0.007527 -0.000046
# 4 -0.001900 0.002302 -0.000164 0.039518 -0.004846 -0.004823
# 5 0.001539 0.006613 -0.007527 -0.004846 0.045426 -0.002218
# 6 -0.002795 -0.003289 -0.000046 -0.004823 -0.002218 0.028172
#
#
# Mechanical properties :
#
#
# Convention : Reuss Voigt Hill
#
# Bulk Modulus (GPa) = 49.52123 59.83147 54.67635
# Shear Modulus (GPa) = 26.65302 30.94362 28.79832
#
# Velocity S-wave (km/s) = 3.61875 3.89915 3.76156
# Velocity P-wave (km/s) = 6.46463 7.04755 6.76238
#
# Compressibility (1/GPa) = 0.02019336
#
# Stress axis : x y z
#
# Youngs Moduli (GPa) = 91.15069 49.19005 78.91898
#
# Poissons Ratio (x) = 0.19420 0.29220
# Poissons Ratio (y) = 0.35985 0.33451
# Poissons Ratio (z) = 0.33749 0.20850
#
# Static dielectric constant tensor:
#      x y z
#    x 1.757820 0.004090 0.027360 
#    y 0.004090 1.758460 -0.004980 
#    z 0.027360 -0.004980 1.733080 
# 
# From -- ./inp_files/378738.got.cif
#   From: 2010.05.17/outbox.cif.g08.bks.cpg/sg2_190_cif.got.tgz:378738.got - 2010.06.03 11:33:40.
