data_PCOD9106444
_publ_section_title
;
Structure prediction by ZEFSAII (Michael W. Deem and Ramdas Pophale) SiO2 
 PCOD9106444
Probable space group: P -1
;
_chemical_formula_sum "Si O2"
_cell_formula_units_Z 16
_cell_length_a 16.481787
_cell_length_b 12.699123
_cell_length_c 8.696217
_cell_angle_alpha 97.200622
_cell_angle_beta 108.728108
_cell_angle_gamma 25.399393
_cell_volume 675.876500
_symmetry_space_group_name_H-M "P -1"
_symmetry_group_IT_number 2
_symmetry_cell_setting 'triclinic'
loop_
_space_group_symop_operation_xyz
x,y,z
-x,-y,-z
loop_
_atom_site_type_symbol
_atom_site_label
_atom_site_fract_x
_atom_site_fract_y
_atom_site_fract_z
Si Si1 0.823202 0.921021 0.255709
Si Si2 0.624959 0.496049 0.069586
Si Si3 0.316929 0.344774 0.752857
Si Si4 0.385012 0.644740 0.211883
Si Si5 0.962358 0.525151 0.304479
Si Si6 0.634064 0.195035 0.497958
Si Si7 0.719928 0.582745 0.619432
Si Si8 0.239053 0.242922 0.169867
O O1 0.864785 0.748443 0.232008
O O2 0.031540 0.739924 0.272965
O O3 0.809998 0.956682 0.437622
O O4 0.602311 0.210178 0.095447
O O5 0.735282 0.479168 0.184560
O O6 0.559950 0.506123 0.185181
O O7 0.736589 0.291515 0.975165
O O8 0.194175 0.396647 0.787401
O O9 0.281747 0.377125 0.552543
O O10 0.572455 0.028373 0.855987
O O11 0.504411 0.430549 0.363191
O O12 0.281628 0.850340 0.299457
O O13 0.000000 0.500000 0.500000
O O14 0.190636 0.246607 0.307809
O O15 0.459007 0.302316 0.442940
O O16 0.695474 0.710324 0.743284
O O17 0.000000 0.500000 0.000000
#
# Coordination Sequence:
#
# PCOD9106444 Si02
#       8
#     2   2   2   2   2   2   2   2
#     4  10  22  39  61  92 128 158 200 256 306 363
#     4  10  21  40  64  88 124 162 200 260 322 357
#     4  12  22  38  68  88 124 174 203 247 306 367
#     4   9  20  40  64  90 118 157 207 262 317 358
#     4  11  23  39  60  94 130 161 210 247 290 374
#     4  10  20  39  70  88 116 163 208 255 308 369
#     4  11  22  38  62  95 122 160 210 245 302 375
#     4  11  25  40  60  95 132 162 203 255 301 363
#
# _framework density 23.672965999999999
#
# number of rings (size 3 to 8) (size 9 to 14) (size 15 to 20)
#    0.000    1.500    3.750    2.625    1.750    4.000 
#    0.000    6.250    0.000    0.000    0.000    0.000 
#    0.000    0.000    0.000    0.000    0.000    0.000 
#
# Total GULP energy -89377.378024 kJ/mol
# GULP energy per Si atom -5586.086127 kJ/mol
# Density = 2.361908 g / cm^3
# Si number density = 23.672966 Si / 1000 Ang^3
#
#
#
# Elastic Constant Matrix: (Units=GPa)
#
#
# Indices 1 2 3 4 5 6 
#
# 1 140.8966 59.5955 24.5871 18.4290 18.4760 7.5103
# 2 59.5955 59.0829 19.1063 24.5541 9.9770 -10.6554
# 3 24.5871 19.1063 94.1130 27.7151 19.5203 13.8279
# 4 18.4290 24.5541 27.7151 51.6286 12.0025 1.3000
# 5 18.4760 9.9770 19.5203 12.0025 35.4805 7.7367
# 6 7.5103 -10.6554 13.8279 1.3000 7.7367 22.8662
#
#
#
# Elastic Compliance Matrix: (Units=1/GPa)
#
#
# Indices 1 2 3 4 5 6 
#
# 1 0.016380 -0.021455 0.001433 0.004278 -0.001228 -0.016072
# 2 -0.021455 0.054223 -0.005693 -0.015070 -0.004134 0.038012
# 3 0.001433 -0.005693 0.015149 -0.004856 -0.003475 -0.010833
# 4 0.004278 -0.015070 -0.004856 0.028630 -0.003726 -0.005858
# 5 -0.001228 -0.004134 -0.003475 -0.003726 0.035614 -0.011260
# 6 -0.016072 0.038012 -0.010833 -0.005858 -0.011260 0.077418
#
#
# Mechanical properties :
#
#
# Convention : Reuss Voigt Hill
#
# Bulk Modulus (GPa) = 29.13480 55.63001 42.38240
# Shear Modulus (GPa) = 17.22443 34.71531 25.96987
#
# Velocity S-wave (km/s) = 2.70033 3.83358 3.31573
# Velocity P-wave (km/s) = 4.69641 6.56853 5.70972
#
# Compressibility (1/GPa) = 0.03432321
#
# Stress axis : x y z
#
# Youngs Moduli (GPa) = 61.04910 18.44229 66.00934
#
# Poissons Ratio (x) = 0.39567 -0.09456
# Poissons Ratio (y) = 1.30978 0.37578
# Poissons Ratio (z) = -0.08745 0.10499
#
# Static dielectric constant tensor:
#      x y z
#    x 1.843530 0.034260 0.013480 
#    y 0.034260 1.932380 0.008140 
#    z 0.013480 0.008140 2.016020 
# 
# From -- ./inp_files/218409.got.cif
#   From: 2010.05.17/outbox.cif.g08.bks.cpg/sg2_110_cif.got.tgz:218409.got - 2010.06.03 11:33:40.
