data_PCOD9106555
_publ_section_title
;
Structure prediction by ZEFSAII (Michael W. Deem and Ramdas Pophale) SiO2 
 PCOD9106555
Probable space group: P -1
;
_chemical_formula_sum "Si O2"
_cell_formula_units_Z 16
_cell_length_a 7.896349
_cell_length_b 6.537459
_cell_length_c 19.823493
_cell_angle_alpha 102.025028
_cell_angle_beta 43.371734
_cell_angle_gamma 85.834544
_cell_volume 647.949871
_symmetry_space_group_name_H-M "P -1"
_symmetry_group_IT_number 2
_symmetry_cell_setting 'triclinic'
loop_
_space_group_symop_operation_xyz
x,y,z
-x,-y,-z
loop_
_atom_site_type_symbol
_atom_site_label
_atom_site_fract_x
_atom_site_fract_y
_atom_site_fract_z
Si Si1 0.430683 0.287404 0.907396
Si Si2 0.621428 0.207638 0.705977
Si Si3 0.155631 0.796969 0.747992
Si Si4 0.319078 0.843728 0.039369
Si Si5 0.544493 0.229495 0.153333
Si Si6 0.721326 0.474093 0.568541
Si Si7 0.980660 0.783503 0.647665
Si Si8 0.113951 0.521701 0.852061
O O1 0.575716 0.325035 0.800992
O O2 0.407596 0.039457 0.881482
O O3 0.609617 0.282590 0.919775
O O4 0.141851 0.430584 0.025935
O O5 0.701148 0.313582 0.624084
O O6 0.311677 0.271352 0.782877
O O7 0.830708 0.974115 0.649889
O O8 0.064455 0.849017 0.700724
O O9 0.469654 0.697528 0.655891
O O10 0.067825 0.597467 0.792891
O O11 0.978749 0.002285 0.857079
O O12 0.394408 0.726645 0.938416
O O13 0.500000 0.000000 0.000000
O O14 0.733839 0.315376 0.151007
O O15 0.752989 0.681944 0.726534
O O16 0.000000 0.500000 0.500000
O O17 0.759832 0.364175 0.475915
#
# Coordination Sequence:
#
# PCOD9106555 Si02
#       8
#     2   2   2   2   2   2   2   2
#     4  10  18  34  58  83 122 159 194 233 287 355
#     4  10  22  37  59  84 121 157 193 243 296 353
#     4  11  20  36  64  88 114 158 201 233 287 360
#     4  10  16  34  58  89 121 153 194 231 284 360
#     4  10  19  32  61  91 121 155 194 242 286 339
#     4  11  25  43  63  89 113 146 206 263 290 336
#     4  11  20  41  64  84 116 162 198 237 294 351
#     4  11  20  33  56  97 125 153 193 241 287 345
#
# _framework density 24.693269999999998
#
# number of rings (size 3 to 8) (size 9 to 14) (size 15 to 20)
#    0.000    1.500    6.250    3.000    0.000    0.000 
#    0.000    1.250    0.000   18.000    0.000    0.000 
#    0.000    0.000    0.000    0.000    0.000    0.000 
#
# Total GULP energy -89255.636070 kJ/mol
# GULP energy per Si atom -5578.477254 kJ/mol
# Density = 2.463707 g / cm^3
# Si number density = 24.693270 Si / 1000 Ang^3
#
#
#
# Elastic Constant Matrix: (Units=GPa)
#
#
# Indices 1 2 3 4 5 6 
#
# 1 85.6175 47.2065 43.9546 -8.6746 -19.9558 -11.2000
# 2 47.2065 79.7700 38.8212 -15.2949 -10.5119 -24.1964
# 3 43.9546 38.8212 196.7343 -11.9903 -17.6443 -8.8085
# 4 -8.6746 -15.2949 -11.9903 47.6803 -12.1247 1.0589
# 5 -19.9558 -10.5119 -17.6443 -12.1247 49.6921 0.5880
# 6 -11.2000 -24.1964 -8.8085 1.0589 0.5880 45.5178
#
#
#
# Elastic Compliance Matrix: (Units=1/GPa)
#
#
# Indices 1 2 3 4 5 6 
#
# 1 0.019324 -0.009878 -0.001856 0.001257 0.005329 -0.000954
# 2 -0.009878 0.023252 -0.001472 0.005503 0.001659 0.009495
# 3 -0.001856 -0.001472 0.005963 0.001026 0.001312 -0.000126
# 4 0.001257 0.005503 0.001026 0.025239 0.008159 0.002740
# 5 0.005329 0.001659 0.001312 0.008159 0.025049 0.001934
# 6 -0.000954 0.009495 -0.000126 0.002740 0.001934 0.026669
#
#
# Mechanical properties :
#
#
# Convention : Reuss Voigt Hill
#
# Bulk Modulus (GPa) = 45.19580 69.12071 57.15825
# Shear Modulus (GPa) = 31.39041 44.05401 37.72221
#
# Velocity S-wave (km/s) = 3.56928 4.22838 3.91273
# Velocity P-wave (km/s) = 5.94381 7.20357 6.60380
#
# Compressibility (1/GPa) = 0.02212595
#
# Stress axis : x y z
#
# Youngs Moduli (GPa) = 51.74871 43.00677 167.70746
#
# Poissons Ratio (x) = 0.42483 0.31131
# Poissons Ratio (y) = 0.51119 0.24686
# Poissons Ratio (z) = 0.09606 0.06330
#
# Static dielectric constant tensor:
#      x y z
#    x 1.995070 -0.025080 0.055820 
#    y -0.025080 2.262170 0.021940 
#    z 0.055820 0.021940 2.012660 
# 
# From -- ./inp_files/555367.got.cif
#   From: 2010.05.17/outbox.cif.g08.bks.cpg/sg2_278_cif.got.tgz:555367.got - 2010.06.03 11:33:40.
