data_PCOD9106352
_publ_section_title
;
Structure prediction by ZEFSAII (Michael W. Deem and Ramdas Pophale) SiO2 
 PCOD9106352
Probable space group: P -1
;
_chemical_formula_sum "Si O2"
_cell_formula_units_Z 16
_cell_length_a 7.620698
_cell_length_b 11.622241
_cell_length_c 20.938753
_cell_angle_alpha 39.972417
_cell_angle_beta 38.758849
_cell_angle_gamma 39.143530
_cell_volume 668.858182
_symmetry_space_group_name_H-M "P -1"
_symmetry_group_IT_number 2
_symmetry_cell_setting 'triclinic'
loop_
_space_group_symop_operation_xyz
x,y,z
-x,-y,-z
loop_
_atom_site_type_symbol
_atom_site_label
_atom_site_fract_x
_atom_site_fract_y
_atom_site_fract_z
Si Si1 0.522310 0.574530 0.070942
Si Si2 0.506302 0.439782 0.367311
Si Si3 0.856050 0.754461 0.363791
Si Si4 0.737006 0.982015 0.998253
Si Si5 0.602674 0.028854 0.785409
Si Si6 0.942964 0.361601 0.159418
Si Si7 0.342978 0.400766 0.630806
Si Si8 0.399343 0.836380 0.809949
O O1 0.713210 0.504589 0.111829
O O2 0.428886 0.396426 0.159195
O O3 0.298509 0.806370 0.051669
O O4 0.775298 0.572678 0.947636
O O5 0.356857 0.308620 0.501452
O O6 0.727652 0.355681 0.280090
O O7 0.744534 0.464635 0.339357
O O8 0.205171 0.642045 0.341921
O O9 0.872487 0.654633 0.330937
O O10 0.691348 0.990870 0.292792
O O11 0.669910 0.879689 0.123337
O O12 0.500000 0.000000 0.000000
O O13 0.073411 0.868944 0.920424
O O14 0.559663 0.899884 0.794858
O O15 0.882840 0.868615 0.814802
O O16 0.617987 0.201326 0.666839
O O17 0.500000 0.500000 0.500000
#
# Coordination Sequence:
#
# PCOD9106352 Si02
#       8
#     2   2   2   2   2   2   2   2
#     4  10  23  39  61  93 132 160 211 264 317 381
#     4  10  20  39  69  85 124 167 216 268 316 380
#     4   9  21  39  62  96 118 167 220 259 320 381
#     4  11  23  39  65  94 124 171 214 257 321 388
#     4  10  23  39  60  91 125 167 210 258 326 383
#     4  10  21  39  57  92 119 165 207 252 320 383
#     4   9  20  39  62  88 122 160 212 268 306 377
#     4  11  22  41  61  89 136 162 207 270 318 380
#
# _framework density 23.921362999999999
#
# number of rings (size 3 to 8) (size 9 to 14) (size 15 to 20)
#    0.000    2.000    0.000    3.375    7.000    2.000 
#    6.750    6.250    2.750    0.000    0.000    0.000 
#    0.000    0.000    0.000    0.000    0.000    0.000 
#
# Total GULP energy -89148.548331 kJ/mol
# GULP energy per Si atom -5571.784271 kJ/mol
# Density = 2.386692 g / cm^3
# Si number density = 23.921363 Si / 1000 Ang^3
#
#
#
# Elastic Constant Matrix: (Units=GPa)
#
#
# Indices 1 2 3 4 5 6 
#
# 1 88.2056 19.0790 11.4524 -4.8240 -7.1510 16.2808
# 2 19.0790 57.4035 59.7662 -4.9913 -0.4754 6.0875
# 3 11.4524 59.7662 133.9970 -18.0015 17.8412 -8.7301
# 4 -4.8240 -4.9913 -18.0015 42.9748 -9.5981 0.8348
# 5 -7.1510 -0.4754 17.8412 -9.5981 32.2284 -5.4943
# 6 16.2808 6.0875 -8.7301 0.8348 -5.4943 32.7466
#
#
#
# Elastic Compliance Matrix: (Units=1/GPa)
#
#
# Indices 1 2 3 4 5 6 
#
# 1 0.013478 -0.003807 0.000092 0.001766 0.002455 -0.005602
# 2 -0.003807 0.039710 -0.019347 -0.001882 0.008322 -0.009203
# 3 0.000092 -0.019347 0.018066 0.003393 -0.008075 0.006926
# 4 0.001766 -0.001882 0.003393 0.026082 0.006387 0.000783
# 5 0.002455 0.008322 -0.008075 0.006387 0.038297 0.001343
# 6 -0.005602 -0.009203 0.006926 0.000783 0.001343 0.037085
#
#
# Mechanical properties :
#
#
# Convention : Reuss Voigt Hill
#
# Bulk Modulus (GPa) = 39.79255 51.13348 45.46301
# Shear Modulus (GPa) = 22.00506 34.21056 28.10781
#
# Velocity S-wave (km/s) = 3.03626 3.78580 3.43156
# Velocity P-wave (km/s) = 5.38170 6.36646 5.89468
#
# Compressibility (1/GPa) = 0.02513033
#
# Stress axis : x y z
#
# Youngs Moduli (GPa) = 74.19294 25.18247 55.35124
#
# Poissons Ratio (x) = 0.09587 -0.00507
# Poissons Ratio (y) = 0.28246 1.07087
# Poissons Ratio (z) = -0.00679 0.48720
#
# Static dielectric constant tensor:
#      x y z
#    x 2.006630 0.055950 -0.034220 
#    y 0.055950 1.938940 -0.028330 
#    z -0.034220 -0.028330 1.911570 
# 
# From -- ./inp_files/588939.got.cif
#   From: 2010.05.17/outbox.cif.g08.bks.cpg/sg2_295_cif.got.tgz:588939.got - 2010.06.03 11:33:40.
