data_PCOD9106427
_publ_section_title
;
Structure prediction by ZEFSAII (Michael W. Deem and Ramdas Pophale) SiO2 
 PCOD9106427
Probable space group: P -1
;
_chemical_formula_sum "Si O2"
_cell_formula_units_Z 16
_cell_length_a 12.225021
_cell_length_b 10.935788
_cell_length_c 14.471540
_cell_angle_alpha 75.992777
_cell_angle_beta 149.737846
_cell_angle_gamma 124.342807
_cell_volume 650.388924
_symmetry_space_group_name_H-M "P -1"
_symmetry_group_IT_number 2
_symmetry_cell_setting 'triclinic'
loop_
_space_group_symop_operation_xyz
x,y,z
-x,-y,-z
loop_
_atom_site_type_symbol
_atom_site_label
_atom_site_fract_x
_atom_site_fract_y
_atom_site_fract_z
Si Si1 0.826378 0.569239 0.254810
Si Si2 0.855237 0.705868 0.554489
Si Si3 0.789962 0.220347 0.681357
Si Si4 0.564134 0.203955 0.077305
Si Si5 0.182880 0.020402 0.996034
Si Si6 0.038809 0.139369 0.589259
Si Si7 0.335732 0.153954 0.487940
Si Si8 0.706589 0.706238 0.845952
O O1 0.736683 0.386392 0.228724
O O2 0.928429 0.699018 0.389607
O O3 0.093232 0.688465 0.349518
O O4 0.500000 0.500000 0.000000
O O5 0.919501 0.834057 0.494956
O O6 0.726276 0.732192 0.541107
O O7 0.598240 0.494758 0.374706
O O8 0.184023 0.772878 0.797085
O O9 0.654013 0.268521 0.642692
O O10 0.500000 0.000000 0.500000
O O11 0.102720 0.297644 0.941990
O O12 0.399616 0.056475 0.066922
O O13 0.319161 0.173517 0.836052
O O14 0.340681 0.180561 0.156317
O O15 0.939466 0.997289 0.758477
O O16 0.955543 0.834429 0.921689
O O17 0.724911 0.961343 0.447112
#
# Coordination Sequence:
#
# PCOD9106427 Si02
#       8
#     2   2   2   2   2   2   2   2
#     4  10  20  39  70 103 130 168 229 287 325 390
#     4  12  27  44  68 104 143 176 228 282 339 409
#     4  12  22  42  74  96 132 184 224 277 348 394
#     4  10  23  42  69  99 136 185 218 283 351 385
#     4  10  23  44  67  96 137 174 233 277 329 414
#     4  10  21  43  69 100 136 178 235 279 326 414
#     4  11  25  45  68 100 138 183 224 275 344 411
#     4  11  24  42  65 104 133 171 229 289 330 406
#
# _framework density 24.600664999999999
#
# number of rings (size 3 to 8) (size 9 to 14) (size 15 to 20)
#    0.000    1.250    2.500    4.125    3.500    5.000 
#    2.250    0.000    0.000    0.000    0.000    0.000 
#    0.000    0.000    0.000    0.000    0.000    0.000 
#
# Total GULP energy -89494.458534 kJ/mol
# GULP energy per Si atom -5593.403658 kJ/mol
# Density = 2.454467 g / cm^3
# Si number density = 24.600665 Si / 1000 Ang^3
#
#
#
# Elastic Constant Matrix: (Units=GPa)
#
#
# Indices 1 2 3 4 5 6 
#
# 1 152.8807 37.5552 38.9099 7.3985 17.9231 -6.2011
# 2 37.5552 74.4728 31.7447 12.9240 -1.1793 5.1669
# 3 38.9099 31.7447 97.4368 -0.7120 9.6903 -5.5608
# 4 7.3985 12.9240 -0.7120 43.6017 -3.2054 0.9132
# 5 17.9231 -1.1793 9.6903 -3.2054 35.5533 1.9648
# 6 -6.2011 5.1669 -5.5608 0.9132 1.9648 32.0415
#
#
#
# Elastic Compliance Matrix: (Units=1/GPa)
#
#
# Indices 1 2 3 4 5 6 
#
# 1 0.008471 -0.003656 -0.001660 -0.000730 -0.004127 0.002215
# 2 -0.003656 0.018735 -0.005323 -0.004644 0.003759 -0.004751
# 3 -0.001660 -0.005323 0.013132 0.001798 -0.002919 0.002944
# 4 -0.000730 -0.004644 0.001798 0.024605 0.001937 0.000099
# 5 -0.004127 0.003759 -0.002919 0.001937 0.031518 -0.003900
# 6 0.002215 -0.004751 0.002944 0.000099 -0.003900 0.033151
#
#
# Mechanical properties :
#
#
# Convention : Reuss Voigt Hill
#
# Bulk Modulus (GPa) = 52.46669 60.13443 56.30056
# Shear Modulus (GPa) = 31.79778 36.67802 34.23790
#
# Velocity S-wave (km/s) = 3.59912 3.86545 3.73466
# Velocity P-wave (km/s) = 6.21652 6.66480 6.44456
#
# Compressibility (1/GPa) = 0.01905971
#
# Stress axis : x y z
#
# Youngs Moduli (GPa) = 118.05320 53.37462 76.15230
#
# Poissons Ratio (x) = 0.19516 0.12640
# Poissons Ratio (y) = 0.43164 0.40534
# Poissons Ratio (z) = 0.19596 0.28410
#
# Static dielectric constant tensor:
#      x y z
#    x 2.000470 -0.016820 -0.030640 
#    y -0.016820 2.027820 -0.001690 
#    z -0.030640 -0.001690 2.019780 
# 
# From -- ./inp_files/519690.got.cif
#   From: 2010.05.17/outbox.cif.g08.bks.cpg/sg2_260_cif.got.tgz:519690.got - 2010.06.03 11:33:40.
