data_PCOD9106549
_publ_section_title
;
Structure prediction by ZEFSAII (Michael W. Deem and Ramdas Pophale) SiO2 
 PCOD9106549
Probable space group: P -1
;
_chemical_formula_sum "Si O2"
_cell_formula_units_Z 16
_cell_length_a 20.642231
_cell_length_b 5.784678
_cell_length_c 9.075721
_cell_angle_alpha 121.956812
_cell_angle_beta 131.937530
_cell_angle_gamma 77.104434
_cell_volume 669.183270
_symmetry_space_group_name_H-M "P -1"
_symmetry_group_IT_number 2
_symmetry_cell_setting 'triclinic'
loop_
_space_group_symop_operation_xyz
x,y,z
-x,-y,-z
loop_
_atom_site_type_symbol
_atom_site_label
_atom_site_fract_x
_atom_site_fract_y
_atom_site_fract_z
Si Si1 0.304371 0.260138 0.424285
Si Si2 0.473723 0.706248 0.786839
Si Si3 0.070946 0.206779 0.778708
Si Si4 0.426225 0.862664 0.461705
Si Si5 0.188297 0.394596 0.543689
Si Si6 0.987877 0.288013 0.270232
Si Si7 0.242058 0.029871 0.931339
Si Si8 0.346941 0.367228 0.986073
O O1 0.374978 0.548740 0.616557
O O2 0.222238 0.325027 0.411946
O O3 0.368548 0.063762 0.518122
O O4 0.275083 0.117860 0.174982
O O5 0.474908 0.734157 0.621950
O O6 0.555504 0.569179 0.914654
O O7 0.500000 0.000000 0.000000
O O8 0.167244 0.213697 0.855679
O O9 0.050832 0.519375 0.845036
O O10 0.000000 0.000000 0.500000
O O11 0.064855 0.015289 0.854194
O O12 0.353464 0.630836 0.190686
O O13 0.500000 0.000000 0.500000
O O14 0.086047 0.251081 0.362138
O O15 0.195753 0.715927 0.713137
O O16 0.265008 0.312582 0.733499
O O17 0.000000 0.500000 0.500000
O O18 0.325914 0.106615 0.976337
#
# Coordination Sequence:
#
# PCOD9106549 Si02
#       8
#     2   2   2   2   2   2   2   2
#     4  12  27  45  65 106 139 178 241 293 349 423
#     4  12  26  44  64  94 141 184 232 289 354 421
#     4  10  20  39  74 100 139 188 238 286 367 444
#     4  12  24  43  68  94 132 188 237 285 346 424
#     4  12  26  42  72 103 138 181 236 295 358 426
#     4  10  20  42  70 105 139 188 239 291 362 449
#     4  12  24  44  71 100 139 182 232 297 355 423
#     4  12  24  41  70  96 132 190 233 286 358 419
#
# _framework density 23.909742000000001
#
# number of rings (size 3 to 8) (size 9 to 14) (size 15 to 20)
#    0.000    0.500    6.250    4.125    1.750    1.000 
#    0.000    1.250    0.000    0.000    0.000    0.000 
#    0.000    0.000    0.000    0.000    0.000    0.000 
#
# Total GULP energy -89308.183363 kJ/mol
# GULP energy per Si atom -5581.761460 kJ/mol
# Density = 2.385532 g / cm^3
# Si number density = 23.909742 Si / 1000 Ang^3
#
#
#
# Elastic Constant Matrix: (Units=GPa)
#
#
# Indices 1 2 3 4 5 6 
#
# 1 109.5165 13.2702 8.4402 0.8142 17.7591 -12.0393
# 2 13.2702 77.5439 17.1189 2.3714 -2.5296 -4.1093
# 3 8.4402 17.1189 65.1692 3.2523 -2.8338 -8.0568
# 4 0.8142 2.3714 3.2523 32.3296 -8.6504 10.2569
# 5 17.7591 -2.5296 -2.8338 -8.6504 37.2129 1.6159
# 6 -12.0393 -4.1093 -8.0568 10.2569 1.6159 34.9392
#
#
#
# Elastic Compliance Matrix: (Units=1/GPa)
#
#
# Indices 1 2 3 4 5 6 
#
# 1 0.010938 -0.001613 -0.000520 -0.003300 -0.006341 0.004721
# 2 -0.001613 0.013986 -0.003339 -0.000406 0.001355 0.000376
# 3 -0.000520 -0.003339 0.016946 -0.002597 0.000531 0.004073
# 4 -0.003300 -0.000406 -0.002597 0.038536 0.010898 -0.013600
# 5 -0.006341 0.001355 0.000531 0.010898 0.032852 -0.006622
# 6 0.004721 0.000376 0.004073 -0.013600 -0.006622 0.035530
#
#
# Mechanical properties :
#
#
# Convention : Reuss Voigt Hill
#
# Bulk Modulus (GPa) = 32.33669 36.65424 34.49547
# Shear Modulus (GPa) = 29.40459 35.12303 32.26381
#
# Velocity S-wave (km/s) = 3.51068 3.83689 3.67740
# Velocity P-wave (km/s) = 5.47604 5.91545 5.69998
#
# Compressibility (1/GPa) = 0.03092462
#
# Stress axis : x y z
#
# Youngs Moduli (GPa) = 91.42060 71.50183 59.01270
#
# Poissons Ratio (x) = 0.11532 0.03071
# Poissons Ratio (y) = 0.14744 0.19706
# Poissons Ratio (z) = 0.04758 0.23877
#
# Static dielectric constant tensor:
#      x y z
#    x 1.965160 0.051290 -0.054070 
#    y 0.051290 2.100740 -0.099250 
#    z -0.054070 -0.099250 2.114960 
# 
# From -- ./inp_files/52585.got.cif
#   From: 2010.05.17/outbox.cif.g08.bks.cpg/sg2_27_cif.got.tgz:52585.got - 2010.06.03 11:33:40.
