data_PCOD9106835
_publ_section_title
;
Structure prediction by ZEFSAII (Michael W. Deem and Ramdas Pophale) SiO2 
 PCOD9106835
Probable space group: P -1
;
_chemical_formula_sum "Si O2"
_cell_formula_units_Z 16
_cell_length_a 20.216735
_cell_length_b 15.860461
_cell_length_c 8.966736
_cell_angle_alpha 79.680783
_cell_angle_beta 67.506325
_cell_angle_gamma 19.570570
_cell_volume 721.047347
_symmetry_space_group_name_H-M "P -1"
_symmetry_group_IT_number 2
_symmetry_cell_setting 'triclinic'
loop_
_space_group_symop_operation_xyz
x,y,z
-x,-y,-z
loop_
_atom_site_type_symbol
_atom_site_label
_atom_site_fract_x
_atom_site_fract_y
_atom_site_fract_z
Si Si1 0.564365 0.314988 0.875343
Si Si2 0.760186 0.901866 0.803719
Si Si3 0.755469 0.275947 0.730841
Si Si4 0.552910 0.311579 0.402995
Si Si5 0.804386 0.845816 0.440081
Si Si6 0.796396 0.707911 0.239597
Si Si7 0.772570 0.236937 0.230562
Si Si8 0.420488 0.151170 0.160875
O O1 0.723859 0.213178 0.828400
O O2 0.483951 0.443117 0.743941
O O3 0.715590 0.053668 0.812551
O O4 0.298837 0.610059 0.106517
O O5 0.713654 0.929600 0.661324
O O6 0.046247 0.547026 0.727767
O O7 0.552873 0.089454 0.024487
O O8 0.520007 0.587892 0.737342
O O9 0.000000 0.000000 0.500000
O O10 0.749002 0.164548 0.314204
O O11 0.283021 0.640393 0.618712
O O12 0.668732 0.087858 0.419591
O O13 0.764260 0.819451 0.356193
O O14 0.111001 0.508878 0.308104
O O15 0.542035 0.982775 0.269902
O O16 0.000000 0.500000 0.000000
O O17 0.000000 0.000000 0.000000
O O18 0.500000 0.000000 0.000000
#
# Coordination Sequence:
#
# PCOD9106835 Si02
#       8
#     2   2   2   2   2   2   2   2
#     4  10  22  39  62  97 128 171 223 269 335 392
#     4  11  24  44  68 100 139 174 230 288 333 409
#     4  10  22  41  64  91 137 176 218 278 330 398
#     4  10  23  37  63  97 128 171 224 271 332 401
#     4  12  24  45  68 100 138 176 229 285 337 406
#     4  10  23  45  70  98 135 175 223 286 336 403
#     4  10  20  40  61  90 128 169 213 270 331 396
#     4  11  25  45  71  98 132 184 224 274 354 400
#
# _framework density 22.189941999999999
#
# number of rings (size 3 to 8) (size 9 to 14) (size 15 to 20)
#    0.000    1.500    3.750    1.125    5.250    1.500 
#    0.000    0.000    0.000    0.000    0.000    0.000 
#    0.000    0.000    0.000    0.000    0.000    0.000 
#
# Total GULP energy -89205.990080 kJ/mol
# GULP energy per Si atom -5575.374380 kJ/mol
# Density = 2.213944 g / cm^3
# Si number density = 22.189942 Si / 1000 Ang^3
#
#
#
# Elastic Constant Matrix: (Units=GPa)
#
#
# Indices 1 2 3 4 5 6 
#
# 1 86.8456 65.1224 35.1652 -5.1835 19.1711 4.9088
# 2 65.1224 116.2864 30.9344 -25.4529 19.6149 5.6101
# 3 35.1652 30.9344 125.5860 -0.4199 8.1321 3.4326
# 4 -5.1835 -25.4529 -0.4199 34.2979 -8.8637 3.6650
# 5 19.1711 19.6149 8.1321 -8.8637 41.2675 -3.1952
# 6 4.9088 5.6101 3.4326 3.6650 -3.1952 43.7521
#
#
#
# Elastic Compliance Matrix: (Units=1/GPa)
#
#
# Indices 1 2 3 4 5 6 
#
# 1 0.023202 -0.012852 -0.002971 -0.007494 -0.005734 -0.000513
# 2 -0.012852 0.018858 -0.000930 0.012159 -0.000349 -0.001947
# 3 -0.002971 -0.000930 0.009038 -0.001061 -0.000201 -0.000182
# 4 -0.007494 0.012159 -0.001061 0.038957 0.006011 -0.003459
# 5 -0.005734 -0.000349 -0.000201 0.006011 0.028570 0.002287
# 6 -0.000513 -0.001947 -0.000182 -0.003459 0.002287 0.023634
#
#
# Mechanical properties :
#
#
# Convention : Reuss Voigt Hill
#
# Bulk Modulus (GPa) = 56.84026 65.68467 61.26246
# Shear Modulus (GPa) = 27.52857 37.02988 32.27922
#
# Velocity S-wave (km/s) = 3.52602 4.08949 3.81816
# Velocity P-wave (km/s) = 6.49985 7.20860 6.86338
#
# Compressibility (1/GPa) = 0.01759316
#
# Stress axis : x y z
#
# Youngs Moduli (GPa) = 43.09943 53.02720 110.64275
#
# Poissons Ratio (x) = 0.68149 0.32871
# Poissons Ratio (y) = 0.55390 0.10291
# Poissons Ratio (z) = 0.12804 0.04932
#
# Static dielectric constant tensor:
#      x y z
#    x 1.931220 -0.080660 0.008360 
#    y -0.080660 1.608970 0.054880 
#    z 0.008360 0.054880 1.852420 
# 
# From -- ./inp_files/347561.got.cif
#   From: 2010.05.17/outbox.cif.g08.bks.cpg/sg2_174_cif.got.tgz:347561.got - 2010.06.03 11:33:40.
