data_PCOD9106630
_publ_section_title
;
Structure prediction by ZEFSAII (Michael W. Deem and Ramdas Pophale) SiO2 
 PCOD9106630
Probable space group: P -1
;
_chemical_formula_sum "Si O2"
_cell_formula_units_Z 14
_cell_length_a 7.237902
_cell_length_b 7.259373
_cell_length_c 12.964453
_cell_angle_alpha 93.332551
_cell_angle_beta 64.953842
_cell_angle_gamma 70.350619
_cell_volume 564.922212
_symmetry_space_group_name_H-M "P -1"
_symmetry_group_IT_number 2
_symmetry_cell_setting 'triclinic'
loop_
_space_group_symop_operation_xyz
x,y,z
-x,-y,-z
loop_
_atom_site_type_symbol
_atom_site_label
_atom_site_fract_x
_atom_site_fract_y
_atom_site_fract_z
Si Si1 0.251353 0.490399 0.663604
Si Si2 0.185393 0.162986 0.450928
Si Si3 0.113104 0.328990 0.884307
Si Si4 0.436371 0.999923 0.184449
Si Si5 0.681595 0.328613 0.882584
Si Si6 0.731739 0.194742 0.462642
Si Si7 0.773188 0.561122 0.702013
O O1 0.227064 0.431470 0.782626
O O2 0.486847 0.337517 0.561053
O O3 0.232344 0.716355 0.652174
O O4 0.037373 0.477254 0.656581
O O5 0.323278 0.003857 0.323787
O O6 0.240075 0.035252 0.538756
O O7 0.255486 0.344196 0.403407
O O8 0.926591 0.215656 0.488301
O O9 0.301156 0.122142 0.872843
O O10 0.920677 0.289406 0.870351
O O11 0.000000 0.500000 0.000000
O O12 0.356715 0.874404 0.120516
O O13 0.343469 0.237245 0.193860
O O14 0.681072 0.409211 0.767891
O O15 0.500000 0.500000 0.000000
#
# Coordination Sequence:
#
# PCOD9106630 Si02
#       7
#     2   2   2   2   2   2   2
#     4   9  16  29  54  90 113 150 198 238 284 353
#     4   8  16  31  56  88 113 155 190 237 300 349
#     4  11  21  38  59  86 121 157 197 243 294 348
#     4  10  20  40  59  85 121 153 193 245 292 348
#     4  11  22  38  61  84 116 159 202 241 291 347
#     4   9  14  27  58  89 111 151 202 229 297 355
#     4   8  19  35  55  84 117 155 185 243 296 338
#
# _framework density 24.782173
#
# number of rings (size 3 to 8) (size 9 to 14) (size 15 to 20)
#    0.857    1.714    2.857    0.000    0.000    0.571 
#    0.000    3.571    0.000   17.143    0.000    0.000 
#    0.000    0.000    0.000    0.000    0.000    0.000 
#
# Total GULP energy -78202.559374 kJ/mol
# GULP energy per Si atom -5585.897098 kJ/mol
# Density = 2.472577 g / cm^3
# Si number density = 24.782173 Si / 1000 Ang^3
#
#
#
# Elastic Constant Matrix: (Units=GPa)
#
#
# Indices 1 2 3 4 5 6 
#
# 1 103.7279 27.0178 17.2755 9.1943 -26.8753 -13.6311
# 2 27.0178 117.8041 17.0352 14.0023 -6.5612 -6.2399
# 3 17.2755 17.0352 91.0838 17.8032 -17.4133 -7.0247
# 4 9.1943 14.0023 17.8032 42.1182 -2.9770 -5.7819
# 5 -26.8753 -6.5612 -17.4133 -2.9770 29.0441 16.1192
# 6 -13.6311 -6.2399 -7.0247 -5.7819 16.1192 24.4615
#
#
#
# Elastic Compliance Matrix: (Units=1/GPa)
#
#
# Indices 1 2 3 4 5 6 
#
# 1 0.013471 -0.002338 0.000605 -0.001766 0.013273 -0.002080
# 2 -0.002338 0.009414 -0.001131 -0.002068 -0.001711 0.001412
# 3 0.000605 -0.001131 0.013781 -0.005410 0.010245 -0.004024
# 4 -0.001766 -0.002068 -0.005410 0.027720 -0.006998 0.008098
# 5 0.013273 -0.001711 0.010245 -0.006998 0.074373 -0.040761
# 6 -0.002080 0.001412 -0.004024 0.008098 -0.040761 0.067700
#
#
# Mechanical properties :
#
#
# Convention : Reuss Voigt Hill
#
# Bulk Modulus (GPa) = 32.32342 48.36365 40.34354
# Shear Modulus (GPa) = 22.47192 35.87724 29.17458
#
# Velocity S-wave (km/s) = 3.01454 3.80900 3.43482
# Velocity P-wave (km/s) = 5.01876 6.23719 5.66085
#
# Compressibility (1/GPa) = 0.03093732
#
# Stress axis : x y z
#
# Youngs Moduli (GPa) = 74.23363 106.22734 72.56125
#
# Poissons Ratio (x) = 0.24835 -0.04387
# Poissons Ratio (y) = 0.17355 0.08207
# Poissons Ratio (z) = -0.04488 0.12015
#
# Static dielectric constant tensor:
#      x y z
#    x 2.789890 0.135290 0.428680 
#    y 0.135290 2.005530 0.055500 
#    z 0.428680 0.055500 2.138730 
# 
# From -- ./inp_files/554346.got.cif
#   From: 2010.05.17/outbox.cif.g08.bks.cpg/sg2_278_cif.got.tgz:554346.got - 2010.06.03 11:33:40.
