data_PCOD9106706
_publ_section_title
;
Structure prediction by ZEFSAII (Michael W. Deem and Ramdas Pophale) SiO2 
 PCOD9106706
Probable space group: P -1
;
_chemical_formula_sum "Si O2"
_cell_formula_units_Z 16
_cell_length_a 13.372906
_cell_length_b 8.328334
_cell_length_c 13.483155
_cell_angle_alpha 120.305278
_cell_angle_beta 125.202857
_cell_angle_gamma 29.554854
_cell_volume 605.227915
_symmetry_space_group_name_H-M "P -1"
_symmetry_group_IT_number 2
_symmetry_cell_setting 'triclinic'
loop_
_space_group_symop_operation_xyz
x,y,z
-x,-y,-z
loop_
_atom_site_type_symbol
_atom_site_label
_atom_site_fract_x
_atom_site_fract_y
_atom_site_fract_z
Si Si1 0.030838 0.786295 0.875278
Si Si2 0.185195 0.719846 0.235877
Si Si3 0.835177 0.933851 0.365054
Si Si4 0.716650 0.510856 0.470005
Si Si5 0.482450 0.862636 0.625375
Si Si6 0.735310 0.720999 0.000613
Si Si7 0.729043 0.117569 0.145504
Si Si8 0.395190 0.354738 0.781636
O O1 0.073931 0.555710 0.896723
O O2 0.242493 0.527396 0.844682
O O3 0.841857 0.056413 0.771781
O O4 0.000000 0.000000 0.000000
O O5 0.358294 0.491445 0.348858
O O6 0.244276 0.478934 0.121473
O O7 0.951160 0.953430 0.214511
O O8 0.090447 0.609236 0.411350
O O9 0.772442 0.226811 0.437398
O O10 0.744393 0.909773 0.388076
O O11 0.723586 0.040378 0.228462
O O12 0.506515 0.823438 0.509601
O O13 0.709681 0.536599 0.355441
O O14 0.543381 0.988610 0.744412
O O15 0.745013 0.917070 0.023778
O O16 0.500000 0.000000 0.000000
O O17 0.545858 0.498857 0.139992
#
# Coordination Sequence:
#
# PCOD9106706 Si02
#       8
#     2   2   2   2   2   2   2   2
#     4   9  20  39  61  91 127 161 213 265 320 384
#     4  10  21  38  62  90 125 169 211 264 323 387
#     4  10  21  38  66  92 128 174 215 267 325 381
#     4  10  22  41  63  96 135 168 216 272 323 378
#     4  12  22  41  67  98 131 174 221 258 323 389
#     4  11  21  38  64  92 122 166 218 266 324 390
#     4  10  20  40  60  88 130 168 210 265 328 371
#     4  10  22  39  63  93 131 173 216 271 316 388
#
# _framework density 26.436323000000002
#
# number of rings (size 3 to 8) (size 9 to 14) (size 15 to 20)
#    0.000    1.750    1.250    3.375    1.750    0.500 
#    0.000   11.875    5.500    0.000    0.000    0.000 
#    0.000    0.000    0.000    0.000    0.000    0.000 
#
# Total GULP energy -89385.356905 kJ/mol
# GULP energy per Si atom -5586.584807 kJ/mol
# Density = 2.637615 g / cm^3
# Si number density = 26.436323 Si / 1000 Ang^3
#
#
#
# Elastic Constant Matrix: (Units=GPa)
#
#
# Indices 1 2 3 4 5 6 
#
# 1 87.1581 27.1632 28.1125 3.0909 -12.1080 -1.9887
# 2 27.1632 99.8548 20.9384 13.2538 -5.4659 28.9266
# 3 28.1125 20.9384 95.0906 14.3999 -20.0433 -3.3377
# 4 3.0909 13.2538 14.3999 43.1651 -6.0997 -14.1713
# 5 -12.1080 -5.4659 -20.0433 -6.0997 42.6247 5.8801
# 6 -1.9887 28.9266 -3.3377 -14.1713 5.8801 44.3368
#
#
#
# Elastic Compliance Matrix: (Units=1/GPa)
#
#
# Indices 1 2 3 4 5 6 
#
# 1 0.014196 -0.004771 -0.003086 0.003141 0.001829 0.004278
# 2 -0.004771 0.017013 -0.001276 -0.009064 0.000920 -0.014429
# 3 -0.003086 -0.001276 0.013171 -0.003093 0.004700 0.000073
# 4 0.003141 -0.009064 -0.003093 0.032101 0.000663 0.015994
# 5 0.001829 0.000920 0.004700 0.000663 0.026889 -0.003518
# 6 0.004278 -0.014429 0.000073 0.015994 -0.003518 0.037745
#
#
# Mechanical properties :
#
#
# Convention : Reuss Voigt Hill
#
# Bulk Modulus (GPa) = 38.29266 48.28130 43.28698
# Shear Modulus (GPa) = 29.74674 39.75127 34.74901
#
# Velocity S-wave (km/s) = 3.35807 3.88191 3.62946
# Velocity P-wave (km/s) = 5.43616 6.19639 5.82868
#
# Compressibility (1/GPa) = 0.02611466
#
# Stress axis : x y z
#
# Youngs Moduli (GPa) = 70.44236 58.77844 75.92215
#
# Poissons Ratio (x) = 0.28041 0.23433
# Poissons Ratio (y) = 0.33606 0.09686
# Poissons Ratio (z) = 0.21742 0.07499
#
# Static dielectric constant tensor:
#      x y z
#    x 2.101670 0.008360 -0.025270 
#    y 0.008360 2.124240 -0.015400 
#    z -0.025270 -0.015400 2.110900 
# 
# From -- ./inp_files/528950.got.cif
#   From: 2010.05.17/outbox.cif.g08.bks.cpg/sg2_265_cif.got.tgz:528950.got - 2010.06.03 11:33:40.
