data_PCOD9106831
_publ_section_title
;
Structure prediction by ZEFSAII (Michael W. Deem and Ramdas Pophale) SiO2 
 PCOD9106831
Probable space group: P -1
;
_chemical_formula_sum "Si O2"
_cell_formula_units_Z 14
_cell_length_a 11.951321
_cell_length_b 17.510192
_cell_length_c 13.532570
_cell_angle_alpha 159.862438
_cell_angle_beta 44.305984
_cell_angle_gamma 138.097272
_cell_volume 649.405276
_symmetry_space_group_name_H-M "P -1"
_symmetry_group_IT_number 2
_symmetry_cell_setting 'triclinic'
loop_
_space_group_symop_operation_xyz
x,y,z
-x,-y,-z
loop_
_atom_site_type_symbol
_atom_site_label
_atom_site_fract_x
_atom_site_fract_y
_atom_site_fract_z
Si Si1 0.331855 0.223466 0.269823
Si Si2 0.874125 0.288738 0.183172
Si Si3 0.563273 0.398014 0.984993
Si Si4 0.440762 0.556173 0.438703
Si Si5 0.198997 0.809339 0.317449
Si Si6 0.228169 0.312492 0.975517
Si Si7 0.126962 0.585869 0.886408
O O1 0.409995 0.315054 0.225512
O O2 0.472708 0.252542 0.300645
O O3 0.235542 0.408210 0.586547
O O4 0.207564 0.967740 0.034889
O O5 0.739585 0.424396 0.455872
O O6 0.878700 0.287562 0.059086
O O7 0.069460 0.382978 0.202709
O O8 0.561461 0.569055 0.285600
O O9 0.680714 0.523180 0.972681
O O10 0.630821 0.198274 0.745901
O O11 0.373251 0.319768 0.971208
O O12 0.056176 0.583359 0.174389
O O13 0.162532 0.047796 0.655858
O O14 0.199230 0.763520 0.144943
#
# Coordination Sequence:
#
# PCOD9106831 Si02
#       7
#     2   2   2   2   2   2   2
#     4  10  20  40  61  90 125 158 196 252 310 361
#     4  11  22  39  63  93 122 157 203 250 307 366
#     4  11  24  44  60  89 125 164 206 252 289 367
#     4  10  23  39  62  89 126 158 198 252 306 363
#     4  11  21  38  61  91 121 158 200 251 306 358
#     4  11  25  40  65  88 123 165 207 247 301 350
#     4  10  21  34  63  93 121 152 196 256 309 354
#
# _framework density 21.558187
#
# number of rings (size 3 to 8) (size 9 to 14) (size 15 to 20)
#    0.000    1.429    4.286    0.857    2.000    2.286 
#    0.000    0.714    0.000    0.000    0.000    0.000 
#    0.000    0.000    0.000    0.000    0.000    0.000 
#
# Total GULP energy -78202.347050 kJ/mol
# GULP energy per Si atom -5585.881932 kJ/mol
# Density = 2.150912 g / cm^3
# Si number density = 21.558187 Si / 1000 Ang^3
#
#
#
# Elastic Constant Matrix: (Units=GPa)
#
#
# Indices 1 2 3 4 5 6 
#
# 1 74.6972 -0.8577 5.6209 -3.8415 -17.6347 16.4790
# 2 -0.8577 58.9894 -5.8130 -3.3175 -3.8927 16.8062
# 3 5.6209 -5.8130 37.0661 -4.6424 -13.8898 3.2553
# 4 -3.8415 -3.3175 -4.6424 30.1396 8.0177 -6.1966
# 5 -17.6347 -3.8927 -13.8898 8.0177 26.4663 -9.5573
# 6 16.4790 16.8062 3.2553 -6.1966 -9.5573 29.0905
#
#
#
# Elastic Compliance Matrix: (Units=1/GPa)
#
#
# Indices 1 2 3 4 5 6 
#
# 1 0.017787 0.003799 0.002595 -0.001742 0.010926 -0.009342
# 2 0.003799 0.021818 0.005375 -0.000136 0.003456 -0.014252
# 3 0.002595 0.005375 0.035224 0.000618 0.020185 -0.001754
# 4 -0.001742 -0.000136 0.000618 0.036842 -0.010012 0.005555
# 5 0.010926 0.003456 0.020185 -0.010012 0.062014 0.007797
# 6 -0.009342 -0.014252 -0.001754 0.005555 0.007797 0.051842
#
#
# Mechanical properties :
#
#
# Convention : Reuss Voigt Hill
#
# Bulk Modulus (GPa) = 10.16600 18.73924 14.45262
# Shear Modulus (GPa) = 21.29675 28.59278 24.94477
#
# Velocity S-wave (km/s) = 3.14645 3.64580 3.40529
# Velocity P-wave (km/s) = 4.23392 5.14138 4.70956
#
# Compressibility (1/GPa) = 0.09836713
#
# Stress axis : x y z
#
# Youngs Moduli (GPa) = 56.22197 45.83387 28.39000
#
# Poissons Ratio (x) = -0.17412 -0.07368
# Poissons Ratio (y) = -0.21359 -0.15260
# Poissons Ratio (z) = -0.14591 -0.24637
#
# Static dielectric constant tensor:
#      x y z
#    x 1.818640 0.036410 -0.015860 
#    y 0.036410 1.788670 -0.029190 
#    z -0.015860 -0.029190 1.744040 
# 
# From -- ./inp_files/65107.got.cif
#   From: 2010.05.17/outbox.cif.g08.bks.cpg/sg2_33_cif.got.tgz:65107.got - 2010.06.03 11:33:40.
