data_PCOD9106495
_publ_section_title
;
Structure prediction by ZEFSAII (Michael W. Deem and Ramdas Pophale) SiO2 
 PCOD9106495
Probable space group: P -1
;
_chemical_formula_sum "Si O2"
_cell_formula_units_Z 14
_cell_length_a 16.728708
_cell_length_b 5.390918
_cell_length_c 9.323567
_cell_angle_alpha 117.671714
_cell_angle_beta 46.268105
_cell_angle_gamma 109.550448
_cell_volume 537.954328
_symmetry_space_group_name_H-M "P -1"
_symmetry_group_IT_number 2
_symmetry_cell_setting 'triclinic'
loop_
_space_group_symop_operation_xyz
x,y,z
-x,-y,-z
loop_
_atom_site_type_symbol
_atom_site_label
_atom_site_fract_x
_atom_site_fract_y
_atom_site_fract_z
Si Si1 0.399822 0.372796 0.690412
Si Si2 0.214024 0.091302 0.640939
Si Si3 0.494644 0.667824 0.900352
Si Si4 0.262192 0.154225 0.029585
Si Si5 0.067747 0.271568 0.117171
Si Si6 0.040607 0.870197 0.267972
Si Si7 0.271031 0.445871 0.405571
O O1 0.500000 0.500000 0.500000
O O2 0.400868 0.604548 0.880821
O O3 0.310990 0.259484 0.655276
O O4 0.370610 0.122230 0.784943
O O5 0.242962 0.766732 0.497642
O O6 0.200896 0.260413 0.555214
O O7 0.116149 0.106413 0.881321
O O8 0.609085 0.555375 0.668647
O O9 0.500000 0.500000 0.000000
O O10 0.500000 0.000000 0.000000
O O11 0.175122 0.351765 0.105250
O O12 0.278801 0.280627 0.200481
O O13 0.175238 0.891543 0.081276
O O14 0.010623 0.547495 0.212488
O O15 0.997292 0.079266 0.258630
O O16 0.000000 0.000000 0.500000
#
# Coordination Sequence:
#
# PCOD9106495 Si02
#       7
#     2   2   2   2   2   2   2
#     4  11  23  43  63  93 127 171 219 259 320 370
#     4  11  25  40  63  92 128 173 209 264 314 383
#     4  12  26  42  61  86 125 167 214 272 314 366
#     4   9  24  38  67  93 129 165 216 265 314 382
#     4   9  21  40  64  98 126 162 210 261 313 377
#     4  10  20  39  71 101 126 162 212 263 317 380
#     4  12  24  41  62  91 126 172 217 258 329 373
#
# _framework density 26.024515000000001
#
# number of rings (size 3 to 8) (size 9 to 14) (size 15 to 20)
#    0.857    0.571    2.857    2.143    2.000    2.857 
#    0.000    0.000    0.000    5.143    0.000    0.000 
#    0.000    0.000    0.000    0.000    0.000    0.000 
#
# Total GULP energy -77958.426500 kJ/mol
# GULP energy per Si atom -5568.459036 kJ/mol
# Density = 2.596528 g / cm^3
# Si number density = 26.024515 Si / 1000 Ang^3
#
#
#
# Elastic Constant Matrix: (Units=GPa)
#
#
# Indices 1 2 3 4 5 6 
#
# 1 111.4600 55.6826 40.8773 -11.0852 16.8271 2.4484
# 2 55.6826 190.6984 59.5857 -17.6516 7.0552 -24.3109
# 3 40.8773 59.5857 113.5006 -48.8835 34.3268 -21.6675
# 4 -11.0852 -17.6516 -48.8835 62.3972 -4.9866 -4.4951
# 5 16.8271 7.0552 34.3268 -4.9866 50.8081 -4.3576
# 6 2.4484 -24.3109 -21.6675 -4.4951 -4.3576 35.8731
#
#
#
# Elastic Compliance Matrix: (Units=1/GPa)
#
#
# Indices 1 2 3 4 5 6 
#
# 1 0.012416 -0.003110 -0.005231 -0.003335 -0.001045 -0.006659
# 2 -0.003110 0.007409 -0.002797 -0.000199 0.002196 0.003786
# 3 -0.005231 -0.002797 0.028206 0.020480 -0.013517 0.016423
# 4 -0.003335 -0.000199 0.020480 0.031876 -0.008250 0.015455
# 5 -0.001045 0.002196 -0.013517 -0.008250 0.027679 -0.004277
# 6 -0.006659 0.003786 0.016423 0.015455 -0.004277 0.042232
#
#
# Mechanical properties :
#
#
# Convention : Reuss Voigt Hill
#
# Bulk Modulus (GPa) = 38.82488 80.88337 59.85412
# Shear Modulus (GPa) = 27.67340 47.11659 37.39499
#
# Velocity S-wave (km/s) = 3.26446 4.25958 3.79478
# Velocity P-wave (km/s) = 5.39999 7.43903 6.49996
#
# Compressibility (1/GPa) = 0.02575668
#
# Stress axis : x y z
#
# Youngs Moduli (GPa) = 80.54026 134.97546 35.45301
#
# Poissons Ratio (x) = 0.41978 0.18544
# Poissons Ratio (y) = 0.25049 0.09915
# Poissons Ratio (z) = 0.42127 0.37748
#
# Static dielectric constant tensor:
#      x y z
#    x 2.111960 0.116510 -0.061250 
#    y 0.116510 2.094420 -0.085050 
#    z -0.061250 -0.085050 1.991080 
# 
# From -- ./inp_files/322852.got.cif
#   From: 2010.05.17/outbox.cif.g08.bks.cpg/sg2_162_cif.got.tgz:322852.got - 2010.06.03 11:33:40.
