data_PCOD9106905
_publ_section_title
;
Structure prediction by ZEFSAII (Michael W. Deem and Ramdas Pophale) SiO2 
 PCOD9106905
Probable space group: P -1
;
_chemical_formula_sum "Si O2"
_cell_formula_units_Z 16
_cell_length_a 28.637148
_cell_length_b 8.264239
_cell_length_c 23.087524
_cell_angle_alpha 132.938418
_cell_angle_beta 169.559870
_cell_angle_gamma 46.338981
_cell_volume 716.183047
_symmetry_space_group_name_H-M "P -1"
_symmetry_group_IT_number 2
_symmetry_cell_setting 'triclinic'
loop_
_space_group_symop_operation_xyz
x,y,z
-x,-y,-z
loop_
_atom_site_type_symbol
_atom_site_label
_atom_site_fract_x
_atom_site_fract_y
_atom_site_fract_z
Si Si1 0.358169 0.660934 0.767953
Si Si2 0.511155 0.834194 0.221883
Si Si3 0.364660 0.999216 0.753751
Si Si4 0.843571 0.464975 0.742343
Si Si5 0.103845 0.187958 0.211455
Si Si6 0.838604 0.875497 0.224878
Si Si7 0.634744 0.218172 0.735730
Si Si8 0.982776 0.955072 0.751985
O O1 0.502759 0.428639 0.863328
O O2 0.345190 0.850444 0.749395
O O3 0.057663 0.668298 0.423275
O O4 0.524442 0.768386 0.045462
O O5 0.634345 0.882990 0.447145
O O6 0.751747 0.855403 0.477413
O O7 0.269991 0.984247 0.931016
O O8 0.077970 0.057272 0.391848
O O9 0.573681 0.849846 0.929784
O O10 0.875273 0.616652 0.761666
O O11 0.552873 0.548905 0.430469
O O12 0.934787 0.212541 0.774638
O O13 0.000000 0.500000 0.000000
O O14 0.869974 0.244566 0.986203
O O15 0.000000 0.000000 0.000000
O O16 0.000000 0.000000 0.500000
O O17 0.500000 0.000000 0.500000
O O18 0.747627 0.159030 0.922406
#
# Coordination Sequence:
#
# PCOD9106905 Si02
#       8
#     2   2   2   2   2   2   2   2
#     4  10  20  40  62  86 123 160 197 253 302 359
#     4  10  22  40  63  91 123 159 210 248 301 373
#     4   9  20  38  60  89 123 154 201 252 302 361
#     4  12  23  41  64  86 125 163 201 260 306 357
#     4  11  23  41  64  91 124 162 203 256 305 361
#     4   9  20  38  61  88 120 158 199 247 303 360
#     4  11  22  43  63  89 121 161 208 249 305 369
#     4  10  22  39  59  91 122 156 205 252 301 364
#
# _framework density 22.340658000000001
#
# number of rings (size 3 to 8) (size 9 to 14) (size 15 to 20)
#    0.000    1.750    2.500    1.500    0.000   10.000 
#    0.000    9.375    0.000    0.000    0.000    0.000 
#    0.000    0.000    0.000    0.000    0.000    0.000 
#
# Total GULP energy -89196.239521 kJ/mol
# GULP energy per Si atom -5574.764970 kJ/mol
# Density = 2.228981 g / cm^3
# Si number density = 22.340658 Si / 1000 Ang^3
#
#
#
# Elastic Constant Matrix: (Units=GPa)
#
#
# Indices 1 2 3 4 5 6 
#
# 1 94.0006 -4.1650 35.6242 -6.6700 -12.6387 6.2498
# 2 -4.1650 55.7923 14.7036 -7.5622 -23.2951 -5.5898
# 3 35.6242 14.7036 94.3159 -23.9379 -35.7982 -1.8045
# 4 -6.6700 -7.5622 -23.9379 33.0871 5.9100 2.3350
# 5 -12.6387 -23.2951 -35.7982 5.9100 51.8196 -1.3967
# 6 6.2498 -5.5898 -1.8045 2.3350 -1.3967 25.6417
#
#
#
# Elastic Compliance Matrix: (Units=1/GPa)
#
#
# Indices 1 2 3 4 5 6 
#
# 1 0.012945 0.002184 -0.005238 -0.000561 0.000505 -0.002969
# 2 0.002184 0.023704 0.001020 0.004183 0.011550 0.004955
# 3 -0.005238 0.001020 0.019708 0.011189 0.011587 0.002498
# 4 -0.000561 0.004183 0.011189 0.038355 0.005062 -0.001381
# 5 0.000505 0.011550 0.011587 0.005062 0.032161 0.004501
# 6 -0.002969 0.004955 0.002498 -0.001381 0.004501 0.041350
#
#
# Mechanical properties :
#
#
# Convention : Reuss Voigt Hill
#
# Bulk Modulus (GPa) = 19.12451 37.38159 28.25305
# Shear Modulus (GPa) = 26.35467 35.30606 30.83037
#
# Velocity S-wave (km/s) = 3.43836 3.97967 3.71888
# Velocity P-wave (km/s) = 4.93377 6.15516 5.57799
#
# Compressibility (1/GPa) = 0.05228893
#
# Stress axis : x y z
#
# Youngs Moduli (GPa) = 77.24710 42.18770 50.74185
#
# Poissons Ratio (x) = -0.09214 0.26578
# Poissons Ratio (y) = -0.16871 -0.05176
# Poissons Ratio (z) = 0.40461 -0.04303
#
# Static dielectric constant tensor:
#      x y z
#    x 1.868230 -0.041670 -0.057270 
#    y -0.041670 1.720130 0.005780 
#    z -0.057270 0.005780 1.899630 
# 
# From -- ./inp_files/608851.got.cif
#   From: 2010.05.17/outbox.cif.g08.bks.cpg/sg2_305_cif.got.tgz:608851.got - 2010.06.03 11:33:40.
