data_PCOD9106150
_publ_section_title
;
Structure prediction by ZEFSAII (Michael W. Deem and Ramdas Pophale) SiO2 
 PCOD9106150
Probable space group: P -1
;
_chemical_formula_sum "Si O2"
_cell_formula_units_Z 14
_cell_length_a 8.984154
_cell_length_b 9.128405
_cell_length_c 21.558547
_cell_angle_alpha 46.493838
_cell_angle_beta 41.272981
_cell_angle_gamma 34.427101
_cell_volume 648.148050
_symmetry_space_group_name_H-M "P -1"
_symmetry_group_IT_number 2
_symmetry_cell_setting 'triclinic'
loop_
_space_group_symop_operation_xyz
x,y,z
-x,-y,-z
loop_
_atom_site_type_symbol
_atom_site_label
_atom_site_fract_x
_atom_site_fract_y
_atom_site_fract_z
Si Si1 0.488244 0.547617 0.888062
Si Si2 0.713237 0.295151 0.669129
Si Si3 0.022708 0.739860 0.785006
Si Si4 0.710226 0.250039 0.551372
Si Si5 0.924140 0.336684 0.922405
Si Si6 0.892268 0.172999 0.778712
Si Si7 0.370333 0.049967 0.761383
O O1 0.702695 0.376822 0.928171
O O2 0.578841 0.356555 0.858198
O O3 0.558722 0.737250 0.792120
O O4 0.162282 0.717711 0.969806
O O5 0.363222 0.520793 0.722748
O O6 0.789427 0.325307 0.567884
O O7 0.859584 0.298476 0.685180
O O8 0.843095 0.990927 0.721948
O O9 0.885641 0.597305 0.870426
O O10 0.995048 0.886876 0.813727
O O11 0.500000 0.500000 0.500000
O O12 0.525619 0.163869 0.658725
O O13 0.000000 0.000000 0.500000
O O14 0.233045 0.138828 0.847804
O O15 0.116988 0.151497 0.760303
#
# Coordination Sequence:
#
# PCOD9106150 Si02
#       7
#     2   2   2   2   2   2   2
#     4  10  21  39  63 102 135 181 225 265 328 397
#     4  10  21  43  66  93 135 170 218 267 338 380
#     4  10  20  39  67  96 128 191 207 270 322 390
#     4  12  27  44  73 104 122 170 230 280 332 405
#     4  10  21  36  66  99 136 180 227 270 321 391
#     4   9  23  38  68  93 138 184 213 264 340 390
#     4  11  22  43  67  95 139 173 219 283 334 385
#
# _framework density 21.600004999999999
#
# number of rings (size 3 to 8) (size 9 to 14) (size 15 to 20)
#    0.857    0.857    1.429    3.000    4.000    0.571 
#    0.000    2.857    0.000    0.000    0.000    0.000 
#    0.000    0.000    0.000    0.000    0.000    0.000 
#
# Total GULP energy -77995.294419 kJ/mol
# GULP energy per Si atom -5571.092459 kJ/mol
# Density = 2.155084 g / cm^3
# Si number density = 21.600005 Si / 1000 Ang^3
#
#
#
# Elastic Constant Matrix: (Units=GPa)
#
#
# Indices 1 2 3 4 5 6 
#
# 1 74.0306 20.4479 12.0658 17.5680 23.4475 4.5193
# 2 20.4479 136.4277 31.6714 12.5626 9.2621 7.0633
# 3 12.0658 31.6714 55.9383 14.0772 12.6509 10.5750
# 4 17.5680 12.5626 14.0772 33.0099 6.2940 10.1833
# 5 23.4475 9.2621 12.6509 6.2940 29.8377 1.0619
# 6 4.5193 7.0633 10.5750 10.1833 1.0619 32.7731
#
#
#
# Elastic Compliance Matrix: (Units=1/GPa)
#
#
# Indices 1 2 3 4 5 6 
#
# 1 0.020174 -0.001747 0.001956 -0.008145 -0.014421 -0.000039
# 2 -0.001747 0.008649 -0.004543 -0.000562 0.000733 -0.000006
# 3 0.001956 -0.004543 0.024652 -0.006593 -0.009014 -0.004904
# 4 -0.008145 -0.000562 -0.006593 0.040255 0.001206 -0.009175
# 5 -0.014421 0.000733 -0.009014 0.001206 0.048088 0.002806
# 6 -0.000039 -0.000006 -0.004904 -0.009175 0.002806 0.034862
#
#
# Mechanical properties :
#
#
# Convention : Reuss Voigt Hill
#
# Bulk Modulus (GPa) = 22.31783 43.86297 33.09040
# Shear Modulus (GPa) = 24.96463 32.60492 28.78477
#
# Velocity S-wave (km/s) = 3.40335 3.88943 3.65448
# Velocity P-wave (km/s) = 5.07922 6.36563 5.75846
#
# Compressibility (1/GPa) = 0.04480721
#
# Stress axis : x y z
#
# Youngs Moduli (GPa) = 49.56768 115.62447 40.56453
#
# Poissons Ratio (x) = 0.20197 -0.07934
# Poissons Ratio (y) = 0.08658 0.18429
# Poissons Ratio (z) = -0.09695 0.52529
#
# Static dielectric constant tensor:
#      x y z
#    x 1.859650 -0.017960 0.015120 
#    y -0.017960 1.821020 0.017730 
#    z 0.015120 0.017730 1.792450 
# 
# From -- ./inp_files/44712.got.cif
#   From: 2010.05.17/outbox.cif.g08.bks.cpg/sg2_23_cif.got.tgz:44712.got - 2010.06.03 11:33:40.
