data_PCOD9106733
_publ_section_title
;
Structure prediction by ZEFSAII (Michael W. Deem and Ramdas Pophale) SiO2 
 PCOD9106733
Probable space group: P -1
;
_chemical_formula_sum "Si O2"
_cell_formula_units_Z 15
_cell_length_a 9.219100
_cell_length_b 5.417309
_cell_length_c 13.994346
_cell_angle_alpha 92.914369
_cell_angle_beta 120.407732
_cell_angle_gamma 74.880345
_cell_volume 579.137775
_symmetry_space_group_name_H-M "P -1"
_symmetry_group_IT_number 2
_symmetry_cell_setting 'triclinic'
loop_
_space_group_symop_operation_xyz
x,y,z
-x,-y,-z
loop_
_atom_site_type_symbol
_atom_site_label
_atom_site_fract_x
_atom_site_fract_y
_atom_site_fract_z
Si Si1 0.240451 0.366857 0.899565
Si Si2 0.500000 0.000000 0.500000
Si Si3 0.268943 0.981276 0.033885
Si Si4 0.484725 0.625870 0.647777
Si Si5 0.955304 0.771625 0.882208
Si Si6 0.079869 0.709982 0.478174
Si Si7 0.475373 0.513511 0.856680
Si Si8 0.193059 0.843620 0.329557
O O1 0.281304 0.523747 0.826736
O O2 0.038654 0.493358 0.861248
O O3 0.271338 0.067774 0.926622
O O4 0.398395 0.399359 0.024269
O O5 0.486318 0.130141 0.391286
O O6 0.710656 0.982792 0.573044
O O7 0.188556 0.210172 0.084930
O O8 0.445644 0.796263 0.126376
O O9 0.126612 0.821362 0.988720
O O10 0.291272 0.603396 0.558449
O O11 0.487581 0.633273 0.761973
O O12 0.636459 0.386092 0.651284
O O13 0.890274 0.989096 0.785704
O O14 0.066470 0.747781 0.358494
O O15 0.000000 0.500000 0.500000
O O16 0.000000 0.000000 0.500000
#
# Coordination Sequence:
#
# PCOD9106733 Si02
#       8
#     2   1   2   2   2   2   2   2
#     4  10  22  38  61  95 137 170 214 277 331 419
#     4  10  24  42  68  94 122 168 240 290 346 412
#     4  10  20  40  60  91 132 170 214 273 327 418
#     4  11  25  44  72  95 136 186 236 293 357 434
#     4  10  22  38  62  95 127 169 223 266 343 406
#     4  11  28  49  73 105 145 181 240 310 368 428
#     4  10  22  40  61  96 129 173 225 266 347 413
#     4  11  25  45  70  97 134 185 239 289 357 432
#
# _framework density 25.900573000000001
#
# number of rings (size 3 to 8) (size 9 to 14) (size 15 to 20)
#    0.000    1.600    1.333    2.400   11.200    2.133 
#    0.000    0.000    0.000    0.000    0.000    0.000 
#    0.000    0.000    0.000    0.000    0.000    0.000 
#
# Total GULP energy -83509.069733 kJ/mol
# GULP energy per Si atom -5567.271316 kJ/mol
# Density = 2.584162 g / cm^3
# Si number density = 25.900573 Si / 1000 Ang^3
#
#
#
# Elastic Constant Matrix: (Units=GPa)
#
#
# Indices 1 2 3 4 5 6 
#
# 1 72.4434 2.1304 29.8855 2.8996 -40.5028 46.3169
# 2 2.1304 35.8639 23.8124 0.8001 -25.8588 25.4617
# 3 29.8855 23.8124 91.8761 -28.5255 -34.4902 2.3233
# 4 2.8996 0.8001 -28.5255 17.7712 20.4844 -16.8387
# 5 -40.5028 -25.8588 -34.4902 20.4844 41.5192 -11.9018
# 6 46.3169 25.4617 2.3233 -16.8387 -11.9018 35.2471
#
#
#
# Elastic Compliance Matrix: (Units=1/GPa)
#
#
# Indices 1 2 3 4 5 6 
#
# 1 0.005871 -0.010379 0.004417 0.016220 -0.003316 0.006120
# 2 -0.010379 0.016910 0.003273 0.018878 -0.003605 0.009009
# 3 0.004417 0.003273 0.016191 0.002556 0.017979 -0.001943
# 4 0.016220 0.018878 0.002556 0.025132 0.011823 -0.019121
# 5 -0.003316 -0.003605 0.017979 0.011823 0.034303 0.023008
# 6 0.006120 0.009009 -0.001943 -0.019121 0.023008 0.012584
#
#
# Mechanical properties :
#
#
# Convention : Reuss Voigt Hill
#
# Bulk Modulus (GPa) = 29.76686 34.64887 32.20787
# Shear Modulus (GPa) = 39.19529 28.53117 33.86323
#
# Velocity S-wave (km/s) = 3.89433 3.32258 3.61977
# Velocity P-wave (km/s) = 5.63372 5.30341 5.47106
#
# Compressibility (1/GPa) = 0.03359440
#
# Stress axis : x y z
#
# Youngs Moduli (GPa) = 170.32455 59.13737 61.76138
#
# Poissons Ratio (x) = 0.61377 -0.27277
# Poissons Ratio (y) = 1.76776 -0.20217
# Poissons Ratio (z) = -0.75225 -0.19358
#
# Static dielectric constant tensor:
#      x y z
#    x 2.089120 -0.022040 -0.097090 
#    y -0.022040 2.697390 -0.170470 
#    z -0.097090 -0.170470 2.452010 
# 
# From -- ./inp_files/488310.got.cif
#   From: 2010.05.17/outbox.cif.g08.bks.cpg/sg2_245_cif.got.tgz:488310.got - 2010.06.03 11:33:40.
