data_PCOD9106625
_publ_section_title
;
Structure prediction by ZEFSAII (Michael W. Deem and Ramdas Pophale) SiO2 
 PCOD9106625
Probable space group: P -1
;
_chemical_formula_sum "Si O2"
_cell_formula_units_Z 16
_cell_length_a 13.433798
_cell_length_b 9.097216
_cell_length_c 11.757634
_cell_angle_alpha 124.815379
_cell_angle_beta 46.421759
_cell_angle_gamma 95.824950
_cell_volume 744.455465
_symmetry_space_group_name_H-M "P -1"
_symmetry_group_IT_number 2
_symmetry_cell_setting 'triclinic'
loop_
_space_group_symop_operation_xyz
x,y,z
-x,-y,-z
loop_
_atom_site_type_symbol
_atom_site_label
_atom_site_fract_x
_atom_site_fract_y
_atom_site_fract_z
Si Si1 0.361014 0.835213 0.047629
Si Si2 0.232604 0.251918 0.473821
Si Si3 0.597106 0.610880 0.426870
Si Si4 0.270836 0.501609 0.386054
Si Si5 0.182839 0.838028 0.976386
Si Si6 0.314035 0.653288 0.206072
Si Si7 0.295043 0.869060 0.656403
Si Si8 0.851206 0.930568 0.350551
O O1 0.283436 0.717215 0.126965
O O2 0.308768 0.046153 0.247642
O O3 0.548912 0.687896 0.836667
O O4 0.292328 0.875017 0.993708
O O5 0.361647 0.275549 0.457913
O O6 0.167568 0.435101 0.514360
O O7 0.120832 0.242718 0.656084
O O8 0.500000 0.500000 0.500000
O O9 0.756738 0.407342 0.176700
O O10 0.480053 0.769918 0.496857
O O11 0.231447 0.558752 0.309485
O O12 0.276086 0.688916 0.528949
O O13 0.203243 0.906823 0.864911
O O14 0.006262 0.944636 0.207428
O O15 0.273323 0.863516 0.395286
O O16 0.500000 0.500000 0.000000
O O17 0.225668 0.058779 0.707291
#
# Coordination Sequence:
#
# PCOD9106625 Si02
#       8
#     2   2   2   2   2   2   2   2
#     4  10  20  34  60  87 113 144 199 245 280 334
#     4  11  21  35  55  91 117 150 188 247 289 335
#     4  10  19  36  60  85 110 154 195 230 285 350
#     4  10  16  34  59  82 111 151 195 230 289 343
#     4  11  20  37  62  86 115 159 194 230 288 352
#     4   8  18  34  55  82 110 151 187 229 285 344
#     4  10  19  38  60  85 114 157 196 233 286 348
#     4  10  23  35  58  89 120 149 193 244 285 337
#
# _framework density 21.492217
#
# number of rings (size 3 to 8) (size 9 to 14) (size 15 to 20)
#    0.000    2.000    3.750    1.500    0.000    3.000 
#    0.000    0.000    2.750    3.750    3.250    0.000 
#    0.000    0.000    0.000    0.000    0.000    0.000 
#
# Total GULP energy -89121.237380 kJ/mol
# GULP energy per Si atom -5570.077336 kJ/mol
# Density = 2.144330 g / cm^3
# Si number density = 21.492217 Si / 1000 Ang^3
#
#
#
# Elastic Constant Matrix: (Units=GPa)
#
#
# Indices 1 2 3 4 5 6 
#
# 1 17.5810 -10.3893 16.3054 4.6324 9.5827 -0.3718
# 2 -10.3893 87.2283 9.1760 -30.9214 7.1423 -19.9307
# 3 16.3054 9.1760 60.6926 -12.8181 15.2127 1.9526
# 4 4.6324 -30.9214 -12.8181 30.1626 -1.6087 12.0490
# 5 9.5827 7.1423 15.2127 -1.6087 23.8837 -3.1570
# 6 -0.3718 -19.9307 1.9526 12.0490 -3.1570 18.0778
#
#
#
# Elastic Compliance Matrix: (Units=1/GPa)
#
#
# Indices 1 2 3 4 5 6 
#
# 1 0.136302 0.020818 -0.042380 -0.039836 -0.029771 0.051684
# 2 0.020818 0.023054 -0.005161 0.010688 -0.008896 0.017725
# 3 -0.042380 -0.005161 0.037849 0.029552 -0.007760 -0.031702
# 4 -0.039836 0.010688 0.029552 0.081492 -0.006858 -0.047740
# 5 -0.029771 -0.008896 -0.007760 -0.006858 0.061718 0.005767
# 6 0.051684 0.017725 -0.031702 -0.047740 0.005767 0.112172
#
#
# Mechanical properties :
#
#
# Convention : Reuss Voigt Hill
#
# Bulk Modulus (GPa) = 6.95609 21.74291 14.34950
# Shear Modulus (GPa) = 9.02604 24.45214 16.73909
#
# Velocity S-wave (km/s) = 2.05153 3.37667 2.79381
# Velocity P-wave (km/s) = 2.97579 5.03400 4.13500
#
# Compressibility (1/GPa) = 0.14375900
#
# Stress axis : x y z
#
# Youngs Moduli (GPa) = 7.33662 43.37664 26.42101
#
# Poissons Ratio (x) = -0.90301 1.11971
# Poissons Ratio (y) = -0.15273 0.13637
# Poissons Ratio (z) = 0.31092 0.22388
#
# Static dielectric constant tensor:
#      x y z
#    x 1.756590 -0.031040 -0.013150 
#    y -0.031040 1.918380 -0.024940 
#    z -0.013150 -0.024940 1.819210 
# 
# From -- ./inp_files/444998.got.cif
#   From: 2010.05.17/outbox.cif.g08.bks.cpg/sg2_223_cif.got.tgz:444998.got - 2010.06.03 11:33:40.
