data_PCOD9106688
_publ_section_title
;
Structure prediction by ZEFSAII (Michael W. Deem and Ramdas Pophale) SiO2 
 PCOD9106688
Probable space group: P -1
;
_chemical_formula_sum "Si O2"
_cell_formula_units_Z 15
_cell_length_a 12.991225
_cell_length_b 9.211882
_cell_length_c 13.528978
_cell_angle_alpha 100.659650
_cell_angle_beta 42.612352
_cell_angle_gamma 65.938098
_cell_volume 620.574725
_symmetry_space_group_name_H-M "P -1"
_symmetry_group_IT_number 2
_symmetry_cell_setting 'triclinic'
loop_
_space_group_symop_operation_xyz
x,y,z
-x,-y,-z
loop_
_atom_site_type_symbol
_atom_site_label
_atom_site_fract_x
_atom_site_fract_y
_atom_site_fract_z
Si Si1 0.174187 0.981667 0.043361
Si Si2 0.697225 0.808044 0.927563
Si Si3 0.050974 0.112389 0.733268
Si Si4 0.579966 0.822651 0.336099
Si Si5 0.338458 0.521730 0.263993
Si Si6 0.009881 0.265964 0.006105
Si Si7 0.000000 0.500000 0.500000
Si Si8 0.482246 0.342257 0.917274
O O1 0.228488 0.100344 0.062670
O O2 0.073738 0.090922 0.018300
O O3 0.970231 0.046971 0.259544
O O4 0.452194 0.675221 0.821239
O O5 0.943207 0.539373 0.664656
O O6 0.538117 0.816010 0.104940
O O7 0.500000 0.000000 0.000000
O O8 0.031981 0.187249 0.869458
O O9 0.798149 0.371888 0.886463
O O10 0.322151 0.964225 0.484077
O O11 0.791557 0.752477 0.118272
O O12 0.500000 0.000000 0.500000
O O13 0.724781 0.568015 0.251184
O O14 0.487605 0.357197 0.034423
O O15 0.101953 0.594381 0.450748
O O16 0.302237 0.725210 0.296561
#
# Coordination Sequence:
#
# PCOD9106688 Si02
#       8
#     2   2   2   2   2   2   1   2
#     4  11  22  40  64  90 126 161 201 259 310 358
#     4  11  22  41  61  88 127 161 205 254 306 367
#     4  10  22  42  62  91 124 161 208 253 301 370
#     4   9  21  41  59  89 121 159 210 251 299 362
#     4   9  19  39  61  89 119 160 200 249 308 367
#     4  10  22  40  64  88 124 165 202 252 310 360
#     4  10  20  40  60  86 124 156 206 246 306 368
#     4   9  19  37  65  82 124 162 194 253 309 352
#
# _framework density 24.171142
#
# number of rings (size 3 to 8) (size 9 to 14) (size 15 to 20)
#    0.000    2.133    2.667    0.400    5.600    2.667 
#    7.200    0.667    0.000    0.000    0.000    0.000 
#    0.000    0.000    0.000    0.000    0.000    0.000 
#
# Total GULP energy -83520.003076 kJ/mol
# GULP energy per Si atom -5568.000205 kJ/mol
# Density = 2.411613 g / cm^3
# Si number density = 24.171142 Si / 1000 Ang^3
#
#
#
# Elastic Constant Matrix: (Units=GPa)
#
#
# Indices 1 2 3 4 5 6 
#
# 1 104.4748 47.0859 23.2358 -8.6485 -16.0161 18.5006
# 2 47.0859 158.7834 34.8405 -21.7916 -16.7283 12.6140
# 3 23.2358 34.8405 49.3664 -11.0390 -18.7255 0.2135
# 4 -8.6485 -21.7916 -11.0390 31.7527 6.1465 -15.9042
# 5 -16.0161 -16.7283 -18.7255 6.1465 41.4015 -12.4034
# 6 18.5006 12.6140 0.2135 -15.9042 -12.4034 61.7180
#
#
#
# Elastic Compliance Matrix: (Units=1/GPa)
#
#
# Indices 1 2 3 4 5 6 
#
# 1 0.012237 -0.002636 -0.003805 -0.001690 0.001207 -0.003309
# 2 -0.002636 0.008443 -0.003832 0.003756 0.000122 0.000070
# 3 -0.003805 -0.003832 0.030916 0.007934 0.011642 0.006201
# 4 -0.001690 0.003756 0.007934 0.041432 0.001504 0.010691
# 5 0.001207 0.000122 0.011642 0.001504 0.031603 0.006312
# 6 -0.003309 0.000070 0.006201 0.010691 0.006312 0.021182
#
#
# Mechanical properties :
#
#
# Convention : Reuss Voigt Hill
#
# Bulk Modulus (GPa) = 32.20674 58.10546 45.15610
# Shear Modulus (GPa) = 28.29484 40.80527 34.55005
#
# Velocity S-wave (km/s) = 3.42512 4.11321 3.78483
# Velocity P-wave (km/s) = 5.38473 6.83003 6.14999
#
# Compressibility (1/GPa) = 0.03104940
#
# Stress axis : x y z
#
# Youngs Moduli (GPa) = 81.71894 118.43973 32.34577
#
# Poissons Ratio (x) = 0.31217 0.12308
# Poissons Ratio (y) = 0.21539 0.12396
# Poissons Ratio (z) = 0.31096 0.45391
#
# Static dielectric constant tensor:
#      x y z
#    x 1.946650 0.036230 0.006210 
#    y 0.036230 1.943120 0.004120 
#    z 0.006210 0.004120 1.989360 
# 
# From -- ./inp_files/528578.got.cif
#   From: 2010.05.17/outbox.cif.g08.bks.cpg/sg2_265_cif.got.tgz:528578.got - 2010.06.03 11:33:40.
