data_PCOD9106132
_publ_section_title
;
Structure prediction by ZEFSAII (Michael W. Deem and Ramdas Pophale) SiO2 
 PCOD9106132
Probable space group: P -1
;
_chemical_formula_sum "Si O2"
_cell_formula_units_Z 16
_cell_length_a 9.544462
_cell_length_b 14.252943
_cell_length_c 22.204160
_cell_angle_alpha 154.969868
_cell_angle_beta 45.889500
_cell_angle_gamma 142.582932
_cell_volume 773.245021
_symmetry_space_group_name_H-M "P -1"
_symmetry_group_IT_number 2
_symmetry_cell_setting 'triclinic'
loop_
_space_group_symop_operation_xyz
x,y,z
-x,-y,-z
loop_
_atom_site_type_symbol
_atom_site_label
_atom_site_fract_x
_atom_site_fract_y
_atom_site_fract_z
Si Si1 0.200336 0.975326 0.957027
Si Si2 0.431016 0.477087 0.241036
Si Si3 0.305678 0.913012 0.138793
Si Si4 0.271004 0.686174 0.520179
Si Si5 0.068821 0.407335 0.834956
Si Si6 0.440834 0.848242 0.366090
Si Si7 0.979618 0.623845 0.308354
Si Si8 0.488455 0.485713 0.567211
O O1 0.454398 0.072050 0.908382
O O2 0.096506 0.672326 0.824995
O O3 0.284392 0.162421 0.099309
O O4 0.000000 0.000000 0.000000
O O5 0.345677 0.571600 0.376468
O O6 0.702897 0.604596 0.239386
O O7 0.396999 0.572886 0.241698
O O8 0.130841 0.798182 0.180408
O O9 0.377685 0.208611 0.273593
O O10 0.170778 0.701372 0.002486
O O11 0.393992 0.662811 0.528518
O O12 0.000000 0.500000 0.500000
O O13 0.358047 0.979293 0.641820
O O14 0.984944 0.354838 0.761167
O O15 0.212596 0.812665 0.384716
O O16 0.500000 0.000000 0.500000
O O17 0.770944 0.652168 0.409438
O O18 0.500000 0.500000 0.500000
#
# Coordination Sequence:
#
# PCOD9106132 Si02
#       8
#     2   2   2   2   2   2   2   2
#     4  10  20  39  67  95 127 164 203 260 329 383
#     4  10  21  42  67  90 128 170 208 262 331 379
#     4   9  23  40  66  95 133 160 216 266 331 370
#     4  11  26  42  61  93 126 171 217 262 315 383
#     4  10  21  42  69  96 123 166 217 274 319 384
#     4  10  24  42  61  89 127 169 210 259 319 380
#     4  11  23  42  69  95 125 167 226 265 314 396
#     4  11  26  40  63  95 130 176 212 266 319 376
#
# _framework density 20.692017
#
# number of rings (size 3 to 8) (size 9 to 14) (size 15 to 20)
#    0.000    1.750    2.500    0.000    8.750    3.000 
#    0.000    0.625    0.000    0.000    0.000    0.000 
#    0.000    0.000    0.000    0.000    0.000    0.000 
#
# Total GULP energy -89293.683185 kJ/mol
# GULP energy per Si atom -5580.855199 kJ/mol
# Density = 2.064492 g / cm^3
# Si number density = 20.692017 Si / 1000 Ang^3
#
#
#
# Elastic Constant Matrix: (Units=GPa)
#
#
# Indices 1 2 3 4 5 6 
#
# 1 128.7975 47.2909 7.6660 -4.6300 12.8863 -3.3931
# 2 47.2909 103.4281 12.5558 -7.5737 16.4985 3.0030
# 3 7.6660 12.5558 38.8737 -2.8546 8.4021 1.0604
# 4 -4.6300 -7.5737 -2.8546 29.4874 0.9573 5.7253
# 5 12.8863 16.4985 8.4021 0.9573 26.2792 2.7944
# 6 -3.3931 3.0030 1.0604 5.7253 2.7944 32.7919
#
#
#
# Elastic Compliance Matrix: (Units=1/GPa)
#
#
# Indices 1 2 3 4 5 6 
#
# 1 0.009516 -0.003999 -0.000114 0.000238 -0.002289 0.001508
# 2 -0.003999 0.012862 -0.001929 0.002973 -0.005437 -0.001585
# 3 -0.000114 -0.001929 0.028261 0.002580 -0.007806 -0.000534
# 4 0.000238 0.002973 0.002580 0.036314 -0.003453 -0.006377
# 5 -0.002289 -0.005437 -0.007806 -0.003453 0.045504 -0.002761
# 6 0.001508 -0.001585 -0.000534 -0.006377 -0.002761 0.032162
#
#
# Mechanical properties :
#
#
# Convention : Reuss Voigt Hill
#
# Bulk Modulus (GPa) = 25.93643 45.12497 35.53070
# Shear Modulus (GPa) = 26.37752 31.28415 28.83084
#
# Velocity S-wave (km/s) = 3.57426 3.89253 3.73678
# Velocity P-wave (km/s) = 5.44018 6.48518 5.98553
#
# Compressibility (1/GPa) = 0.03855581
#
# Stress axis : x y z
#
# Youngs Moduli (GPa) = 105.08205 77.74758 35.38442
#
# Poissons Ratio (x) = 0.31089 0.00404
# Poissons Ratio (y) = 0.42019 0.06826
# Poissons Ratio (z) = 0.01200 0.14998
#
# Static dielectric constant tensor:
#      x y z
#    x 1.747460 -0.006160 -0.014400 
#    y -0.006160 1.728420 0.047000 
#    z -0.014400 0.047000 1.813950 
# 
# From -- ./inp_files/189240.got.cif
#   From: 2010.05.17/outbox.cif.g08.bks.cpg/sg2_95_cif.got.tgz:189240.got - 2010.06.03 11:33:40.
