data_PCOD9106794
_publ_section_title
;
Structure prediction by ZEFSAII (Michael W. Deem and Ramdas Pophale) SiO2 
 PCOD9106794
Probable space group: P -1
;
_chemical_formula_sum "Si O2"
_cell_formula_units_Z 14
_cell_length_a 10.457673
_cell_length_b 12.670383
_cell_length_c 11.450812
_cell_angle_alpha 143.309449
_cell_angle_beta 124.644012
_cell_angle_gamma 43.082550
_cell_volume 618.673702
_symmetry_space_group_name_H-M "P -1"
_symmetry_group_IT_number 2
_symmetry_cell_setting 'triclinic'
loop_
_space_group_symop_operation_xyz
x,y,z
-x,-y,-z
loop_
_atom_site_type_symbol
_atom_site_label
_atom_site_fract_x
_atom_site_fract_y
_atom_site_fract_z
Si Si1 0.560174 0.668273 0.192145
Si Si2 0.861830 0.969449 0.985778
Si Si3 0.665483 0.261164 0.344286
Si Si4 0.295774 0.154977 0.399539
Si Si5 0.983500 0.711818 0.429386
Si Si6 0.146039 0.063339 0.655743
Si Si7 0.959584 0.373502 0.032888
O O1 0.612947 0.718667 0.393193
O O2 0.745312 0.555495 0.107884
O O3 0.415807 0.905869 0.279593
O O4 0.500000 0.500000 0.000000
O O5 0.772691 0.856068 0.773836
O O6 0.990950 0.815936 0.021565
O O7 0.688685 0.173525 0.146189
O O8 0.000000 0.000000 0.000000
O O9 0.500000 0.500000 0.500000
O O10 0.857052 0.247888 0.442908
O O11 0.687112 0.101496 0.317901
O O12 0.106043 0.268731 0.476565
O O13 0.820395 0.882322 0.407214
O O14 0.070281 0.477720 0.218167
O O15 0.000000 0.000000 0.500000
O O16 0.021503 0.280611 0.855346
#
# Coordination Sequence:
#
# PCOD9106794 Si02
#       7
#     2   2   2   2   2   2   2
#     4  10  22  38  61  90 126 160 216 265 314 374
#     4  11  21  41  66  92 132 170 207 260 329 385
#     4  10  22  41  63  93 125 166 215 258 313 385
#     4  10  22  40  59  95 130 163 210 266 321 385
#     4  10  20  40  61  87 126 161 212 262 319 376
#     4   9  20  37  63  84 118 166 208 255 315 376
#     4  10  22  39  63  90 120 167 213 258 322 386
#
# _framework density 22.629052000000001
#
# number of rings (size 3 to 8) (size 9 to 14) (size 15 to 20)
#    0.000    2.000    1.429    1.286    4.000    4.571 
#    5.143    7.143    0.000    0.000    0.000    0.000 
#    0.000    0.000    0.000    0.000    0.000    0.000 
#
# Total GULP energy -77986.671741 kJ/mol
# GULP energy per Si atom -5570.476553 kJ/mol
# Density = 2.257755 g / cm^3
# Si number density = 22.629052 Si / 1000 Ang^3
#
#
#
# Elastic Constant Matrix: (Units=GPa)
#
#
# Indices 1 2 3 4 5 6 
#
# 1 25.9532 13.9935 26.8136 -6.8392 3.3894 8.8384
# 2 13.9935 47.4533 27.8013 6.4520 -10.2396 -0.9662
# 3 26.8136 27.8013 182.8839 2.1719 -5.6570 -8.5122
# 4 -6.8392 6.4520 2.1719 32.6359 -0.6697 -2.6722
# 5 3.3894 -10.2396 -5.6570 -0.6697 47.5019 4.3207
# 6 8.8384 -0.9662 -8.5122 -2.6722 4.3207 23.6245
#
#
#
# Elastic Compliance Matrix: (Units=1/GPa)
#
#
# Indices 1 2 3 4 5 6 
#
# 1 0.076099 -0.021637 -0.009705 0.018304 -0.008331 -0.029258
# 2 -0.021637 0.031058 -0.000897 -0.009925 0.007395 0.006567
# 3 -0.009705 -0.000897 0.007348 -0.001847 0.000813 0.005884
# 4 0.018304 -0.009925 -0.001847 0.036233 -0.002855 -0.003299
# 5 -0.008331 0.007395 0.000813 -0.002855 0.023377 -0.000886
# 6 -0.029258 0.006567 0.005884 -0.003299 -0.000886 0.055453
#
#
# Mechanical properties :
#
#
# Convention : Reuss Voigt Hill
#
# Bulk Modulus (GPa) = 19.98885 43.72302 31.85593
# Shear Modulus (GPa) = 16.09152 33.26460 24.67806
#
# Velocity S-wave (km/s) = 2.66954 3.83821 3.30593
# Velocity P-wave (km/s) = 4.28420 6.24548 5.35539
#
# Compressibility (1/GPa) = 0.05002790
#
# Stress axis : x y z
#
# Youngs Moduli (GPa) = 13.14072 32.19768 136.08904
#
# Poissons Ratio (x) = 0.69666 1.32075
# Poissons Ratio (y) = 0.28433 0.12204
# Poissons Ratio (z) = 0.12753 0.02887
#
# Static dielectric constant tensor:
#      x y z
#    x 1.862920 0.021020 0.025010 
#    y 0.021020 1.914600 -0.021090 
#    z 0.025010 -0.021090 1.881860 
# 
# From -- ./inp_files/433553.got.cif
#   From: 2010.05.17/outbox.cif.g08.bks.cpg/sg2_217_cif.got.tgz:433553.got - 2010.06.03 11:33:40.
