data_PCOD9106052
_publ_section_title
;
Structure prediction by ZEFSAII (Michael W. Deem and Ramdas Pophale) SiO2 
 PCOD9106052
Probable space group: P -1
;
_chemical_formula_sum "Si O2"
_cell_formula_units_Z 14
_cell_length_a 12.297381
_cell_length_b 6.845236
_cell_length_c 14.827947
_cell_angle_alpha 114.932537
_cell_angle_beta 37.544035
_cell_angle_gamma 128.116091
_cell_volume 592.395934
_symmetry_space_group_name_H-M "P -1"
_symmetry_group_IT_number 2
_symmetry_cell_setting 'triclinic'
loop_
_space_group_symop_operation_xyz
x,y,z
-x,-y,-z
loop_
_atom_site_type_symbol
_atom_site_label
_atom_site_fract_x
_atom_site_fract_y
_atom_site_fract_z
Si Si1 0.953007 0.583161 0.441373
Si Si2 0.704420 0.975181 0.352212
Si Si3 0.409973 0.567215 0.708441
Si Si4 0.391736 0.665167 0.093847
Si Si5 0.143651 0.507927 0.710203
Si Si6 0.812452 0.066783 0.500116
Si Si7 0.714213 0.232128 0.013364
O O1 0.168169 0.587399 0.272009
O O2 0.001476 0.800048 0.523527
O O3 0.861746 0.588900 0.405802
O O4 0.797602 0.315606 0.537184
O O5 0.626712 0.707943 0.306612
O O6 0.500000 0.000000 0.500000
O O7 0.858744 0.232807 0.248327
O O8 0.810795 0.987898 0.381735
O O9 0.339049 0.570512 0.653688
O O10 0.271224 0.605276 0.879352
O O11 0.627731 0.826717 0.622844
O O12 0.555820 0.940416 0.076437
O O13 0.500000 0.500000 0.000000
O O14 0.362945 0.692724 0.011375
O O15 0.942630 0.295602 0.850800
#
# Coordination Sequence:
#
# PCOD9106052 Si02
#       7
#     2   2   2   2   2   2   2
#     4   9  20  40  65  93 126 160 216 262 305 375
#     4  11  24  41  62  92 128 166 213 259 311 374
#     4  12  23  40  69  90 129 170 207 257 324 371
#     4  10  21  41  65  91 132 165 202 264 316 370
#     4  10  23  41  64  93 129 163 208 268 308 377
#     4  10  20  39  67  89 122 167 211 256 309 372
#     4  10  23  40  63  98 125 162 217 254 313 382
#
# _framework density 23.632840999999999
#
# number of rings (size 3 to 8) (size 9 to 14) (size 15 to 20)
#    0.000    1.714    2.857    0.857    0.000    6.286 
#    0.000    0.714    6.286    0.000    0.000    0.000 
#    0.000    0.000    0.000    0.000    0.000    0.000 
#
# Total GULP energy -78144.144584 kJ/mol
# GULP energy per Si atom -5581.724613 kJ/mol
# Density = 2.357905 g / cm^3
# Si number density = 23.632841 Si / 1000 Ang^3
#
#
#
# Elastic Constant Matrix: (Units=GPa)
#
#
# Indices 1 2 3 4 5 6 
#
# 1 76.5639 46.3185 31.2642 22.2649 6.5352 10.7078
# 2 46.3185 140.1374 36.0365 6.8839 -4.9835 22.7393
# 3 31.2642 36.0365 55.6142 4.9871 4.8873 -6.0000
# 4 22.2649 6.8839 4.9871 30.1010 7.6129 -3.1993
# 5 6.5352 -4.9835 4.8873 7.6129 28.2091 2.5299
# 6 10.7078 22.7393 -6.0000 -3.1993 2.5299 41.9273
#
#
#
# Elastic Compliance Matrix: (Units=1/GPa)
#
#
# Indices 1 2 3 4 5 6 
#
# 1 0.026109 -0.003412 -0.011814 -0.017633 0.000863 -0.007906
# 2 -0.003412 0.011139 -0.006326 -0.000835 0.004655 -0.006420
# 3 -0.011814 -0.006326 0.029854 0.008215 -0.006824 0.011759
# 4 -0.017633 -0.000835 0.008215 0.049181 -0.011708 0.010591
# 5 0.000863 0.004655 -0.006824 -0.011708 0.041050 -0.007092
# 6 -0.007906 -0.006420 0.011759 0.010591 -0.007092 0.032270
#
#
# Mechanical properties :
#
#
# Convention : Reuss Voigt Hill
#
# Bulk Modulus (GPa) = 41.67315 55.50599 48.58957
# Shear Modulus (GPa) = 20.77217 30.62724 25.69971
#
# Velocity S-wave (km/s) = 2.96793 3.60385 3.30124
# Velocity P-wave (km/s) = 5.42371 6.39177 5.92754
#
# Compressibility (1/GPa) = 0.02399627
#
# Stress axis : x y z
#
# Youngs Moduli (GPa) = 38.30095 89.77778 33.49689
#
# Poissons Ratio (x) = 0.30631 0.39574
# Poissons Ratio (y) = 0.13068 0.21191
# Poissons Ratio (z) = 0.45250 0.56796
#
# Static dielectric constant tensor:
#      x y z
#    x 1.944210 0.008810 -0.011250 
#    y 0.008810 1.931790 -0.022350 
#    z -0.011250 -0.022350 1.884520 
# 
# From -- ./inp_files/78458.got.cif
#   From: 2010.05.17/outbox.cif.g08.bks.cpg/sg2_40_cif.got.tgz:78458.got - 2010.06.03 11:33:40.
