data_PCOD9106305
_publ_section_title
;
Structure prediction by ZEFSAII (Michael W. Deem and Ramdas Pophale) SiO2 
 PCOD9106305
Probable space group: P -1
;
_chemical_formula_sum "Si O2"
_cell_formula_units_Z 16
_cell_length_a 8.743356
_cell_length_b 15.532580
_cell_length_c 15.297550
_cell_angle_alpha 29.061994
_cell_angle_beta 67.577849
_cell_angle_gamma 85.984565
_cell_volume 755.544351
_symmetry_space_group_name_H-M "P -1"
_symmetry_group_IT_number 2
_symmetry_cell_setting 'triclinic'
loop_
_space_group_symop_operation_xyz
x,y,z
-x,-y,-z
loop_
_atom_site_type_symbol
_atom_site_label
_atom_site_fract_x
_atom_site_fract_y
_atom_site_fract_z
Si Si1 0.327586 0.645045 0.292151
Si Si2 0.940556 0.882643 0.523292
Si Si3 0.728239 0.973786 0.816827
Si Si4 0.655777 0.993557 0.409254
Si Si5 0.981259 0.495682 0.902432
Si Si6 0.579951 0.734252 0.311509
Si Si7 0.075447 0.821957 0.221171
Si Si8 0.414503 0.773732 0.482131
O O1 0.425830 0.756159 0.266499
O O2 0.193394 0.735406 0.222112
O O3 0.162389 0.381367 0.557938
O O4 0.529021 0.746407 0.099128
O O5 0.747395 0.874489 0.539371
O O6 0.919464 0.656322 0.742666
O O7 0.000000 0.000000 0.500000
O O8 0.119580 0.024062 0.286838
O O9 0.865287 0.124419 0.736268
O O10 0.629910 0.072152 0.696209
O O11 0.550941 0.882230 0.440563
O O12 0.500000 0.000000 0.500000
O O13 0.827651 0.247033 0.129407
O O14 0.194719 0.579650 0.737290
O O15 0.000000 0.500000 0.000000
O O16 0.500000 0.500000 0.500000
O O17 0.524054 0.720033 0.436079
O O18 0.808829 0.934246 0.060049
#
# Coordination Sequence:
#
# PCOD9106305 Si02
#       8
#     2   2   2   2   2   2   2   2
#     4  10  20  39  70  91 132 173 229 282 332 414
#     4  11  24  44  72 100 139 184 231 286 352 424
#     4  10  20  41  68  97 134 181 229 283 351 407
#     4  12  25  46  71 101 138 181 236 294 346 422
#     4  11  23  46  71 100 136 183 225 288 357 413
#     4  11  23  40  61  97 141 184 219 287 347 407
#     4  10  20  39  68  98 127 175 235 273 337 417
#     4  11  23  42  68  97 140 179 230 281 351 414
#
# _framework density 21.176783
#
# number of rings (size 3 to 8) (size 9 to 14) (size 15 to 20)
#    0.000    1.250    5.000    1.500    0.000    7.000 
#    0.000    2.500    0.000    0.000    0.000    0.000 
#    0.000    0.000    0.000    0.000    0.000    0.000 
#
# Total GULP energy -89296.863015 kJ/mol
# GULP energy per Si atom -5581.053938 kJ/mol
# Density = 2.112858 g / cm^3
# Si number density = 21.176783 Si / 1000 Ang^3
#
#
#
# Elastic Constant Matrix: (Units=GPa)
#
#
# Indices 1 2 3 4 5 6 
#
# 1 117.7821 61.0970 55.6606 0.9683 -13.7885 11.2004
# 2 61.0970 152.9060 55.3376 22.1811 -16.1691 15.4434
# 3 55.6606 55.3376 160.0755 -1.0663 -23.8487 17.0845
# 4 0.9683 22.1811 -1.0663 39.0849 -0.2565 -5.2192
# 5 -13.7885 -16.1691 -23.8487 -0.2565 37.8783 -7.6434
# 6 11.2004 15.4434 17.0845 -5.2192 -7.6434 33.1758
#
#
#
# Elastic Compliance Matrix: (Units=1/GPa)
#
#
# Indices 1 2 3 4 5 6 
#
# 1 0.011885 -0.003947 -0.002576 0.001836 0.000964 -0.000337
# 2 -0.003947 0.010025 -0.001624 -0.006054 0.001136 -0.003189
# 3 -0.002576 -0.001624 0.008393 0.000999 0.003301 -0.001779
# 4 0.001836 -0.006054 0.000999 0.029863 0.000213 0.006431
# 5 0.000964 0.001136 0.003301 0.000213 0.030212 0.004440
# 6 -0.000337 -0.003189 -0.001779 0.006431 0.004440 0.034691
#
#
# Mechanical properties :
#
#
# Convention : Reuss Voigt Hill
#
# Bulk Modulus (GPa) = 71.38713 86.10602 78.74657
# Shear Modulus (GPa) = 34.23889 39.27236 36.75562
#
# Velocity S-wave (km/s) = 4.02532 4.31106 4.17064
# Velocity P-wave (km/s) = 7.44228 8.09501 7.77550
#
# Compressibility (1/GPa) = 0.01400813
#
# Stress axis : x y z
#
# Youngs Moduli (GPa) = 84.14008 99.74834 119.15330
#
# Poissons Ratio (x) = 0.39370 0.30697
# Poissons Ratio (y) = 0.33209 0.19352
# Poissons Ratio (z) = 0.21677 0.16200
#
# Static dielectric constant tensor:
#      x y z
#    x 2.062420 0.134090 0.087140 
#    y 0.134090 1.878820 0.044390 
#    z 0.087140 0.044390 1.799080 
# 
# From -- ./inp_files/504969.got.cif
#   From: 2010.05.17/outbox.cif.g08.bks.cpg/sg2_253_cif.got.tgz:504969.got - 2010.06.03 11:33:40.
