data_PCOD9106653
_publ_section_title
;
Structure prediction by ZEFSAII (Michael W. Deem and Ramdas Pophale) SiO2 
 PCOD9106653
Probable space group: P -1
;
_chemical_formula_sum "Si O2"
_cell_formula_units_Z 15
_cell_length_a 8.477920
_cell_length_b 8.914231
_cell_length_c 23.288615
_cell_angle_alpha 139.791096
_cell_angle_beta 140.201829
_cell_angle_gamma 46.079665
_cell_volume 702.519861
_symmetry_space_group_name_H-M "P -1"
_symmetry_group_IT_number 2
_symmetry_cell_setting 'triclinic'
loop_
_space_group_symop_operation_xyz
x,y,z
-x,-y,-z
loop_
_atom_site_type_symbol
_atom_site_label
_atom_site_fract_x
_atom_site_fract_y
_atom_site_fract_z
Si Si1 0.666418 0.611667 0.535450
Si Si2 0.886496 0.169196 0.385000
Si Si3 0.613400 0.286657 0.102124
Si Si4 0.014268 0.877197 0.029963
Si Si5 0.151401 0.333690 0.904235
Si Si6 0.394728 0.233169 0.817397
Si Si7 0.112636 0.822236 0.742002
Si Si8 0.500000 0.000000 0.500000
O O1 0.500000 0.500000 0.500000
O O2 0.812313 0.391522 0.471597
O O3 0.878181 0.711480 0.657520
O O4 0.522934 0.822423 0.513453
O O5 0.799187 0.249633 0.319081
O O6 0.188866 0.065027 0.435181
O O7 0.743694 0.964710 0.300029
O O8 0.692689 0.520587 0.169930
O O9 0.654606 0.265644 0.175104
O O10 0.339396 0.308796 0.003795
O O11 0.804379 0.050639 0.060433
O O12 0.299653 0.853376 0.126197
O O13 0.985176 0.606496 0.937044
O O14 0.000000 0.000000 0.000000
O O15 0.319967 0.291666 0.880611
O O16 0.022299 0.113560 0.804526
#
# Coordination Sequence:
#
# PCOD9106653 Si02
#       8
#     2   2   2   2   2   2   2   1
#     4  11  26  49  73 104 139 179 240 290 353 426
#     4  10  24  47  69  99 137 181 232 288 352 413
#     4  11  21  37  63  96 131 175 226 277 340 405
#     4  11  19  35  62  92 132 178 224 274 333 407
#     4  10  20  40  59  92 136 174 222 276 334 407
#     4  10  21  37  63  98 131 174 229 276 331 412
#     4  10  23  42  64  96 137 175 224 289 341 409
#     4  10  22  46  72  96 136 180 220 294 344 398
#
# _framework density 21.351710000000001
#
# number of rings (size 3 to 8) (size 9 to 14) (size 15 to 20)
#    0.000    1.600    2.667    2.800    3.733    1.067 
#    4.800    6.667    0.000    0.000    0.000    0.000 
#    0.000    0.000    0.000    0.000    0.000    0.000 
#
# Total GULP energy -83610.241973 kJ/mol
# GULP energy per Si atom -5574.016132 kJ/mol
# Density = 2.130311 g / cm^3
# Si number density = 21.351710 Si / 1000 Ang^3
#
#
#
# Elastic Constant Matrix: (Units=GPa)
#
#
# Indices 1 2 3 4 5 6 
#
# 1 61.2466 38.1040 40.1213 6.5657 13.8443 21.5809
# 2 38.1040 113.2119 55.1726 1.2568 -2.0514 19.6296
# 3 40.1213 55.1726 113.0416 16.5647 9.4635 8.2941
# 4 6.5657 1.2568 16.5647 30.0695 18.4229 5.0031
# 5 13.8443 -2.0514 9.4635 18.4229 27.7942 8.4445
# 6 21.5809 19.6296 8.2941 5.0031 8.4445 27.0072
#
#
#
# Elastic Compliance Matrix: (Units=1/GPa)
#
#
# Indices 1 2 3 4 5 6 
#
# 1 0.033302 -0.004286 -0.008593 0.009851 -0.015046 -0.017978
# 2 -0.004286 0.014484 -0.005629 0.000239 0.007302 -0.007701
# 3 -0.008593 -0.005629 0.015226 -0.008968 0.002443 0.007179
# 4 0.009851 0.000239 -0.008968 0.062447 -0.042105 -0.003694
# 5 -0.015046 0.007302 0.002443 -0.042105 0.073929 -0.009351
# 6 -0.017978 -0.007701 0.007179 -0.003694 -0.009351 0.058393
#
#
# Mechanical properties :
#
#
# Convention : Reuss Voigt Hill
#
# Bulk Modulus (GPa) = 38.46660 61.58842 50.02751
# Shear Modulus (GPa) = 16.47641 27.24766 21.86203
#
# Velocity S-wave (km/s) = 2.78090 3.57618 3.20332
# Velocity P-wave (km/s) = 5.32598 6.77934 6.09612
#
# Compressibility (1/GPa) = 0.02599658
#
# Stress axis : x y z
#
# Youngs Moduli (GPa) = 30.02785 69.04261 65.67527
#
# Poissons Ratio (x) = 0.29591 0.56434
# Poissons Ratio (y) = 0.12870 0.36970
# Poissons Ratio (z) = 0.25802 0.38866
#
# Static dielectric constant tensor:
#      x y z
#    x 1.692620 0.317590 0.386280 
#    y 0.317590 0.972760 -1.025150 
#    z 0.386280 -1.025150 0.414750 
# 
# From -- ./inp_files/215673.got.cif
#   From: 2010.05.17/outbox.cif.g08.bks.cpg/sg2_108_cif.got.tgz:215673.got - 2010.06.03 11:33:40.
