data_PCOD9106991
_publ_section_title
;
Structure prediction by ZEFSAII (Michael W. Deem and Ramdas Pophale) SiO2 
 PCOD9106991
Probable space group: P -1
;
_chemical_formula_sum "Si O2"
_cell_formula_units_Z 13
_cell_length_a 7.710695
_cell_length_b 12.102444
_cell_length_c 6.894613
_cell_angle_alpha 78.653536
_cell_angle_beta 57.262253
_cell_angle_gamma 96.353874
_cell_volume 511.906924
_symmetry_space_group_name_H-M "P -1"
_symmetry_group_IT_number 2
_symmetry_cell_setting 'triclinic'
loop_
_space_group_symop_operation_xyz
x,y,z
-x,-y,-z
loop_
_atom_site_type_symbol
_atom_site_label
_atom_site_fract_x
_atom_site_fract_y
_atom_site_fract_z
Si Si1 0.500000 0.500000 0.500000
Si Si2 0.622964 0.852915 0.783308
Si Si3 0.874232 0.235438 0.847724
Si Si4 0.028891 0.266626 0.293245
Si Si5 0.618393 0.082429 0.573004
Si Si6 0.985240 0.505319 0.274978
Si Si7 0.308493 0.218092 0.676888
O O1 0.737412 0.477059 0.384862
O O2 0.388031 0.356101 0.616702
O O3 0.637916 0.804034 0.572603
O O4 0.183115 0.813259 0.648989
O O5 0.707612 0.993710 0.681993
O O6 0.372723 0.829141 0.985851
O O7 0.956915 0.256225 0.567575
O O8 0.892896 0.361966 0.889364
O O9 0.051373 0.180555 0.856737
O O10 0.082805 0.404069 0.167045
O O11 0.230699 0.214269 0.165632
O O12 0.439741 0.142083 0.739974
O O13 0.500000 0.000000 0.500000
O O14 0.000000 0.500000 0.500000
#
# Coordination Sequence:
#
# PCOD9106991 Si02
#       7
#     1   2   2   2   2   2   2
#     4  10  16  34  62  80 110 150 194 230 284 336
#     4  10  21  36  56  83 118 143 188 235 279 343
#     4   9  20  36  56  87 110 147 187 232 289 336
#     4  10  19  37  58  80 110 153 188 229 285 335
#     4  10  20  36  59  80 112 153 187 230 283 337
#     4   9  18  33  59  84 112 148 191 231 285 341
#     4   9  19  36  58  80 111 151 183 234 283 335
#
# _framework density 25.395240000000001
#
# number of rings (size 3 to 8) (size 9 to 14) (size 15 to 20)
#    0.000    2.462    1.538    1.385    0.000    1.846 
#    0.000    6.154    0.000    0.000    0.000    0.000 
#    0.000    0.000    0.000    0.000    0.000    0.000 
#
# Total GULP energy -72473.747244 kJ/mol
# GULP energy per Si atom -5574.903634 kJ/mol
# Density = 2.533744 g / cm^3
# Si number density = 25.395240 Si / 1000 Ang^3
#
#
#
# Elastic Constant Matrix: (Units=GPa)
#
#
# Indices 1 2 3 4 5 6 
#
# 1 101.2003 39.0757 37.4837 16.8807 -26.2009 -9.2618
# 2 39.0757 151.6322 38.2479 38.2788 -21.9807 -11.7399
# 3 37.4837 38.2479 110.4303 28.6900 -17.9018 -5.1299
# 4 16.8807 38.2788 28.6900 30.9920 -4.5350 -17.5248
# 5 -26.2009 -21.9807 -17.9018 -4.5350 46.0719 11.5525
# 6 -9.2618 -11.7399 -5.1299 -17.5248 11.5525 41.8435
#
#
#
# Elastic Compliance Matrix: (Units=1/GPa)
#
#
# Indices 1 2 3 4 5 6 
#
# 1 0.013188 -0.001275 -0.002372 -0.002865 0.005823 -0.000537
# 2 -0.001275 0.011015 0.001438 -0.016512 0.004781 -0.005251
# 3 -0.002372 0.001438 0.014182 -0.016702 0.004891 -0.006728
# 4 -0.002865 -0.016512 -0.016702 0.086090 -0.015825 0.033111
# 5 0.005823 0.004781 0.004891 -0.015825 0.030612 -0.011850
# 6 -0.000537 -0.005251 -0.006728 0.033111 -0.011850 0.038621
#
#
# Mechanical properties :
#
#
# Convention : Reuss Voigt Hill
#
# Bulk Modulus (GPa) = 29.43777 65.87525 47.65651
# Shear Modulus (GPa) = 23.87239 40.34518 32.10878
#
# Velocity S-wave (km/s) = 3.06932 3.99016 3.55964
# Velocity P-wave (km/s) = 4.91711 6.87203 5.97507
#
# Compressibility (1/GPa) = 0.03396996
#
# Stress axis : x y z
#
# Youngs Moduli (GPa) = 75.82424 90.78158 70.51241
#
# Poissons Ratio (x) = 0.11571 0.16723
# Poissons Ratio (y) = 0.09664 -0.10142
# Poissons Ratio (z) = 0.17983 -0.13058
#
# Static dielectric constant tensor:
#      x y z
#    x 2.116180 -0.039520 0.128170 
#    y -0.039520 1.970640 0.016260 
#    z 0.128170 0.016260 2.004390 
# 
# From -- ./inp_files/387194.got.cif
#   From: 2010.05.17/outbox.cif.g08.bks.cpg/sg2_194_cif.got.tgz:387194.got - 2010.06.03 11:33:40.
