data_PCOD9106451
_publ_section_title
;
Structure prediction by ZEFSAII (Michael W. Deem and Ramdas Pophale) SiO2 
 PCOD9106451
Probable space group: P -1
;
_chemical_formula_sum "Si O2"
_cell_formula_units_Z 16
_cell_length_a 16.522744
_cell_length_b 11.483182
_cell_length_c 19.259474
_cell_angle_alpha 130.760660
_cell_angle_beta 21.021310
_cell_angle_gamma 141.263150
_cell_volume 772.810982
_symmetry_space_group_name_H-M "P -1"
_symmetry_group_IT_number 2
_symmetry_cell_setting 'triclinic'
loop_
_space_group_symop_operation_xyz
x,y,z
-x,-y,-z
loop_
_atom_site_type_symbol
_atom_site_label
_atom_site_fract_x
_atom_site_fract_y
_atom_site_fract_z
Si Si1 0.643374 0.915559 0.611749
Si Si2 0.806531 0.514419 0.213742
Si Si3 0.388166 0.860450 0.941035
Si Si4 0.700432 0.174402 0.353502
Si Si5 0.320063 0.301158 0.731352
Si Si6 0.321637 0.154372 0.159331
Si Si7 0.638180 0.597775 0.099795
Si Si8 0.333906 0.050288 0.843027
O O1 0.445735 0.708349 0.647215
O O2 0.542622 0.857844 0.749240
O O3 0.557143 0.052261 0.712859
O O4 0.976330 0.017315 0.379024
O O5 0.684348 0.589454 0.288764
O O6 0.000000 0.500000 0.000000
O O7 0.043034 0.674048 0.141902
O O8 0.545640 0.853159 0.877777
O O9 0.415972 0.057485 0.994684
O O10 0.567653 0.285810 0.509100
O O11 0.500000 0.000000 0.500000
O O12 0.676104 0.065402 0.260542
O O13 0.042097 0.315965 0.147311
O O14 0.371176 0.393854 0.804335
O O15 0.992124 0.090577 0.918439
O O16 0.433287 0.375647 0.149710
O O17 0.586032 0.745101 0.167112
#
# Coordination Sequence:
#
# PCOD9106451 Si02
#       8
#     2   2   2   2   2   2   2   2
#     4  11  24  42  66  95 128 169 205 262 322 374
#     4  10  20  39  70  93 123 164 207 267 318 354
#     4  10  23  45  64  90 131 164 215 266 307 373
#     4  11  21  37  63  97 123 163 215 262 316 365
#     4  11  20  39  66  97 127 160 209 271 313 366
#     4  11  26  42  64  92 132 172 210 250 319 390
#     4  11  23  40  63  93 131 172 205 259 316 380
#     4  11  22  38  64  94 131 159 212 266 311 371
#
# _framework density 20.703641000000001
#
# number of rings (size 3 to 8) (size 9 to 14) (size 15 to 20)
#    0.000    1.250    5.000    2.625    3.500    4.000 
#    0.000    0.625    0.000    0.000    0.000    0.000 
#    0.000    0.000    0.000    0.000    0.000    0.000 
#
# Total GULP energy -89283.943487 kJ/mol
# GULP energy per Si atom -5580.246468 kJ/mol
# Density = 2.065652 g / cm^3
# Si number density = 20.703641 Si / 1000 Ang^3
#
#
#
# Elastic Constant Matrix: (Units=GPa)
#
#
# Indices 1 2 3 4 5 6 
#
# 1 -1.9690 -56.6094 2.7399 1.4862 -14.9082 -11.1694
# 2 -56.6094 10.7495 5.5383 -0.2210 -9.6961 -9.6644
# 3 2.7399 5.5383 92.7649 3.5296 -6.0760 -6.6654
# 4 1.4862 -0.2210 3.5296 27.4521 2.7813 -5.2854
# 5 -14.9082 -9.6961 -6.0760 2.7813 27.5973 9.7586
# 6 -11.1694 -9.6644 -6.6654 -5.2854 9.7586 29.1030
#
#
#
# Elastic Compliance Matrix: (Units=1/GPa)
#
#
# Indices 1 2 3 4 5 6 
#
# 1 -0.001414 -0.015568 0.000386 -0.000426 -0.004640 -0.004146
# 2 -0.015568 0.002835 -0.000380 0.001069 -0.006652 -0.002696
# 3 0.000386 -0.000380 0.011095 -0.001349 0.002081 0.001620
# 4 -0.000426 0.001069 -0.001349 0.039219 -0.007467 0.009509
# 5 -0.004640 -0.006652 0.002081 -0.007467 0.038941 -0.017927
# 6 -0.004146 -0.002696 0.001620 0.009509 -0.017927 0.039983
#
#
# Mechanical properties :
#
#
# Convention : Reuss Voigt Hill
#
# Bulk Modulus (GPa) = -53.73911 0.54255 -26.59828
# Shear Modulus (GPa) = 32.13748 26.82226 29.47987
#
# Velocity S-wave (km/s) = 3.94415 3.60326 3.77755
# Velocity P-wave (km/s) = 2.29585 4.19212 2.48022
#
# Compressibility (1/GPa) = -0.01860842
#
# Stress axis : x y z
#
# Youngs Moduli (GPa) = -707.04966 352.73942 90.12858
#
# Poissons Ratio (x) = 5.49155 -0.03476
# Poissons Ratio (y) = -11.00755 0.03421
# Poissons Ratio (z) = 0.27268 0.13387
#
# Static dielectric constant tensor:
#      x y z
#    x 1.916870 -0.060770 -0.021970 
#    y -0.060770 1.795660 -0.024690 
#    z -0.021970 -0.024690 1.692030 
# 
# From -- ./inp_files/600084.got.cif
#   From: 2010.05.17/outbox.cif.g08.bks.cpg/sg2_301_cif.got.tgz:600084.got - 2010.06.03 11:33:40.
