data_PCOD9106158
_publ_section_title
;
Structure prediction by ZEFSAII (Michael W. Deem and Ramdas Pophale) SiO2 
 PCOD9106158
Probable space group: P -1
;
_chemical_formula_sum "Si O2"
_cell_formula_units_Z 16
_cell_length_a 9.427911
_cell_length_b 8.877901
_cell_length_c 13.082887
_cell_angle_alpha 106.002270
_cell_angle_beta 102.346335
_cell_angle_gamma 39.448252
_cell_volume 668.805451
_symmetry_space_group_name_H-M "P -1"
_symmetry_group_IT_number 2
_symmetry_cell_setting 'triclinic'
loop_
_space_group_symop_operation_xyz
x,y,z
-x,-y,-z
loop_
_atom_site_type_symbol
_atom_site_label
_atom_site_fract_x
_atom_site_fract_y
_atom_site_fract_z
Si Si1 0.448032 0.717326 0.665621
Si Si2 0.872260 0.288276 0.308589
Si Si3 0.762320 0.401018 0.825657
Si Si4 0.821753 0.762467 0.208257
Si Si5 0.124166 0.991490 0.106677
Si Si6 0.535760 0.809531 0.028235
Si Si7 0.801977 0.040615 0.519948
Si Si8 0.157546 0.349230 0.592355
O O1 0.679948 0.480086 0.710012
O O2 0.282320 0.732755 0.698957
O O3 0.371477 0.954648 0.734463
O O4 0.405190 0.730555 0.540411
O O5 0.092120 0.075424 0.373020
O O6 0.743512 0.556199 0.365361
O O7 0.950838 0.227557 0.193150
O O8 0.771890 0.221672 0.840145
O O9 0.004300 0.282769 0.840513
O O10 0.606387 0.625963 0.920267
O O11 0.723739 0.698527 0.118836
O O12 0.937449 0.605370 0.300305
O O13 0.315680 0.937892 0.076999
O O14 0.000000 0.000000 0.000000
O O15 0.500000 0.000000 0.000000
O O16 0.745920 0.900894 0.462301
O O17 0.000000 0.000000 0.500000
O O18 0.000000 0.500000 0.500000
#
# Coordination Sequence:
#
# PCOD9106158 Si02
#       8
#     2   2   2   2   2   2   2   2
#     4  10  20  41  66  96 134 172 219 271 327 403
#     4  10  20  39  67  96 137 176 221 274 330 393
#     4  12  25  44  67  94 132 179 225 273 337 394
#     4  11  23  42  67  96 132 172 223 275 333 392
#     4  12  27  44  67  98 134 176 226 274 333 400
#     4  12  26  44  65  95 130 172 225 281 334 390
#     4   8  17  37  66  98 135 178 214 269 332 396
#     4   9  20  36  65 100 130 175 217 264 333 389
#
# _framework density 23.923248999999998
#
# number of rings (size 3 to 8) (size 9 to 14) (size 15 to 20)
#    0.000    1.500    2.500    2.250    5.250    0.000 
#    0.000    1.875    0.000    4.500    0.000    0.000 
#    0.000    0.000    0.000    0.000    0.000    0.000 
#
# Total GULP energy -89125.118831 kJ/mol
# GULP energy per Si atom -5570.319927 kJ/mol
# Density = 2.386880 g / cm^3
# Si number density = 23.923249 Si / 1000 Ang^3
#
#
#
# Elastic Constant Matrix: (Units=GPa)
#
#
# Indices 1 2 3 4 5 6 
#
# 1 110.5089 18.4004 38.0644 -10.4499 -7.3130 13.4137
# 2 18.4004 76.0707 24.1915 -7.5897 -0.4334 36.1071
# 3 38.0644 24.1915 104.2952 -22.8004 6.3218 3.4317
# 4 -10.4499 -7.5897 -22.8004 34.3792 6.0140 0.4124
# 5 -7.3130 -0.4334 6.3218 6.0140 37.8150 -3.4443
# 6 13.4137 36.1071 3.4317 0.4124 -3.4443 40.4655
#
#
#
# Elastic Compliance Matrix: (Units=1/GPa)
#
#
# Indices 1 2 3 4 5 6 
#
# 1 0.010994 0.000245 -0.004037 0.000330 0.002449 -0.003316
# 2 0.000245 0.025611 -0.004470 0.003300 -0.001506 -0.022716
# 3 -0.004037 -0.004470 0.013895 0.007663 -0.004034 0.003727
# 4 0.000330 0.003300 0.007663 0.036347 -0.007388 -0.004703
# 5 0.002449 -0.001506 -0.004034 -0.007388 0.029062 0.003423
# 6 -0.003316 -0.022716 0.003727 -0.004703 0.003423 0.046104
#
#
# Mechanical properties :
#
#
# Convention : Reuss Voigt Hill
#
# Bulk Modulus (GPa) = 29.43110 50.24306 39.83708
# Shear Modulus (GPa) = 26.33484 36.54649 31.44067
#
# Velocity S-wave (km/s) = 3.32144 3.91276 3.62916
# Velocity P-wave (km/s) = 5.19983 6.43897 5.85229
#
# Compressibility (1/GPa) = 0.03397766
#
# Stress axis : x y z
#
# Youngs Moduli (GPa) = 90.95529 39.04598 71.96704
#
# Poissons Ratio (x) = -0.00957 0.29050
# Poissons Ratio (y) = -0.02228 0.32168
# Poissons Ratio (z) = 0.36715 0.17453
#
# Static dielectric constant tensor:
#      x y z
#    x 1.875130 0.011230 0.043710 
#    y 0.011230 1.976510 -0.002590 
#    z 0.043710 -0.002590 1.995510 
# 
# From -- ./inp_files/297245.got.cif
#   From: 2010.05.17/outbox.cif.g08.bks.cpg/sg2_149_cif.got.tgz:297245.got - 2010.06.03 11:33:40.
