data_PCOD9106627
_publ_section_title
;
Structure prediction by ZEFSAII (Michael W. Deem and Ramdas Pophale) SiO2 
 PCOD9106627
Probable space group: P -1
;
_chemical_formula_sum "Si O2"
_cell_formula_units_Z 14
_cell_length_a 8.032823
_cell_length_b 19.973643
_cell_length_c 5.426565
_cell_angle_alpha 123.734050
_cell_angle_beta 78.889925
_cell_angle_gamma 128.544001
_cell_volume 550.349682
_symmetry_space_group_name_H-M "P -1"
_symmetry_group_IT_number 2
_symmetry_cell_setting 'triclinic'
loop_
_space_group_symop_operation_xyz
x,y,z
-x,-y,-z
loop_
_atom_site_type_symbol
_atom_site_label
_atom_site_fract_x
_atom_site_fract_y
_atom_site_fract_z
Si Si1 0.758059 0.695285 0.873742
Si Si2 0.412854 0.158793 0.539968
Si Si3 0.720683 0.729274 0.460850
Si Si4 0.979771 0.597771 0.428392
Si Si5 0.833810 0.061592 0.681227
Si Si6 0.226895 0.630502 0.917895
Si Si7 0.756218 0.119526 0.320001
O O1 0.614415 0.668757 0.619536
O O2 0.886480 0.653290 0.673939
O O3 0.655311 0.657894 0.096442
O O4 0.928025 0.822716 0.131529
O O5 0.323689 0.189206 0.409171
O O6 0.607109 0.153499 0.420414
O O7 0.219915 0.048545 0.490764
O O8 0.538395 0.259008 0.881636
O O9 0.979908 0.789778 0.550518
O O10 0.804652 0.473364 0.238231
O O11 0.153331 0.627195 0.653729
O O12 0.077377 0.623582 0.174131
O O13 0.725930 0.057935 0.449648
O O14 0.721129 0.064482 0.961273
#
# Coordination Sequence:
#
# PCOD9106627 Si02
#       7
#     2   2   2   2   2   2   2
#     4  10  20  40  59  84 121 163 198 241 297 352
#     4  12  24  40  62  92 124 152 202 252 290 358
#     4  10  24  38  60  89 120 161 200 240 299 350
#     4  10  20  41  64  87 121 158 199 245 294 361
#     4  10  22  37  62  89 119 160 199 241 300 351
#     4  10  22  36  63  94 117 157 200 243 303 348
#     4  10  22  40  58  85 122 165 196 238 299 352
#
# _framework density 25.438372999999999
#
# number of rings (size 3 to 8) (size 9 to 14) (size 15 to 20)
#    0.000    1.714    0.000    5.143    0.000    9.143 
#    0.000    1.429    0.000    0.000    0.000    0.000 
#    0.000    0.000    0.000    0.000    0.000    0.000 
#
# Total GULP energy -78160.829036 kJ/mol
# GULP energy per Si atom -5582.916360 kJ/mol
# Density = 2.538047 g / cm^3
# Si number density = 25.438373 Si / 1000 Ang^3
#
#
#
# Elastic Constant Matrix: (Units=GPa)
#
#
# Indices 1 2 3 4 5 6 
#
# 1 120.0516 27.2677 28.3492 8.6146 5.6625 -8.4087
# 2 27.2677 74.4750 53.2096 0.4005 -6.4109 -11.5439
# 3 28.3492 53.2096 138.0555 -9.1975 -2.9257 10.3131
# 4 8.6146 0.4005 -9.1975 65.0596 -5.0970 -5.1894
# 5 5.6625 -6.4109 -2.9257 -5.0970 27.6775 -3.8569
# 6 -8.4087 -11.5439 10.3131 -5.1894 -3.8569 33.4400
#
#
#
# Elastic Compliance Matrix: (Units=1/GPa)
#
#
# Indices 1 2 3 4 5 6 
#
# 1 0.009551 -0.002688 -0.001182 -0.001533 -0.002806 0.001277
# 2 -0.002688 0.023084 -0.008998 0.000319 0.006519 0.010870
# 3 -0.001182 -0.008998 0.011522 0.001180 -0.001373 -0.006932
# 4 -0.001533 0.000319 0.001180 0.016223 0.003823 0.002319
# 5 -0.002806 0.006519 -0.001373 0.003823 0.039770 0.007149
# 6 0.001277 0.010870 -0.006932 0.002319 0.007149 0.037300
#
#
# Mechanical properties :
#
#
# Convention : Reuss Voigt Hill
#
# Bulk Modulus (GPa) = 54.28476 61.13723 57.71099
# Shear Modulus (GPa) = 29.52885 40.15246 34.84066
#
# Velocity S-wave (km/s) = 3.41075 3.97724 3.70484
# Velocity P-wave (km/s) = 6.07429 6.72138 6.40601
#
# Compressibility (1/GPa) = 0.01842138
#
# Stress axis : x y z
#
# Youngs Moduli (GPa) = 104.69852 43.31964 86.79327
#
# Poissons Ratio (x) = 0.11642 0.10263
# Poissons Ratio (y) = 0.28138 0.78095
# Poissons Ratio (z) = 0.12381 0.38978
#
# Static dielectric constant tensor:
#      x y z
#    x 2.155140 0.015740 -0.049270 
#    y 0.015740 2.108980 -0.010660 
#    z -0.049270 -0.010660 2.009730 
# 
# From -- ./inp_files/45835.got.cif
#   From: 2010.05.17/outbox.cif.g08.bks.cpg/sg2_23_cif.got.tgz:45835.got - 2010.06.03 11:33:40.
