data_PCOD9106460
_publ_section_title
;
Structure prediction by ZEFSAII (Michael W. Deem and Ramdas Pophale) SiO2 
 PCOD9106460
Probable space group: P -1
;
_chemical_formula_sum "Si O2"
_cell_formula_units_Z 16
_cell_length_a 12.330020
_cell_length_b 10.064108
_cell_length_c 10.157992
_cell_angle_alpha 93.094113
_cell_angle_beta 48.714016
_cell_angle_gamma 126.537935
_cell_volume 629.860017
_symmetry_space_group_name_H-M "P -1"
_symmetry_group_IT_number 2
_symmetry_cell_setting 'triclinic'
loop_
_space_group_symop_operation_xyz
x,y,z
-x,-y,-z
loop_
_atom_site_type_symbol
_atom_site_label
_atom_site_fract_x
_atom_site_fract_y
_atom_site_fract_z
Si Si1 0.095678 0.774095 0.584208
Si Si2 0.579775 0.072504 0.289413
Si Si3 0.754926 0.692349 0.297473
Si Si4 0.648497 0.825746 0.190005
Si Si5 0.797702 0.487613 0.053809
Si Si6 0.284386 0.500077 0.302126
Si Si7 0.411880 0.276613 0.164513
Si Si8 0.044709 0.019543 0.275673
O O1 0.352421 0.928549 0.384775
O O2 0.960405 0.640847 0.554332
O O3 0.060869 0.908590 0.632789
O O4 0.974619 0.624178 0.801365
O O5 0.685047 0.006123 0.161547
O O6 0.500000 0.000000 0.500000
O O7 0.748228 0.308669 0.145713
O O8 0.500000 0.500000 0.500000
O O9 0.757352 0.837649 0.230907
O O10 0.838513 0.629869 0.136811
O O11 0.879525 0.798291 0.339153
O O12 0.392561 0.624468 0.357465
O O13 0.769753 0.835580 0.975493
O O14 0.557664 0.354061 0.178667
O O15 0.344549 0.385820 0.229278
O O16 0.426189 0.658816 0.077192
O O17 0.179141 0.059683 0.295443
#
# Coordination Sequence:
#
# PCOD9106460 Si02
#       8
#     2   2   2   2   2   2   2   2
#     4  10  21  43  68  93 127 170 211 257 324 382
#     4  12  28  43  58  94 139 166 207 264 324 379
#     4  12  23  38  63  99 125 159 222 266 300 378
#     4  11  21  41  64  91 127 166 209 266 319 362
#     4  11  22  43  69  89 126 176 211 255 321 379
#     4   8  15  34  66  93 119 159 213 262 311 370
#     4   8  15  35  64  98 117 156 216 262 307 373
#     4  10  20  39  70  95 122 164 215 265 314 372
#
# _framework density 25.402470000000001
#
# number of rings (size 3 to 8) (size 9 to 14) (size 15 to 20)
#    0.000    1.750    2.500    4.125    1.750    1.000 
#    4.500    7.500    0.000    0.000    0.000    0.000 
#    0.000    0.000    0.000    0.000    0.000    0.000 
#
# Total GULP energy -89423.630307 kJ/mol
# GULP energy per Si atom -5588.976894 kJ/mol
# Density = 2.534465 g / cm^3
# Si number density = 25.402470 Si / 1000 Ang^3
#
#
#
# Elastic Constant Matrix: (Units=GPa)
#
#
# Indices 1 2 3 4 5 6 
#
# 1 86.5534 72.0113 25.8986 -15.9631 -15.2548 8.4213
# 2 72.0113 137.5903 19.3843 -25.7940 -13.6535 7.5738
# 3 25.8986 19.3843 69.6011 -27.0783 -5.5073 -0.0889
# 4 -15.9631 -25.7940 -27.0783 35.4714 3.6290 -13.6572
# 5 -15.2548 -13.6535 -5.5073 3.6290 37.6562 -12.9607
# 6 8.4213 7.5738 -0.0889 -13.6572 -12.9607 51.1358
#
#
#
# Elastic Compliance Matrix: (Units=1/GPa)
#
#
# Indices 1 2 3 4 5 6 
#
# 1 0.023319 -0.011559 -0.006898 -0.004480 0.003867 -0.002357
# 2 -0.011559 0.014453 0.003928 0.009154 0.001109 0.002496
# 3 -0.006898 0.003928 0.023963 0.020357 0.002464 0.006657
# 4 -0.004480 0.009154 0.020357 0.053643 0.004429 0.014867
# 5 0.003867 0.001109 0.002464 0.004429 0.031324 0.008325
# 6 -0.002357 0.002496 0.006657 0.014867 0.008325 0.025666
#
#
# Mechanical properties :
#
#
# Convention : Reuss Voigt Hill
#
# Bulk Modulus (GPa) = 30.60098 58.70370 44.65234
# Shear Modulus (GPa) = 23.54936 36.61605 30.08271
#
# Velocity S-wave (km/s) = 3.04805 3.80074 3.44502
# Velocity P-wave (km/s) = 4.94572 6.51310 5.78276
#
# Compressibility (1/GPa) = 0.03267869
#
# Stress axis : x y z
#
# Youngs Moduli (GPa) = 42.88274 69.18884 41.73019
#
# Poissons Ratio (x) = 0.79978 0.28784
# Poissons Ratio (y) = 0.49570 -0.16393
# Poissons Ratio (z) = 0.29579 -0.27180
#
# Static dielectric constant tensor:
#      x y z
#    x 2.066350 0.037690 0.072020 
#    y 0.037690 2.038510 -0.049260 
#    z 0.072020 -0.049260 2.097120 
# 
# From -- ./inp_files/419425.got.cif
#   From: 2010.05.17/outbox.cif.g08.bks.cpg/sg2_210_cif.got.tgz:419425.got - 2010.06.03 11:33:40.
