data_PCOD9106714
_publ_section_title
;
Structure prediction by ZEFSAII (Michael W. Deem and Ramdas Pophale) SiO2 
 PCOD9106714
Probable space group: P -1
;
_chemical_formula_sum "Si O2"
_cell_formula_units_Z 13
_cell_length_a 6.647191
_cell_length_b 11.705659
_cell_length_c 13.962320
_cell_angle_alpha 44.160547
_cell_angle_beta 65.437597
_cell_angle_gamma 95.158246
_cell_volume 544.127773
_symmetry_space_group_name_H-M "P -1"
_symmetry_group_IT_number 2
_symmetry_cell_setting 'triclinic'
loop_
_space_group_symop_operation_xyz
x,y,z
-x,-y,-z
loop_
_atom_site_type_symbol
_atom_site_label
_atom_site_fract_x
_atom_site_fract_y
_atom_site_fract_z
Si Si1 0.996397 0.676125 0.263580
Si Si2 0.045207 0.700096 0.450239
Si Si3 0.922560 0.963864 0.423672
Si Si4 0.500000 0.000000 0.000000
Si Si5 0.610809 0.671859 0.219672
Si Si6 0.193685 0.417885 0.082199
Si Si7 0.722496 0.401865 0.243762
O O1 0.171279 0.783645 0.267633
O O2 0.763186 0.701362 0.271829
O O3 0.872830 0.436723 0.437431
O O4 0.279507 0.828553 0.058038
O O5 0.066765 0.868057 0.408737
O O6 0.718093 0.522365 0.597095
O O7 0.592924 0.806367 0.557267
O O8 0.000000 0.000000 0.500000
O O9 0.036352 0.181607 0.225063
O O10 0.360511 0.130010 0.936295
O O11 0.741468 0.586610 0.179581
O O12 0.989698 0.407597 0.208015
O O13 0.500000 0.500000 0.000000
O O14 0.253853 0.564165 0.894762
#
# Coordination Sequence:
#
# PCOD9106714 Si02
#       7
#     2   2   2   1   2   2   2
#     4  10  20  40  60  89 126 163 208 259 318 380
#     4   9  22  39  61  90 121 163 216 260 310 388
#     4  11  22  41  67  93 132 173 212 270 329 386
#     4  10  22  36  60  92 126 160 208 260 310 390
#     4  10  21  39  65  87 125 168 207 264 323 380
#     4  11  23  42  65  93 134 170 217 272 322 389
#     4  10  24  42  63  97 130 172 220 265 326 396
#
# _framework density 23.891448
#
# number of rings (size 3 to 8) (size 9 to 14) (size 15 to 20)
#    0.000    1.846    1.538    1.385    4.308    1.231 
#    0.000    0.000    0.000    0.000    0.000    0.000 
#    0.000    0.000    0.000    0.000    0.000    0.000 
#
# Total GULP energy -72367.882277 kJ/mol
# GULP energy per Si atom -5566.760175 kJ/mol
# Density = 2.383707 g / cm^3
# Si number density = 23.891448 Si / 1000 Ang^3
#
#
#
# Elastic Constant Matrix: (Units=GPa)
#
#
# Indices 1 2 3 4 5 6 
#
# 1 130.1525 25.6454 32.3958 -15.2211 -5.9476 -35.4440
# 2 25.6454 122.6431 17.2166 -15.7298 -7.6959 -36.7987
# 3 32.3958 17.2166 97.5580 -28.5488 -7.8189 -21.4140
# 4 -15.2211 -15.7298 -28.5488 32.4154 -6.9236 7.9167
# 5 -5.9476 -7.6959 -7.8189 -6.9236 29.9104 -4.5251
# 6 -35.4440 -36.7987 -21.4140 7.9167 -4.5251 41.5926
#
#
#
# Elastic Compliance Matrix: (Units=1/GPa)
#
#
# Indices 1 2 3 4 5 6 
#
# 1 0.011028 0.001887 0.000247 0.004832 0.005507 0.010874
# 2 0.001887 0.013298 0.003490 0.008787 0.008932 0.014470
# 3 0.000247 0.003490 0.017802 0.017342 0.011185 0.010380
# 4 0.004832 0.008787 0.017342 0.054258 0.022269 0.012916
# 5 0.005507 0.008932 0.011185 0.022269 0.047828 0.019319
# 6 0.010874 0.014470 0.010380 0.012916 0.019319 0.051099
#
#
# Mechanical properties :
#
#
# Convention : Reuss Voigt Hill
#
# Bulk Modulus (GPa) = 18.73453 55.65213 37.19333
# Shear Modulus (GPa) = 24.77000 39.12341 31.94670
#
# Velocity S-wave (km/s) = 3.22339 4.05105 3.66069
# Velocity P-wave (km/s) = 4.65963 6.72501 5.78523
#
# Compressibility (1/GPa) = 0.05337739
#
# Stress axis : x y z
#
# Youngs Moduli (GPa) = 90.67831 75.19731 56.17328
#
# Poissons Ratio (x) = -0.14193 -0.01389
# Poissons Ratio (y) = -0.17115 -0.19603
# Poissons Ratio (z) = -0.02242 -0.26242
#
# Static dielectric constant tensor:
#      x y z
#    x 2.250810 -0.001960 -0.040900 
#    y -0.001960 1.998400 0.092150 
#    z -0.040900 0.092150 2.172140 
# 
# From -- ./inp_files/31711.got.cif
#   From: 2010.05.17/outbox.cif.g08.bks.cpg/sg2_16_cif.got.tgz:31711.got - 2010.06.03 11:33:40.
