data_PCOD9106279
_publ_section_title
;
Structure prediction by ZEFSAII (Michael W. Deem and Ramdas Pophale) SiO2 
 PCOD9106279
Probable space group: P -1
;
_chemical_formula_sum "Si O2"
_cell_formula_units_Z 12
_cell_length_a 11.036917
_cell_length_b 8.805608
_cell_length_c 7.601685
_cell_angle_alpha 75.453774
_cell_angle_beta 98.294052
_cell_angle_gamma 44.793402
_cell_volume 443.934747
_symmetry_space_group_name_H-M "P -1"
_symmetry_group_IT_number 2
_symmetry_cell_setting 'triclinic'
loop_
_space_group_symop_operation_xyz
x,y,z
-x,-y,-z
loop_
_atom_site_type_symbol
_atom_site_label
_atom_site_fract_x
_atom_site_fract_y
_atom_site_fract_z
Si Si1 0.187680 0.396476 0.648387
Si Si2 0.563009 0.583144 0.368104
Si Si3 0.154418 0.826643 0.741113
Si Si4 0.642432 0.084786 0.252641
Si Si5 0.805193 0.496832 0.983036
Si Si6 0.673576 0.924245 0.658835
O O1 0.255865 0.479758 0.524509
O O2 0.000000 0.500000 0.500000
O O3 0.344330 0.100043 0.773338
O O4 0.174056 0.465701 0.823496
O O5 0.500000 0.500000 0.500000
O O6 0.647135 0.429314 0.248451
O O7 0.396184 0.885299 0.259848
O O8 0.225959 0.918080 0.811935
O O9 0.081203 0.780343 0.890332
O O10 0.000000 0.000000 0.500000
O O11 0.414572 0.344782 0.148767
O O12 0.736989 0.972831 0.499083
O O13 0.818230 0.641715 0.829216
O O14 0.500000 0.000000 0.500000
#
# Coordination Sequence:
#
# PCOD9106279 Si02
#       6
#     2   2   2   2   2   2
#     4  11  23  40  64  96 134 173 217 279 340 380
#     4  11  21  39  70  93 129 173 224 266 326 395
#     4  11  24  40  62  99 137 173 217 281 339 381
#     4  11  20  39  67  94 129 172 227 269 322 403
#     4  10  22  40  66  95 125 174 231 271 316 404
#     4  10  20  39  68  96 122 166 228 271 315 381
#
# _framework density 27.030999000000001
#
# number of rings (size 3 to 8) (size 9 to 14) (size 15 to 20)
#    0.000    1.333    5.000    3.000    2.333    0.000 
#    0.000    3.333    0.000    5.000    0.000    0.000 
#    0.000    0.000    0.000    0.000    0.000    0.000 
#
# Total GULP energy -66913.146330 kJ/mol
# GULP energy per Si atom -5576.095528 kJ/mol
# Density = 2.696948 g / cm^3
# Si number density = 27.030999 Si / 1000 Ang^3
#
#
#
# Elastic Constant Matrix: (Units=GPa)
#
#
# Indices 1 2 3 4 5 6 
#
# 1 161.5498 28.7015 54.8677 -8.1746 -11.6940 38.5481
# 2 28.7015 63.9777 -1.9865 2.8230 -11.2854 24.6755
# 3 54.8677 -1.9865 126.3889 -19.6858 -12.2650 9.3859
# 4 -8.1746 2.8230 -19.6858 32.3910 9.0553 -6.7266
# 5 -11.6940 -11.2854 -12.2650 9.0553 50.8292 -5.8392
# 6 38.5481 24.6755 9.3859 -6.7266 -5.8392 39.4913
#
#
#
# Elastic Compliance Matrix: (Units=1/GPa)
#
#
# Indices 1 2 3 4 5 6 
#
# 1 0.009502 -0.001234 -0.003763 -0.001508 0.000375 -0.007811
# 2 -0.001234 0.022436 0.001477 -0.005408 0.004475 -0.013424
# 3 -0.003763 0.001477 0.010393 0.005180 0.001201 0.001340
# 4 -0.001508 -0.005408 0.005180 0.037679 -0.005958 0.009157
# 5 0.000375 0.004475 0.001201 -0.005958 0.021965 -0.001215
# 6 -0.007811 -0.013424 0.001340 0.009157 -0.001215 0.042396
#
#
# Mechanical properties :
#
#
# Convention : Reuss Voigt Hill
#
# Bulk Modulus (GPa) = 28.33593 57.23132 42.78362
# Shear Modulus (GPa) = 30.64219 42.56456 36.60337
#
# Velocity S-wave (km/s) = 3.37054 3.97250 3.68384
# Velocity P-wave (km/s) = 5.06487 6.50073 5.82719
#
# Compressibility (1/GPa) = 0.03529088
#
# Stress axis : x y z
#
# Youngs Moduli (GPa) = 105.24170 44.57197 96.22118
#
# Poissons Ratio (x) = 0.05501 0.36206
# Poissons Ratio (y) = 0.12989 -0.14215
# Poissons Ratio (z) = 0.39600 -0.06585
#
# Static dielectric constant tensor:
#      x y z
#    x 2.187270 -0.050090 -0.064050 
#    y -0.050090 2.342900 -0.144390 
#    z -0.064050 -0.144390 2.187910 
# 
# From -- ./inp_files/243072.got.cif
#   From: 2010.05.17/outbox.cif.g08.bks.cpg/sg2_122_cif.got.tgz:243072.got - 2010.06.03 11:33:40.
