data_PCOD9106138
_publ_section_title
;
Structure prediction by ZEFSAII (Michael W. Deem and Ramdas Pophale) SiO2 
 PCOD9106138
Probable space group: P -1
;
_chemical_formula_sum "Si O2"
_cell_formula_units_Z 14
_cell_length_a 21.679571
_cell_length_b 5.366358
_cell_length_c 6.330453
_cell_angle_alpha 78.955927
_cell_angle_beta 127.715000
_cell_angle_gamma 100.479485
_cell_volume 569.829427
_symmetry_space_group_name_H-M "P -1"
_symmetry_group_IT_number 2
_symmetry_cell_setting 'triclinic'
loop_
_space_group_symop_operation_xyz
x,y,z
-x,-y,-z
loop_
_atom_site_type_symbol
_atom_site_label
_atom_site_fract_x
_atom_site_fract_y
_atom_site_fract_z
Si Si1 0.563247 0.840800 0.437998
Si Si2 0.603640 0.349041 0.873941
Si Si3 0.705151 0.038585 0.950430
Si Si4 0.798421 0.747779 0.865857
Si Si5 0.083822 0.510316 0.557032
Si Si6 0.344726 0.336181 0.709611
Si Si7 0.083347 0.060749 0.278772
O O1 0.581147 0.584777 0.646553
O O2 0.471191 0.858735 0.260505
O O3 0.626300 0.043146 0.641436
O O4 0.592030 0.802288 0.268115
O O5 0.692640 0.294314 0.009249
O O6 0.610782 0.426658 0.120782
O O7 0.769349 0.951920 0.939710
O O8 0.692926 0.833946 0.148412
O O9 0.723549 0.617156 0.606358
O O10 0.853122 0.877376 0.778640
O O11 0.850859 0.562471 0.130464
O O12 0.080729 0.298613 0.396827
O O13 0.000000 0.500000 0.500000
O O14 0.101841 0.799048 0.471623
O O15 0.000000 0.000000 0.000000
#
# Coordination Sequence:
#
# PCOD9106138 Si02
#       7
#     2   2   2   2   2   2   2
#     4   9  20  38  64  95 135 179 237 304 361 427
#     4  10  20  39  67  95 132 185 240 297 359 438
#     4  10  22  43  60 100 138 183 241 294 368 436
#     4  11  26  49  68 107 153 194 238 307 371 442
#     4  12  27  52  82 116 151 190 252 307 369 447
#     4  10  22  43  59  98 139 181 242 290 370 435
#     4  12  27  52  82 116 147 196 248 306 375 444
#
# _framework density 24.568754999999999
#
# number of rings (size 3 to 8) (size 9 to 14) (size 15 to 20)
#    0.000    1.429    1.429    2.571    0.000    2.857 
#   33.429    0.000    0.000    0.000    0.000    0.000 
#    0.000    0.000    0.000    0.000    0.000    0.000 
#
# Total GULP energy -78314.011553 kJ/mol
# GULP energy per Si atom -5593.857968 kJ/mol
# Density = 2.451284 g / cm^3
# Si number density = 24.568755 Si / 1000 Ang^3
#
#
#
# Elastic Constant Matrix: (Units=GPa)
#
#
# Indices 1 2 3 4 5 6 
#
# 1 192.8672 33.7762 51.8359 -5.1159 -14.1755 -31.3878
# 2 33.7762 80.3858 40.1259 -9.5330 -7.9106 -18.2608
# 3 51.8359 40.1259 137.5015 -12.3902 -3.5403 -9.3522
# 4 -5.1159 -9.5330 -12.3902 34.7421 -8.8634 0.7964
# 5 -14.1755 -7.9106 -3.5403 -8.8634 39.3786 6.8593
# 6 -31.3878 -18.2608 -9.3522 0.7964 6.8593 42.5148
#
#
#
# Elastic Compliance Matrix: (Units=1/GPa)
#
#
# Indices 1 2 3 4 5 6 
#
# 1 0.006580 -0.000734 -0.001933 0.000360 0.001453 0.003876
# 2 -0.000734 0.016516 -0.003794 0.003618 0.002617 0.005228
# 3 -0.001933 -0.003794 0.009215 0.001986 0.000003 -0.001067
# 4 0.000360 0.003618 0.001986 0.032657 0.008333 0.000301
# 5 0.001453 0.002617 0.000003 0.008333 0.028772 -0.002601
# 6 0.003876 0.005228 -0.001067 0.000301 -0.002601 0.028808
#
#
# Mechanical properties :
#
#
# Convention : Reuss Voigt Hill
#
# Bulk Modulus (GPa) = 51.57335 73.58116 62.57725
# Shear Modulus (GPa) = 35.22778 42.32821 38.77800
#
# Velocity S-wave (km/s) = 3.79072 4.15522 3.97715
# Velocity P-wave (km/s) = 6.34007 7.28253 6.82758
#
# Compressibility (1/GPa) = 0.01938986
#
# Stress axis : x y z
#
# Youngs Moduli (GPa) = 151.97223 60.54575 108.51809
#
# Poissons Ratio (x) = 0.04442 0.20977
# Poissons Ratio (y) = 0.11149 0.41175
# Poissons Ratio (z) = 0.29376 0.22973
#
# Static dielectric constant tensor:
#      x y z
#    x 1.935890 0.040040 0.003110 
#    y 0.040040 2.051770 0.042930 
#    z 0.003110 0.042930 1.955890 
# 
# From -- ./inp_files/8071.got.cif
#   From: 2010.05.17/outbox.cif.g08.bks.cpg/sg2_5_cif.got.tgz:8071.got - 2010.06.03 11:33:40.
