data_PCOD9106638
_publ_section_title
;
Structure prediction by ZEFSAII (Michael W. Deem and Ramdas Pophale) SiO2 
 PCOD9106638
Probable space group: P -1
;
_chemical_formula_sum "Si O2"
_cell_formula_units_Z 16
_cell_length_a 9.942167
_cell_length_b 13.810256
_cell_length_c 11.850150
_cell_angle_alpha 123.052036
_cell_angle_beta 142.935733
_cell_angle_gamma 73.486570
_cell_volume 784.398224
_symmetry_space_group_name_H-M "P -1"
_symmetry_group_IT_number 2
_symmetry_cell_setting 'triclinic'
loop_
_space_group_symop_operation_xyz
x,y,z
-x,-y,-z
loop_
_atom_site_type_symbol
_atom_site_label
_atom_site_fract_x
_atom_site_fract_y
_atom_site_fract_z
Si Si1 0.710706 0.390681 0.164116
Si Si2 0.679974 0.027009 0.975076
Si Si3 0.947925 0.748960 0.741462
Si Si4 0.586221 0.634922 0.243465
Si Si5 0.200881 0.064831 0.765898
Si Si6 0.442738 0.321657 0.159201
Si Si7 0.735728 0.449237 0.828311
Si Si8 0.563743 0.765118 0.653182
O O1 0.939173 0.360576 0.256769
O O2 0.704742 0.528184 0.235735
O O3 0.651928 0.349845 0.227110
O O4 0.488134 0.318583 0.892910
O O5 0.811248 0.998034 0.157651
O O6 0.848746 0.131773 0.079890
O O7 0.591029 0.906122 0.763954
O O8 0.452196 0.061008 0.885087
O O9 0.756134 0.727752 0.499962
O O10 0.812968 0.753371 0.769628
O O11 0.341490 0.577630 0.110369
O O12 0.232799 0.207523 0.899467
O O13 0.000000 0.000000 0.500000
O O14 0.380425 0.445792 0.212937
O O15 0.502291 0.279529 0.292954
O O16 0.623006 0.323889 0.608721
O O17 0.000000 0.500000 0.000000
#
# Coordination Sequence:
#
# PCOD9106638 Si02
#       8
#     2   2   2   2   2   2   2   2
#     4  10  20  40  59  88 124 155 202 250 301 354
#     4  10  22  40  60  92 120 161 203 245 304 352
#     4  11  21  38  65  85 121 164 198 246 308 352
#     4   9  22  39  58  91 122 156 207 251 291 365
#     4  10  22  39  62  89 125 155 204 252 292 359
#     4  10  21  40  60  91 115 158 205 241 307 359
#     4  10  22  39  61  89 121 160 197 249 309 357
#     4  10  23  41  60  88 126 155 203 252 295 369
#
# _framework density 20.397801999999999
#
# number of rings (size 3 to 8) (size 9 to 14) (size 15 to 20)
#    0.000    2.000    1.250    1.125    5.250    0.000 
#    6.750    0.000    0.000    4.500    0.000    0.000 
#    0.000    0.000    0.000    0.000    0.000    0.000 
#
# Total GULP energy -89256.648956 kJ/mol
# GULP energy per Si atom -5578.540560 kJ/mol
# Density = 2.035138 g / cm^3
# Si number density = 20.397802 Si / 1000 Ang^3
#
#
#
# Elastic Constant Matrix: (Units=GPa)
#
#
# Indices 1 2 3 4 5 6 
#
# 1 83.2217 31.6114 15.0246 6.6786 7.6384 -4.2711
# 2 31.6114 34.7737 20.2983 3.4628 0.5425 -4.0433
# 3 15.0246 20.2983 87.4518 10.4403 -11.8826 -0.5658
# 4 6.6786 3.4628 10.4403 21.5523 -2.5654 -5.6384
# 5 7.6384 0.5425 -11.8826 -2.5654 31.8606 1.6561
# 6 -4.2711 -4.0433 -0.5658 -5.6384 1.6561 27.6662
#
#
#
# Elastic Compliance Matrix: (Units=1/GPa)
#
#
# Indices 1 2 3 4 5 6 
#
# 1 0.019229 -0.017381 0.000611 -0.004016 -0.004403 -0.000114
# 2 -0.017381 0.050086 -0.008973 0.003005 -0.000054 0.005069
# 3 0.000611 -0.008973 0.014810 -0.005943 0.005178 -0.002435
# 4 -0.004016 0.003005 -0.005943 0.053039 0.002427 0.010362
# 5 -0.004403 -0.000054 0.005178 0.002427 0.034682 -0.002163
# 6 -0.000114 0.005069 -0.002435 0.010362 -0.002163 0.039060
#
#
# Mechanical properties :
#
#
# Convention : Reuss Voigt Hill
#
# Bulk Modulus (GPa) = 30.63787 37.70174 34.16981
# Shear Modulus (GPa) = 18.29689 25.45001 21.87345
#
# Velocity S-wave (km/s) = 2.99825 3.53609 3.27822
# Velocity P-wave (km/s) = 5.19988 5.93256 5.57826
#
# Compressibility (1/GPa) = 0.03263935
#
# Stress axis : x y z
#
# Youngs Moduli (GPa) = 52.00598 19.96551 67.52339
#
# Poissons Ratio (x) = 0.34703 -0.04127
# Poissons Ratio (y) = 0.90393 0.60585
# Poissons Ratio (z) = -0.03178 0.17914
#
# Static dielectric constant tensor:
#      x y z
#    x 1.742720 0.004600 -0.018760 
#    y 0.004600 1.727970 0.006640 
#    z -0.018760 0.006640 1.754830 
# 
# From -- ./inp_files/109863.got.cif
#   From: 2010.05.17/outbox.cif.g08.bks.cpg/sg2_55_cif.got.tgz:109863.got - 2010.06.03 11:33:40.
