data_PCOD9106962
_publ_section_title
;
Structure prediction by ZEFSAII (Michael W. Deem and Ramdas Pophale) SiO2 
 PCOD9106962
Probable space group: P -1
;
_chemical_formula_sum "Si O2"
_cell_formula_units_Z 12
_cell_length_a 8.227816
_cell_length_b 12.520365
_cell_length_c 7.704401
_cell_angle_alpha 96.991251
_cell_angle_beta 88.849885
_cell_angle_gamma 36.524805
_cell_volume 459.427504
_symmetry_space_group_name_H-M "P -1"
_symmetry_group_IT_number 2
_symmetry_cell_setting 'triclinic'
loop_
_space_group_symop_operation_xyz
x,y,z
-x,-y,-z
loop_
_atom_site_type_symbol
_atom_site_label
_atom_site_fract_x
_atom_site_fract_y
_atom_site_fract_z
Si Si1 0.852244 0.984297 0.611620
Si Si2 0.703831 0.612988 0.648706
Si Si3 0.428127 0.064988 0.298358
Si Si4 0.051679 0.263305 0.994912
Si Si5 0.733592 0.602443 0.272842
Si Si6 0.790319 0.205284 0.106630
O O1 0.566768 0.191196 0.731614
O O2 0.722933 0.934506 0.560298
O O3 0.000000 0.000000 0.500000
O O4 0.087407 0.831706 0.714984
O O5 0.018045 0.453359 0.677424
O O6 0.516303 0.666299 0.814537
O O7 0.687787 0.564424 0.451238
O O8 0.244311 0.149394 0.141564
O O9 0.415562 0.201276 0.349350
O O10 0.731009 0.861351 0.190052
O O11 0.870069 0.463515 0.087473
O O12 0.840912 0.276695 0.992764
O O13 0.000000 0.000000 0.000000
#
# Coordination Sequence:
#
# PCOD9106962 Si02
#       6
#     2   2   2   2   2   2
#     4  11  23  41  60  90 124 160 198 251 305 355
#     4  10  20  40  62  89 120 160 201 243 296 363
#     4   9  19  37  62  84 120 163 197 236 304 367
#     4   9  19  37  61  88 117 161 199 240 300 362
#     4  10  22  39  58  92 123 154 199 251 305 346
#     4  11  21  40  67  87 119 161 209 241 293 366
#
# _framework density 26.119465000000002
#
# number of rings (size 3 to 8) (size 9 to 14) (size 15 to 20)
#    0.000    2.000    3.333    0.000    2.333    2.000 
#    6.000    0.833    0.000    0.000    0.000    0.000 
#    0.000    0.000    0.000    0.000    0.000    0.000 
#
# Total GULP energy -67001.682299 kJ/mol
# GULP energy per Si atom -5583.473525 kJ/mol
# Density = 2.606002 g / cm^3
# Si number density = 26.119465 Si / 1000 Ang^3
#
#
#
# Elastic Constant Matrix: (Units=GPa)
#
#
# Indices 1 2 3 4 5 6 
#
# 1 119.7240 28.1584 51.6271 15.0417 -39.0461 -0.6131
# 2 28.1584 126.4473 39.6381 21.9040 -11.7196 -17.6089
# 3 51.6271 39.6381 126.1397 22.4917 -20.8932 -2.2467
# 4 15.0417 21.9040 22.4917 45.3654 -1.6982 -9.7978
# 5 -39.0461 -11.7196 -20.8932 -1.6982 41.2804 13.9573
# 6 -0.6131 -17.6089 -2.2467 -9.7978 13.9573 41.4854
#
#
#
# Elastic Compliance Matrix: (Units=1/GPa)
#
#
# Indices 1 2 3 4 5 6 
#
# 1 0.014977 -0.001354 -0.002776 -0.003740 0.014321 -0.006205
# 2 -0.001354 0.009740 -0.002175 -0.002400 -0.000987 0.003762
# 3 -0.002776 -0.002175 0.010854 -0.003786 0.002848 -0.002229
# 4 -0.003740 -0.002400 -0.003786 0.027726 -0.007645 0.007842
# 5 0.014321 -0.000987 0.002848 -0.007645 0.044283 -0.016757
# 6 -0.006205 0.003762 -0.002229 0.007842 -0.016757 0.032979
#
#
# Mechanical properties :
#
#
# Convention : Reuss Voigt Hill
#
# Bulk Modulus (GPa) = 43.55177 67.90648 55.72912
# Shear Modulus (GPa) = 31.09019 42.48538 36.78779
#
# Velocity S-wave (km/s) = 3.45383 4.03746 3.75699
# Velocity P-wave (km/s) = 5.71100 6.91301 6.34055
#
# Compressibility (1/GPa) = 0.02296118
#
# Stress axis : x y z
#
# Youngs Moduli (GPa) = 66.77102 102.67081 92.12805
#
# Poissons Ratio (x) = 0.13901 0.25574
# Poissons Ratio (y) = 0.09040 0.20038
# Poissons Ratio (z) = 0.18535 0.22331
#
# Static dielectric constant tensor:
#      x y z
#    x 2.179230 0.029200 0.037020 
#    y 0.029200 2.033440 -0.100480 
#    z 0.037020 -0.100480 2.118480 
# 
# From -- ./inp_files/147264.got.cif
#   From: 2010.05.17/outbox.cif.g08.bks.cpg/sg2_74_cif.got.tgz:147264.got - 2010.06.03 11:33:40.
