data_PCOD9106443
_publ_section_title
;
Structure prediction by ZEFSAII (Michael W. Deem and Ramdas Pophale) SiO2 
 PCOD9106443
Probable space group: P -1
;
_chemical_formula_sum "Si O2"
_cell_formula_units_Z 16
_cell_length_a 8.502906
_cell_length_b 17.392263
_cell_length_c 8.873347
_cell_angle_alpha 94.193165
_cell_angle_beta 130.543368
_cell_angle_gamma 120.351324
_cell_volume 680.290092
_symmetry_space_group_name_H-M "P -1"
_symmetry_group_IT_number 2
_symmetry_cell_setting 'triclinic'
loop_
_space_group_symop_operation_xyz
x,y,z
-x,-y,-z
loop_
_atom_site_type_symbol
_atom_site_label
_atom_site_fract_x
_atom_site_fract_y
_atom_site_fract_z
Si Si1 0.637096 0.742380 0.778288
Si Si2 0.994342 0.905667 0.608872
Si Si3 0.194545 0.295816 0.406325
Si Si4 0.222132 0.340096 0.925342
Si Si5 0.647251 0.444841 0.938310
Si Si6 0.347604 0.758308 0.342614
Si Si7 0.118770 0.643981 0.860881
Si Si8 0.267757 0.128753 0.874237
O O1 0.397155 0.720122 0.518545
O O2 0.837223 0.751026 0.783208
O O3 0.562367 0.652749 0.833379
O O4 0.787048 0.847158 0.995167
O O5 0.688497 0.854969 0.497948
O O6 0.955792 0.906845 0.405853
O O7 0.005960 0.818421 0.639144
O O8 0.252020 0.032065 0.849003
O O9 0.533600 0.384364 0.697010
O O10 0.133891 0.369987 0.367543
O O11 0.342017 0.355747 0.835945
O O12 0.868690 0.231433 0.729640
O O13 0.265288 0.443034 0.989009
O O14 0.885616 0.449335 0.155238
O O15 0.169732 0.680534 0.072185
O O16 0.412307 0.752120 0.966991
#
# Coordination Sequence:
#
# PCOD9106443 Si02
#       8
#     2   2   2   2   2   2   2   2
#     4  11  21  40  63  92 124 161 202 256 297 364
#     4   9  20  42  65  94 125 162 199 253 302 367
#     4  11  22  39  64  88 130 159 205 248 309 361
#     4  11  24  41  65  89 122 162 208 252 310 362
#     4  11  24  43  61  91 125 159 206 259 303 362
#     4  10  22  40  61  89 127 155 203 253 304 356
#     4  11  21  41  61  88 126 165 198 253 302 361
#     4  10  20  39  70  87 128 161 201 252 305 354
#
# _framework density 23.519376000000001
#
# number of rings (size 3 to 8) (size 9 to 14) (size 15 to 20)
#    0.000    1.500    6.250    0.000    1.750    4.500 
#    0.000    3.125    2.750    0.000    0.000    0.000 
#    0.000    0.000    0.000    0.000    0.000    0.000 
#
# Total GULP energy -89127.131892 kJ/mol
# GULP energy per Si atom -5570.445743 kJ/mol
# Density = 2.346585 g / cm^3
# Si number density = 23.519376 Si / 1000 Ang^3
#
#
#
# Elastic Constant Matrix: (Units=GPa)
#
#
# Indices 1 2 3 4 5 6 
#
# 1 76.6176 15.0885 27.8656 -3.4130 -9.6665 0.9968
# 2 15.0885 96.5396 47.9591 -15.8567 -8.4305 -22.3930
# 3 27.8656 47.9591 66.3774 -21.7030 -5.1216 -12.3624
# 4 -3.4130 -15.8567 -21.7030 31.4327 -10.0302 5.5913
# 5 -9.6665 -8.4305 -5.1216 -10.0302 36.3933 -1.9002
# 6 0.9968 -22.3930 -12.3624 5.5913 -1.9002 37.6336
#
#
#
# Elastic Compliance Matrix: (Units=1/GPa)
#
#
# Indices 1 2 3 4 5 6 
#
# 1 0.016197 0.001048 -0.008544 -0.002415 0.002566 -0.002124
# 2 0.001048 0.018018 -0.011531 0.001129 0.003502 0.006915
# 3 -0.008544 -0.011531 0.033430 0.017479 0.004685 0.001986
# 4 -0.002415 0.001129 0.017479 0.049186 0.015633 -0.000041
# 5 0.002566 0.003502 0.004685 0.015633 0.034092 0.002953
# 6 -0.002124 0.006915 0.001986 -0.000041 0.002953 0.031550
#
#
# Mechanical properties :
#
#
# Convention : Reuss Voigt Hill
#
# Bulk Modulus (GPa) = 33.79496 46.81787 40.30642
# Shear Modulus (GPa) = 21.70218 31.00002 26.35110
#
# Velocity S-wave (km/s) = 3.04095 3.63445 3.35087
# Velocity P-wave (km/s) = 5.17011 6.12875 5.66973
#
# Compressibility (1/GPa) = 0.02959021
#
# Stress axis : x y z
#
# Youngs Moduli (GPa) = 61.74151 55.49884 29.91318
#
# Poissons Ratio (x) = -0.05814 0.25557
# Poissons Ratio (y) = -0.06468 0.34494
# Poissons Ratio (z) = 0.52750 0.63998
#
# Static dielectric constant tensor:
#      x y z
#    x 1.943960 0.022260 0.029970 
#    y 0.022260 1.969080 -0.016380 
#    z 0.029970 -0.016380 1.877440 
# 
# From -- ./inp_files/206590.got.cif
#   From: 2010.05.17/outbox.cif.g08.bks.cpg/sg2_104_cif.got.tgz:206590.got - 2010.06.03 11:33:40.
