data_PCOD9106270
_publ_section_title
;
Structure prediction by ZEFSAII (Michael W. Deem and Ramdas Pophale) SiO2 
 PCOD9106270
Probable space group: P -1
;
_chemical_formula_sum "Si O2"
_cell_formula_units_Z 16
_cell_length_a 5.120052
_cell_length_b 6.021981
_cell_length_c 20.933817
_cell_angle_alpha 63.238541
_cell_angle_beta 97.627156
_cell_angle_gamma 97.166029
_cell_volume 569.673862
_symmetry_space_group_name_H-M "P -1"
_symmetry_group_IT_number 2
_symmetry_cell_setting 'triclinic'
loop_
_space_group_symop_operation_xyz
x,y,z
-x,-y,-z
loop_
_atom_site_type_symbol
_atom_site_label
_atom_site_fract_x
_atom_site_fract_y
_atom_site_fract_z
Si Si1 0.877175 0.289460 0.795292
Si Si2 0.554709 0.832312 0.589413
Si Si3 0.777841 0.621196 0.516170
Si Si4 0.654048 0.850215 0.263551
Si Si5 0.916201 0.791651 0.932404
Si Si6 0.627110 0.287080 0.957175
Si Si7 0.750758 0.379584 0.154838
Si Si8 0.897042 0.040855 0.373387
O O1 0.604819 0.308982 0.747494
O O2 0.096749 0.209582 0.763434
O O3 0.839789 0.067727 0.876251
O O4 0.000501 0.535415 0.802787
O O5 0.730361 0.625900 0.589200
O O6 0.301980 0.750164 0.636277
O O7 0.788511 0.948033 0.628279
O O8 0.500000 0.000000 0.500000
O O9 0.500000 0.500000 0.500000
O O10 0.000000 0.500000 0.500000
O O11 0.854932 0.891582 0.456304
O O12 0.593150 0.138125 0.209569
O O13 0.750052 0.871707 0.336424
O O14 0.119023 0.713106 0.894276
O O15 0.672261 0.583132 0.949240
O O16 0.072090 0.766559 0.006763
O O17 0.426481 0.383996 0.884974
O O18 0.500000 0.000000 0.000000
#
# Coordination Sequence:
#
# PCOD9106270 Si02
#       8
#     2   2   2   2   2   2   2   2
#     4  11  24  44  68  94 132 177 228 279 334 400
#     4  10  20  39  68  95 126 175 212 263 333 395
#     4  11  21  37  63  98 135 163 208 272 333 384
#     4  11  26  46  68  94 135 182 227 276 331 397
#     4  10  23  39  63  97 130 168 218 285 343 403
#     4  11  21  39  64  98 128 170 223 277 346 407
#     4  11  24  42  67  91 135 174 225 276 346 397
#     4  11  22  43  65  92 134 173 222 268 329 403
#
# _framework density 28.086245999999999
#
# number of rings (size 3 to 8) (size 9 to 14) (size 15 to 20)
#    0.000    1.250    2.500    4.875    1.750    0.500 
#    6.750    0.000    0.000    0.000    0.000    0.000 
#    0.000    0.000    0.000    0.000    0.000    0.000 
#
# Total GULP energy -89119.720355 kJ/mol
# GULP energy per Si atom -5569.982522 kJ/mol
# Density = 2.802232 g / cm^3
# Si number density = 28.086246 Si / 1000 Ang^3
#
#
#
# Elastic Constant Matrix: (Units=GPa)
#
#
# Indices 1 2 3 4 5 6 
#
# 1 145.6571 9.0657 38.5346 17.9747 24.0314 5.1651
# 2 9.0657 73.1018 19.9800 5.7696 11.0447 15.0916
# 3 38.5346 19.9800 99.5733 13.4247 18.5466 0.5331
# 4 17.9747 5.7696 13.4247 51.4318 10.9672 1.4617
# 5 24.0314 11.0447 18.5466 10.9672 43.2010 15.6064
# 6 5.1651 15.0916 0.5331 1.4617 15.6064 61.6062
#
#
#
# Elastic Compliance Matrix: (Units=1/GPa)
#
#
# Indices 1 2 3 4 5 6 
#
# 1 0.008213 0.000226 -0.002408 -0.001580 -0.003241 0.000135
# 2 0.000226 0.015387 -0.002793 -0.000666 -0.001472 -0.003375
# 3 -0.002408 -0.002793 0.012367 -0.001370 -0.003524 0.001704
# 4 -0.001580 -0.000666 -0.001370 0.021271 -0.004063 0.000832
# 5 -0.003241 -0.001472 -0.003524 -0.004063 0.030376 -0.006936
# 6 0.000135 -0.003375 0.001704 0.000832 -0.006936 0.018770
#
#
# Mechanical properties :
#
#
# Convention : Reuss Voigt Hill
#
# Bulk Modulus (GPa) = 38.43590 50.38808 44.41199
# Shear Modulus (GPa) = 39.99805 47.96459 43.98132
#
# Velocity S-wave (km/s) = 3.77784 4.13699 3.96149
# Velocity P-wave (km/s) = 5.72224 6.38741 6.06395
#
# Compressibility (1/GPa) = 0.02601735
#
# Stress axis : x y z
#
# Youngs Moduli (GPa) = 121.75447 64.99131 80.86006
#
# Poissons Ratio (x) = -0.01469 0.19471
# Poissons Ratio (y) = -0.02751 0.22583
# Poissons Ratio (z) = 0.29318 0.18151
#
# Static dielectric constant tensor:
#      x y z
#    x 2.607180 -0.156140 0.304460 
#    y -0.156140 2.520120 -0.113630 
#    z 0.304460 -0.113630 2.472210 
# 
# From -- ./inp_files/603174.got.cif
#   From: 2010.05.17/outbox.cif.g08.bks.cpg/sg2_302_cif.got.tgz:603174.got - 2010.06.03 11:33:40.
