data_PCOD9106731
_publ_section_title
;
Structure prediction by ZEFSAII (Michael W. Deem and Ramdas Pophale) SiO2 
 PCOD9106731
Probable space group: P -1
;
_chemical_formula_sum "Si O2"
_cell_formula_units_Z 12
_cell_length_a 17.722884
_cell_length_b 19.297587
_cell_length_c 9.563319
_cell_angle_alpha 158.590130
_cell_angle_beta 147.197933
_cell_angle_gamma 22.791270
_cell_volume 458.842660
_symmetry_space_group_name_H-M "P -1"
_symmetry_group_IT_number 2
_symmetry_cell_setting 'triclinic'
loop_
_space_group_symop_operation_xyz
x,y,z
-x,-y,-z
loop_
_atom_site_type_symbol
_atom_site_label
_atom_site_fract_x
_atom_site_fract_y
_atom_site_fract_z
Si Si1 0.985355 0.770597 0.684819
Si Si2 0.384325 0.291377 0.548258
Si Si3 0.478377 0.676100 0.679737
Si Si4 0.793284 0.729158 0.530182
Si Si5 0.904212 0.283032 0.550875
Si Si6 0.323707 0.926258 0.638305
O O1 0.857951 0.725574 0.468604
O O2 0.192025 0.582292 0.736277
O O3 0.039947 0.681228 0.442814
O O4 0.884891 0.073245 0.105372
O O5 0.352269 0.289490 0.662195
O O6 0.577648 0.183009 0.566972
O O7 0.367419 0.093347 0.083911
O O8 0.500000 0.500000 0.500000
O O9 0.693975 0.557710 0.785502
O O10 0.420668 0.686143 0.448060
O O11 0.308852 0.978728 0.032743
O O12 0.000000 0.500000 0.500000
O O13 0.090425 0.129674 0.651961
#
# Coordination Sequence:
#
# PCOD9106731 Si02
#       6
#     2   2   2   2   2   2
#     4  10  20  40  60  91 128 161 205 260 307 363
#     4   9  19  40  62  84 128 165 203 257 303 368
#     4  11  21  41  65  90 127 161 208 262 308 368
#     4   9  19  38  66  85 125 168 196 255 319 353
#     4  11  23  38  67  92 122 166 210 255 310 371
#     4  10  22  40  63  93 120 167 212 250 311 371
#
# _framework density 26.152754000000002
#
# number of rings (size 3 to 8) (size 9 to 14) (size 15 to 20)
#    0.000    2.000    3.333    0.000    0.000    2.000 
#    0.000    0.833    7.333    0.000    0.000    0.000 
#    0.000    0.000    0.000    0.000    0.000    0.000 
#
# Total GULP energy -67122.358766 kJ/mol
# GULP energy per Si atom -5593.529897 kJ/mol
# Density = 2.609323 g / cm^3
# Si number density = 26.152754 Si / 1000 Ang^3
#
#
#
# Elastic Constant Matrix: (Units=GPa)
#
#
# Indices 1 2 3 4 5 6 
#
# 1 216.0469 68.3741 38.0339 6.7891 35.2676 -14.2357
# 2 68.3741 138.2291 30.8485 9.2034 1.9413 -15.4297
# 3 38.0339 30.8485 77.5106 19.4597 -0.7398 7.3639
# 4 6.7891 9.2034 19.4597 40.9508 2.8980 -5.3020
# 5 35.2676 1.9413 -0.7398 2.8980 23.1543 22.3466
# 6 -14.2357 -15.4297 7.3639 -5.3020 22.3466 31.3211
#
#
#
# Elastic Compliance Matrix: (Units=1/GPa)
#
#
# Indices 1 2 3 4 5 6 
#
# 1 -0.001530 -0.003490 0.006709 -0.007463 0.028396 -0.025515
# 2 -0.003490 0.009261 -0.001576 -0.001186 0.005144 -0.000525
# 3 0.006709 -0.001576 0.006957 0.001823 -0.035336 0.026156
# 4 -0.007463 -0.001186 0.001823 0.019617 0.032481 -0.024258
# 5 0.028396 0.005144 -0.035336 0.032481 -0.108903 0.106946
# 6 -0.025515 -0.000525 0.026156 -0.024258 0.106946 -0.066486
#
#
# Mechanical properties :
#
#
# Convention : Reuss Voigt Hill
#
# Bulk Modulus (GPa) = 55.64391 78.47772 67.06081
# Shear Modulus (GPa) = -36.13312 38.72059 1.29374
#
# Velocity S-wave (km/s) = -3.72105 3.85197 0.70410
# Velocity P-wave (km/s) = 1.69149 7.06089 5.13407
#
# Compressibility (1/GPa) = 0.01797142
#
# Stress axis : x y z
#
# Youngs Moduli (GPa) = -653.65937 107.98216 143.74024
#
# Poissons Ratio (x) = 0.37690 -0.96429
# Poissons Ratio (y) = -2.28155 0.22659
# Poissons Ratio (z) = 4.38511 0.17022
#
# Static dielectric constant tensor:
#      x y z
#    x 2.134230 0.016150 -0.027300 
#    y 0.016150 1.987460 -0.050640 
#    z -0.027300 -0.050640 2.128950 
# 
# From -- ./inp_files/251770.got.cif
#   From: 2010.05.17/outbox.cif.g08.bks.cpg/sg2_126_cif.got.tgz:251770.got - 2010.06.03 11:33:40.
