data_PCOD9106612
_publ_section_title
;
Structure prediction by ZEFSAII (Michael W. Deem and Ramdas Pophale) SiO2 
 PCOD9106612
Probable space group: P -1
;
_chemical_formula_sum "Si O2"
_cell_formula_units_Z 16
_cell_length_a 7.265755
_cell_length_b 8.848748
_cell_length_c 16.081748
_cell_angle_alpha 112.915298
_cell_angle_beta 67.155885
_cell_angle_gamma 70.089002
_cell_volume 715.387765
_symmetry_space_group_name_H-M "P -1"
_symmetry_group_IT_number 2
_symmetry_cell_setting 'triclinic'
loop_
_space_group_symop_operation_xyz
x,y,z
-x,-y,-z
loop_
_atom_site_type_symbol
_atom_site_label
_atom_site_fract_x
_atom_site_fract_y
_atom_site_fract_z
Si Si1 0.673812 0.665079 0.393167
Si Si2 0.629665 0.000420 0.891836
Si Si3 0.078723 0.683141 0.252453
Si Si4 0.907447 0.076469 0.439567
Si Si5 0.720646 0.491492 0.508018
Si Si6 0.842490 0.598833 0.966949
Si Si7 0.106595 0.740175 0.835314
Si Si8 0.589527 0.671605 0.751623
O O1 0.810342 0.741350 0.335834
O O2 0.383876 0.823889 0.484615
O O3 0.791147 0.591828 0.448682
O O4 0.743135 0.464185 0.289907
O O5 0.656512 0.824455 0.794998
O O6 0.500000 0.000000 0.000000
O O7 0.440741 0.217094 0.931329
O O8 0.099919 0.074389 0.144460
O O9 0.147946 0.566005 0.128724
O O10 0.259281 0.521606 0.256035
O O11 0.054610 0.888066 0.311506
O O12 0.916800 0.259509 0.447030
O O13 0.000000 0.000000 0.500000
O O14 0.500000 0.500000 0.500000
O O15 0.634945 0.611978 0.634439
O O16 0.970733 0.689628 0.915007
O O17 0.000000 0.500000 0.000000
O O18 0.303349 0.773392 0.842320
#
# Coordination Sequence:
#
# PCOD9106612 Si02
#       8
#     2   2   2   2   2   2   2   2
#     4  10  20  40  58  91 131 165 205 261 298 376
#     4  10  21  41  65  91 119 160 216 263 308 376
#     4  11  22  40  65  89 127 170 217 249 321 388
#     4  11  20  36  59  90 125 172 201 253 314 376
#     4  10  21  36  61  93 133 153 215 256 299 378
#     4  10  23  44  64  89 128 156 207 277 308 367
#     4  10  20  40  68  89 125 161 207 256 321 375
#     4  12  20  39  70  90 122 172 206 255 323 365
#
# _framework density 22.365496
#
# number of rings (size 3 to 8) (size 9 to 14) (size 15 to 20)
#    0.000    1.500    7.500    0.375    0.000    4.500 
#    0.000    4.375    0.000    0.000    0.000    0.000 
#    0.000    0.000    0.000    0.000    0.000    0.000 
#
# Total GULP energy -89443.168918 kJ/mol
# GULP energy per Si atom -5590.198057 kJ/mol
# Density = 2.231459 g / cm^3
# Si number density = 22.365496 Si / 1000 Ang^3
#
#
#
# Elastic Constant Matrix: (Units=GPa)
#
#
# Indices 1 2 3 4 5 6 
#
# 1 64.2866 16.7549 12.4194 7.4255 -5.6096 -27.6270
# 2 16.7549 124.5517 50.2741 14.3361 8.3958 -35.2830
# 3 12.4194 50.2741 87.1069 7.2024 15.0353 -11.1081
# 4 7.4255 14.3361 7.2024 35.6232 -11.9695 -0.8279
# 5 -5.6096 8.3958 15.0353 -11.9695 25.1479 2.2218
# 6 -27.6270 -35.2830 -11.1081 -0.8279 2.2218 32.8924
#
#
#
# Elastic Compliance Matrix: (Units=1/GPa)
#
#
# Indices 1 2 3 4 5 6 
#
# 1 0.027934 0.006837 -0.003614 -0.007119 0.000125 0.029389
# 2 0.006837 0.017588 -0.006295 -0.009014 -0.006881 0.022721
# 3 -0.003614 -0.006295 0.017364 -0.003875 -0.010639 -0.003303
# 4 -0.007119 -0.009014 -0.003875 0.042063 0.025315 -0.017608
# 5 0.000125 -0.006881 -0.010639 0.025315 0.061772 -0.014404
# 6 0.029389 0.022721 -0.003303 -0.017608 -0.014404 0.078872
#
#
# Mechanical properties :
#
#
# Convention : Reuss Voigt Hill
#
# Bulk Modulus (GPa) = 17.62358 48.31579 32.96969
# Shear Modulus (GPa) = 18.47388 31.83249 25.15318
#
# Velocity S-wave (km/s) = 2.87714 3.77674 3.35721
# Velocity P-wave (km/s) = 4.35134 6.37715 5.45904
#
# Compressibility (1/GPa) = 0.05674215
#
# Stress axis : x y z
#
# Youngs Moduli (GPa) = 35.79817 56.85785 57.58931
#
# Poissons Ratio (x) = -0.38875 0.20813
# Poissons Ratio (y) = -0.24476 0.36254
# Poissons Ratio (z) = 0.12938 0.35794
#
# Static dielectric constant tensor:
#      x y z
#    x 1.887040 0.028250 -0.040580 
#    y 0.028250 1.840330 -0.005870 
#    z -0.040580 -0.005870 1.842000 
# 
# From -- ./inp_files/499314.got.cif
#   From: 2010.05.17/outbox.cif.g08.bks.cpg/sg2_250_cif.got.tgz:499314.got - 2010.06.03 11:33:40.
