data_PCOD9106042
_publ_section_title
;
Structure prediction by ZEFSAII (Michael W. Deem and Ramdas Pophale) SiO2 
 PCOD9106042
Probable space group: P -1
;
_chemical_formula_sum "Si O2"
_cell_formula_units_Z 15
_cell_length_a 7.324147
_cell_length_b 11.353139
_cell_length_c 13.951722
_cell_angle_alpha 45.911107
_cell_angle_beta 71.944203
_cell_angle_gamma 102.186412
_cell_volume 618.494115
_symmetry_space_group_name_H-M "P -1"
_symmetry_group_IT_number 2
_symmetry_cell_setting 'triclinic'
loop_
_space_group_symop_operation_xyz
x,y,z
-x,-y,-z
loop_
_atom_site_type_symbol
_atom_site_label
_atom_site_fract_x
_atom_site_fract_y
_atom_site_fract_z
Si Si1 0.713606 0.487938 0.071966
Si Si2 0.202174 0.322807 0.574643
Si Si3 0.000000 0.500000 0.500000
Si Si4 0.256345 0.777054 0.640138
Si Si5 0.741337 0.552765 0.811042
Si Si6 0.559847 0.221011 0.868852
Si Si7 0.055228 0.131316 0.052457
Si Si8 0.755815 0.529061 0.320016
O O1 0.798889 0.368650 0.176866
O O2 0.451226 0.407298 0.205573
O O3 0.674000 0.454883 0.984410
O O4 0.889452 0.730661 0.940405
O O5 0.997895 0.299061 0.557380
O O6 0.483042 0.462525 0.415205
O O7 0.146693 0.430434 0.609693
O O8 0.139896 0.113661 0.750664
O O9 0.281516 0.666689 0.315069
O O10 0.289734 0.665671 0.612479
O O11 0.021061 0.757895 0.661405
O O12 0.500000 0.000000 0.500000
O O13 0.712140 0.385608 0.838082
O O14 0.295946 0.163410 0.960117
O O15 0.500000 0.000000 0.000000
O O16 0.050582 0.261836 0.892616
#
# Coordination Sequence:
#
# PCOD9106042 Si02
#       8
#     2   2   1   2   2   2   2   2
#     4   9  22  44  68  97 125 173 226 273 323 402
#     4  11  22  38  64  90 130 169 213 267 329 388
#     4  12  22  38  62  96 130 164 210 270 318 400
#     4  11  24  42  65  97 137 172 217 278 333 391
#     4  10  22  45  67  93 133 171 225 274 325 399
#     4  11  22  40  63  96 132 170 216 266 336 392
#     4  10  20  39  67  87 125 174 206 269 330 379
#     4  10  23  42  56  95 128 166 220 264 322 395
#
# _framework density 24.252452999999999
#
# number of rings (size 3 to 8) (size 9 to 14) (size 15 to 20)
#    0.000    1.600    2.667    1.600    1.867    0.533 
#    4.800    0.000    0.000    0.000    0.000    0.000 
#    0.000    0.000    0.000    0.000    0.000    0.000 
#
# Total GULP energy -83566.278897 kJ/mol
# GULP energy per Si atom -5571.085260 kJ/mol
# Density = 2.419725 g / cm^3
# Si number density = 24.252453 Si / 1000 Ang^3
#
#
#
# Elastic Constant Matrix: (Units=GPa)
#
#
# Indices 1 2 3 4 5 6 
#
# 1 85.4922 2.7559 6.2871 -1.2370 -14.5666 -7.3142
# 2 2.7559 97.4151 35.1804 -3.9928 20.2368 11.2101
# 3 6.2871 35.1804 115.3603 -9.4394 9.3994 1.3194
# 4 -1.2370 -3.9928 -9.4394 33.3316 5.6745 -0.3197
# 5 -14.5666 20.2368 9.3994 5.6745 39.7378 2.9006
# 6 -7.3142 11.2101 1.3194 -0.3197 2.9006 29.8629
#
#
#
# Elastic Compliance Matrix: (Units=1/GPa)
#
#
# Indices 1 2 3 4 5 6 
#
# 1 0.013051 -0.001694 -0.000770 -0.000878 0.005713 0.003302
# 2 -0.001694 0.013481 -0.003288 0.001702 -0.006611 -0.004670
# 3 -0.000770 -0.003288 0.010038 0.002669 -0.001420 0.000769
# 4 -0.000878 0.001702 0.002669 0.032017 -0.006391 -0.000008
# 5 0.005713 -0.006611 -0.001420 -0.006391 0.031817 0.000785
# 6 0.003302 -0.004670 0.000769 -0.000008 0.000785 0.035938
#
#
# Mechanical properties :
#
#
# Convention : Reuss Voigt Hill
#
# Bulk Modulus (GPa) = 39.89153 42.96829 41.42991
# Shear Modulus (GPa) = 32.00995 37.52274 34.76635
#
# Velocity S-wave (km/s) = 3.63694 3.93768 3.79029
# Velocity P-wave (km/s) = 5.84128 6.19914 6.02287
#
# Compressibility (1/GPa) = 0.02506798
#
# Stress axis : x y z
#
# Youngs Moduli (GPa) = 76.61964 74.17838 99.61804
#
# Poissons Ratio (x) = 0.12567 0.07668
# Poissons Ratio (y) = 0.12980 0.32750
# Poissons Ratio (z) = 0.05898 0.24387
#
# Static dielectric constant tensor:
#      x y z
#    x 2.267990 0.004460 0.178020 
#    y 0.004460 2.005810 -0.000370 
#    z 0.178020 -0.000370 2.115800 
# 
# From -- ./inp_files/498824.got.cif
#   From: 2010.05.17/outbox.cif.g08.bks.cpg/sg2_250_cif.got.tgz:498824.got - 2010.06.03 11:33:40.
