data_PCOD9106728
_publ_section_title
;
Structure prediction by ZEFSAII (Michael W. Deem and Ramdas Pophale) SiO2 
 PCOD9106728
Probable space group: P -1
;
_chemical_formula_sum "Si O2"
_cell_formula_units_Z 16
_cell_length_a 7.741659
_cell_length_b 18.538703
_cell_length_c 9.139309
_cell_angle_alpha 87.335995
_cell_angle_beta 97.477128
_cell_angle_gamma 143.964856
_cell_volume 761.182498
_symmetry_space_group_name_H-M "P -1"
_symmetry_group_IT_number 2
_symmetry_cell_setting 'triclinic'
loop_
_space_group_symop_operation_xyz
x,y,z
-x,-y,-z
loop_
_atom_site_type_symbol
_atom_site_label
_atom_site_fract_x
_atom_site_fract_y
_atom_site_fract_z
Si Si1 0.836972 0.458927 0.330035
Si Si2 0.840969 0.819013 0.999905
Si Si3 0.353731 0.008602 0.278238
Si Si4 0.472464 0.485326 0.322855
Si Si5 0.099914 0.167478 0.514229
Si Si6 0.565313 0.363960 0.780847
Si Si7 0.658505 0.832975 0.708597
Si Si8 0.006013 0.772169 0.763107
O O1 0.682853 0.487044 0.301546
O O2 0.594847 0.313364 0.307382
O O3 0.000000 0.500000 0.500000
O O4 0.091973 0.533343 0.229808
O O5 0.545001 0.703267 0.070371
O O6 0.811295 0.874898 0.878876
O O7 0.103546 0.918712 0.134736
O O8 0.902415 0.773119 0.902107
O O9 0.444183 0.120426 0.319999
O O10 0.660954 0.086501 0.235754
O O11 0.194687 0.923773 0.412534
O O12 0.500000 0.500000 0.500000
O O13 0.535450 0.585958 0.254183
O O14 0.133635 0.354160 0.244419
O O15 0.374167 0.256816 0.646991
O O16 0.118363 0.108601 0.406067
O O17 0.138741 0.247071 0.401651
#
# Coordination Sequence:
#
# PCOD9106728 Si02
#       8
#     2   2   2   2   2   2   2   2
#     4  12  21  39  67  93 125 157 202 256 304 366
#     4  10  24  44  57  84 131 159 198 257 297 363
#     4  11  23  36  67  87 115 166 207 247 306 362
#     4  12  21  39  67  93 125 157 202 256 304 366
#     4  10  20  40  60  91 124 148 206 261 294 356
#     4  11  23  40  64  92 126 163 199 249 311 359
#     4  11  21  41  60  88 123 160 200 251 310 355
#     4  11  21  41  60  88 123 160 200 251 310 355
#
# _framework density 21.019928
#
# number of rings (size 3 to 8) (size 9 to 14) (size 15 to 20)
#    0.000    1.000    6.250    2.250    0.000    1.000 
#    2.250    0.000    5.500    0.000    0.000    0.000 
#    0.000    0.000    0.000    0.000    0.000    0.000 
#
# Total GULP energy -89164.905382 kJ/mol
# GULP energy per Si atom -5572.806586 kJ/mol
# Density = 2.097209 g / cm^3
# Si number density = 21.019928 Si / 1000 Ang^3
#
#
#
# Elastic Constant Matrix: (Units=GPa)
#
#
# Indices 1 2 3 4 5 6 
#
# 1 54.2133 18.1402 15.5023 -3.7149 -15.6289 1.2890
# 2 18.1402 84.8141 41.4222 -6.7615 -16.4883 21.8740
# 3 15.5023 41.4222 100.8707 -19.2714 -17.6806 6.8710
# 4 -3.7149 -6.7615 -19.2714 26.8603 6.8502 -4.5555
# 5 -15.6289 -16.4883 -17.6806 6.8502 23.2199 -3.6652
# 6 1.2890 21.8740 6.8710 -4.5555 -3.6652 36.6671
#
#
#
# Elastic Compliance Matrix: (Units=1/GPa)
#
#
# Indices 1 2 3 4 5 6 
#
# 1 0.023430 -0.002728 -0.000315 -0.000928 0.014209 0.002168
# 2 -0.002728 0.018887 -0.006205 -0.003340 0.006290 -0.009795
# 3 -0.000315 -0.006205 0.014708 0.008200 0.004546 0.002430
# 4 -0.000928 -0.003340 0.008200 0.045404 -0.009328 0.005197
# 5 0.014209 0.006290 0.004546 -0.009328 0.063320 0.000067
# 6 0.002168 -0.009795 0.002430 0.005197 0.000067 0.033236
#
#
# Mechanical properties :
#
#
# Convention : Reuss Voigt Hill
#
# Bulk Modulus (GPa) = 25.95487 43.33638 34.64563
# Shear Modulus (GPa) = 21.70849 28.33836 25.02342
#
# Velocity S-wave (km/s) = 3.21714 3.67572 3.45405
# Velocity P-wave (km/s) = 5.11611 6.21901 5.69433
#
# Compressibility (1/GPa) = 0.03852841
#
# Stress axis : x y z
#
# Youngs Moduli (GPa) = 42.68083 52.94607 67.99019
#
# Poissons Ratio (x) = 0.14445 0.02141
# Poissons Ratio (y) = 0.11644 0.42189
# Poissons Ratio (z) = 0.01344 0.32854
#
# Static dielectric constant tensor:
#      x y z
#    x 1.838100 0.045570 -0.015790 
#    y 0.045570 1.767550 0.003220 
#    z -0.015790 0.003220 1.752680 
# 
# From -- ./inp_files/221536.got.cif
#   From: 2010.05.17/outbox.cif.g08.bks.cpg/sg2_111_cif.got.tgz:221536.got - 2010.06.03 11:33:40.
