data_PCOD9106390
_publ_section_title
;
Structure prediction by ZEFSAII (Michael W. Deem and Ramdas Pophale) SiO2 
 PCOD9106390
Probable space group: P -1
;
_chemical_formula_sum "Si O2"
_cell_formula_units_Z 16
_cell_length_a 20.389101
_cell_length_b 8.837028
_cell_length_c 22.455627
_cell_angle_alpha 148.504345
_cell_angle_beta 20.339810
_cell_angle_gamma 140.349636
_cell_volume 724.924508
_symmetry_space_group_name_H-M "P -1"
_symmetry_group_IT_number 2
_symmetry_cell_setting 'triclinic'
loop_
_space_group_symop_operation_xyz
x,y,z
-x,-y,-z
loop_
_atom_site_type_symbol
_atom_site_label
_atom_site_fract_x
_atom_site_fract_y
_atom_site_fract_z
Si Si1 0.835271 0.660588 0.235048
Si Si2 0.701678 0.748481 0.814729
Si Si3 0.455804 0.859611 0.552959
Si Si4 0.388724 0.201644 0.229070
Si Si5 0.265472 0.446079 0.973053
Si Si6 0.898242 0.337791 0.193283
Si Si7 0.965085 0.223557 0.373402
Si Si8 0.981760 0.355243 0.637846
O O1 0.644634 0.712118 0.375889
O O2 0.831469 0.444860 0.221025
O O3 0.893691 0.963009 0.311156
O O4 0.000000 0.500000 0.000000
O O5 0.686886 0.840485 0.788225
O O6 0.863430 0.862778 0.754798
O O7 0.782453 0.403376 0.624458
O O8 0.491083 0.890399 0.064118
O O9 0.303214 0.647798 0.597714
O O10 0.500000 0.000000 0.500000
O O11 0.356970 0.113356 0.767457
O O12 0.564757 0.380566 0.132443
O O13 0.200379 0.372663 0.478071
O O14 0.186247 0.512314 0.129477
O O15 0.065493 0.513103 0.129588
O O16 0.000000 0.000000 0.000000
O O17 0.038103 0.453086 0.341634
O O18 0.000000 0.000000 0.500000
#
# Coordination Sequence:
#
# PCOD9106390 Si02
#       8
#     2   2   2   2   2   2   2   2
#     4  12  25  43  70 103 145 188 239 297 367 429
#     4   9  18  38  64  94 133 177 237 277 345 415
#     4  11  25  44  73 100 142 191 238 303 365 424
#     4  10  20  39  69  96 136 184 230 286 361 420
#     4  11  23  42  70  98 145 182 238 291 363 417
#     4  10  24  44  69 102 135 183 244 296 351 438
#     4  10  22  38  67  98 142 184 237 291 359 416
#     4  11  24  41  67 105 138 190 235 293 350 435
#
# _framework density 22.071265
#
# number of rings (size 3 to 8) (size 9 to 14) (size 15 to 20)
#    0.000    1.500    0.000    6.375    7.000    1.000 
#    0.000    2.500    0.000    0.000    0.000    0.000 
#    0.000    0.000    0.000    0.000    0.000    0.000 
#
# Total GULP energy -89182.816938 kJ/mol
# GULP energy per Si atom -5573.926059 kJ/mol
# Density = 2.202103 g / cm^3
# Si number density = 22.071265 Si / 1000 Ang^3
#
#
#
# Elastic Constant Matrix: (Units=GPa)
#
#
# Indices 1 2 3 4 5 6 
#
# 1 108.1125 56.3865 46.9727 -6.5433 -35.3770 4.5948
# 2 56.3865 122.9556 36.1187 -17.5487 -8.5246 1.1383
# 3 46.9727 36.1187 127.1002 -18.0316 -24.1780 7.6277
# 4 -6.5433 -17.5487 -18.0316 40.0468 3.8449 -2.3130
# 5 -35.3770 -8.5246 -24.1780 3.8449 50.3408 -2.0237
# 6 4.5948 1.1383 7.6277 -2.3130 -2.0237 37.9586
#
#
#
# Elastic Compliance Matrix: (Units=1/GPa)
#
#
# Indices 1 2 3 4 5 6 
#
# 1 0.016965 -0.006610 -0.002852 -0.002381 0.009578 -0.000917
# 2 -0.006610 0.011794 -0.001037 0.003992 -0.003422 0.000715
# 3 -0.002852 -0.001037 0.010238 0.003379 0.002425 -0.001346
# 4 -0.002381 0.003992 0.003379 0.028058 -0.001473 0.001121
# 5 0.009578 -0.003422 0.002425 -0.001473 0.027286 -0.000179
# 6 -0.000917 0.000715 -0.001346 0.001121 -0.000179 0.026763
#
#
# Mechanical properties :
#
#
# Convention : Reuss Voigt Hill
#
# Bulk Modulus (GPa) = 55.55339 70.79157 63.17248
# Shear Modulus (GPa) = 33.76045 40.24859 37.00452
#
# Velocity S-wave (km/s) = 3.91527 4.27497 4.09906
# Velocity P-wave (km/s) = 6.75750 7.51737 7.14754
#
# Compressibility (1/GPa) = 0.01800070
#
# Stress axis : x y z
#
# Youngs Moduli (GPa) = 58.94434 84.78589 97.67584
#
# Poissons Ratio (x) = 0.56039 0.27861
# Poissons Ratio (y) = 0.38959 0.10124
# Poissons Ratio (z) = 0.16813 0.08788
#
# Static dielectric constant tensor:
#      x y z
#    x 1.803930 0.043250 0.042030 
#    y 0.043250 1.878590 0.016220 
#    z 0.042030 0.016220 1.854620 
# 
# From -- ./inp_files/613620.got.cif
#   From: 2010.05.17/outbox.cif.g08.bks.cpg/sg2_307_cif.got.tgz:613620.got - 2010.06.03 11:33:40.
