data_PCOD9106978
_publ_section_title
;
Structure prediction by ZEFSAII (Michael W. Deem and Ramdas Pophale) SiO2 
 PCOD9106978
Probable space group: P -1
;
_chemical_formula_sum "Si O2"
_cell_formula_units_Z 16
_cell_length_a 8.793192
_cell_length_b 6.383844
_cell_length_c 21.162281
_cell_angle_alpha 53.154253
_cell_angle_beta 52.395545
_cell_angle_gamma 74.256308
_cell_volume 744.712925
_symmetry_space_group_name_H-M "P -1"
_symmetry_group_IT_number 2
_symmetry_cell_setting 'triclinic'
loop_
_space_group_symop_operation_xyz
x,y,z
-x,-y,-z
loop_
_atom_site_type_symbol
_atom_site_label
_atom_site_fract_x
_atom_site_fract_y
_atom_site_fract_z
Si Si1 0.653257 0.689600 0.854620
Si Si2 0.097634 0.444383 0.303987
Si Si3 0.274590 0.568947 0.373717
Si Si4 0.376661 0.218158 0.968258
Si Si5 0.595901 0.844148 0.171619
Si Si6 0.057635 0.809920 0.913387
Si Si7 0.975399 0.014391 0.235787
Si Si8 0.924564 0.901102 0.412643
O O1 0.756813 0.614673 0.777608
O O2 0.464224 0.466238 0.944480
O O3 0.562076 0.957397 0.829402
O O4 0.834294 0.761391 0.842932
O O5 0.196653 0.469705 0.342430
O O6 0.026098 0.724012 0.257821
O O7 0.938177 0.182085 0.393046
O O8 0.502301 0.663109 0.285770
O O9 0.227442 0.332768 0.477908
O O10 0.134097 0.789751 0.385761
O O11 0.397823 0.282814 0.876289
O O12 0.152418 0.099473 0.052918
O O13 0.500000 0.000000 0.000000
O O14 0.799304 0.019559 0.105534
O O15 0.143490 0.869610 0.810556
O O16 0.000000 0.500000 0.000000
O O17 0.889719 0.962563 0.336983
#
# Coordination Sequence:
#
# PCOD9106978 Si02
#       8
#     2   2   2   2   2   2   2   2
#     4  11  19  38  64  88 121 164 208 262 307 364
#     4  10  16  34  61  94 125 156 210 259 312 356
#     4  10  18  34  60  97 124 163 208 262 315 365
#     4  12  26  42  67  91 118 169 221 261 313 371
#     4  12  23  42  60  91 132 160 205 262 314 373
#     4  12  27  44  62  91 131 172 206 259 325 374
#     4  10  22  40  60  91 127 168 210 261 308 376
#     4   9  19  33  63  93 126 159 215 259 307 370
#
# _framework density 21.484791000000001
#
# number of rings (size 3 to 8) (size 9 to 14) (size 15 to 20)
#    0.000    1.250    6.250    2.250    1.750    1.000 
#    4.500    0.625    0.000    0.750    0.000    0.000 
#    0.000    0.000    0.000    0.000    0.000    0.000 
#
# Total GULP energy -89225.826058 kJ/mol
# GULP energy per Si atom -5576.614129 kJ/mol
# Density = 2.143589 g / cm^3
# Si number density = 21.484791 Si / 1000 Ang^3
#
#
#
# Elastic Constant Matrix: (Units=GPa)
#
#
# Indices 1 2 3 4 5 6 
#
# 1 67.5977 15.0178 15.7763 -4.9902 5.6341 20.0307
# 2 15.0178 75.0572 16.0362 -12.8124 2.4173 26.0424
# 3 15.7763 16.0362 121.6045 -17.9005 8.0553 11.5884
# 4 -4.9902 -12.8124 -17.9005 26.9028 -1.8139 -5.8598
# 5 5.6341 2.4173 8.0553 -1.8139 31.9664 -3.0801
# 6 20.0307 26.0424 11.5884 -5.8598 -3.0801 26.8655
#
#
#
# Elastic Compliance Matrix: (Units=1/GPa)
#
#
# Indices 1 2 3 4 5 6 
#
# 1 0.020096 0.002441 -0.000897 0.000126 -0.005183 -0.017530
# 2 0.002441 0.021521 0.000024 0.005690 -0.003850 -0.021893
# 3 -0.000897 0.000024 0.009529 0.005490 -0.002176 -0.002517
# 4 0.000126 0.005690 0.005490 0.043986 0.000825 0.001710
# 5 -0.005183 -0.003850 -0.002176 0.000825 0.034301 0.012648
# 6 -0.017530 -0.021893 -0.002517 0.001710 0.012648 0.074423
#
#
# Mechanical properties :
#
#
# Convention : Reuss Voigt Hill
#
# Bulk Modulus (GPa) = 18.42186 39.76888 29.09537
# Shear Modulus (GPa) = 22.85066 31.64221 27.24644
#
# Velocity S-wave (km/s) = 3.26479 3.84184 3.56501
# Velocity P-wave (km/s) = 4.77543 6.18304 5.52425
#
# Compressibility (1/GPa) = 0.05428335
#
# Stress axis : x y z
#
# Youngs Moduli (GPa) = 49.76103 46.46666 104.94583
#
# Poissons Ratio (x) = -0.11344 0.09411
# Poissons Ratio (y) = -0.12149 -0.00254
# Poissons Ratio (z) = 0.04462 -0.00112
#
# Static dielectric constant tensor:
#      x y z
#    x 1.766200 -0.000050 -0.006300 
#    y -0.000050 1.811060 -0.023260 
#    z -0.006300 -0.023260 1.965070 
# 
# From -- ./inp_files/39026.got.cif
#   From: 2010.05.17/outbox.cif.g08.bks.cpg/sg2_20_cif.got.tgz:39026.got - 2010.06.03 11:33:40.
