data_PCOD9106971
_publ_section_title
;
Structure prediction by ZEFSAII (Michael W. Deem and Ramdas Pophale) SiO2 
 PCOD9106971
Probable space group: P -1
;
_chemical_formula_sum "Si O2"
_cell_formula_units_Z 12
_cell_length_a 5.086544
_cell_length_b 5.392111
_cell_length_c 19.894910
_cell_angle_alpha 80.935028
_cell_angle_beta 55.778359
_cell_angle_gamma 84.952963
_cell_volume 445.555094
_symmetry_space_group_name_H-M "P -1"
_symmetry_group_IT_number 2
_symmetry_cell_setting 'triclinic'
loop_
_space_group_symop_operation_xyz
x,y,z
-x,-y,-z
loop_
_atom_site_type_symbol
_atom_site_label
_atom_site_fract_x
_atom_site_fract_y
_atom_site_fract_z
Si Si1 0.303009 0.634545 0.368095
Si Si2 0.390491 0.177006 0.946092
Si Si3 0.249795 0.723471 0.515500
Si Si4 0.304814 0.710703 0.908280
Si Si5 0.650747 0.303075 0.246322
Si Si6 0.973426 0.047635 0.328978
O O1 0.316901 0.805545 0.425511
O O2 0.616744 0.542838 0.289697
O O3 0.107363 0.390886 0.430577
O O4 0.089404 0.768054 0.337548
O O5 0.510442 0.466136 0.911104
O O6 0.458884 0.989049 0.882261
O O7 0.015375 0.244645 0.004268
O O8 0.500000 0.000000 0.000000
O O9 0.500000 0.500000 0.500000
O O10 0.241668 0.886057 0.577419
O O11 0.200397 0.660180 0.849208
O O12 0.293595 0.214264 0.282919
O O13 0.820360 0.102722 0.277465
#
# Coordination Sequence:
#
# PCOD9106971 Si02
#       6
#     2   2   2   2   2   2
#     4  10  23  40  61  92 127 173 221 283 332 403
#     4  10  22  45  71 102 133 181 225 279 340 412
#     4  10  20  40  62  89 127 167 229 278 329 403
#     4  10  24  42  68 104 137 175 231 278 340 414
#     4  11  26  42  62  99 133 170 223 276 337 409
#     4  11  25  42  64  94 129 179 221 271 349 395
#
# _framework density 26.932701000000002
#
# number of rings (size 3 to 8) (size 9 to 14) (size 15 to 20)
#    0.000    1.667    1.667    1.000    7.000    0.667 
#    0.000    0.000    0.000    0.000    0.000    0.000 
#    0.000    0.000    0.000    0.000    0.000    0.000 
#
# Total GULP energy -67080.576614 kJ/mol
# GULP energy per Si atom -5590.048051 kJ/mol
# Density = 2.687140 g / cm^3
# Si number density = 26.932701 Si / 1000 Ang^3
#
#
#
# Elastic Constant Matrix: (Units=GPa)
#
#
# Indices 1 2 3 4 5 6 
#
# 1 88.4189 38.0392 29.8236 -2.5209 23.7716 -3.3348
# 2 38.0392 190.5879 50.1457 11.6155 22.8530 -23.3350
# 3 29.8236 50.1457 127.6900 10.5352 35.3717 -2.4545
# 4 -2.5209 11.6155 10.5352 34.2103 -6.2327 15.8100
# 5 23.7716 22.8530 35.3717 -6.2327 42.9406 -8.2460
# 6 -3.3348 -23.3350 -2.4545 15.8100 -8.2460 47.1044
#
#
#
# Elastic Compliance Matrix: (Units=1/GPa)
#
#
# Indices 1 2 3 4 5 6 
#
# 1 0.014166 -0.002185 -0.000991 0.001834 -0.005940 -0.001787
# 2 -0.002185 0.007027 -0.001511 -0.004366 -0.001049 0.004529
# 3 -0.000991 -0.001511 0.011470 -0.004594 -0.008805 -0.000221
# 4 0.001834 -0.004366 -0.004594 0.040412 0.008193 -0.014402
# 5 -0.005940 -0.001049 -0.008805 0.008193 0.035990 0.002151
# 6 -0.001787 0.004529 -0.000221 -0.014402 0.002151 0.028546
#
#
# Mechanical properties :
#
#
# Convention : Reuss Voigt Hill
#
# Bulk Modulus (GPa) = 42.93867 71.41263 57.17565
# Shear Modulus (GPa) = 32.31061 44.09696 38.20378
#
# Velocity S-wave (km/s) = 3.46740 4.05075 3.77037
# Velocity P-wave (km/s) = 5.65756 6.96066 6.34267
#
# Compressibility (1/GPa) = 0.02328903
#
# Stress axis : x y z
#
# Youngs Moduli (GPa) = 70.59214 142.30545 87.18150
#
# Poissons Ratio (x) = 0.31093 0.08638
# Poissons Ratio (y) = 0.15424 0.13177
# Poissons Ratio (z) = 0.06994 0.21508
#
# Static dielectric constant tensor:
#      x y z
#    x 2.214890 0.148380 -0.041680 
#    y 0.148380 2.210280 -0.015880 
#    z -0.041680 -0.015880 2.128610 
# 
# From -- ./inp_files/3191.got.cif
#   From: 2010.05.17/outbox.cif.g08.bks.cpg/sg2_2_cif.got.tgz:3191.got - 2010.06.03 11:33:40.
