data_PCOD9106977
_publ_section_title
;
Structure prediction by ZEFSAII (Michael W. Deem and Ramdas Pophale) SiO2 
 PCOD9106977
Probable space group: P -1
;
_chemical_formula_sum "Si O2"
_cell_formula_units_Z 14
_cell_length_a 13.286517
_cell_length_b 13.668908
_cell_length_c 10.380490
_cell_angle_alpha 44.820841
_cell_angle_beta 37.916656
_cell_angle_gamma 28.640813
_cell_volume 554.368700
_symmetry_space_group_name_H-M "P -1"
_symmetry_group_IT_number 2
_symmetry_cell_setting 'triclinic'
loop_
_space_group_symop_operation_xyz
x,y,z
-x,-y,-z
loop_
_atom_site_type_symbol
_atom_site_label
_atom_site_fract_x
_atom_site_fract_y
_atom_site_fract_z
Si Si1 0.093283 0.045778 0.975872
Si Si2 0.757137 0.286860 0.541453
Si Si3 0.442008 0.008384 0.261392
Si Si4 0.757948 0.157875 0.415456
Si Si5 0.883489 0.722359 0.912154
Si Si6 0.655927 0.374832 0.831603
Si Si7 0.902280 0.711375 0.438087
O O1 0.152777 0.156468 0.752057
O O2 0.869990 0.189183 0.165652
O O3 0.306025 0.816064 0.028917
O O4 0.000000 0.000000 0.000000
O O5 0.631424 0.274267 0.570365
O O6 0.599825 0.439450 0.676848
O O7 0.894528 0.313075 0.292454
O O8 0.984864 0.066835 0.582432
O O9 0.281632 0.152028 0.165140
O O10 0.327311 0.155888 0.361033
O O11 0.391366 0.876369 0.461911
O O12 0.715193 0.856919 0.079820
O O13 0.000000 0.500000 0.000000
O O14 0.891689 0.326023 0.661281
O O15 0.500000 0.500000 0.000000
O O16 0.000000 0.500000 0.500000
#
# Coordination Sequence:
#
# PCOD9106977 Si02
#       7
#     2   2   2   2   2   2   2
#     4   9  17  36  63  82 117 164 201 248 312 369
#     4   9  18  36  58  85 121 152 201 264 303 372
#     4  10  20  41  61  86 126 168 204 263 322 368
#     4   9  16  35  63  84 110 159 210 251 311 367
#     4  10  21  38  62  88 127 164 200 259 328 381
#     4  10  20  40  62  90 122 161 206 261 318 374
#     4  11  22  41  59  88 129 167 209 259 311 383
#
# _framework density 25.253951000000001
#
# number of rings (size 3 to 8) (size 9 to 14) (size 15 to 20)
#    0.000    2.286    5.714    0.000    0.000    2.286 
#   12.857    1.429    0.000    0.000    0.000    0.000 
#    0.000    0.000    0.000    0.000    0.000    0.000 
#
# Total GULP energy -78214.080072 kJ/mol
# GULP energy per Si atom -5586.720005 kJ/mol
# Density = 2.519647 g / cm^3
# Si number density = 25.253951 Si / 1000 Ang^3
#
#
#
# Elastic Constant Matrix: (Units=GPa)
#
#
# Indices 1 2 3 4 5 6 
#
# 1 65.9465 21.6296 35.4137 22.1771 12.1544 16.9327
# 2 21.6296 152.2664 93.4739 42.1089 2.1010 35.0357
# 3 35.4137 93.4739 176.3051 37.8907 23.3692 23.9020
# 4 22.1771 42.1089 37.8907 59.1136 12.6350 0.3816
# 5 12.1544 2.1010 23.3692 12.6350 34.6374 12.6384
# 6 16.9327 35.0357 23.9020 0.3816 12.6384 32.6777
#
#
#
# Elastic Compliance Matrix: (Units=1/GPa)
#
#
# Indices 1 2 3 4 5 6 
#
# 1 0.022425 0.005921 -0.003520 -0.011212 0.004431 -0.016976
# 2 0.005921 0.019965 -0.007261 -0.015123 0.016364 -0.025315
# 3 -0.003520 -0.007261 0.010223 0.001539 -0.007631 0.005065
# 4 -0.011212 -0.015123 0.001539 0.034800 -0.019046 0.027859
# 5 0.004431 0.016364 -0.007631 -0.019046 0.050695 -0.033643
# 6 -0.016976 -0.025315 0.005065 0.027859 -0.033643 0.075522
#
#
# Mechanical properties :
#
#
# Convention : Reuss Voigt Hill
#
# Bulk Modulus (GPa) = 23.31411 77.28361 50.29886
# Shear Modulus (GPa) = 21.03949 41.55245 31.29597
#
# Velocity S-wave (km/s) = 2.88951 4.06073 3.52412
# Velocity P-wave (km/s) = 4.51489 7.25638 6.04315
#
# Compressibility (1/GPa) = 0.04289248
#
# Stress axis : x y z
#
# Youngs Moduli (GPa) = 44.59384 50.08667 97.81883
#
# Poissons Ratio (x) = -0.29655 0.34429
# Poissons Ratio (y) = -0.26403 0.71030
# Poissons Ratio (z) = 0.15695 0.36370
#
# Static dielectric constant tensor:
#      x y z
#    x 2.131150 -0.044270 0.034240 
#    y -0.044270 2.258970 -0.073690 
#    z 0.034240 -0.073690 1.990130 
# 
# From -- ./inp_files/465491.got.cif
#   From: 2010.05.17/outbox.cif.g08.bks.cpg/sg2_233_cif.got.tgz:465491.got - 2010.06.03 11:33:40.
