data_PCOD9106212
_publ_section_title
;
Structure prediction by ZEFSAII (Michael W. Deem and Ramdas Pophale) SiO2 
 PCOD9106212
Probable space group: P -1
;
_chemical_formula_sum "Si O2"
_cell_formula_units_Z 12
_cell_length_a 17.709461
_cell_length_b 6.637043
_cell_length_c 5.386724
_cell_angle_alpha 73.113299
_cell_angle_beta 122.519193
_cell_angle_gamma 95.577958
_cell_volume 509.491112
_symmetry_space_group_name_H-M "P -1"
_symmetry_group_IT_number 2
_symmetry_cell_setting 'triclinic'
loop_
_space_group_symop_operation_xyz
x,y,z
-x,-y,-z
loop_
_atom_site_type_symbol
_atom_site_label
_atom_site_fract_x
_atom_site_fract_y
_atom_site_fract_z
Si Si1 0.207415 0.618095 0.757997
Si Si2 0.015300 0.635234 0.229033
Si Si3 0.442703 0.529589 0.637235
Si Si4 0.828423 0.800017 0.834995
Si Si5 0.306004 0.919853 0.181378
Si Si6 0.693020 0.693625 0.272324
O O1 0.117932 0.691082 0.420617
O O2 0.287847 0.525612 0.758431
O O3 0.186347 0.413847 0.958755
O O4 0.243291 0.794720 0.931630
O O5 0.000000 0.500000 0.500000
O O6 0.934540 0.818321 0.021695
O O7 0.000000 0.500000 0.000000
O O8 0.500000 0.500000 0.500000
O O9 0.387105 0.755643 0.458137
O O10 0.370209 0.352326 0.594058
O O11 0.500000 0.500000 0.000000
O O12 0.790862 0.753069 0.514063
O O13 0.761238 0.983828 0.761155
O O14 0.343432 0.117631 0.033110
#
# Coordination Sequence:
#
# PCOD9106212 Si02
#       6
#     2   2   2   2   2   2
#     4  10  21  43  70 102 150 195 234 290 349 419
#     4  10  20  39  68 105 147 193 240 285 339 408
#     4  12  29  51  75 105 140 184 239 305 373 439
#     4  10  22  41  70 104 144 192 240 288 349 420
#     4  11  26  44  74 106 140 195 237 297 364 430
#     4  11  24  45  74 102 144 188 238 293 364 432
#
# _framework density 23.552911999999999
#
# number of rings (size 3 to 8) (size 9 to 14) (size 15 to 20)
#    0.000    1.333    3.333    1.000    7.000    2.000 
#    0.000    0.833    0.000    0.000    0.000    0.000 
#    0.000    0.000    0.000    0.000    0.000    0.000 
#
# Total GULP energy -67138.568478 kJ/mol
# GULP energy per Si atom -5594.880706 kJ/mol
# Density = 2.349930 g / cm^3
# Si number density = 23.552912 Si / 1000 Ang^3
#
#
#
# Elastic Constant Matrix: (Units=GPa)
#
#
# Indices 1 2 3 4 5 6 
#
# 1 110.0500 30.5269 37.9360 -26.0327 -1.7921 -6.2293
# 2 30.5269 94.1563 34.5677 -11.7385 8.2512 -28.0115
# 3 37.9360 34.5677 147.1424 -17.7597 21.9195 -15.7525
# 4 -26.0327 -11.7385 -17.7597 53.7680 -5.3581 2.4321
# 5 -1.7921 8.2512 21.9195 -5.3581 43.6845 -1.0046
# 6 -6.2293 -28.0115 -15.7525 2.4321 -1.0046 32.6316
#
#
#
# Elastic Compliance Matrix: (Units=1/GPa)
#
#
# Indices 1 2 3 4 5 6 
#
# 1 0.011814 -0.003196 -0.002357 0.004608 0.002793 -0.001883
# 2 -0.003196 0.016110 -0.001200 0.000790 -0.002187 0.012514
# 3 -0.002357 -0.001200 0.008671 0.000944 -0.004047 0.002511
# 4 0.004608 0.000790 0.000944 0.021513 0.002216 0.000478
# 5 0.002793 -0.002187 -0.004047 0.002216 0.025660 -0.002673
# 6 -0.001883 0.012514 0.002511 0.000478 -0.002673 0.042122
#
#
# Mechanical properties :
#
#
# Convention : Reuss Voigt Hill
#
# Bulk Modulus (GPa) = 43.30647 61.93442 52.62045
# Shear Modulus (GPa) = 33.99214 42.57137 38.28175
#
# Velocity S-wave (km/s) = 3.80310 4.25606 4.03594
# Velocity P-wave (km/s) = 6.14097 7.10669 6.64141
#
# Compressibility (1/GPa) = 0.02309124
#
# Stress axis : x y z
#
# Youngs Moduli (GPa) = 84.64218 62.07231 115.32175
#
# Poissons Ratio (x) = 0.19836 0.27178
# Poissons Ratio (y) = 0.27049 0.13839
# Poissons Ratio (z) = 0.19948 0.07449
#
# Static dielectric constant tensor:
#      x y z
#    x 1.737040 -0.038420 0.078130 
#    y -0.038420 1.841120 0.023120 
#    z 0.078130 0.023120 1.901540 
# 
# From -- ./inp_files/102172.got.cif
#   From: 2010.05.17/outbox.cif.g08.bks.cpg/sg2_52_cif.got.tgz:102172.got - 2010.06.03 11:33:40.
