data_PCOD9106812
_publ_section_title
;
Structure prediction by ZEFSAII (Michael W. Deem and Ramdas Pophale) SiO2 
 PCOD9106812
Probable space group: P -1
;
_chemical_formula_sum "Si O2"
_cell_formula_units_Z 16
_cell_length_a 6.672184
_cell_length_b 5.905692
_cell_length_c 22.415948
_cell_angle_alpha 74.361168
_cell_angle_beta 108.633929
_cell_angle_gamma 129.995022
_cell_volume 638.692181
_symmetry_space_group_name_H-M "P -1"
_symmetry_group_IT_number 2
_symmetry_cell_setting 'triclinic'
loop_
_space_group_symop_operation_xyz
x,y,z
-x,-y,-z
loop_
_atom_site_type_symbol
_atom_site_label
_atom_site_fract_x
_atom_site_fract_y
_atom_site_fract_z
Si Si1 0.503394 0.742964 0.406947
Si Si2 0.088420 0.344649 0.826859
Si Si3 0.266902 0.397541 0.669565
Si Si4 0.256225 0.004090 0.289512
Si Si5 0.742804 0.988176 0.935970
Si Si6 0.055384 0.296325 0.052302
Si Si7 0.744916 0.062260 0.150702
Si Si8 0.975483 0.346994 0.446556
O O1 0.615286 0.656282 0.371818
O O2 0.379413 0.885779 0.351478
O O3 0.264957 0.470531 0.441608
O O4 0.751614 0.996237 0.452202
O O5 0.217795 0.696902 0.814442
O O6 0.839235 0.170947 0.769303
O O7 0.963998 0.208236 0.890566
O O8 0.254199 0.224160 0.828220
O O9 0.019493 0.095546 0.698255
O O10 0.135675 0.544983 0.620643
O O11 0.517225 0.643433 0.716717
O O12 0.510388 0.016494 0.904008
O O13 0.827757 0.014205 0.010719
O O14 0.679728 0.675799 0.934148
O O15 0.999905 0.271481 0.117676
O O16 0.000000 0.500000 0.000000
O O17 0.000000 0.500000 0.500000
#
# Coordination Sequence:
#
# PCOD9106812 Si02
#       8
#     2   2   2   2   2   2   2   2
#     4  10  21  39  63  88 127 172 213 261 326 384
#     4  11  26  42  61  95 123 162 218 273 321 396
#     4  10  22  41  63  90 126 172 218 264 324 391
#     4  10  24  41  62  90 124 166 222 269 324 386
#     4  10  23  40  62  88 126 160 207 261 328 395
#     4  10  20  40  61  89 123 161 203 259 320 409
#     4  11  25  41  64  92 124 162 211 261 338 388
#     4  10  21  37  60  97 131 163 214 267 317 388
#
# _framework density 25.051192
#
# number of rings (size 3 to 8) (size 9 to 14) (size 15 to 20)
#    0.000    1.750    1.250    1.500    5.250    2.500 
#    0.000    0.000    0.000    0.000    0.000    0.000 
#    0.000    0.000    0.000    0.000    0.000    0.000 
#
# Total GULP energy -89180.128966 kJ/mol
# GULP energy per Si atom -5573.758060 kJ/mol
# Density = 2.499417 g / cm^3
# Si number density = 25.051192 Si / 1000 Ang^3
#
#
#
# Elastic Constant Matrix: (Units=GPa)
#
#
# Indices 1 2 3 4 5 6 
#
# 1 139.6493 63.0467 15.7584 -0.4581 -2.2119 -6.0151
# 2 63.0467 127.7905 36.5552 20.2922 1.6757 -9.0857
# 3 15.7584 36.5552 74.1898 20.9149 -4.3774 13.5305
# 4 -0.4581 20.2922 20.9149 38.0129 0.4888 1.9232
# 5 -2.2119 1.6757 -4.3774 0.4888 30.2067 -0.7158
# 6 -6.0151 -9.0857 13.5305 1.9232 -0.7158 42.8334
#
#
#
# Elastic Compliance Matrix: (Units=1/GPa)
#
#
# Indices 1 2 3 4 5 6 
#
# 1 0.009522 -0.005061 -0.000369 0.002995 0.000882 0.000260
# 2 -0.005061 0.012632 -0.004661 -0.004402 -0.001590 0.003612
# 3 -0.000369 -0.004661 0.019512 -0.007947 0.003027 -0.006797
# 4 0.002995 -0.004402 -0.007947 0.033056 -0.001211 0.000493
# 5 0.000882 -0.001590 0.003027 -0.001211 0.033703 -0.000552
# 6 0.000260 0.003612 -0.006797 0.000493 -0.000552 0.026265
#
#
# Mechanical properties :
#
#
# Convention : Reuss Voigt Hill
#
# Bulk Modulus (GPa) = 46.54193 63.59447 55.06820
# Shear Modulus (GPa) = 30.85783 37.29524 34.07653
#
# Velocity S-wave (km/s) = 3.51350 3.86263 3.69219
# Velocity P-wave (km/s) = 5.92272 6.73306 6.34085
#
# Compressibility (1/GPa) = 0.02148600
#
# Stress axis : x y z
#
# Youngs Moduli (GPa) = 105.01656 79.16281 51.24996
#
# Poissons Ratio (x) = 0.40065 0.01889
# Poissons Ratio (y) = 0.53150 0.23886
# Poissons Ratio (z) = 0.03870 0.36895
#
# Static dielectric constant tensor:
#      x y z
#    x 2.104600 -0.143660 -0.040450 
#    y -0.143660 2.324670 0.091290 
#    z -0.040450 0.091290 2.035200 
# 
# From -- ./inp_files/603229.got.cif
#   From: 2010.05.17/outbox.cif.g08.bks.cpg/sg2_302_cif.got.tgz:603229.got - 2010.06.03 11:33:40.
