data_PCOD9106587
_publ_section_title
;
Structure prediction by ZEFSAII (Michael W. Deem and Ramdas Pophale) SiO2 
 PCOD9106587
Probable space group: P -1
;
_chemical_formula_sum "Si O2"
_cell_formula_units_Z 15
_cell_length_a 8.807734
_cell_length_b 7.149713
_cell_length_c 13.434119
_cell_angle_alpha 115.550713
_cell_angle_beta 63.129970
_cell_angle_gamma 124.848220
_cell_volume 601.761947
_symmetry_space_group_name_H-M "P -1"
_symmetry_group_IT_number 2
_symmetry_cell_setting 'triclinic'
loop_
_space_group_symop_operation_xyz
x,y,z
-x,-y,-z
loop_
_atom_site_type_symbol
_atom_site_label
_atom_site_fract_x
_atom_site_fract_y
_atom_site_fract_z
Si Si1 0.309941 0.518341 0.397809
Si Si2 0.438438 0.194601 0.208823
Si Si3 0.560878 0.871533 0.569019
Si Si4 0.000000 0.000000 0.500000
Si Si5 0.031030 0.802960 0.168406
Si Si6 0.839889 0.260195 0.094324
Si Si7 0.988226 0.383515 0.600724
Si Si8 0.786248 0.069831 0.280760
O O1 0.397763 0.416801 0.267853
O O2 0.447078 0.652902 0.478727
O O3 0.200750 0.638920 0.400744
O O4 0.120303 0.312141 0.467556
O O5 0.465841 0.187049 0.318665
O O6 0.633578 0.227798 0.110370
O O7 0.251018 0.976774 0.173325
O O8 0.428760 0.007638 0.630898
O O9 0.784876 0.952586 0.505213
O O10 0.027992 0.815419 0.366362
O O11 0.952590 0.530524 0.158682
O O12 0.047683 0.784464 0.037548
O O13 0.888998 0.919375 0.249132
O O14 0.796391 0.090749 0.163055
O O15 0.100762 0.655636 0.655131
#
# Coordination Sequence:
#
# PCOD9106587 Si02
#       8
#     2   2   2   1   2   2   2   2
#     4  10  20  40  57  86 126 169 202 252 315 378
#     4  11  21  40  66  93 132 171 212 272 321 388
#     4  10  24  36  61  91 131 169 208 261 317 381
#     4  12  24  36  58  94 132 166 218 260 310 384
#     4  11  23  45  68  96 126 171 218 277 332 388
#     4  10  25  41  69  98 127 165 223 273 334 390
#     4  10  22  37  60  89 126 167 210 255 312 383
#     4  10  22  44  65  92 131 171 214 266 329 387
#
# _framework density 24.926801000000001
#
# number of rings (size 3 to 8) (size 9 to 14) (size 15 to 20)
#    0.000    1.600    2.667    1.200    5.600    1.600 
#    0.000    0.000    0.000    6.400    0.000    0.000 
#    0.000    0.000    0.000    0.000    0.000    0.000 
#
# Total GULP energy -83610.116273 kJ/mol
# GULP energy per Si atom -5574.007752 kJ/mol
# Density = 2.487007 g / cm^3
# Si number density = 24.926801 Si / 1000 Ang^3
#
#
#
# Elastic Constant Matrix: (Units=GPa)
#
#
# Indices 1 2 3 4 5 6 
#
# 1 151.0479 62.6378 33.7095 16.9337 -43.1293 17.7420
# 2 62.6378 83.3594 34.8559 13.0062 -16.2696 25.2919
# 3 33.7095 34.8559 100.6390 8.6765 -31.4367 1.2408
# 4 16.9337 13.0062 8.6765 40.8116 -1.8151 -4.3179
# 5 -43.1293 -16.2696 -31.4367 -1.8151 45.3643 1.1273
# 6 17.7420 25.2919 1.2408 -4.3179 1.1273 60.0092
#
#
#
# Elastic Compliance Matrix: (Units=1/GPa)
#
#
# Indices 1 2 3 4 5 6 
#
# 1 0.012868 -0.007602 0.001956 -0.002965 0.010771 -0.001057
# 2 -0.007602 0.022241 -0.005758 -0.003615 -0.003206 -0.007207
# 3 0.001956 -0.005758 0.014415 -0.001477 0.009694 0.001262
# 4 -0.002965 -0.003615 -0.001477 0.027489 -0.004150 0.004487
# 5 0.010771 -0.003206 0.009694 -0.004150 0.037761 -0.003042
# 6 -0.001057 -0.007207 0.001262 0.004487 -0.003042 0.020368
#
#
# Mechanical properties :
#
#
# Convention : Reuss Voigt Hill
#
# Bulk Modulus (GPa) = 37.42968 66.38364 51.90666
# Shear Modulus (GPa) = 29.96593 42.82655 36.39624
#
# Velocity S-wave (km/s) = 3.47098 4.14948 3.82530
# Velocity P-wave (km/s) = 5.57781 7.04605 6.35448
#
# Compressibility (1/GPa) = 0.02671677
#
# Stress axis : x y z
#
# Youngs Moduli (GPa) = 77.71001 44.96236 69.37056
#
# Poissons Ratio (x) = 0.34179 -0.13567
# Poissons Ratio (y) = 0.59073 0.39943
# Poissons Ratio (z) = -0.15198 0.25889
#
# Static dielectric constant tensor:
#      x y z
#    x 2.134280 -0.357540 0.116100 
#    y -0.357540 3.093950 -0.072570 
#    z 0.116100 -0.072570 2.111300 
# 
# From -- ./inp_files/555577.got.cif
#   From: 2010.05.17/outbox.cif.g08.bks.cpg/sg2_278_cif.got.tgz:555577.got - 2010.06.03 11:33:40.
