data_PCOD9106029
_publ_section_title
;
Structure prediction by ZEFSAII (Michael W. Deem and Ramdas Pophale) SiO2 
 PCOD9106029
Probable space group: P -1
;
_chemical_formula_sum "Si O2"
_cell_formula_units_Z 14
_cell_length_a 11.509103
_cell_length_b 9.626435
_cell_length_c 11.738633
_cell_angle_alpha 55.973883
_cell_angle_beta 37.909076
_cell_angle_gamma 43.144464
_cell_volume 546.032484
_symmetry_space_group_name_H-M "P -1"
_symmetry_group_IT_number 2
_symmetry_cell_setting 'triclinic'
loop_
_space_group_symop_operation_xyz
x,y,z
-x,-y,-z
loop_
_atom_site_type_symbol
_atom_site_label
_atom_site_fract_x
_atom_site_fract_y
_atom_site_fract_z
Si Si1 0.826487 0.377781 0.130547
Si Si2 0.889571 0.965568 0.266545
Si Si3 0.242574 0.246747 0.704416
Si Si4 0.254477 0.597104 0.578217
Si Si5 0.627177 0.178762 0.768754
Si Si6 0.405240 0.733440 0.983059
Si Si7 0.324114 0.080981 0.341632
O O1 0.907358 0.349839 0.212135
O O2 0.621516 0.609492 0.158599
O O3 0.770978 0.206825 0.241111
O O4 0.023839 0.319276 0.917224
O O5 0.761545 0.890357 0.325991
O O6 0.880536 0.887751 0.436226
O O7 0.149698 0.863468 0.068281
O O8 0.238631 0.442267 0.582493
O O9 0.460652 0.121652 0.674289
O O10 0.500000 0.500000 0.500000
O O11 0.215182 0.776623 0.449474
O O12 0.650206 0.181367 0.884042
O O13 0.668779 0.980004 0.767288
O O14 0.500000 0.500000 0.000000
O O15 0.600925 0.763724 0.775617
#
# Coordination Sequence:
#
# PCOD9106029 Si02
#       7
#     2   2   2   2   2   2   2
#     4  11  21  43  74 106 138 178 236 287 349 406
#     4  12  27  46  73 106 140 185 232 288 352 412
#     4  12  23  40  72 108 142 176 231 296 340 407
#     4  10  20  39  67 104 136 175 229 285 342 403
#     4  11  24  47  70 103 143 181 233 288 344 418
#     4  12  30  50  69 100 145 188 232 287 349 422
#     4  12  25  47  73 103 141 185 235 285 349 411
#
# _framework density 25.639498
#
# number of rings (size 3 to 8) (size 9 to 14) (size 15 to 20)
#    0.000    0.571    5.714    3.429    4.000    1.143 
#    2.571    0.000    0.000    0.000    0.000    0.000 
#    0.000    0.000    0.000    0.000    0.000    0.000 
#
# Total GULP energy -78351.346621 kJ/mol
# GULP energy per Si atom -5596.524759 kJ/mol
# Density = 2.558114 g / cm^3
# Si number density = 25.639498 Si / 1000 Ang^3
#
#
#
# Elastic Constant Matrix: (Units=GPa)
#
#
# Indices 1 2 3 4 5 6 
#
# 1 78.7949 15.0979 11.8007 1.9421 -0.8385 26.6308
# 2 15.0979 112.5972 22.7612 -14.5072 -31.4814 38.8511
# 3 11.8007 22.7612 96.0779 -8.3093 -20.6845 7.3619
# 4 1.9421 -14.5072 -8.3093 43.8816 12.2037 -11.8004
# 5 -0.8385 -31.4814 -20.6845 12.2037 31.9648 -4.9204
# 6 26.6308 38.8511 7.3619 -11.8004 -4.9204 50.3947
#
#
#
# Elastic Compliance Matrix: (Units=1/GPa)
#
#
# Indices 1 2 3 4 5 6 
#
# 1 0.016198 0.001318 -0.001751 -0.003421 0.000343 -0.010087
# 2 0.001318 0.017410 -0.000033 -0.002282 0.016017 -0.013084
# 3 -0.001751 -0.000033 0.012335 0.000219 0.007815 -0.000037
# 4 -0.003421 -0.002282 0.000219 0.027809 -0.011438 0.008930
# 5 0.000343 0.016017 0.007815 -0.011438 0.054799 -0.010999
# 6 -0.010087 -0.013084 -0.000037 0.008930 -0.010999 0.036283
#
#
# Mechanical properties :
#
#
# Convention : Reuss Voigt Hill
#
# Bulk Modulus (GPa) = 22.21649 42.97663 32.59656
# Shear Modulus (GPa) = 27.65938 41.10223 34.38080
#
# Velocity S-wave (km/s) = 3.28804 4.00819 3.66585
# Velocity P-wave (km/s) = 4.80611 6.18216 5.53705
#
# Compressibility (1/GPa) = 0.04501161
#
# Stress axis : x y z
#
# Youngs Moduli (GPa) = 61.73535 57.43835 81.06866
#
# Poissons Ratio (x) = -0.07569 0.14193
# Poissons Ratio (y) = -0.08135 0.00266
# Poissons Ratio (z) = 0.10808 0.00189
#
# Static dielectric constant tensor:
#      x y z
#    x 2.073490 0.010260 -0.036470 
#    y 0.010260 1.992390 0.003580 
#    z -0.036470 0.003580 2.119610 
# 
# From -- ./inp_files/208766.got.cif
#   From: 2010.05.17/outbox.cif.g08.bks.cpg/sg2_105_cif.got.tgz:208766.got - 2010.06.03 11:33:40.
