data_PCOD9106169
_publ_section_title
;
Structure prediction by ZEFSAII (Michael W. Deem and Ramdas Pophale) SiO2 
 PCOD9106169
Probable space group: P -1
;
_chemical_formula_sum "Si O2"
_cell_formula_units_Z 16
_cell_length_a 7.448529
_cell_length_b 8.973717
_cell_length_c 17.157569
_cell_angle_alpha 40.866370
_cell_angle_beta 73.519396
_cell_angle_gamma 58.084454
_cell_volume 622.858261
_symmetry_space_group_name_H-M "P -1"
_symmetry_group_IT_number 2
_symmetry_cell_setting 'triclinic'
loop_
_space_group_symop_operation_xyz
x,y,z
-x,-y,-z
loop_
_atom_site_type_symbol
_atom_site_label
_atom_site_fract_x
_atom_site_fract_y
_atom_site_fract_z
Si Si1 0.714822 0.513347 0.991986
Si Si2 0.390106 0.846800 0.488467
Si Si3 0.278451 0.247847 0.657020
Si Si4 0.926954 0.183688 0.572224
Si Si5 0.317114 0.758646 0.768222
Si Si6 0.934575 0.031306 0.905041
Si Si7 0.290097 0.411690 0.313190
Si Si8 0.656790 0.080245 0.780391
O O1 0.737221 0.450324 0.106397
O O2 0.908251 0.260098 0.029608
O O3 0.500000 0.500000 0.000000
O O4 0.712207 0.782024 0.871360
O O5 0.546032 0.806576 0.411873
O O6 0.202118 0.815491 0.487473
O O7 0.551992 0.640728 0.612557
O O8 0.283209 0.144829 0.414142
O O9 0.084917 0.536406 0.544950
O O10 0.256459 0.991379 0.747247
O O11 0.405677 0.238608 0.723353
O O12 0.798308 0.156490 0.674505
O O13 0.162543 0.930827 0.649528
O O14 0.565585 0.610320 0.771504
O O15 0.716205 0.094172 0.857821
O O16 0.925613 0.307065 0.773503
O O17 0.000000 0.000000 0.000000
#
# Coordination Sequence:
#
# PCOD9106169 Si02
#       8
#     2   2   2   2   2   2   2   2
#     4  12  25  47  69  94 130 178 225 275 326 384
#     4   9  20  37  67  89 134 177 210 267 331 399
#     4  10  20  39  67  97 130 171 224 267 325 393
#     4  11  21  37  68 102 124 171 227 268 325 393
#     4  11  23  39  67  95 138 172 216 278 320 395
#     4  12  26  41  70  95 130 175 225 271 326 396
#     4  10  22  44  60  95 137 175 211 267 342 385
#     4  11  23  43  71  94 134 175 224 269 330 398
#
# _framework density 25.688027999999999
#
# number of rings (size 3 to 8) (size 9 to 14) (size 15 to 20)
#    0.000    1.250    2.500    4.500    3.500    0.500 
#    2.250    3.750    0.000    0.000    0.000    0.000 
#    0.000    0.000    0.000    0.000    0.000    0.000 
#
# Total GULP energy -89401.583547 kJ/mol
# GULP energy per Si atom -5587.598972 kJ/mol
# Density = 2.562956 g / cm^3
# Si number density = 25.688028 Si / 1000 Ang^3
#
#
#
# Elastic Constant Matrix: (Units=GPa)
#
#
# Indices 1 2 3 4 5 6 
#
# 1 75.5800 9.9483 28.0485 4.9726 28.2928 37.1632
# 2 9.9483 77.7546 34.1027 -4.1439 8.7235 11.6182
# 3 28.0485 34.1027 188.0118 -18.8334 11.5660 16.2392
# 4 4.9726 -4.1439 -18.8334 43.0494 2.2870 12.9770
# 5 28.2928 8.7235 11.5660 2.2870 46.9438 9.2218
# 6 37.1632 11.6182 16.2392 12.9770 9.2218 41.1686
#
#
#
# Elastic Compliance Matrix: (Units=1/GPa)
#
#
# Indices 1 2 3 4 5 6 
#
# 1 0.031805 0.002495 -0.001491 0.004862 -0.014161 -0.027187
# 2 0.002495 0.014749 -0.002201 0.001991 -0.002705 -0.005568
# 3 -0.001491 -0.002201 0.006406 0.003238 -0.000124 -0.001553
# 4 0.004862 0.001991 0.003238 0.028858 -0.002608 -0.014740
# 5 -0.014161 -0.002705 -0.000124 -0.002608 0.028938 0.007936
# 6 -0.027187 -0.005568 -0.001553 -0.014740 0.007936 0.053885
#
#
# Mechanical properties :
#
#
# Convention : Reuss Voigt Hill
#
# Bulk Modulus (GPa) = 19.77573 53.94948 36.86260
# Shear Modulus (GPa) = 27.19010 44.18216 35.68613
#
# Velocity S-wave (km/s) = 3.25695 4.15173 3.73126
# Velocity P-wave (km/s) = 4.67533 6.63550 5.73971
#
# Compressibility (1/GPa) = 0.05056703
#
# Stress axis : x y z
#
# Youngs Moduli (GPa) = 31.44122 67.80334 156.09166
#
# Poissons Ratio (x) = -0.16916 0.23273
# Poissons Ratio (y) = -0.07844 0.34350
# Poissons Ratio (z) = 0.04688 0.14921
#
# Static dielectric constant tensor:
#      x y z
#    x 2.043780 -0.007230 0.010690 
#    y -0.007230 2.065530 0.035260 
#    z 0.010690 0.035260 2.038020 
# 
# From -- ./inp_files/556776.got.cif
#   From: 2010.05.17/outbox.cif.g08.bks.cpg/sg2_279_cif.got.tgz:556776.got - 2010.06.03 11:33:40.
