data_PCOD9106379
_publ_section_title
;
Structure prediction by ZEFSAII (Michael W. Deem and Ramdas Pophale) SiO2 
 PCOD9106379
Probable space group: P -1
;
_chemical_formula_sum "Si O2"
_cell_formula_units_Z 16
_cell_length_a 12.378182
_cell_length_b 22.373218
_cell_length_c 6.274321
_cell_angle_alpha 82.085872
_cell_angle_beta 94.568091
_cell_angle_gamma 158.647329
_cell_volume 620.935994
_symmetry_space_group_name_H-M "P -1"
_symmetry_group_IT_number 2
_symmetry_cell_setting 'triclinic'
loop_
_space_group_symop_operation_xyz
x,y,z
-x,-y,-z
loop_
_atom_site_type_symbol
_atom_site_label
_atom_site_fract_x
_atom_site_fract_y
_atom_site_fract_z
Si Si1 0.538432 0.126587 0.231699
Si Si2 0.797855 0.115369 0.010382
Si Si3 0.763003 0.839542 0.397890
Si Si4 0.007164 0.568290 0.158741
Si Si5 0.885423 0.779708 0.677409
Si Si6 0.900973 0.659113 0.732421
Si Si7 0.551009 0.668050 0.057309
Si Si8 0.288903 0.686693 0.559881
O O1 0.477228 0.149262 0.368567
O O2 0.770940 0.198588 0.331867
O O3 0.735444 0.263067 0.013215
O O4 0.238024 0.942805 0.178000
O O5 0.789852 0.069114 0.243749
O O6 0.056141 0.296912 0.030902
O O7 0.500000 0.000000 0.000000
O O8 0.800085 0.791964 0.520282
O O9 0.744703 0.816316 0.151438
O O10 0.466103 0.724673 0.455543
O O11 0.000000 0.000000 0.500000
O O12 0.104561 0.629596 0.388847
O O13 0.690013 0.426161 0.090745
O O14 0.938354 0.460369 0.229875
O O15 0.808722 0.675308 0.612893
O O16 0.735600 0.718609 0.912919
O O17 0.658588 0.481975 0.752784
#
# Coordination Sequence:
#
# PCOD9106379 Si02
#       8
#     2   2   2   2   2   2   2   2
#     4  10  20  39  69  95 129 169 208 275 329 371
#     4   8  18  38  66  94 126 166 214 263 323 385
#     4  12  30  43  61 101 135 173 224 261 323 401
#     4  10  24  39  64  96 126 169 223 262 313 388
#     4  10  22  44  65  91 135 170 216 274 319 385
#     4   8  20  38  70  96 120 167 223 264 324 383
#     4  11  23  43  69  94 130 176 215 269 333 381
#     4  11  25  40  63  97 133 168 224 263 318 390
#
# _framework density 25.76755
#
# number of rings (size 3 to 8) (size 9 to 14) (size 15 to 20)
#    0.750    1.250    1.250    0.750   12.250    1.000 
#    0.000    2.500    0.000    6.000    0.000    0.000 
#    0.000    0.000    0.000    0.000    0.000    0.000 
#
# Total GULP energy -89079.979095 kJ/mol
# GULP energy per Si atom -5567.498693 kJ/mol
# Density = 2.570890 g / cm^3
# Si number density = 25.767550 Si / 1000 Ang^3
#
#
#
# Elastic Constant Matrix: (Units=GPa)
#
#
# Indices 1 2 3 4 5 6 
#
# 1 144.3971 21.4991 50.3727 7.2553 12.5464 -10.3280
# 2 21.4991 107.3420 30.7061 33.9661 -0.8571 -7.7162
# 3 50.3727 30.7061 54.9047 5.6852 14.8760 2.0963
# 4 7.2553 33.9661 5.6852 42.3630 4.8689 -6.9339
# 5 12.5464 -0.8571 14.8760 4.8689 38.3697 9.0225
# 6 -10.3280 -7.7162 2.0963 -6.9339 9.0225 35.9314
#
#
#
# Elastic Compliance Matrix: (Units=1/GPa)
#
#
# Indices 1 2 3 4 5 6 
#
# 1 0.010791 0.001495 -0.010754 -0.000952 -0.000121 0.003897
# 2 0.001495 0.015955 -0.010504 -0.012115 0.005288 0.000803
# 3 -0.010754 -0.010504 0.036378 0.006025 -0.010737 -0.003610
# 4 -0.000952 -0.012115 0.006025 0.034474 -0.007944 0.005421
# 5 -0.000121 0.005288 -0.010737 -0.007944 0.033312 -0.008171
# 6 0.003897 0.000803 -0.003610 0.005421 -0.008171 0.032432
#
#
# Mechanical properties :
#
#
# Convention : Reuss Voigt Hill
#
# Bulk Modulus (GPa) = 42.37601 56.86663 49.62132
# Shear Modulus (GPa) = 23.72658 36.93721 30.33189
#
# Velocity S-wave (km/s) = 3.03775 3.79024 3.43466
# Velocity P-wave (km/s) = 5.36517 6.42429 5.91847
#
# Compressibility (1/GPa) = 0.02359826
#
# Stress axis : x y z
#
# Youngs Moduli (GPa) = 92.66577 62.67714 27.48932
#
# Poissons Ratio (x) = -0.09373 0.29563
# Poissons Ratio (y) = -0.13858 0.28875
# Poissons Ratio (z) = 0.99657 0.65836
#
# Static dielectric constant tensor:
#      x y z
#    x 2.068750 -0.022750 -0.021650 
#    y -0.022750 2.126650 0.003710 
#    z -0.021650 0.003710 2.156100 
# 
# From -- ./inp_files/281062.got.cif
#   From: 2010.05.17/outbox.cif.g08.bks.cpg/sg2_141_cif.got.tgz:281062.got - 2010.06.03 11:33:40.
