data_PCOD9106582
_publ_section_title
;
Structure prediction by ZEFSAII (Michael W. Deem and Ramdas Pophale) SiO2 
 PCOD9106582
Probable space group: P -1
;
_chemical_formula_sum "Si O2"
_cell_formula_units_Z 16
_cell_length_a 8.395838
_cell_length_b 10.910661
_cell_length_c 14.272774
_cell_angle_alpha 68.495380
_cell_angle_beta 48.816387
_cell_angle_gamma 47.954012
_cell_volume 724.209187
_symmetry_space_group_name_H-M "P -1"
_symmetry_group_IT_number 2
_symmetry_cell_setting 'triclinic'
loop_
_space_group_symop_operation_xyz
x,y,z
-x,-y,-z
loop_
_atom_site_type_symbol
_atom_site_label
_atom_site_fract_x
_atom_site_fract_y
_atom_site_fract_z
Si Si1 0.311618 0.888453 0.738683
Si Si2 0.128948 0.757126 0.003208
Si Si3 0.257658 0.744641 0.458028
Si Si4 0.747247 0.504075 0.108040
Si Si5 0.461424 0.965913 0.919425
Si Si6 0.745434 0.201112 0.864587
Si Si7 0.408312 0.620618 0.644421
Si Si8 0.343395 0.005615 0.347077
O O1 0.247589 0.837620 0.876410
O O2 0.464791 0.727989 0.656309
O O3 0.464148 0.966508 0.679192
O O4 0.014656 0.028150 0.773067
O O5 0.271827 0.578148 0.953675
O O6 0.143900 0.744351 0.112901
O O7 0.820412 0.873730 0.057000
O O8 0.294740 0.706416 0.565229
O O9 0.360363 0.573172 0.415615
O O10 0.943980 0.883218 0.522622
O O11 0.412816 0.824206 0.358857
O O12 0.455790 0.682151 0.171613
O O13 0.787531 0.391883 0.211155
O O14 0.000000 0.500000 0.000000
O O15 0.670402 0.928687 0.770813
O O16 0.500000 0.000000 0.000000
O O17 0.431084 0.824086 0.991958
#
# Coordination Sequence:
#
# PCOD9106582 Si02
#       8
#     2   2   2   2   2   2   2   2
#     4  10  21  41  70  94 130 173 217 282 326 399
#     4  10  20  40  57 101 138 169 208 263 349 398
#     4  10  26  45  67  93 132 180 224 285 315 396
#     4  11  25  37  65 102 133 176 215 270 340 402
#     4  11  22  35  67 101 131 164 212 278 335 397
#     4  11  21  38  62 101 134 169 211 266 341 405
#     4  10  25  48  62  92 139 169 224 278 334 383
#     4  11  23  43  71  99 125 176 234 264 334 393
#
# _framework density 22.093063999999998
#
# number of rings (size 3 to 8) (size 9 to 14) (size 15 to 20)
#    0.000    1.500    2.500    1.875   10.500    2.000 
#    0.000    5.000    0.000    0.000    0.000    0.000 
#    0.000    0.000    0.000    0.000    0.000    0.000 
#
# Total GULP energy -89229.053471 kJ/mol
# GULP energy per Si atom -5576.815842 kJ/mol
# Density = 2.204278 g / cm^3
# Si number density = 22.093064 Si / 1000 Ang^3
#
#
#
# Elastic Constant Matrix: (Units=GPa)
#
#
# Indices 1 2 3 4 5 6 
#
# 1 99.6160 44.1453 38.2972 -1.8151 -1.0650 4.2675
# 2 44.1453 91.5306 20.5993 -0.6220 -8.8145 11.4947
# 3 38.2972 20.5993 65.9361 -10.1211 -0.8976 14.7132
# 4 -1.8151 -0.6220 -10.1211 32.3781 5.4287 9.6583
# 5 -1.0650 -8.8145 -0.8976 5.4287 38.9008 -1.1086
# 6 4.2675 11.4947 14.7132 9.6583 -1.1086 32.6450
#
#
#
# Elastic Compliance Matrix: (Units=1/GPa)
#
#
# Indices 1 2 3 4 5 6 
#
# 1 0.016086 -0.006465 -0.009050 -0.003526 -0.000591 0.005276
# 2 -0.006465 0.014845 0.000358 0.000954 0.002927 -0.004726
# 3 -0.009050 0.000358 0.025181 0.011768 -0.001622 -0.013829
# 4 -0.003526 0.000954 0.011768 0.040530 -0.005760 -0.017365
# 5 -0.000591 0.002927 -0.001622 -0.005760 0.027188 0.002405
# 6 0.005276 -0.004726 -0.013829 -0.017365 0.002405 0.043059
#
#
# Mechanical properties :
#
#
# Convention : Reuss Voigt Hill
#
# Bulk Modulus (GPa) = 38.76257 51.46292 45.11274
# Shear Modulus (GPa) = 24.29520 31.05419 27.67470
#
# Velocity S-wave (km/s) = 3.31973 3.75321 3.54311
# Velocity P-wave (km/s) = 5.68132 6.49049 6.09934
#
# Compressibility (1/GPa) = 0.02579809
#
# Stress axis : x y z
#
# Youngs Moduli (GPa) = 62.16491 67.36423 39.71285
#
# Poissons Ratio (x) = 0.43551 0.35940
# Poissons Ratio (y) = 0.40190 -0.01423
# Poissons Ratio (z) = 0.56259 -0.02413
#
# Static dielectric constant tensor:
#      x y z
#    x 1.981250 0.054700 -0.006700 
#    y 0.054700 1.865700 0.017730 
#    z -0.006700 0.017730 1.823930 
# 
# From -- ./inp_files/500188.got.cif
#   From: 2010.05.17/outbox.cif.g08.bks.cpg/sg2_251_cif.got.tgz:500188.got - 2010.06.03 11:33:40.
