data_PCOD9106739
_publ_section_title
;
Structure prediction by ZEFSAII (Michael W. Deem and Ramdas Pophale) SiO2 
 PCOD9106739
Probable space group: P -1
;
_chemical_formula_sum "Si O2"
_cell_formula_units_Z 16
_cell_length_a 10.157107
_cell_length_b 9.209404
_cell_length_c 12.117923
_cell_angle_alpha 73.836303
_cell_angle_beta 35.641086
_cell_angle_gamma 83.708953
_cell_volume 620.465379
_symmetry_space_group_name_H-M "P -1"
_symmetry_group_IT_number 2
_symmetry_cell_setting 'triclinic'
loop_
_space_group_symop_operation_xyz
x,y,z
-x,-y,-z
loop_
_atom_site_type_symbol
_atom_site_label
_atom_site_fract_x
_atom_site_fract_y
_atom_site_fract_z
Si Si1 0.089958 0.064719 0.702823
Si Si2 0.189635 0.486476 0.781057
Si Si3 0.801973 0.820271 0.084764
Si Si4 0.616914 0.613644 0.610071
Si Si5 0.077693 0.611573 0.598834
Si Si6 0.338098 0.931320 0.375346
Si Si7 0.596558 0.142733 0.984724
Si Si8 0.628450 0.618292 0.019396
O O1 0.298616 0.210129 0.516434
O O2 0.857720 0.130423 0.832036
O O3 0.153157 0.955425 0.586562
O O4 0.023746 0.951901 0.876147
O O5 0.443397 0.541532 0.645879
O O6 0.156145 0.585317 0.677447
O O7 0.149925 0.301824 0.832340
O O8 0.000000 0.500000 0.000000
O O9 0.577780 0.885082 0.258118
O O10 0.728805 0.725151 0.037236
O O11 0.830446 0.525870 0.493536
O O12 0.464504 0.552898 0.833628
O O13 0.206894 0.778608 0.431811
O O14 0.813818 0.611968 0.799612
O O15 0.427580 0.089141 0.214874
O O16 0.559615 0.298833 0.923406
O O17 0.500000 0.000000 0.000000
#
# Coordination Sequence:
#
# PCOD9106739 Si02
#       8
#     2   2   2   2   2   2   2   2
#     4  11  24  42  61  93 136 161 199 267 315 357
#     4  11  20  41  70  89 121 168 210 254 306 374
#     4  10  20  40  60  92 127 156 211 255 298 376
#     4  11  25  41  62  96 131 157 209 263 311 366
#     4  12  21  40  71  90 120 170 215 249 308 372
#     4  11  21  38  66  92 122 166 212 250 308 372
#     4  11  21  40  65  93 126 164 215 254 301 375
#     4  11  21  40  64  92 124 162 212 261 294 372
#
# _framework density 25.787096999999999
#
# number of rings (size 3 to 8) (size 9 to 14) (size 15 to 20)
#    0.000    1.000    8.750    0.375    0.000    5.500 
#    0.000    4.375    0.000    0.000    0.000    0.000 
#    0.000    0.000    0.000    0.000    0.000    0.000 
#
# Total GULP energy -89523.296502 kJ/mol
# GULP energy per Si atom -5595.206031 kJ/mol
# Density = 2.572840 g / cm^3
# Si number density = 25.787097 Si / 1000 Ang^3
#
#
#
# Elastic Constant Matrix: (Units=GPa)
#
#
# Indices 1 2 3 4 5 6 
#
# 1 46.3409 14.4933 11.2229 -4.8832 4.2450 -13.6854
# 2 14.4933 80.7135 27.1454 -35.1470 -1.9092 -13.2105
# 3 11.2229 27.1454 146.4455 -16.4010 7.5474 0.0338
# 4 -4.8832 -35.1470 -16.4010 62.6155 -4.0107 2.6593
# 5 4.2450 -1.9092 7.5474 -4.0107 25.3058 -1.8509
# 6 -13.6854 -13.2105 0.0338 2.6593 -1.8509 28.3045
#
#
#
# Elastic Compliance Matrix: (Units=1/GPa)
#
#
# Indices 1 2 3 4 5 6 
#
# 1 0.026371 -0.002736 -0.001399 -0.000548 -0.003473 0.011300
# 2 -0.002736 0.019348 -0.002505 0.009995 0.004768 0.007083
# 3 -0.001399 -0.002505 0.007564 0.000406 -0.002295 -0.002043
# 4 -0.000548 0.009995 0.000406 0.021813 0.004375 0.002636
# 5 -0.003473 0.004768 -0.002295 0.004375 0.042048 0.002887
# 6 0.011300 0.007083 -0.002043 0.002636 0.002887 0.044043
#
#
# Mechanical properties :
#
#
# Convention : Reuss Voigt Hill
#
# Bulk Modulus (GPa) = 24.99766 42.13592 33.56679
# Shear Modulus (GPa) = 26.62398 37.95438 32.28918
#
# Velocity S-wave (km/s) = 3.21667 3.84061 3.54240
# Velocity P-wave (km/s) = 4.84880 6.00354 5.45680
#
# Compressibility (1/GPa) = 0.04000375
#
# Stress axis : x y z
#
# Youngs Moduli (GPa) = 37.92022 51.68580 132.20220
#
# Poissons Ratio (x) = 0.14143 0.18492
# Poissons Ratio (y) = 0.10376 0.33111
# Poissons Ratio (z) = 0.05304 0.12945
#
# Static dielectric constant tensor:
#      x y z
#    x 2.079370 0.076630 0.014180 
#    y 0.076630 2.049000 0.028730 
#    z 0.014180 0.028730 2.080630 
# 
# From -- ./inp_files/515290.got.cif
#   From: 2010.05.17/outbox.cif.g08.bks.cpg/sg2_258_cif.got.tgz:515290.got - 2010.06.03 11:33:40.
