data_PCOD9106062
_publ_section_title
;
Structure prediction by ZEFSAII (Michael W. Deem and Ramdas Pophale) SiO2 
 PCOD9106062
Probable space group: P -1
;
_chemical_formula_sum "Si O2"
_cell_formula_units_Z 16
_cell_length_a 11.209182
_cell_length_b 14.476471
_cell_length_c 10.988607
_cell_angle_alpha 116.199203
_cell_angle_beta 89.203983
_cell_angle_gamma 37.367367
_cell_volume 720.998395
_symmetry_space_group_name_H-M "P -1"
_symmetry_group_IT_number 2
_symmetry_cell_setting 'triclinic'
loop_
_space_group_symop_operation_xyz
x,y,z
-x,-y,-z
loop_
_atom_site_type_symbol
_atom_site_label
_atom_site_fract_x
_atom_site_fract_y
_atom_site_fract_z
Si Si1 0.559374 0.982589 0.817743
Si Si2 0.576917 0.773083 0.817229
Si Si3 0.943269 0.403281 0.038763
Si Si4 0.454019 0.926867 0.390018
Si Si5 0.992481 0.122421 0.523867
Si Si6 0.102204 0.989663 0.175401
Si Si7 0.281498 0.485124 0.145546
Si Si8 0.023179 0.128638 0.991147
O O1 0.644248 0.967049 0.682243
O O2 0.689365 0.772984 0.726621
O O3 0.578722 0.040776 0.968123
O O4 0.243716 0.206730 0.939185
O O5 0.767204 0.550852 0.758248
O O6 0.340909 0.891930 0.827814
O O7 0.734195 0.652093 0.218850
O O8 0.899416 0.407341 0.901355
O O9 0.900506 0.332238 0.075245
O O10 0.243729 0.003171 0.484012
O O11 0.500000 0.000000 0.500000
O O12 0.976792 0.126604 0.380600
O O13 0.000000 0.000000 0.500000
O O14 0.753932 0.370473 0.729730
O O15 0.074221 0.888725 0.101359
O O16 0.417033 0.766274 0.044743
O O17 0.986307 0.126929 0.132250
#
# Coordination Sequence:
#
# PCOD9106062 Si02
#       8
#     2   2   2   2   2   2   2   2
#     4  10  20  39  67  90 129 173 217 271 330 393
#     4   9  19  38  64  95 123 168 224 268 324 397
#     4  11  21  38  69  97 130 175 222 265 342 394
#     4  12  25  41  61 100 143 168 219 281 325 395
#     4  12  27  43  67 102 136 173 226 277 328 396
#     4  10  21  44  66  92 134 173 225 271 328 394
#     4  11  22  41  70  94 132 176 219 271 335 388
#     4   9  20  38  67  93 126 178 219 272 329 394
#
# _framework density 22.19145
#
# number of rings (size 3 to 8) (size 9 to 14) (size 15 to 20)
#    0.000    1.500    2.500    2.625    3.500    2.000 
#    2.250    6.250    0.000    0.000    0.000    0.000 
#    0.000    0.000    0.000    0.000    0.000    0.000 
#
# Total GULP energy -89428.897010 kJ/mol
# GULP energy per Si atom -5589.306063 kJ/mol
# Density = 2.214094 g / cm^3
# Si number density = 22.191450 Si / 1000 Ang^3
#
#
#
# Elastic Constant Matrix: (Units=GPa)
#
#
# Indices 1 2 3 4 5 6 
#
# 1 127.8571 33.0008 22.2325 -5.9542 18.5340 17.1704
# 2 33.0008 94.7080 25.0489 2.3983 14.6563 21.6887
# 3 22.2325 25.0489 77.4527 -2.3109 24.8613 7.8122
# 4 -5.9542 2.3983 -2.3109 9.1933 2.9080 10.3752
# 5 18.5340 14.6563 24.8613 2.9080 30.5574 3.9381
# 6 17.1704 21.6887 7.8122 10.3752 3.9381 51.3521
#
#
#
# Elastic Compliance Matrix: (Units=1/GPa)
#
#
# Indices 1 2 3 4 5 6 
#
# 1 0.010724 -0.002001 0.000902 0.016290 -0.007105 -0.005625
# 2 -0.002001 0.013324 -0.002398 0.000557 -0.002699 -0.004499
# 3 0.000902 -0.002398 0.019572 0.016106 -0.016303 -0.004270
# 4 0.016290 0.000557 0.016106 0.181968 -0.035129 -0.042203
# 5 -0.007105 -0.002699 -0.016303 -0.035129 0.053781 0.008969
# 6 -0.005625 -0.004499 -0.004270 -0.042203 0.008969 0.031743
#
#
# Mechanical properties :
#
#
# Convention : Reuss Voigt Hill
#
# Bulk Modulus (GPa) = 27.30124 51.17581 39.23853
# Shear Modulus (GPa) = 15.13712 32.86961 24.00337
#
# Velocity S-wave (km/s) = 2.61457 3.85279 3.29241
# Velocity P-wave (km/s) = 4.63076 6.55005 5.67217
#
# Compressibility (1/GPa) = 0.03662837
#
# Stress axis : x y z
#
# Youngs Moduli (GPa) = 93.24444 75.05204 51.09351
#
# Poissons Ratio (x) = 0.15015 -0.04611
# Poissons Ratio (y) = 0.18654 0.12252
# Poissons Ratio (z) = -0.08415 0.17997
#
# Static dielectric constant tensor:
#      x y z
#    x 1.873230 0.033610 -0.038290 
#    y 0.033610 1.823990 -0.006780 
#    z -0.038290 -0.006780 1.805370 
# 
# From -- ./inp_files/434214.got.cif
#   From: 2010.05.17/outbox.cif.g08.bks.cpg/sg2_218_cif.got.tgz:434214.got - 2010.06.03 11:33:40.
