data_PCOD9106596
_publ_section_title
;
Structure prediction by ZEFSAII (Michael W. Deem and Ramdas Pophale) SiO2 
 PCOD9106596
Probable space group: P -1
;
_chemical_formula_sum "Si O2"
_cell_formula_units_Z 15
_cell_length_a 9.930025
_cell_length_b 7.874592
_cell_length_c 14.548828
_cell_angle_alpha 48.616256
_cell_angle_beta 101.023231
_cell_angle_gamma 127.045345
_cell_volume 639.263288
_symmetry_space_group_name_H-M "P -1"
_symmetry_group_IT_number 2
_symmetry_cell_setting 'triclinic'
loop_
_space_group_symop_operation_xyz
x,y,z
-x,-y,-z
loop_
_atom_site_type_symbol
_atom_site_label
_atom_site_fract_x
_atom_site_fract_y
_atom_site_fract_z
Si Si1 0.000000 0.500000 0.500000
Si Si2 0.575643 0.789432 0.680139
Si Si3 0.769827 0.355151 0.389334
Si Si4 0.795718 0.564518 0.613386
Si Si5 0.516018 0.877674 0.848526
Si Si6 0.554147 0.794997 0.074240
Si Si7 0.184876 0.807535 0.886368
Si Si8 0.850815 0.071872 0.359438
O O1 0.950232 0.634971 0.358268
O O2 0.896451 0.555843 0.543489
O O3 0.408327 0.686425 0.629907
O O4 0.532761 0.813125 0.770154
O O5 0.585037 0.530285 0.782556
O O6 0.743342 0.122481 0.548095
O O7 0.794301 0.248274 0.336112
O O8 0.944435 0.746544 0.647144
O O9 0.737351 0.751424 0.506750
O O10 0.635308 0.232269 0.739818
O O11 0.317234 0.744029 0.897185
O O12 0.581910 0.785888 0.972496
O O13 0.731351 0.968660 0.097100
O O14 0.500000 0.000000 0.000000
O O15 0.170929 0.944053 0.745397
O O16 0.000000 0.500000 0.000000
#
# Coordination Sequence:
#
# PCOD9106596 Si02
#       8
#     1   2   2   2   2   2   2   2
#     4  10  20  40  58 100 134 166 210 260 332 382
#     4  11  22  42  65  98 130 166 220 268 330 384
#     4  10  22  38  66  98 132 169 209 275 322 394
#     4  10  22  39  66  98 133 170 216 266 328 391
#     4  11  22  44  66  93 130 174 216 270 323 388
#     4  10  25  42  65  93 127 175 222 263 323 390
#     4  11  24  44  63  92 130 170 218 272 319 393
#     4  10  22  40  65  97 134 171 213 267 329 385
#
# _framework density 23.464509
#
# number of rings (size 3 to 8) (size 9 to 14) (size 15 to 20)
#    0.000    1.600    2.667    1.200    5.600    0.533 
#    7.200    0.667    0.000    0.000    0.000    0.000 
#    0.000    0.000    0.000    0.000    0.000    0.000 
#
# Total GULP energy -83614.865394 kJ/mol
# GULP energy per Si atom -5574.324360 kJ/mol
# Density = 2.341110 g / cm^3
# Si number density = 23.464509 Si / 1000 Ang^3
#
#
#
# Elastic Constant Matrix: (Units=GPa)
#
#
# Indices 1 2 3 4 5 6 
#
# 1 58.5890 8.4247 12.3838 3.1970 -11.9778 -2.2075
# 2 8.4247 86.0607 34.8069 29.4392 3.8190 0.2617
# 3 12.3838 34.8069 120.8415 8.7867 3.3976 8.3415
# 4 3.1970 29.4392 8.7867 52.8440 1.5939 -1.4245
# 5 -11.9778 3.8190 3.3976 1.5939 34.4376 1.3142
# 6 -2.2075 0.2617 8.3415 -1.4245 1.3142 19.3927
#
#
#
# Elastic Compliance Matrix: (Units=1/GPa)
#
#
# Indices 1 2 3 4 5 6 
#
# 1 0.019194 -0.001329 -0.001938 -0.000239 0.006928 0.002549
# 2 -0.001329 0.016232 -0.003955 -0.008236 -0.001522 0.000829
# 3 -0.001938 -0.003955 0.009898 0.000591 -0.001075 -0.004308
# 4 -0.000239 -0.008236 0.000591 0.023482 -0.000375 0.001580
# 5 0.006928 -0.001522 -0.001075 -0.000375 0.031775 -0.000909
# 6 0.002549 0.000829 -0.004308 0.001580 -0.000909 0.053876
#
#
# Mechanical properties :
#
#
# Convention : Reuss Voigt Hill
#
# Bulk Modulus (GPa) = 32.38202 41.85802 37.12002
# Shear Modulus (GPa) = 27.90301 35.32657 31.61479
#
# Velocity S-wave (km/s) = 3.45216 3.88433 3.67460
# Velocity P-wave (km/s) = 5.45163 6.16400 5.81873
#
# Compressibility (1/GPa) = 0.03088133
#
# Stress axis : x y z
#
# Youngs Moduli (GPa) = 52.09920 61.60763 101.03432
#
# Poissons Ratio (x) = 0.08186 0.19577
# Poissons Ratio (y) = 0.06923 0.39956
# Poissons Ratio (z) = 0.10095 0.24364
#
# Static dielectric constant tensor:
#      x y z
#    x 1.824330 -0.363560 0.084600 
#    y -0.363560 1.077000 0.134100 
#    z 0.084600 0.134100 1.929290 
# 
# From -- ./inp_files/314464.got.cif
#   From: 2010.05.17/outbox.cif.g08.bks.cpg/sg2_158_cif.got.tgz:314464.got - 2010.06.03 11:33:40.
