data_PCOD9106751
_publ_section_title
;
Structure prediction by ZEFSAII (Michael W. Deem and Ramdas Pophale) SiO2 
 PCOD9106751
Probable space group: P -1
;
_chemical_formula_sum "Si O2"
_cell_formula_units_Z 13
_cell_length_a 14.265342
_cell_length_b 16.140693
_cell_length_c 12.776186
_cell_angle_alpha 151.890296
_cell_angle_beta 142.911532
_cell_angle_gamma 25.263786
_cell_volume 591.542155
_symmetry_space_group_name_H-M "P -1"
_symmetry_group_IT_number 2
_symmetry_cell_setting 'triclinic'
loop_
_space_group_symop_operation_xyz
x,y,z
-x,-y,-z
loop_
_atom_site_type_symbol
_atom_site_label
_atom_site_fract_x
_atom_site_fract_y
_atom_site_fract_z
Si Si1 0.120906 0.665614 0.238637
Si Si2 0.725841 0.159963 0.312505
Si Si3 0.563614 0.905113 0.569600
Si Si4 0.195242 0.929746 0.957771
Si Si5 0.236496 0.181458 0.758981
Si Si6 0.500000 0.000000 0.000000
Si Si7 0.717749 0.393363 0.133537
O O1 0.303418 0.653458 0.427333
O O2 0.986736 0.725586 0.292712
O O3 0.190122 0.426712 0.984783
O O4 0.954504 0.890234 0.259885
O O5 0.760916 0.162057 0.223898
O O6 0.546868 0.154587 0.164702
O O7 0.680076 0.984852 0.811121
O O8 0.706153 0.613815 0.379280
O O9 0.500000 0.000000 0.500000
O O10 0.342005 0.039922 0.587387
O O11 0.937329 0.168102 0.014762
O O12 0.270389 0.719696 0.871968
O O13 0.405253 0.009841 0.811791
O O14 0.500000 0.500000 0.000000
#
# Coordination Sequence:
#
# PCOD9106751 Si02
#       7
#     2   2   2   2   2   1   2
#     4   9  22  41  65  96 134 179 226 297 348 419
#     4  10  21  41  66  96 132 176 227 289 356 412
#     4  12  25  45  70 102 144 191 230 295 354 415
#     4  11  25  47  70 105 138 191 235 290 357 424
#     4  10  22  41  63  98 133 177 233 281 354 416
#     4  10  20  40  60  96 130 162 228 280 340 422
#     4  11  26  46  70 103 141 182 246 288 344 427
#
# _framework density 21.976454
#
# number of rings (size 3 to 8) (size 9 to 14) (size 15 to 20)
#    0.000    1.538    3.077    0.462    4.308    1.846 
#    8.308    0.000    0.000    0.000    0.000    0.000 
#    0.000    0.000    0.000    0.000    0.000    0.000 
#
# Total GULP energy -72421.709666 kJ/mol
# GULP energy per Si atom -5570.900744 kJ/mol
# Density = 2.192643 g / cm^3
# Si number density = 21.976454 Si / 1000 Ang^3
#
#
#
# Elastic Constant Matrix: (Units=GPa)
#
#
# Indices 1 2 3 4 5 6 
#
# 1 95.1237 36.6550 33.6719 20.5399 -11.5283 16.6079
# 2 36.6550 83.7361 35.0372 16.9635 -7.2553 15.8580
# 3 33.6719 35.0372 78.8486 4.9923 9.3042 10.5532
# 4 20.5399 16.9635 4.9923 33.3727 -3.3760 10.2198
# 5 -11.5283 -7.2553 9.3042 -3.3760 41.1143 -4.4255
# 6 16.6079 15.8580 10.5532 10.2198 -4.4255 30.2360
#
#
#
# Elastic Compliance Matrix: (Units=1/GPa)
#
#
# Indices 1 2 3 4 5 6 
#
# 1 0.015741 -0.002460 -0.005385 -0.006367 0.004387 -0.002683
# 2 -0.002460 0.017647 -0.006360 -0.005121 0.003066 -0.003505
# 3 -0.005385 -0.006360 0.018709 0.003833 -0.006824 -0.002531
# 4 -0.006367 -0.005121 0.003833 0.038323 -0.001303 -0.008298
# 5 0.004387 0.003066 -0.006824 -0.001303 0.027841 0.002879
# 6 -0.002683 -0.003505 -0.002531 -0.008298 0.002879 0.040495
#
#
# Mechanical properties :
#
#
# Convention : Reuss Voigt Hill
#
# Bulk Modulus (GPa) = 42.21246 52.04850 47.13048
# Shear Modulus (GPa) = 25.63313 31.10090 28.36702
#
# Velocity S-wave (km/s) = 3.41895 3.76599 3.59666
# Velocity P-wave (km/s) = 5.90215 6.53034 6.22418
#
# Compressibility (1/GPa) = 0.02368969
#
# Stress axis : x y z
#
# Youngs Moduli (GPa) = 63.52674 56.66730 53.44917
#
# Poissons Ratio (x) = 0.13937 0.28781
# Poissons Ratio (y) = 0.15625 0.33992
# Poissons Ratio (z) = 0.34208 0.36038
#
# Static dielectric constant tensor:
#      x y z
#    x 1.794570 -0.056540 0.036480 
#    y -0.056540 1.840860 0.021780 
#    z 0.036480 0.021780 1.785790 
# 
# From -- ./inp_files/454227.got.cif
#   From: 2010.05.17/outbox.cif.g08.bks.cpg/sg2_228_cif.got.tgz:454227.got - 2010.06.03 11:33:40.
