data_PCOD9106503
_publ_section_title
;
Structure prediction by ZEFSAII (Michael W. Deem and Ramdas Pophale) SiO2 
 PCOD9106503
Probable space group: P -1
;
_chemical_formula_sum "Si O2"
_cell_formula_units_Z 16
_cell_length_a 9.660031
_cell_length_b 22.920797
_cell_length_c 6.448810
_cell_angle_alpha 49.683676
_cell_angle_beta 64.341955
_cell_angle_gamma 35.364037
_cell_volume 615.463959
_symmetry_space_group_name_H-M "P -1"
_symmetry_group_IT_number 2
_symmetry_cell_setting 'triclinic'
loop_
_space_group_symop_operation_xyz
x,y,z
-x,-y,-z
loop_
_atom_site_type_symbol
_atom_site_label
_atom_site_fract_x
_atom_site_fract_y
_atom_site_fract_z
Si Si1 0.190043 0.095460 0.728201
Si Si2 0.256830 0.126189 0.192286
Si Si3 0.389202 0.212701 0.220840
Si Si4 0.213642 0.607123 0.207347
Si Si5 0.794362 0.056197 0.661336
Si Si6 0.719132 0.369171 0.343925
Si Si7 0.508024 0.280616 0.625010
Si Si8 0.065805 0.406121 0.323393
O O1 0.184411 0.091143 0.490374
O O2 0.972311 0.240396 0.572056
O O3 0.483672 0.994309 0.804591
O O4 0.131317 0.043906 0.015797
O O5 0.330061 0.172429 0.177871
O O6 0.012340 0.244474 0.955424
O O7 0.585877 0.117106 0.489665
O O8 0.168025 0.311649 0.294703
O O9 0.468115 0.256546 0.932096
O O10 0.508174 0.501092 0.288670
O O11 0.128253 0.564611 0.480186
O O12 0.212579 0.609204 0.953134
O O13 0.704842 0.155860 0.650097
O O14 0.000000 0.000000 0.500000
O O15 0.586529 0.338650 0.450335
O O16 0.263364 0.360549 0.465668
O O17 0.000000 0.500000 0.000000
#
# Coordination Sequence:
#
# PCOD9106503 Si02
#       8
#     2   2   2   2   2   2   2   2
#     4  10  21  41  63  98 128 165 220 266 316 386
#     4  10  20  39  71  90 123 175 216 262 320 380
#     4  11  22  39  66  92 122 174 215 269 324 370
#     4  10  21  45  64  98 132 167 219 266 318 393
#     4  11  24  38  59  94 134 163 216 271 317 386
#     4  10  23  38  73  91 131 184 204 260 341 379
#     4  11  23  43  64  95 130 172 219 265 324 389
#     4  11  24  39  66  97 126 164 228 269 309 388
#
# _framework density 25.996645000000001
#
# number of rings (size 3 to 8) (size 9 to 14) (size 15 to 20)
#    0.000    1.500    2.500    2.250    3.500    3.500 
#    2.250    0.625    0.000    0.000    0.000    0.000 
#    0.000    0.000    0.000    0.000    0.000    0.000 
#
# Total GULP energy -89311.946494 kJ/mol
# GULP energy per Si atom -5581.996656 kJ/mol
# Density = 2.593748 g / cm^3
# Si number density = 25.996645 Si / 1000 Ang^3
#
#
#
# Elastic Constant Matrix: (Units=GPa)
#
#
# Indices 1 2 3 4 5 6 
#
# 1 77.8119 45.2475 43.8937 17.3402 -9.1540 12.5610
# 2 45.2475 142.8416 99.4767 -20.7601 26.0444 -62.5469
# 3 43.8937 99.4767 218.0821 20.6447 -30.8844 -4.4429
# 4 17.3402 -20.7601 20.6447 55.3040 -0.4329 -7.5502
# 5 -9.1540 26.0444 -30.8844 -0.4329 39.1553 23.3745
# 6 12.5610 -62.5469 -4.4429 -7.5502 23.3745 19.2494
#
#
#
# Elastic Compliance Matrix: (Units=1/GPa)
#
#
# Indices 1 2 3 4 5 6 
#
# 1 0.012319 0.002527 -0.004254 -0.000582 -0.005610 0.005775
# 2 0.002527 0.000181 0.000339 -0.002134 0.006549 -0.009773
# 3 -0.004254 0.000339 0.005307 0.000272 -0.000514 0.005834
# 4 -0.000582 -0.002134 0.000272 0.016362 0.006266 -0.007683
# 5 -0.005610 0.006549 -0.000514 0.006266 0.011822 0.012923
# 6 0.005775 -0.009773 0.005834 -0.007683 0.012923 -0.000931
#
#
# Mechanical properties :
#
#
# Convention : Reuss Voigt Hill
#
# Bulk Modulus (GPa) = 66.52571 90.66349 78.59460
# Shear Modulus (GPa) = 94.61675 39.41626 67.01650
#
# Velocity S-wave (km/s) = 6.03943 3.89807 5.08280
# Velocity P-wave (km/s) = 8.61851 7.43039 8.04641
#
# Compressibility (1/GPa) = 0.01503178
#
# Stress axis : x y z
#
# Youngs Moduli (GPa) = 81.17445 5534.68530 188.42360
#
# Poissons Ratio (x) = -13.98657 0.80155
# Poissons Ratio (y) = -0.20513 -0.06393
# Poissons Ratio (z) = 0.34531 -1.87778
#
# Static dielectric constant tensor:
#      x y z
#    x 2.313100 0.114610 -0.326300 
#    y 0.114610 2.106240 -0.187420 
#    z -0.326300 -0.187420 2.338730 
# 
# From -- ./inp_files/84973.got.cif
#   From: 2010.05.17/outbox.cif.g08.bks.cpg/sg2_43_cif.got.tgz:84973.got - 2010.06.03 11:33:40.
