data_PCOD9106701
_publ_section_title
;
Structure prediction by ZEFSAII (Michael W. Deem and Ramdas Pophale) SiO2 
 PCOD9106701
Probable space group: P -1
;
_chemical_formula_sum "Si O2"
_cell_formula_units_Z 12
_cell_length_a 9.071868
_cell_length_b 13.311196
_cell_length_c 14.454311
_cell_angle_alpha 148.376530
_cell_angle_beta 134.278171
_cell_angle_gamma 31.041957
_cell_volume 468.743070
_symmetry_space_group_name_H-M "P -1"
_symmetry_group_IT_number 2
_symmetry_cell_setting 'triclinic'
loop_
_space_group_symop_operation_xyz
x,y,z
-x,-y,-z
loop_
_atom_site_type_symbol
_atom_site_label
_atom_site_fract_x
_atom_site_fract_y
_atom_site_fract_z
Si Si1 0.153481 0.548765 0.472107
Si Si2 0.581681 0.875768 0.578105
Si Si3 0.443255 0.386990 0.272873
Si Si4 0.616280 0.572356 0.035613
Si Si5 0.182784 0.797683 0.327510
Si Si6 0.173914 0.249223 0.951096
O O1 0.290147 0.320436 0.430847
O O2 0.300523 0.433474 0.345727
O O3 0.253149 0.701263 0.660587
O O4 0.814781 0.734116 0.486249
O O5 0.300879 0.933675 0.474631
O O6 0.517218 0.132437 0.783528
O O7 0.234373 0.676803 0.356694
O O8 0.443757 0.193140 0.059605
O O9 0.958709 0.375764 0.042612
O O10 0.500000 0.500000 0.000000
O O11 0.599259 0.472733 0.852226
O O12 0.872042 0.926760 0.255220
O O13 0.000000 0.500000 0.000000
#
# Coordination Sequence:
#
# PCOD9106701 Si02
#       6
#     2   2   2   2   2   2
#     4   9  20  35  62  89 116 163 190 234 285 356
#     4  10  20  40  60  88 121 149 199 238 291 349
#     4   9  16  37  62  82 123 150 197 236 285 354
#     4  10  22  38  60  91 115 153 194 247 300 334
#     4   8  19  36  60  88 114 151 190 248 292 334
#     4   8  17  36  60  82 120 148 189 251 285 343
#
# _framework density 25.600380000000001
#
# number of rings (size 3 to 8) (size 9 to 14) (size 15 to 20)
#    1.000    2.000    0.000    0.000    2.333    0.667 
#    0.000   20.833    0.000    0.000    0.000    0.000 
#    0.000    0.000    0.000    0.000    0.000    0.000 
#
# Total GULP energy -66973.684842 kJ/mol
# GULP energy per Si atom -5581.140404 kJ/mol
# Density = 2.554211 g / cm^3
# Si number density = 25.600380 Si / 1000 Ang^3
#
#
#
# Elastic Constant Matrix: (Units=GPa)
#
#
# Indices 1 2 3 4 5 6 
#
# 1 221.2414 58.4530 74.7501 -5.3952 14.4855 4.1778
# 2 58.4530 60.9464 32.5115 0.6984 18.5308 -4.2386
# 3 74.7501 32.5115 153.0680 -11.6890 30.5486 -3.8973
# 4 -5.3952 0.6984 -11.6890 32.7033 -6.7608 13.1565
# 5 14.4855 18.5308 30.5486 -6.7608 46.3785 -2.2984
# 6 4.1778 -4.2386 -3.8973 13.1565 -2.2984 49.9572
#
#
#
# Elastic Compliance Matrix: (Units=1/GPa)
#
#
# Indices 1 2 3 4 5 6 
#
# 1 0.006855 -0.006024 -0.002392 0.001440 0.001974 -0.001559
# 2 -0.006024 0.025585 -0.001165 -0.005064 -0.008136 0.003543
# 3 -0.002392 -0.001165 0.008977 0.001884 -0.004421 0.000102
# 4 0.001440 -0.005064 0.001884 0.036614 0.005184 -0.009807
# 5 0.001974 -0.008136 -0.004421 0.005184 0.027800 -0.001287
# 6 -0.001559 0.003543 0.000102 -0.009807 -0.001287 0.022980
#
#
# Mechanical properties :
#
#
# Convention : Reuss Voigt Hill
#
# Bulk Modulus (GPa) = 44.93232 85.18722 65.05977
# Shear Modulus (GPa) = 32.17689 43.77721 37.97705
#
# Velocity S-wave (km/s) = 3.54911 4.13973 3.85575
# Velocity P-wave (km/s) = 5.86383 7.49652 6.72987
#
# Compressibility (1/GPa) = 0.02225569
#
# Stress axis : x y z
#
# Youngs Moduli (GPa) = 145.88205 39.08550 111.39150
#
# Poissons Ratio (x) = 0.23544 0.26643
# Poissons Ratio (y) = 0.87874 0.12980
# Poissons Ratio (z) = 0.34892 0.04555
#
# Static dielectric constant tensor:
#      x y z
#    x 2.026930 0.022410 0.027550 
#    y 0.022410 2.074400 -0.039350 
#    z 0.027550 -0.039350 2.180560 
# 
# From -- ./inp_files/503397.got.cif
#   From: 2010.05.17/outbox.cif.g08.bks.cpg/sg2_252_cif.got.tgz:503397.got - 2010.06.03 11:33:40.
