data_PCOD9106449
_publ_section_title
;
Structure prediction by ZEFSAII (Michael W. Deem and Ramdas Pophale) SiO2 
 PCOD9106449
Probable space group: P -1
;
_chemical_formula_sum "Si O2"
_cell_formula_units_Z 16
_cell_length_a 6.700867
_cell_length_b 7.515537
_cell_length_c 19.354137
_cell_angle_alpha 45.304287
_cell_angle_beta 114.140341
_cell_angle_gamma 105.240364
_cell_volume 631.803436
_symmetry_space_group_name_H-M "P -1"
_symmetry_group_IT_number 2
_symmetry_cell_setting 'triclinic'
loop_
_space_group_symop_operation_xyz
x,y,z
-x,-y,-z
loop_
_atom_site_type_symbol
_atom_site_label
_atom_site_fract_x
_atom_site_fract_y
_atom_site_fract_z
Si Si1 0.742971 0.577719 0.987314
Si Si2 0.174248 0.428808 0.336659
Si Si3 0.311930 0.632818 0.098960
Si Si4 0.397994 0.876905 0.181612
Si Si5 0.697447 0.898624 0.679845
Si Si6 0.791828 0.503361 0.162919
Si Si7 0.158171 0.075212 0.708557
Si Si8 0.682052 0.707096 0.463672
O O1 0.703883 0.859808 0.878093
O O2 0.500000 0.500000 0.000000
O O3 0.192751 0.614924 0.012462
O O4 0.874211 0.578972 0.077555
O O5 0.342480 0.647214 0.286218
O O6 0.250144 0.186572 0.368066
O O7 0.155528 0.350195 0.434228
O O8 0.956635 0.536146 0.239571
O O9 0.293503 0.830172 0.104449
O O10 0.302936 0.361723 0.208221
O O11 0.565859 0.644794 0.108450
O O12 0.662225 0.884513 0.217804
O O13 0.465741 0.040667 0.613685
O O14 0.900844 0.058330 0.691803
O O15 0.775575 0.204327 0.233688
O O16 0.199981 0.265300 0.600143
O O17 0.500000 0.500000 0.500000
#
# Coordination Sequence:
#
# PCOD9106449 Si02
#       8
#     2   2   2   2   2   2   2   2
#     4  10  20  39  70  91 134 174 215 268 331 386
#     4  10  24  41  64  96 129 167 225 269 318 397
#     4  10  21  41  67  93 132 176 213 270 332 382
#     4  11  21  41  64  97 135 168 218 275 317 393
#     4  10  23  42  64  95 130 171 219 270 326 393
#     4  10  21  42  66  94 128 176 215 268 332 384
#     4  11  22  43  66  94 135 171 216 273 324 390
#     4  12  23  41  68  92 130 177 213 268 339 380
#
# _framework density 25.324334
#
# number of rings (size 3 to 8) (size 9 to 14) (size 15 to 20)
#    0.000    1.500    5.000    0.375    0.000    6.000 
#    4.500    5.625    0.000    0.000    0.000    0.000 
#    0.000    0.000    0.000    0.000    0.000    0.000 
#
# Total GULP energy -89511.307309 kJ/mol
# GULP energy per Si atom -5594.456707 kJ/mol
# Density = 2.526669 g / cm^3
# Si number density = 25.324334 Si / 1000 Ang^3
#
#
#
# Elastic Constant Matrix: (Units=GPa)
#
#
# Indices 1 2 3 4 5 6 
#
# 1 50.9198 21.3142 17.7989 5.8446 -10.3292 -5.1379
# 2 21.3142 100.8996 33.6309 22.1997 -5.4678 6.5743
# 3 17.7989 33.6309 102.8234 28.2057 -3.7720 4.9694
# 4 5.8446 22.1997 28.2057 46.2285 -1.7448 1.3807
# 5 -10.3292 -5.4678 -3.7720 -1.7448 36.1262 1.8201
# 6 -5.1379 6.5743 4.9694 1.3807 1.8201 40.4074
#
#
#
# Elastic Compliance Matrix: (Units=1/GPa)
#
#
# Indices 1 2 3 4 5 6 
#
# 1 0.023876 -0.004186 -0.002989 0.000918 0.005734 0.003795
# 2 -0.004186 0.012580 -0.002137 -0.004127 0.000395 -0.002193
# 3 -0.002989 -0.002137 0.012742 -0.006332 -0.000084 -0.001379
# 4 0.000918 -0.004127 -0.006332 0.027353 0.000266 0.000620
# 5 0.005734 0.000395 -0.000084 0.000266 0.029417 -0.000659
# 6 0.003795 -0.002193 -0.001379 0.000620 -0.000659 0.025765
#
#
# Mechanical properties :
#
#
# Convention : Reuss Voigt Hill
#
# Bulk Modulus (GPa) = 32.70705 44.45898 38.58302
# Shear Modulus (GPa) = 31.14295 36.67901 33.91098
#
# Velocity S-wave (km/s) = 3.51060 3.80987 3.66330
# Velocity P-wave (km/s) = 5.41994 6.07844 5.75861
#
# Compressibility (1/GPa) = 0.03057444
#
# Stress axis : x y z
#
# Youngs Moduli (GPa) = 41.88242 79.49196 78.47778
#
# Poissons Ratio (x) = 0.33276 0.23456
# Poissons Ratio (y) = 0.17532 0.16773
# Poissons Ratio (z) = 0.12518 0.16990
#
# Static dielectric constant tensor:
#      x y z
#    x 2.069030 0.046120 0.031580 
#    y 0.046120 2.043280 0.057090 
#    z 0.031580 0.057090 1.990120 
# 
# From -- ./inp_files/281242.got.cif
#   From: 2010.05.17/outbox.cif.g08.bks.cpg/sg2_141_cif.got.tgz:281242.got - 2010.06.03 11:33:40.
