data_PCOD9106628
_publ_section_title
;
Structure prediction by ZEFSAII (Michael W. Deem and Ramdas Pophale) SiO2 
 PCOD9106628
Probable space group: P -1
;
_chemical_formula_sum "Si O2"
_cell_formula_units_Z 16
_cell_length_a 7.666207
_cell_length_b 6.469137
_cell_length_c 20.151831
_cell_angle_alpha 110.637812
_cell_angle_beta 52.122634
_cell_angle_gamma 119.571603
_cell_volume 684.317336
_symmetry_space_group_name_H-M "P -1"
_symmetry_group_IT_number 2
_symmetry_cell_setting 'triclinic'
loop_
_space_group_symop_operation_xyz
x,y,z
-x,-y,-z
loop_
_atom_site_type_symbol
_atom_site_label
_atom_site_fract_x
_atom_site_fract_y
_atom_site_fract_z
Si Si1 0.261623 0.760484 0.534902
Si Si2 0.303161 0.466370 0.147854
Si Si3 0.732669 0.915876 0.972952
Si Si4 0.007143 0.679660 0.144764
Si Si5 0.041818 0.759584 0.445325
Si Si6 0.385311 0.903617 0.255729
Si Si7 0.976374 0.938853 0.728822
Si Si8 0.786724 0.175270 0.118332
O O1 0.170025 0.721294 0.476715
O O2 0.196002 0.479591 0.539966
O O3 0.111653 0.847837 0.632394
O O4 0.500000 0.000000 0.500000
O O5 0.422076 0.327288 0.056792
O O6 0.444300 0.685519 0.186675
O O7 0.139875 0.265956 0.213453
O O8 0.148607 0.571822 0.149671
O O9 0.970961 0.869037 0.931856
O O10 0.817131 0.129375 0.924625
O O11 0.653566 0.007058 0.068753
O O12 0.838244 0.447655 0.119342
O O13 0.883037 0.822110 0.234649
O O14 0.229549 0.817802 0.347864
O O15 0.000000 0.000000 0.500000
O O16 0.223134 0.995738 0.256228
O O17 0.639331 0.117702 0.214947
#
# Coordination Sequence:
#
# PCOD9106628 Si02
#       8
#     2   2   2   2   2   2   2   2
#     4  11  25  43  69  97 128 175 216 267 336 393
#     4   9  19  37  59  81 119 160 197 252 304 368
#     4   9  19  38  58  84 123 156 209 261 305 375
#     4   9  19  35  59  83 117 160 200 256 306 373
#     4  11  24  45  66  97 137 165 217 281 320 393
#     4  11  22  38  61  86 124 164 202 258 325 375
#     4  10  20  40  59  84 122 161 206 257 311 384
#     4  10  21  35  58  91 118 159 206 259 317 375
#
# _framework density 23.380965
#
# number of rings (size 3 to 8) (size 9 to 14) (size 15 to 20)
#    0.000    2.000    2.500    0.375    0.000    6.000 
#    0.000    5.625    0.000    0.000    0.000    0.000 
#    0.000    0.000    0.000    0.000    0.000    0.000 
#
# Total GULP energy -89216.300833 kJ/mol
# GULP energy per Si atom -5576.018802 kJ/mol
# Density = 2.332775 g / cm^3
# Si number density = 23.380965 Si / 1000 Ang^3
#
#
#
# Elastic Constant Matrix: (Units=GPa)
#
#
# Indices 1 2 3 4 5 6 
#
# 1 31.3117 24.0435 19.2445 3.0674 9.1597 0.4429
# 2 24.0435 172.4147 72.8081 1.2666 -1.9052 -5.1144
# 3 19.2445 72.8081 127.6666 -10.8730 16.6966 -1.6285
# 4 3.0674 1.2666 -10.8730 40.4884 -5.1456 4.7090
# 5 9.1597 -1.9052 16.6966 -5.1456 26.7491 -8.5120
# 6 0.4429 -5.1144 -1.6285 4.7090 -8.5120 27.1534
#
#
#
# Elastic Compliance Matrix: (Units=1/GPa)
#
#
# Indices 1 2 3 4 5 6 
#
# 1 0.042780 -0.005690 -0.001464 -0.004889 -0.017109 -0.006373
# 2 -0.005690 0.008973 -0.005178 -0.000806 0.006862 0.003763
# 3 -0.001464 -0.005178 0.012259 0.002926 -0.007983 -0.003226
# 4 -0.004889 -0.000806 0.002926 0.026759 0.003882 -0.003320
# 5 -0.017109 0.006862 -0.007983 0.003882 0.055090 0.017689
# 6 -0.006373 0.003763 -0.003226 -0.003320 0.017689 0.043568
#
#
# Mechanical properties :
#
#
# Convention : Reuss Voigt Hill
#
# Bulk Modulus (GPa) = 25.41387 62.62057 44.01722
# Shear Modulus (GPa) = 22.00624 33.23131 27.61878
#
# Velocity S-wave (km/s) = 3.07123 3.77410 3.44066
# Velocity P-wave (km/s) = 4.84455 6.76998 5.88652
#
# Compressibility (1/GPa) = 0.03934859
#
# Stress axis : x y z
#
# Youngs Moduli (GPa) = 23.37559 111.44167 81.57565
#
# Poissons Ratio (x) = 0.63406 0.11942
# Poissons Ratio (y) = 0.13300 0.42239
# Poissons Ratio (z) = 0.03422 0.57703
#
# Static dielectric constant tensor:
#      x y z
#    x 1.927460 0.055170 0.019250 
#    y 0.055170 1.985360 0.004470 
#    z 0.019250 0.004470 1.851790 
# 
# From -- ./inp_files/52383.got.cif
#   From: 2010.05.17/outbox.cif.g08.bks.cpg/sg2_27_cif.got.tgz:52383.got - 2010.06.03 11:33:40.
