data_PCOD9106453
_publ_section_title
;
Structure prediction by ZEFSAII (Michael W. Deem and Ramdas Pophale) SiO2 
 PCOD9106453
Probable space group: P -1
;
_chemical_formula_sum "Si O2"
_cell_formula_units_Z 14
_cell_length_a 18.967744
_cell_length_b 8.269077
_cell_length_c 12.126066
_cell_angle_alpha 144.623473
_cell_angle_beta 33.113303
_cell_angle_gamma 131.665369
_cell_volume 600.540844
_symmetry_space_group_name_H-M "P -1"
_symmetry_group_IT_number 2
_symmetry_cell_setting 'triclinic'
loop_
_space_group_symop_operation_xyz
x,y,z
-x,-y,-z
loop_
_atom_site_type_symbol
_atom_site_label
_atom_site_fract_x
_atom_site_fract_y
_atom_site_fract_z
Si Si1 0.902160 0.146468 0.040497
Si Si2 0.670774 0.438331 0.746978
Si Si3 0.954851 0.055258 0.465070
Si Si4 0.339312 0.709110 0.007719
Si Si5 0.355615 0.137908 0.775852
Si Si6 0.953649 0.360216 0.309289
Si Si7 0.527273 0.865381 0.048301
O O1 0.946074 0.381693 0.198285
O O2 0.979832 0.149154 0.826017
O O3 0.949756 0.871863 0.895803
O O4 0.749716 0.097309 0.205031
O O5 0.809802 0.287316 0.487803
O O6 0.566204 0.207266 0.769048
O O7 0.662282 0.666386 0.983093
O O8 0.641291 0.623488 0.779913
O O9 0.800547 0.127097 0.703694
O O10 0.016715 0.346682 0.515977
O O11 0.000000 0.000000 0.500000
O O12 0.434712 0.799019 0.030692
O O13 0.330259 0.375289 0.844989
O O14 0.409096 0.840361 0.883383
O O15 0.500000 0.000000 0.500000
#
# Coordination Sequence:
#
# PCOD9106453 Si02
#       7
#     2   2   2   2   2   2   2
#     4  11  24  42  67 100 131 174 228 275 329 399
#     4  10  20  39  70  94 127 177 219 269 334 403
#     4  12  24  44  71  98 137 174 221 277 339 398
#     4  10  21  40  63  94 132 171 215 277 332 386
#     4  11  23  40  65  95 132 173 225 274 331 399
#     4  11  23  42  71  98 131 175 225 274 329 401
#     4   9  20  36  62  98 123 165 223 259 332 398
#
# _framework density 23.312318999999999
#
# number of rings (size 3 to 8) (size 9 to 14) (size 15 to 20)
#    0.000    1.429    2.857    3.000    6.000    0.571 
#    0.000    0.714    6.286    0.000    0.000    0.000 
#    0.000    0.000    0.000    0.000    0.000    0.000 
#
# Total GULP energy -78113.825741 kJ/mol
# GULP energy per Si atom -5579.558982 kJ/mol
# Density = 2.325926 g / cm^3
# Si number density = 23.312319 Si / 1000 Ang^3
#
#
#
# Elastic Constant Matrix: (Units=GPa)
#
#
# Indices 1 2 3 4 5 6 
#
# 1 80.8761 14.3505 35.1202 -4.6616 -2.3587 -6.4439
# 2 14.3505 88.4634 11.3106 -9.1162 -2.5493 -6.4892
# 3 35.1202 11.3106 103.8652 0.3390 -6.3082 3.5316
# 4 -4.6616 -9.1162 0.3390 17.3375 6.0190 2.5354
# 5 -2.3587 -2.5493 -6.3082 6.0190 46.5164 2.1667
# 6 -6.4439 -6.4892 3.5316 2.5354 2.1667 27.3928
#
#
#
# Elastic Compliance Matrix: (Units=1/GPa)
#
#
# Indices 1 2 3 4 5 6 
#
# 1 0.015315 -0.001227 -0.005218 0.003234 -0.000591 0.003732
# 2 -0.001227 0.012414 -0.001058 0.006030 -0.000411 0.002263
# 3 -0.005218 -0.001058 0.011718 -0.002356 0.001707 -0.002906
# 4 0.003234 0.006030 -0.002356 0.064998 -0.008101 -0.002882
# 5 -0.000591 -0.000411 0.001707 -0.008101 0.022795 -0.001510
# 6 0.003732 0.002263 -0.002906 -0.002882 -0.001510 0.038681
#
#
# Mechanical properties :
#
#
# Convention : Reuss Voigt Hill
#
# Bulk Modulus (GPa) = 40.91832 43.86306 42.39069
# Shear Modulus (GPa) = 26.44451 32.41089 29.42770
#
# Velocity S-wave (km/s) = 3.37168 3.73270 3.55677
# Velocity P-wave (km/s) = 5.72258 6.11831 5.92375
#
# Compressibility (1/GPa) = 0.02443893
#
# Stress axis : x y z
#
# Youngs Moduli (GPa) = 65.29625 80.55387 85.34103
#
# Poissons Ratio (x) = 0.09886 0.44532
# Poissons Ratio (y) = 0.08013 0.09033
# Poissons Ratio (z) = 0.34072 0.08527
#
# Static dielectric constant tensor:
#      x y z
#    x 1.934390 -0.056490 0.030980 
#    y -0.056490 1.905750 -0.013160 
#    z 0.030980 -0.013160 1.955130 
# 
# From -- ./inp_files/281580.got.cif
#   From: 2010.05.17/outbox.cif.g08.bks.cpg/sg2_141_cif.got.tgz:281580.got - 2010.06.03 11:33:40.
