data_PCOD9106981
_publ_section_title
;
Structure prediction by ZEFSAII (Michael W. Deem and Ramdas Pophale) SiO2 
 PCOD9106981
Probable space group: P -1
;
_chemical_formula_sum "Si O2"
_cell_formula_units_Z 16
_cell_length_a 9.154812
_cell_length_b 21.473368
_cell_length_c 16.009903
_cell_angle_alpha 153.741371
_cell_angle_beta 35.099746
_cell_angle_gamma 142.708437
_cell_volume 776.640606
_symmetry_space_group_name_H-M "P -1"
_symmetry_group_IT_number 2
_symmetry_cell_setting 'triclinic'
loop_
_space_group_symop_operation_xyz
x,y,z
-x,-y,-z
loop_
_atom_site_type_symbol
_atom_site_label
_atom_site_fract_x
_atom_site_fract_y
_atom_site_fract_z
Si Si1 0.466929 0.849432 0.126648
Si Si2 0.173186 0.888665 0.635673
Si Si3 0.232159 0.437630 0.000712
Si Si4 0.001510 0.120926 0.712289
Si Si5 0.973662 0.865551 0.092902
Si Si6 0.255587 0.632947 0.728481
Si Si7 0.740893 0.673549 0.676101
Si Si8 0.638016 0.275062 0.804379
O O1 0.284138 0.851889 0.136345
O O2 0.296425 0.768180 0.185689
O O3 0.601933 0.007082 0.289352
O O4 0.672226 0.761419 0.892780
O O5 0.281442 0.822963 0.424363
O O6 0.010410 0.760726 0.614241
O O7 0.999868 0.998776 0.817741
O O8 0.233078 0.558420 0.076293
O O9 0.985464 0.419696 0.156719
O O10 0.500000 0.500000 0.000000
O O11 0.209564 0.273899 0.783898
O O12 0.028133 0.077875 0.743174
O O13 0.000000 0.000000 0.500000
O O14 0.680452 0.763786 0.094091
O O15 0.183539 0.767310 0.875645
O O16 0.523497 0.667594 0.697627
O O17 0.259591 0.491800 0.501983
#
# Coordination Sequence:
#
# PCOD9106981 Si02
#       8
#     2   2   2   2   2   2   2   2
#     4  11  23  39  59  94 130 155 201 271 311 355
#     4  11  23  38  66  91 124 168 209 245 318 383
#     4  11  20  38  67  91 116 167 216 249 302 383
#     4  11  21  37  59  91 130 157 197 265 320 347
#     4  10  20  40  62  90 123 161 210 260 303 370
#     4  10  21  39  63  85 120 164 211 253 308 361
#     4  11  22  41  61  88 123 170 207 249 310 377
#     4  11  21  39  65  95 119 161 212 257 308 374
#
# _framework density 20.60155
#
# number of rings (size 3 to 8) (size 9 to 14) (size 15 to 20)
#    0.000    1.250    6.250    3.375    0.000    1.000 
#    0.000    3.750    0.000    0.000    0.000    0.000 
#    0.000    0.000    0.000    0.000    0.000    0.000 
#
# Total GULP energy -89314.141983 kJ/mol
# GULP energy per Si atom -5582.133874 kJ/mol
# Density = 2.055466 g / cm^3
# Si number density = 20.601550 Si / 1000 Ang^3
#
#
#
# Elastic Constant Matrix: (Units=GPa)
#
#
# Indices 1 2 3 4 5 6 
#
# 1 52.7138 4.8651 -11.2018 10.8804 0.7008 3.5864
# 2 4.8651 50.6790 8.8035 16.4882 12.8936 7.0731
# 3 -11.2018 8.8035 96.4358 21.1963 6.8284 0.6894
# 4 10.8804 16.4882 21.1963 35.3706 0.5715 1.3958
# 5 0.7008 12.8936 6.8284 0.5715 30.3233 0.6405
# 6 3.5864 7.0731 0.6894 1.3958 0.6405 17.9542
#
#
#
# Elastic Compliance Matrix: (Units=1/GPa)
#
#
# Indices 1 2 3 4 5 6 
#
# 1 0.022315 0.001451 0.004885 -0.010265 -0.001948 -0.004349
# 2 0.001451 0.028308 0.001580 -0.014002 -0.011951 -0.009988
# 3 0.004885 0.001580 0.013270 -0.010087 -0.003557 -0.001197
# 4 -0.010265 -0.014002 -0.010087 0.043710 0.007548 0.004286
# 5 -0.001948 -0.011951 -0.003557 0.007548 0.038695 0.003267
# 6 -0.004349 -0.009988 -0.001197 0.004286 0.003267 0.060097
#
#
# Mechanical properties :
#
#
# Convention : Reuss Voigt Hill
#
# Bulk Modulus (GPa) = 12.54306 22.75137 17.64722
# Shear Modulus (GPa) = 23.02675 29.88706 26.45691
#
# Velocity S-wave (km/s) = 3.34686 3.81296 3.58749
# Velocity P-wave (km/s) = 4.58660 5.51837 5.07392
#
# Compressibility (1/GPa) = 0.07972534
#
# Stress axis : x y z
#
# Youngs Moduli (GPa) = 44.81286 35.32532 75.35642
#
# Poissons Ratio (x) = -0.05127 -0.36810
# Poissons Ratio (y) = -0.06504 -0.11903
# Poissons Ratio (z) = -0.21890 -0.05580
#
# Static dielectric constant tensor:
#      x y z
#    x 1.765170 -0.001190 -0.069620 
#    y -0.001190 1.706900 0.024360 
#    z -0.069620 0.024360 1.815060 
# 
# From -- ./inp_files/507946.got.cif
#   From: 2010.05.17/outbox.cif.g08.bks.cpg/sg2_254_cif.got.tgz:507946.got - 2010.06.03 11:33:40.
