data_PCOD9106151
_publ_section_title
;
Structure prediction by ZEFSAII (Michael W. Deem and Ramdas Pophale) SiO2 
 PCOD9106151
Probable space group: P -1
;
_chemical_formula_sum "Si O2"
_cell_formula_units_Z 14
_cell_length_a 12.805134
_cell_length_b 9.207541
_cell_length_c 13.443455
_cell_angle_alpha 53.416302
_cell_angle_beta 141.308312
_cell_angle_gamma 137.937726
_cell_volume 663.292183
_symmetry_space_group_name_H-M "P -1"
_symmetry_group_IT_number 2
_symmetry_cell_setting 'triclinic'
loop_
_space_group_symop_operation_xyz
x,y,z
-x,-y,-z
loop_
_atom_site_type_symbol
_atom_site_label
_atom_site_fract_x
_atom_site_fract_y
_atom_site_fract_z
Si Si1 0.725541 0.485187 0.063080
Si Si2 0.087274 0.986509 0.382751
Si Si3 0.905695 0.959059 0.055966
Si Si4 0.776189 0.314074 0.369155
Si Si5 0.686292 0.554114 0.549641
Si Si6 0.080046 0.633653 0.107544
Si Si7 0.651893 0.572774 0.285105
O O1 0.766664 0.699535 0.064142
O O2 0.751362 0.347348 0.221419
O O3 0.891456 0.554782 0.072872
O O4 0.512144 0.385707 0.894276
O O5 0.239136 0.908625 0.534696
O O6 0.066103 0.033404 0.233186
O O7 0.870924 0.785124 0.339181
O O8 0.149573 0.192959 0.410618
O O9 0.821136 0.110471 0.942092
O O10 0.000000 0.000000 0.000000
O O11 0.635280 0.368249 0.301700
O O12 0.000000 0.500000 0.500000
O O13 0.500000 0.500000 0.500000
O O14 0.773516 0.416675 0.707929
O O15 0.630024 0.523120 0.405489
O O16 0.000000 0.500000 0.000000
#
# Coordination Sequence:
#
# PCOD9106151 Si02
#       7
#     2   2   2   2   2   2   2
#     4  11  22  42  66 101 131 167 219 270 327 390
#     4  11  23  45  66  97 132 174 217 269 327 383
#     4  10  22  37  69  95 132 166 219 262 327 378
#     4  10  20  39  67  96 129 168 214 268 327 376
#     4  12  27  46  64  95 134 173 223 269 323 392
#     4  11  22  42  67  91 132 179 215 262 329 382
#     4  11  24  41  69  97 134 170 217 272 324 391
#
# _framework density 21.106838
#
# number of rings (size 3 to 8) (size 9 to 14) (size 15 to 20)
#    0.000    1.143    4.286    3.429    4.000    1.143 
#    0.000    2.857    0.000    0.000    0.000    0.000 
#    0.000    0.000    0.000    0.000    0.000    0.000 
#
# Total GULP energy -78259.576253 kJ/mol
# GULP energy per Si atom -5589.969732 kJ/mol
# Density = 2.105880 g / cm^3
# Si number density = 21.106838 Si / 1000 Ang^3
#
#
#
# Elastic Constant Matrix: (Units=GPa)
#
#
# Indices 1 2 3 4 5 6 
#
# 1 105.8850 6.9804 48.5563 -5.4490 -8.1483 -6.5759
# 2 6.9804 67.6776 23.9196 -24.6881 8.7807 -21.0591
# 3 48.5563 23.9196 161.1451 -27.1469 -6.0848 -7.0424
# 4 -5.4490 -24.6881 -27.1469 35.4600 -3.8979 4.6906
# 5 -8.1483 8.7807 -6.0848 -3.8979 48.6884 0.7615
# 6 -6.5759 -21.0591 -7.0424 4.6906 0.7615 25.2206
#
#
#
# Elastic Compliance Matrix: (Units=1/GPa)
#
#
# Indices 1 2 3 4 5 6 
#
# 1 0.011188 0.000301 -0.003408 -0.000848 0.001288 0.002336
# 2 0.000301 0.027405 -0.000847 0.015386 -0.004079 0.019987
# 3 -0.003408 -0.000847 0.008293 0.005393 0.001056 -0.000315
# 4 -0.000848 0.015386 0.005393 0.042198 0.001038 0.006252
# 5 0.001288 -0.004079 0.001056 0.001038 0.021762 -0.003625
# 6 0.002336 0.019987 -0.000315 0.006252 -0.003625 0.055807
#
#
# Mechanical properties :
#
#
# Convention : Reuss Voigt Hill
#
# Bulk Modulus (GPa) = 25.65571 54.84671 40.25121
# Shear Modulus (GPa) = 26.65917 38.89057 32.77487
#
# Velocity S-wave (km/s) = 3.55781 4.29716 3.94484
# Velocity P-wave (km/s) = 5.39063 7.11776 6.31353
#
# Compressibility (1/GPa) = 0.03897768
#
# Stress axis : x y z
#
# Youngs Moduli (GPa) = 89.38433 36.48916 120.58696
#
# Poissons Ratio (x) = -0.01098 0.41094
# Poissons Ratio (y) = -0.02691 0.10217
# Poissons Ratio (z) = 0.30461 0.03092
#
# Static dielectric constant tensor:
#      x y z
#    x 1.744810 0.016390 0.013860 
#    y 0.016390 1.804170 0.005370 
#    z 0.013860 0.005370 1.766670 
# 
# From -- ./inp_files/184170.got.cif
#   From: 2010.05.17/outbox.cif.g08.bks.cpg/sg2_93_cif.got.tgz:184170.got - 2010.06.03 11:33:40.
