data_PCOD9106015
_publ_section_title
;
Structure prediction by ZEFSAII (Michael W. Deem and Ramdas Pophale) SiO2 
 PCOD9106015
Probable space group: P -1
;
_chemical_formula_sum "Si O2"
_cell_formula_units_Z 14
_cell_length_a 9.232144
_cell_length_b 21.528409
_cell_length_c 8.127791
_cell_angle_alpha 144.988894
_cell_angle_beta 47.955128
_cell_angle_gamma 137.732657
_cell_volume 614.847490
_symmetry_space_group_name_H-M "P -1"
_symmetry_group_IT_number 2
_symmetry_cell_setting 'triclinic'
loop_
_space_group_symop_operation_xyz
x,y,z
-x,-y,-z
loop_
_atom_site_type_symbol
_atom_site_label
_atom_site_fract_x
_atom_site_fract_y
_atom_site_fract_z
Si Si1 0.212719 0.375769 0.307382
Si Si2 0.320195 0.083853 0.453929
Si Si3 0.468469 0.247506 0.391620
Si Si4 0.797857 0.522103 0.772702
Si Si5 0.230964 0.842257 0.876609
Si Si6 0.107154 0.583690 0.946160
Si Si7 0.428570 0.236881 0.017377
O O1 0.241572 0.384693 0.108820
O O2 0.221634 0.505670 0.611835
O O3 0.371097 0.340744 0.213161
O O4 0.970908 0.269755 0.292175
O O5 0.319622 0.169545 0.488415
O O6 0.569790 0.099040 0.276955
O O7 0.306159 0.128695 0.744409
O O8 0.172948 0.944561 0.216196
O O9 0.590131 0.391341 0.647205
O O10 0.667888 0.209515 0.171256
O O11 0.378199 0.219407 0.212936
O O12 0.000000 0.500000 0.500000
O O13 0.902698 0.579381 0.991240
O O14 0.310019 0.713772 0.095455
O O15 0.000000 0.500000 0.000000
#
# Coordination Sequence:
#
# PCOD9106015 Si02
#       7
#     2   2   2   2   2   2   2
#     4  11  21  35  56  87 113 149 174 232 291 324
#     4   9  21  39  60  81 106 153 192 229 266 330
#     4  10  18  37  60  80 110 148 188 231 266 333
#     4  10  16  34  56  76 112 144 182 217 276 329
#     4   9  18  41  61  74 115 147 193 228 269 327
#     4  11  20  36  57  83 111 148 190 226 267 339
#     4  12  22  34  59  87 117 140 186 231 287 326
#
# _framework density 22.769874999999999
#
# number of rings (size 3 to 8) (size 9 to 14) (size 15 to 20)
#    0.857    0.857    5.714    2.143    0.000    1.143 
#    2.571    2.143    0.000    0.000    0.000    0.000 
#    0.000    0.000    0.000    0.000    0.000    0.000 
#
# Total GULP energy -77987.738772 kJ/mol
# GULP energy per Si atom -5570.552769 kJ/mol
# Density = 2.271805 g / cm^3
# Si number density = 22.769875 Si / 1000 Ang^3
#
#
#
# Elastic Constant Matrix: (Units=GPa)
#
#
# Indices 1 2 3 4 5 6 
#
# 1 113.7457 30.4266 15.1816 -6.1489 17.6600 -32.8588
# 2 30.4266 48.5621 -14.8457 -4.6863 1.3267 -4.0156
# 3 15.1816 -14.8457 54.3062 2.7657 4.1656 2.2467
# 4 -6.1489 -4.6863 2.7657 27.6907 1.7080 6.9783
# 5 17.6600 1.3267 4.1656 1.7080 27.3857 5.6163
# 6 -32.8588 -4.0156 2.2467 6.9783 5.6163 35.1297
#
#
#
# Elastic Compliance Matrix: (Units=1/GPa)
#
#
# Indices 1 2 3 4 5 6 
#
# 1 0.024710 -0.016368 -0.010930 -0.001393 -0.018557 0.025184
# 2 -0.016368 0.033877 0.013508 0.003836 0.009614 -0.014601
# 3 -0.010930 0.013508 0.025258 -0.000182 0.004825 -0.011030
# 4 -0.001393 0.003836 -0.000182 0.038618 0.000083 -0.008538
# 5 -0.018557 0.009614 0.004825 0.000083 0.052396 -0.024960
# 6 0.025184 -0.014601 -0.011030 -0.008538 -0.024960 0.056745
#
#
# Mechanical properties :
#
#
# Convention : Reuss Voigt Hill
#
# Bulk Modulus (GPa) = 17.77309 30.90433 24.33871
# Shear Modulus (GPa) = 17.98966 30.43132 24.21049
#
# Velocity S-wave (km/s) = 2.81386 3.65975 3.26432
# Velocity P-wave (km/s) = 4.28714 5.60894 4.99198
#
# Compressibility (1/GPa) = 0.05626484
#
# Stress axis : x y z
#
# Youngs Moduli (GPa) = 40.47010 29.51828 39.59189
#
# Poissons Ratio (x) = 0.48316 0.43273
# Poissons Ratio (y) = 0.66242 -0.53481
# Poissons Ratio (z) = 0.44233 -0.39873
#
# Static dielectric constant tensor:
#      x y z
#    x 1.906400 -0.052480 0.080190 
#    y -0.052480 1.991260 -0.145000 
#    z 0.080190 -0.145000 2.005110 
# 
# From -- ./inp_files/221456.got.cif
#   From: 2010.05.17/outbox.cif.g08.bks.cpg/sg2_111_cif.got.tgz:221456.got - 2010.06.03 11:33:40.
