data_PCOD9106361
_publ_section_title
;
Structure prediction by ZEFSAII (Michael W. Deem and Ramdas Pophale) SiO2 
 PCOD9106361
Probable space group: P -1
;
_chemical_formula_sum "Si O2"
_cell_formula_units_Z 14
_cell_length_a 9.450962
_cell_length_b 9.151317
_cell_length_c 7.575241
_cell_angle_alpha 88.576357
_cell_angle_beta 71.682040
_cell_angle_gamma 65.839317
_cell_volume 563.400272
_symmetry_space_group_name_H-M "P -1"
_symmetry_group_IT_number 2
_symmetry_cell_setting 'triclinic'
loop_
_space_group_symop_operation_xyz
x,y,z
-x,-y,-z
loop_
_atom_site_type_symbol
_atom_site_label
_atom_site_fract_x
_atom_site_fract_y
_atom_site_fract_z
Si Si1 0.042922 0.657895 0.784192
Si Si2 0.847029 0.704087 0.345199
Si Si3 0.304895 0.194947 0.212838
Si Si4 0.490699 0.112349 0.667696
Si Si5 0.432624 0.684685 0.958808
Si Si6 0.930364 0.164297 0.902466
Si Si7 0.362362 0.678664 0.574524
O O1 0.052905 0.484140 0.732948
O O2 0.182660 0.685250 0.619115
O O3 0.858303 0.785828 0.822800
O O4 0.088301 0.687481 0.963271
O O5 0.765519 0.722280 0.570250
O O6 0.700007 0.767879 0.258053
O O7 0.942984 0.818639 0.288395
O O8 0.412884 0.273795 0.075382
O O9 0.427855 0.012203 0.207380
O O10 0.596641 0.208441 0.575236
O O11 0.500000 0.000000 0.500000
O O12 0.391222 0.716633 0.764298
O O13 0.500000 0.500000 0.000000
O O14 0.250796 0.791474 0.103966
O O15 0.000000 0.000000 0.000000
O O16 0.500000 0.500000 0.500000
#
# Coordination Sequence:
#
# PCOD9106361 Si02
#       7
#     2   2   2   2   2   2   2
#     4  11  24  40  65  98 132 166 219 265 323 383
#     4  11  21  42  71  91 127 177 218 261 318 389
#     4  11  23  42  69 100 127 168 221 268 319 380
#     4  10  20  39  69  92 130 167 214 262 323 375
#     4  11  23  43  67  93 131 169 213 264 324 384
#     4  11  26  44  64  93 137 173 211 265 334 379
#     4  11  21  42  66  98 125 170 218 264 316 386
#
# _framework density 24.849117
#
# number of rings (size 3 to 8) (size 9 to 14) (size 15 to 20)
#    0.000    1.143    4.286    2.571    6.000    2.857 
#    2.571    1.429    0.000    0.000    0.000    0.000 
#    0.000    0.000    0.000    0.000    0.000    0.000 
#
# Total GULP energy -78362.058182 kJ/mol
# GULP energy per Si atom -5597.289870 kJ/mol
# Density = 2.479256 g / cm^3
# Si number density = 24.849117 Si / 1000 Ang^3
#
#
#
# Elastic Constant Matrix: (Units=GPa)
#
#
# Indices 1 2 3 4 5 6 
#
# 1 178.3072 31.2312 43.1378 -29.1570 -39.1104 -12.6247
# 2 31.2312 108.2444 34.9042 -35.2878 -16.6337 2.6137
# 3 43.1378 34.9042 77.4567 -10.5557 -21.7359 9.6511
# 4 -29.1570 -35.2878 -10.5557 40.5535 22.5231 -1.9582
# 5 -39.1104 -16.6337 -21.7359 22.5231 51.3472 -5.2627
# 6 -12.6247 2.6137 9.6511 -1.9582 -5.2627 44.2612
#
#
#
# Elastic Compliance Matrix: (Units=1/GPa)
#
#
# Indices 1 2 3 4 5 6 
#
# 1 0.008009 0.000420 -0.003635 0.003355 0.003598 0.003628
# 2 0.000420 0.015034 -0.006182 0.013669 -0.003342 0.000787
# 3 -0.003635 -0.006182 0.018976 -0.006381 0.005607 -0.004425
# 4 0.003355 0.013669 -0.006381 0.046155 -0.015789 0.001706
# 5 0.003598 -0.003342 0.005607 -0.015789 0.030736 0.002957
# 6 0.003628 0.000787 -0.004425 0.001706 0.002957 0.024973
#
#
# Mechanical properties :
#
#
# Convention : Reuss Voigt Hill
#
# Bulk Modulus (GPa) = 43.05636 64.72830 53.89233
# Shear Modulus (GPa) = 29.33965 44.21474 36.77720
#
# Velocity S-wave (km/s) = 3.43988 4.22278 3.85128
# Velocity P-wave (km/s) = 5.75689 7.06265 6.44293
#
# Compressibility (1/GPa) = 0.02322537
#
# Stress axis : x y z
#
# Youngs Moduli (GPa) = 124.86410 66.51546 52.69881
#
# Poissons Ratio (x) = -0.02795 0.19156
# Poissons Ratio (y) = -0.05248 0.32578
# Poissons Ratio (z) = 0.45387 0.41119
#
# Static dielectric constant tensor:
#      x y z
#    x 1.935490 0.026110 -0.029090 
#    y 0.026110 1.925830 0.043670 
#    z -0.029090 0.043670 2.033020 
# 
# From -- ./inp_files/157981.got.cif
#   From: 2010.05.17/outbox.cif.g08.bks.cpg/sg2_79_cif.got.tgz:157981.got - 2010.06.03 11:33:40.
