data_PCOD9106377
_publ_section_title
;
Structure prediction by ZEFSAII (Michael W. Deem and Ramdas Pophale) SiO2 
 PCOD9106377
Probable space group: P -1
;
_chemical_formula_sum "Si O2"
_cell_formula_units_Z 16
_cell_length_a 23.201668
_cell_length_b 9.159028
_cell_length_c 6.990953
_cell_angle_alpha 111.042211
_cell_angle_beta 117.223463
_cell_angle_gamma 29.013284
_cell_volume 637.823207
_symmetry_space_group_name_H-M "P -1"
_symmetry_group_IT_number 2
_symmetry_cell_setting 'triclinic'
loop_
_space_group_symop_operation_xyz
x,y,z
-x,-y,-z
loop_
_atom_site_type_symbol
_atom_site_label
_atom_site_fract_x
_atom_site_fract_y
_atom_site_fract_z
Si Si1 0.626064 0.149436 0.995680
Si Si2 0.736061 0.633884 0.074905
Si Si3 0.979688 0.298910 0.106897
Si Si4 0.088003 0.923251 0.723408
Si Si5 0.231890 0.923898 0.378228
Si Si6 0.839178 0.895568 0.082622
Si Si7 0.392986 0.853868 0.483541
Si Si8 0.572316 0.737054 0.630250
O O1 0.639042 0.067128 0.755238
O O2 0.638759 0.976097 0.070047
O O3 0.500000 0.500000 0.000000
O O4 0.734782 0.051240 0.142516
O O5 0.864650 0.453437 0.111971
O O6 0.672095 0.635800 0.846193
O O7 0.781946 0.440325 0.234944
O O8 0.924070 0.565970 0.038810
O O9 0.033046 0.068695 0.921636
O O10 0.095209 0.137513 0.323850
O O11 0.098750 0.076073 0.734335
O O12 0.000000 0.000000 0.500000
O O13 0.274576 0.018786 0.490058
O O14 0.340130 0.586584 0.463593
O O15 0.223304 0.925946 0.130598
O O16 0.500000 0.500000 0.500000
O O17 0.462797 0.872138 0.643187
O O18 0.500000 0.000000 0.500000
#
# Coordination Sequence:
#
# PCOD9106377 Si02
#       8
#     2   2   2   2   2   2   2   2
#     4  10  21  41  61  82 124 170 208 245 312 371
#     4  11  22  40  66  91 126 164 205 264 312 370
#     4  10  20  39  69  95 120 166 212 251 319 377
#     4  11  22  40  63  96 132 157 201 264 322 368
#     4   9  17  33  59  88 121 153 196 253 303 351
#     4   9  19  39  65  86 122 167 205 253 305 385
#     4   9  19  34  58  88 116 158 203 248 289 369
#     4  11  19  33  57  91 123 151 205 254 296 353
#
# _framework density 25.085321
#
# number of rings (size 3 to 8) (size 9 to 14) (size 15 to 20)
#    0.000    2.000    3.750    1.875    0.000    0.000 
#    2.250   10.625    0.000    0.000    0.000    0.000 
#    0.000    0.000    0.000    0.000    0.000    0.000 
#
# Total GULP energy -89321.078777 kJ/mol
# GULP energy per Si atom -5582.567424 kJ/mol
# Density = 2.502823 g / cm^3
# Si number density = 25.085321 Si / 1000 Ang^3
#
#
#
# Elastic Constant Matrix: (Units=GPa)
#
#
# Indices 1 2 3 4 5 6 
#
# 1 156.0125 34.5862 49.1624 4.8629 34.3760 14.7001
# 2 34.5862 137.2232 17.0584 -21.7640 -2.4401 35.4520
# 3 49.1624 17.0584 75.9051 -14.9750 14.2231 5.1503
# 4 4.8629 -21.7640 -14.9750 33.8485 2.3358 0.3165
# 5 34.3760 -2.4401 14.2231 2.3358 54.9682 -6.4250
# 6 14.7001 35.4520 5.1503 0.3165 -6.4250 50.6264
#
#
#
# Elastic Compliance Matrix: (Units=1/GPa)
#
#
# Indices 1 2 3 4 5 6 
#
# 1 0.010244 -0.002450 -0.006169 -0.005432 -0.004830 -0.001211
# 2 -0.002450 0.010814 0.001053 0.007795 0.000597 -0.006942
# 3 -0.006169 0.001053 0.019351 0.010251 -0.001677 -0.001192
# 4 -0.005432 0.007795 0.010251 0.040006 -0.001233 -0.005331
# 5 -0.004830 0.000597 -0.001677 -0.001233 0.022191 0.003979
# 6 -0.001211 -0.006942 -0.001192 -0.005331 0.003979 0.025625
#
#
# Mechanical properties :
#
#
# Convention : Reuss Voigt Hill
#
# Bulk Modulus (GPa) = 39.55913 63.41721 51.48817
# Shear Modulus (GPa) = 32.94074 45.77753 39.35913
#
# Velocity S-wave (km/s) = 3.62767 4.27649 3.96537
# Velocity P-wave (km/s) = 5.77501 7.05124 6.44479
#
# Compressibility (1/GPa) = 0.02527862
#
# Stress axis : x y z
#
# Youngs Moduli (GPa) = 97.61490 92.47083 51.67757
#
# Poissons Ratio (x) = 0.22653 0.31880
# Poissons Ratio (y) = 0.23913 -0.05443
# Poissons Ratio (z) = 0.60218 -0.09740
#
# Static dielectric constant tensor:
#      x y z
#    x 2.053660 -0.065700 -0.004750 
#    y -0.065700 2.020280 0.038180 
#    z -0.004750 0.038180 2.064070 
# 
# From -- ./inp_files/351833.got.cif
#   From: 2010.05.17/outbox.cif.g08.bks.cpg/sg2_176_cif.got.tgz:351833.got - 2010.06.03 11:33:40.
