data_PCOD9106726
_publ_section_title
;
Structure prediction by ZEFSAII (Michael W. Deem and Ramdas Pophale) SiO2 
 PCOD9106726
Probable space group: P -1
;
_chemical_formula_sum "Si O2"
_cell_formula_units_Z 16
_cell_length_a 19.892238
_cell_length_b 18.339549
_cell_length_c 8.396507
_cell_angle_alpha 127.458476
_cell_angle_beta 66.499403
_cell_angle_gamma 160.027344
_cell_volume 639.893867
_symmetry_space_group_name_H-M "P -1"
_symmetry_group_IT_number 2
_symmetry_cell_setting 'triclinic'
loop_
_space_group_symop_operation_xyz
x,y,z
-x,-y,-z
loop_
_atom_site_type_symbol
_atom_site_label
_atom_site_fract_x
_atom_site_fract_y
_atom_site_fract_z
Si Si1 0.837678 0.843421 0.674695
Si Si2 0.060299 0.613835 0.917373
Si Si3 0.676039 0.207153 0.268947
Si Si4 0.281870 0.626614 0.069212
Si Si5 0.410771 0.694622 0.537066
Si Si6 0.017354 0.179913 0.484366
Si Si7 0.591468 0.403898 0.896603
Si Si8 0.463438 0.467085 0.761199
O O1 0.838827 0.739074 0.482528
O O2 0.703246 0.697784 0.777953
O O3 0.710088 0.743554 0.515673
O O4 0.125687 0.221042 0.912710
O O5 0.875712 0.474258 0.853149
O O6 0.349320 0.001351 0.168081
O O7 0.000000 0.500000 0.000000
O O8 0.068109 0.535815 0.688733
O O9 0.672117 0.306942 0.461316
O O10 0.531364 0.970398 0.214356
O O11 0.500000 0.000000 0.000000
O O12 0.098455 0.364139 0.756410
O O13 0.368674 0.642749 0.108372
O O14 0.154061 0.356094 0.419898
O O15 0.518852 0.757768 0.383841
O O16 0.720324 0.796794 0.280732
O O17 0.467973 0.343903 0.019029
#
# Coordination Sequence:
#
# PCOD9106726 Si02
#       8
#     2   2   2   2   2   2   2   2
#     4  10  21  39  64  92 125 164 215 252 300 380
#     4  11  21  40  66  89 118 166 215 248 294 378
#     4  10  20  40  60  91 122 159 207 256 297 374
#     4  12  21  38  71  90 117 168 215 245 306 380
#     4  11  24  42  63  92 135 159 202 267 318 353
#     4  11  20  38  64  91 118 173 209 249 303 375
#     4  11  24  43  60  97 131 160 199 270 318 353
#     4  10  21  39  64  93 126 163 213 256 300 376
#
# _framework density 25.004145999999999
#
# number of rings (size 3 to 8) (size 9 to 14) (size 15 to 20)
#    0.000    1.250    7.500    0.750    1.750    3.500 
#    4.500    1.875    0.000    0.000    0.000    0.000 
#    0.000    0.000    0.000    0.000    0.000    0.000 
#
# Total GULP energy -89462.331947 kJ/mol
# GULP energy per Si atom -5591.395747 kJ/mol
# Density = 2.494724 g / cm^3
# Si number density = 25.004146 Si / 1000 Ang^3
#
#
#
# Elastic Constant Matrix: (Units=GPa)
#
#
# Indices 1 2 3 4 5 6 
#
# 1 109.6235 43.7739 14.2269 -1.0750 -21.1712 1.3181
# 2 43.7739 126.5977 12.8892 0.1993 -23.7139 3.7626
# 3 14.2269 12.8892 48.4216 -9.4516 -6.6506 -3.2392
# 4 -1.0750 0.1993 -9.4516 30.6722 5.7566 -17.6074
# 5 -21.1712 -23.7139 -6.6506 5.7566 32.7056 -2.0134
# 6 1.3181 3.7626 -3.2392 -17.6074 -2.0134 36.1036
#
#
#
# Elastic Compliance Matrix: (Units=1/GPa)
#
#
# Indices 1 2 3 4 5 6 
#
# 1 0.011529 -0.002728 -0.002361 -0.001842 0.005271 -0.000953
# 2 -0.002728 0.010165 -0.001906 -0.003158 0.005628 -0.002357
# 3 -0.002361 -0.001906 0.024934 0.012476 0.000496 0.008634
# 4 -0.001842 -0.003158 0.012476 0.053650 -0.008714 0.027194
# 5 0.005271 0.005628 0.000496 -0.008714 0.039532 -0.002780
# 6 -0.000953 -0.002357 0.008634 0.027194 -0.002780 0.041861
#
#
# Mechanical properties :
#
#
# Convention : Reuss Voigt Hill
#
# Bulk Modulus (GPa) = 30.63674 47.38030 39.00852
# Shear Modulus (GPa) = 24.20855 34.14648 29.17752
#
# Velocity S-wave (km/s) = 3.11494 3.69946 3.41971
# Velocity P-wave (km/s) = 5.02159 6.10230 5.58813
#
# Compressibility (1/GPa) = 0.03264055
#
# Stress axis : x y z
#
# Youngs Moduli (GPa) = 86.73820 98.37208 40.10625
#
# Poissons Ratio (x) = 0.26831 0.09468
# Poissons Ratio (y) = 0.23658 0.07643
# Poissons Ratio (z) = 0.20476 0.18747
#
# Static dielectric constant tensor:
#      x y z
#    x 2.028930 0.019390 0.006250 
#    y 0.019390 1.983560 -0.045820 
#    z 0.006250 -0.045820 2.021840 
# 
# From -- ./inp_files/348587.got.cif
#   From: 2010.05.17/outbox.cif.g08.bks.cpg/sg2_175_cif.got.tgz:348587.got - 2010.06.03 11:33:40.
