data_PCOD9106360
_publ_section_title
;
Structure prediction by ZEFSAII (Michael W. Deem and Ramdas Pophale) SiO2 
 PCOD9106360
Probable space group: P -1
;
_chemical_formula_sum "Si O2"
_cell_formula_units_Z 16
_cell_length_a 12.696346
_cell_length_b 13.134868
_cell_length_c 8.496596
_cell_angle_alpha 111.632793
_cell_angle_beta 129.564252
_cell_angle_gamma 41.503922
_cell_volume 707.385101
_symmetry_space_group_name_H-M "P -1"
_symmetry_group_IT_number 2
_symmetry_cell_setting 'triclinic'
loop_
_space_group_symop_operation_xyz
x,y,z
-x,-y,-z
loop_
_atom_site_type_symbol
_atom_site_label
_atom_site_fract_x
_atom_site_fract_y
_atom_site_fract_z
Si Si1 0.098660 0.764451 0.414551
Si Si2 0.658143 0.669347 0.105296
Si Si3 0.531756 0.164762 0.670303
Si Si4 0.945068 0.624216 0.144480
Si Si5 0.507795 0.460936 0.168436
Si Si6 0.306154 0.762182 0.346224
Si Si7 0.666329 0.065835 0.282898
Si Si8 0.606151 0.902181 0.764410
O O1 0.272964 0.698441 0.661464
O O2 0.136809 0.793560 0.294250
O O3 0.097124 0.632747 0.331541
O O4 0.891841 0.926564 0.374187
O O5 0.606708 0.698819 0.256299
O O6 0.854012 0.616061 0.204410
O O7 0.640818 0.555103 0.964642
O O8 0.476877 0.837563 0.945519
O O9 0.700334 0.147210 0.752540
O O10 0.394567 0.195470 0.419158
O O11 0.621602 0.005562 0.745456
O O12 0.771254 0.790781 0.986721
O O13 0.000000 0.500000 0.000000
O O14 0.445482 0.590215 0.306251
O O15 0.500000 0.500000 0.000000
O O16 0.376255 0.803402 0.574928
O O17 0.599535 0.999737 0.285139
#
# Coordination Sequence:
#
# PCOD9106360 Si02
#       8
#     2   2   2   2   2   2   2   2
#     4  12  25  43  70 104 133 171 238 276 329 406
#     4  11  22  43  69  94 138 176 224 269 346 390
#     4  10  20  39  69  92 128 182 220 272 328 404
#     4  11  25  42  69 100 134 179 227 280 330 403
#     4  12  26  45  68 100 136 179 218 277 349 410
#     4  11  23  41  68  94 135 179 220 268 340 397
#     4  10  22  42  71  98 128 181 227 279 323 398
#     4   9  21  42  67  96 136 178 227 266 345 391
#
# _framework density 22.618514000000001
#
# number of rings (size 3 to 8) (size 9 to 14) (size 15 to 20)
#    0.000    1.250    2.500    3.000    5.250    2.000 
#    0.000   16.875    0.000    0.000    0.000    0.000 
#    0.000    0.000    0.000    0.000    0.000    0.000 
#
# Total GULP energy -89346.450995 kJ/mol
# GULP energy per Si atom -5584.153187 kJ/mol
# Density = 2.256703 g / cm^3
# Si number density = 22.618514 Si / 1000 Ang^3
#
#
#
# Elastic Constant Matrix: (Units=GPa)
#
#
# Indices 1 2 3 4 5 6 
#
# 1 193.7727 36.5353 39.3610 4.9276 -1.7290 18.3603
# 2 36.5353 56.9302 18.6759 20.0768 -1.0139 2.3312
# 3 39.3610 18.6759 60.6191 25.0176 -3.5803 -3.8684
# 4 4.9276 20.0768 25.0176 35.9611 1.8640 0.3130
# 5 -1.7290 -1.0139 -3.5803 1.8640 32.1402 15.2622
# 6 18.3603 2.3312 -3.8684 0.3130 15.2622 41.2624
#
#
#
# Elastic Compliance Matrix: (Units=1/GPa)
#
#
# Indices 1 2 3 4 5 6 
#
# 1 0.007520 -0.004689 -0.005995 0.005731 0.001222 -0.004139
# 2 -0.004689 0.025240 0.001338 -0.014453 0.001342 0.000399
# 3 -0.005995 0.001338 0.028634 -0.019981 0.001808 0.004759
# 4 0.005731 -0.014453 -0.019981 0.049223 -0.004049 -0.002482
# 5 0.001222 0.001342 0.001808 -0.004049 0.038645 -0.014713
# 6 -0.004139 0.000399 0.004759 -0.002482 -0.014713 0.031961
#
#
# Mechanical properties :
#
#
# Convention : Reuss Voigt Hill
#
# Bulk Modulus (GPa) = 23.41888 55.60737 39.51312
# Shear Modulus (GPa) = 23.34824 36.32273 29.83549
#
# Velocity S-wave (km/s) = 3.21637 4.01170 3.63585
# Velocity P-wave (km/s) = 4.91627 6.78944 5.92732
#
# Compressibility (1/GPa) = 0.04270060
#
# Stress axis : x y z
#
# Youngs Moduli (GPa) = 132.98017 39.61959 34.92403
#
# Poissons Ratio (x) = 0.18578 0.20938
# Poissons Ratio (y) = 0.62355 -0.04672
# Poissons Ratio (z) = 0.79726 -0.05301
#
# Static dielectric constant tensor:
#      x y z
#    x 1.867740 0.030140 -0.003230 
#    y 0.030140 1.874380 0.040060 
#    z -0.003230 0.040060 1.845620 
# 
# From -- ./inp_files/262836.got.cif
#   From: 2010.05.17/outbox.cif.g08.bks.cpg/sg2_132_cif.got.tgz:262836.got - 2010.06.03 11:33:40.
