data_PCOD9106074
_publ_section_title
;
Structure prediction by ZEFSAII (Michael W. Deem and Ramdas Pophale) SiO2 
 PCOD9106074
Probable space group: P -1
;
_chemical_formula_sum "Si O2"
_cell_formula_units_Z 16
_cell_length_a 8.423487
_cell_length_b 6.784585
_cell_length_c 18.044342
_cell_angle_alpha 90.192104
_cell_angle_beta 77.952299
_cell_angle_gamma 47.402812
_cell_volume 727.265292
_symmetry_space_group_name_H-M "P -1"
_symmetry_group_IT_number 2
_symmetry_cell_setting 'triclinic'
loop_
_space_group_symop_operation_xyz
x,y,z
-x,-y,-z
loop_
_atom_site_type_symbol
_atom_site_label
_atom_site_fract_x
_atom_site_fract_y
_atom_site_fract_z
Si Si1 0.502575 0.593449 0.582329
Si Si2 0.955935 0.910128 0.115013
Si Si3 0.742704 0.429518 0.054876
Si Si4 0.286930 0.921700 0.158958
Si Si5 0.497387 0.262321 0.705988
Si Si6 0.934315 0.509591 0.171587
Si Si7 0.182381 0.311497 0.401806
Si Si8 0.750664 0.862752 0.450577
O O1 0.500000 0.500000 0.500000
O O2 0.499151 0.426895 0.643317
O O3 0.704655 0.575044 0.584112
O O4 0.287116 0.919387 0.597263
O O5 0.082074 0.956114 0.155809
O O6 0.887816 0.778397 0.167472
O O7 0.134163 0.687850 0.035346
O O8 0.766024 0.193580 0.090313
O O9 0.488292 0.719309 0.080747
O O10 0.877222 0.461830 0.096901
O O11 0.385219 0.777628 0.228303
O O12 0.184221 0.228022 0.168128
O O13 0.243789 0.424561 0.752798
O O14 0.638068 0.954122 0.665093
O O15 0.148680 0.198894 0.476898
O O16 0.931877 0.563685 0.396246
O O17 0.500000 0.000000 0.500000
#
# Coordination Sequence:
#
# PCOD9106074 Si02
#       8
#     2   2   2   2   2   2   2   2
#     4  11  23  42  67  92 119 162 214 268 318 375
#     4  10  20  39  67  92 127 168 209 264 307 360
#     4   9  20  39  64  96 125 163 216 260 306 365
#     4  10  23  39  58  93 131 165 211 258 309 385
#     4  11  25  43  61  90 129 170 208 256 321 382
#     4  10  23  40  61  90 132 168 209 254 313 378
#     4  10  22  41  66  91 123 157 205 263 322 380
#     4   9  20  42  65  93 120 149 202 266 316 377
#
# _framework density 22.000225
#
# number of rings (size 3 to 8) (size 9 to 14) (size 15 to 20)
#    0.000    2.000    1.250    0.750    0.000   10.000 
#    4.500    0.000    0.000    0.000    0.000    0.000 
#    0.000    0.000    0.000    0.000    0.000    0.000 
#
# Total GULP energy -89264.724588 kJ/mol
# GULP energy per Si atom -5579.045287 kJ/mol
# Density = 2.195015 g / cm^3
# Si number density = 22.000225 Si / 1000 Ang^3
#
#
#
# Elastic Constant Matrix: (Units=GPa)
#
#
# Indices 1 2 3 4 5 6 
#
# 1 43.6496 30.9275 17.2345 -1.3828 -7.0577 1.1655
# 2 30.9275 117.8642 9.5786 11.0549 -25.0866 -24.8305
# 3 17.2345 9.5786 62.0714 10.5031 -6.9875 -3.6763
# 4 -1.3828 11.0549 10.5031 39.4828 -0.3003 -8.5558
# 5 -7.0577 -25.0866 -6.9875 -0.3003 24.7381 3.9274
# 6 1.1655 -24.8305 -3.6763 -8.5558 3.9274 32.0148
#
#
#
# Elastic Compliance Matrix: (Units=1/GPa)
#
#
# Indices 1 2 3 4 5 6 
#
# 1 0.034730 -0.011396 -0.009587 0.004864 -0.002779 -0.009563
# 2 -0.011396 0.016581 0.003268 -0.003390 0.012669 0.011190
# 3 -0.009587 0.003268 0.020086 -0.005921 0.005719 0.002906
# 4 0.004864 -0.003390 -0.005921 0.029026 -0.004128 0.004777
# 5 -0.002779 0.012669 0.005719 -0.004128 0.053581 0.002907
# 6 -0.009563 0.011190 0.002906 0.004777 0.002907 0.041517
#
#
# Mechanical properties :
#
#
# Convention : Reuss Voigt Hill
#
# Bulk Modulus (GPa) = 27.80360 37.67403 32.73882
# Shear Modulus (GPa) = 20.58132 30.30347 25.44239
#
# Velocity S-wave (km/s) = 3.06192 3.71538 3.40437
# Velocity P-wave (km/s) = 5.01655 5.96381 5.51057
#
# Compressibility (1/GPa) = 0.03596657
#
# Stress axis : x y z
#
# Youngs Moduli (GPa) = 28.79379 60.31001 49.78662
#
# Poissons Ratio (x) = 0.68732 0.47728
# Poissons Ratio (y) = 0.32815 -0.16271
# Poissons Ratio (z) = 0.27603 -0.19710
#
# Static dielectric constant tensor:
#      x y z
#    x 1.840650 -0.004960 0.028020 
#    y -0.004960 1.865770 0.019920 
#    z 0.028020 0.019920 1.819720 
# 
# From -- ./inp_files/553525.got.cif
#   From: 2010.05.17/outbox.cif.g08.bks.cpg/sg2_277_cif.got.tgz:553525.got - 2010.06.03 11:33:40.
