data_PCOD9106285
_publ_section_title
;
Structure prediction by ZEFSAII (Michael W. Deem and Ramdas Pophale) SiO2 
 PCOD9106285
Probable space group: P -1
;
_chemical_formula_sum "Si O2"
_cell_formula_units_Z 16
_cell_length_a 19.480040
_cell_length_b 6.116695
_cell_length_c 5.155502
_cell_angle_alpha 82.074524
_cell_angle_beta 91.328089
_cell_angle_gamma 94.561637
_cell_volume 606.454642
_symmetry_space_group_name_H-M "P -1"
_symmetry_group_IT_number 2
_symmetry_cell_setting 'triclinic'
loop_
_space_group_symop_operation_xyz
x,y,z
-x,-y,-z
loop_
_atom_site_type_symbol
_atom_site_label
_atom_site_fract_x
_atom_site_fract_y
_atom_site_fract_z
Si Si1 0.916541 0.062600 0.213918
Si Si2 0.960725 0.666661 0.647163
Si Si3 0.271501 0.948678 0.266711
Si Si4 0.484467 0.853764 0.773697
Si Si5 0.414839 0.514503 0.528210
Si Si6 0.165716 0.275248 0.105136
Si Si7 0.379441 0.323759 0.062265
Si Si8 0.217716 0.701451 0.780052
O O1 0.938363 0.873639 0.442213
O O2 0.857264 0.208408 0.292295
O O3 0.883021 0.920659 0.998623
O O4 0.983810 0.231240 0.153977
O O5 0.887562 0.577409 0.775235
O O6 0.000000 0.500000 0.500000
O O7 0.220069 0.144441 0.289205
O O8 0.341845 0.094050 0.193703
O O9 0.263990 0.777489 0.528317
O O10 0.246645 0.824789 0.021172
O O11 0.415193 0.718598 0.698988
O O12 0.541010 0.688400 0.872635
O O13 0.500000 0.000000 0.500000
O O14 0.500000 0.000000 0.000000
O O15 0.500000 0.500000 0.500000
O O16 0.371552 0.511291 0.256892
O O17 0.376478 0.334359 0.748372
O O18 0.207203 0.439818 0.881381
#
# Coordination Sequence:
#
# PCOD9106285 Si02
#       8
#     2   2   2   2   2   2   2   2
#     4  10  23  41  66 100 138 175 225 294 357 419
#     4  11  23  39  70 103 135 174 231 288 363 422
#     4  11  26  48  69 100 138 190 238 289 339 414
#     4  11  21  37  63 100 137 165 210 278 339 390
#     4  10  20  39  68  96 128 181 214 267 338 406
#     4  11  25  45  71  94 140 183 231 288 359 411
#     4  11  22  43  67  92 138 177 228 271 336 410
#     4  11  25  44  74  96 139 182 239 290 349 409
#
# _framework density 26.382845
#
# number of rings (size 3 to 8) (size 9 to 14) (size 15 to 20)
#    0.000    1.250    1.250    5.625    3.500    3.000 
#    6.750    0.000    0.000    0.000    0.000    0.000 
#    0.000    0.000    0.000    0.000    0.000    0.000 
#
# Total GULP energy -89300.101615 kJ/mol
# GULP energy per Si atom -5581.256351 kJ/mol
# Density = 2.632280 g / cm^3
# Si number density = 26.382845 Si / 1000 Ang^3
#
#
#
# Elastic Constant Matrix: (Units=GPa)
#
#
# Indices 1 2 3 4 5 6 
#
# 1 90.1706 23.7038 32.5715 -5.6333 -7.6763 9.5144
# 2 23.7038 80.5094 22.7363 4.1883 -8.1129 18.6537
# 3 32.5715 22.7363 146.2328 -6.2686 -23.6245 14.0506
# 4 -5.6333 4.1883 -6.2686 53.4668 10.4656 2.0628
# 5 -7.6763 -8.1129 -23.6245 10.4656 35.2665 -10.1216
# 6 9.5144 18.6537 14.0506 2.0628 -10.1216 41.5837
#
#
#
# Elastic Compliance Matrix: (Units=1/GPa)
#
#
# Indices 1 2 3 4 5 6 
#
# 1 0.012878 -0.003020 -0.002265 0.001379 -0.000080 -0.000915
# 2 -0.003020 0.015039 -0.001052 -0.001615 0.001037 -0.005368
# 3 -0.002265 -0.001052 0.008323 -0.000067 0.004664 -0.000684
# 4 0.001379 -0.001615 -0.000067 0.020386 -0.006808 -0.002237
# 5 -0.000080 0.001037 0.004664 -0.006808 0.035734 0.007013
# 6 -0.000915 -0.005368 -0.000684 -0.002237 0.007013 0.028714
#
#
# Mechanical properties :
#
#
# Convention : Reuss Voigt Hill
#
# Bulk Modulus (GPa) = 42.43244 52.77067 47.60155
# Shear Modulus (GPa) = 35.31023 41.92346 38.61685
#
# Velocity S-wave (km/s) = 3.66235 3.99060 3.83000
# Velocity P-wave (km/s) = 5.83113 6.42484 6.13517
#
# Compressibility (1/GPa) = 0.02356688
#
# Stress axis : x y z
#
# Youngs Moduli (GPa) = 77.65269 66.49302 120.15329
#
# Poissons Ratio (x) = 0.20080 0.27213
# Poissons Ratio (y) = 0.23450 0.12636
# Poissons Ratio (z) = 0.17587 0.06993
#
# Static dielectric constant tensor:
#      x y z
#    x 2.178690 -0.133340 -0.233230 
#    y -0.133340 2.331340 0.120960 
#    z -0.233230 0.120960 2.542140 
# 
# From -- ./inp_files/114560.got.cif
#   From: 2010.05.17/outbox.cif.g08.bks.cpg/sg2_58_cif.got.tgz:114560.got - 2010.06.03 11:33:40.
