data_PCOD9106458
_publ_section_title
;
Structure prediction by ZEFSAII (Michael W. Deem and Ramdas Pophale) SiO2 
 PCOD9106458
Probable space group: P -1
;
_chemical_formula_sum "Si O2"
_cell_formula_units_Z 12
_cell_length_a 16.626276
_cell_length_b 9.634036
_cell_length_c 15.624850
_cell_angle_alpha 37.196281
_cell_angle_beta 152.378536
_cell_angle_gamma 148.812569
_cell_volume 593.061695
_symmetry_space_group_name_H-M "P -1"
_symmetry_group_IT_number 2
_symmetry_cell_setting 'triclinic'
loop_
_space_group_symop_operation_xyz
x,y,z
-x,-y,-z
loop_
_atom_site_type_symbol
_atom_site_label
_atom_site_fract_x
_atom_site_fract_y
_atom_site_fract_z
Si Si1 0.636431 0.806492 0.945267
Si Si2 0.263635 0.789839 0.857355
Si Si3 0.950502 0.795686 0.129452
Si Si4 0.916493 0.250839 0.109449
Si Si5 0.910535 0.116977 0.517872
Si Si6 0.739693 0.270477 0.442353
O O1 0.499592 0.843008 0.728478
O O2 0.500000 0.500000 0.000000
O O3 0.844462 0.859002 0.074776
O O4 0.702047 0.013084 0.983583
O O5 0.214427 0.510959 0.904404
O O6 0.130234 0.701458 0.861921
O O7 0.185190 0.914698 0.650659
O O8 0.500000 0.000000 0.000000
O O9 0.155366 0.814780 0.346039
O O10 0.000000 0.000000 0.000000
O O11 0.062565 0.130395 0.313253
O O12 0.000000 0.500000 0.000000
O O13 0.785418 0.175606 0.441639
O O14 0.131969 0.401505 0.590511
#
# Coordination Sequence:
#
# PCOD9106458 Si02
#       6
#     2   2   2   2   2   2
#     4  12  21  41  73  90 119 176 226 250 305 399
#     4  11  24  41  63  95 127 172 216 256 317 390
#     4  11  24  43  64  94 136 162 208 278 318 367
#     4  12  24  41  64  98 135 165 203 273 336 363
#     4  10  20  41  65  92 131 167 215 265 312 382
#     4  10  20  39  70  95 117 171 227 257 304 383
#
# _framework density 20.233982000000001
#
# number of rings (size 3 to 8) (size 9 to 14) (size 15 to 20)
#    0.000    1.000    3.333    5.500    0.000    0.667 
#    3.000    1.667    0.000    0.000    0.000    0.000 
#    0.000    0.000    0.000    0.000    0.000    0.000 
#
# Total GULP energy -67044.656240 kJ/mol
# GULP energy per Si atom -5587.054687 kJ/mol
# Density = 2.018793 g / cm^3
# Si number density = 20.233982 Si / 1000 Ang^3
#
#
#
# Elastic Constant Matrix: (Units=GPa)
#
#
# Indices 1 2 3 4 5 6 
#
# 1 80.1207 14.7022 24.7393 -11.6021 -25.1824 -3.9541
# 2 14.7022 44.1446 50.5035 -10.3521 -20.2090 6.6790
# 3 24.7393 50.5035 150.0719 -10.3064 -27.0884 3.8092
# 4 -11.6021 -10.3521 -10.3064 36.3925 1.8522 -13.3968
# 5 -25.1824 -20.2090 -27.0884 1.8522 34.1311 -4.0381
# 6 -3.9541 6.6790 3.8092 -13.3968 -4.0381 28.0683
#
#
#
# Elastic Compliance Matrix: (Units=1/GPa)
#
#
# Indices 1 2 3 4 5 6 
#
# 1 0.018746 0.002313 -0.000748 0.008808 0.015144 0.008575
# 2 0.002313 0.046797 -0.012010 0.008866 0.019143 -0.002194
# 3 -0.000748 -0.012010 0.011012 -0.000085 0.001247 0.001397
# 4 0.008808 0.008866 -0.000085 0.039419 0.011868 0.019665
# 5 0.015144 0.019143 0.001247 0.011868 0.053425 0.010760
# 6 0.008575 -0.002194 0.001397 0.019665 0.010760 0.048102
#
#
# Mechanical properties :
#
#
# Convention : Reuss Voigt Hill
#
# Bulk Modulus (GPa) = 17.96438 50.46970 34.21704
# Shear Modulus (GPa) = 19.45944 32.01121 25.73533
#
# Velocity S-wave (km/s) = 3.10453 3.98182 3.57022
# Velocity P-wave (km/s) = 4.66352 6.79242 5.82604
#
# Compressibility (1/GPa) = 0.05566571
#
# Stress axis : x y z
#
# Youngs Moduli (GPa) = 53.34464 21.36904 90.80844
#
# Poissons Ratio (x) = -0.04943 0.06793
# Poissons Ratio (y) = -0.12340 1.09060
# Poissons Ratio (z) = 0.03990 0.25664
#
# Static dielectric constant tensor:
#      x y z
#    x 1.767080 -0.012500 -0.015160 
#    y -0.012500 1.690960 -0.007430 
#    z -0.015160 -0.007430 1.752440 
# 
# From -- ./inp_files/148099.got.cif
#   From: 2010.05.17/outbox.cif.g08.bks.cpg/sg2_75_cif.got.tgz:148099.got - 2010.06.03 11:33:40.
