data_PCOD9106123
_publ_section_title
;
Structure prediction by ZEFSAII (Michael W. Deem and Ramdas Pophale) SiO2 
 PCOD9106123
Probable space group: P -1
;
_chemical_formula_sum "Si O2"
_cell_formula_units_Z 16
_cell_length_a 23.350690
_cell_length_b 17.290466
_cell_length_c 14.054573
_cell_angle_alpha 21.413650
_cell_angle_beta 30.482968
_cell_angle_gamma 20.032637
_cell_volume 705.920434
_symmetry_space_group_name_H-M "P -1"
_symmetry_group_IT_number 2
_symmetry_cell_setting 'triclinic'
loop_
_space_group_symop_operation_xyz
x,y,z
-x,-y,-z
loop_
_atom_site_type_symbol
_atom_site_label
_atom_site_fract_x
_atom_site_fract_y
_atom_site_fract_z
Si Si1 0.620027 0.644450 0.710473
Si Si2 0.904928 0.901037 0.970844
Si Si3 0.356660 0.843399 0.259777
Si Si4 0.482669 0.122331 0.747908
Si Si5 0.537732 0.486505 0.829156
Si Si6 0.005185 0.930085 0.184416
Si Si7 0.180740 0.771935 0.460245
Si Si8 0.834058 0.790975 0.698629
O O1 0.541336 0.634011 0.745475
O O2 0.810368 0.434183 0.654588
O O3 0.500000 0.000000 0.500000
O O4 0.611323 0.475741 0.997873
O O5 0.709689 0.109132 0.024234
O O6 0.984878 0.875373 0.983798
O O7 0.866614 0.156109 0.665763
O O8 0.018363 0.578834 0.118889
O O9 0.500000 0.500000 0.500000
O O10 0.270829 0.854732 0.278430
O O11 0.207381 0.087300 0.272161
O O12 0.452888 0.920102 0.998006
O O13 0.473230 0.329486 0.449877
O O14 0.310591 0.412180 0.718996
O O15 0.660155 0.917696 0.774732
O O16 0.874647 0.944762 0.400886
O O17 0.000000 0.000000 0.000000
O O18 0.000000 0.000000 0.500000
#
# Coordination Sequence:
#
# PCOD9106123 Si02
#       8
#     2   2   2   2   2   2   2   2
#     4  10  20  39  67  94 133 173 230 284 343 409
#     4  10  24  41  66  99 141 177 233 287 352 409
#     4  12  27  45  72 102 141 187 243 288 355 427
#     4  11  25  42  67  98 137 185 232 284 356 414
#     4   9  21  41  62  95 133 177 227 287 342 410
#     4  11  25  43  67 102 140 181 234 288 356 421
#     4  11  24  44  70  99 139 179 230 297 348 417
#     4  12  25  42  70  99 142 186 234 289 354 422
#
# _framework density 22.665443
#
# number of rings (size 3 to 8) (size 9 to 14) (size 15 to 20)
#    0.000    1.250    1.250    3.375    3.500    8.500 
#    0.000    0.000    0.000    0.000    0.000    0.000 
#    0.000    0.000    0.000    0.000    0.000    0.000 
#
# Total GULP energy -89149.970327 kJ/mol
# GULP energy per Si atom -5571.873145 kJ/mol
# Density = 2.261386 g / cm^3
# Si number density = 22.665443 Si / 1000 Ang^3
#
#
#
# Elastic Constant Matrix: (Units=GPa)
#
#
# Indices 1 2 3 4 5 6 
#
# 1 96.3632 19.3419 35.2071 2.1818 4.9729 8.4335
# 2 19.3419 109.8030 31.8689 -7.8017 -4.6260 1.8550
# 3 35.2071 31.8689 102.5408 11.9878 1.4389 0.2918
# 4 2.1818 -7.8017 11.9878 48.5764 8.1271 -11.5955
# 5 4.9729 -4.6260 1.4389 8.1271 24.7029 7.0159
# 6 8.4335 1.8550 0.2918 -11.5955 7.0159 38.8335
#
#
#
# Elastic Compliance Matrix: (Units=1/GPa)
#
#
# Indices 1 2 3 4 5 6 
#
# 1 0.012294 -0.001087 -0.003850 -0.000016 -0.001805 -0.002268
# 2 -0.001087 0.010441 -0.003161 0.002283 0.001562 0.000161
# 3 -0.003850 -0.003161 0.012469 -0.003611 0.000735 -0.000318
# 4 -0.000016 0.002283 -0.003611 0.025902 -0.010599 0.009571
# 5 -0.001805 0.001562 0.000735 -0.010599 0.047846 -0.011497
# 6 -0.002268 0.000161 -0.000318 0.009571 -0.011497 0.031173
#
#
# Mechanical properties :
#
#
# Convention : Reuss Voigt Hill
#
# Bulk Modulus (GPa) = 52.60691 53.50474 53.05582
# Shear Modulus (GPa) = 30.73924 37.24183 33.99053
#
# Velocity S-wave (km/s) = 3.68668 4.05793 3.87675
# Velocity P-wave (km/s) = 6.43294 6.75376 6.59530
#
# Compressibility (1/GPa) = 0.01900891
#
# Stress axis : x y z
#
# Youngs Moduli (GPa) = 81.33991 95.77179 80.19808
#
# Poissons Ratio (x) = 0.10412 0.30873
# Poissons Ratio (y) = 0.08843 0.25352
# Poissons Ratio (z) = 0.31312 0.30275
#
# Static dielectric constant tensor:
#      x y z
#    x 1.875920 0.074330 0.025270 
#    y 0.074330 2.028620 0.070260 
#    z 0.025270 0.070260 1.899120 
# 
# From -- ./inp_files/106685.got.cif
#   From: 2010.05.17/outbox.cif.g08.bks.cpg/sg2_54_cif.got.tgz:106685.got - 2010.06.03 11:33:40.
