data_PCOD9106802
_publ_section_title
;
Structure prediction by ZEFSAII (Michael W. Deem and Ramdas Pophale) SiO2 
 PCOD9106802
Probable space group: P -1
;
_chemical_formula_sum "Si O2"
_cell_formula_units_Z 15
_cell_length_a 28.761541
_cell_length_b 11.625933
_cell_length_c 26.751624
_cell_angle_alpha 30.037797
_cell_angle_beta 170.201730
_cell_angle_gamma 149.424815
_cell_volume 758.736001
_symmetry_space_group_name_H-M "P -1"
_symmetry_group_IT_number 2
_symmetry_cell_setting 'triclinic'
loop_
_space_group_symop_operation_xyz
x,y,z
-x,-y,-z
loop_
_atom_site_type_symbol
_atom_site_label
_atom_site_fract_x
_atom_site_fract_y
_atom_site_fract_z
Si Si1 0.242372 0.862555 0.974539
Si Si2 0.367447 0.984458 0.172749
Si Si3 0.662739 0.591387 0.464934
Si Si4 0.191788 0.395118 0.701687
Si Si5 0.498549 0.827482 0.475546
Si Si6 0.000000 0.000000 0.000000
Si Si7 0.737290 0.697530 0.917936
Si Si8 0.926800 0.301779 0.628501
O O1 0.970364 0.691860 0.742863
O O2 0.180330 0.121242 0.797912
O O3 0.491848 0.786462 0.234759
O O4 0.322243 0.861755 0.118010
O O5 0.631315 0.171710 0.377479
O O6 0.424776 0.821842 0.341432
O O7 0.104059 0.119623 0.856411
O O8 0.638785 0.382995 0.558344
O O9 0.500101 0.487851 0.283100
O O10 0.000000 0.500000 0.500000
O O11 0.108150 0.486496 0.524783
O O12 0.500000 0.500000 0.000000
O O13 0.819996 0.864834 0.814236
O O14 0.398195 0.064715 0.302582
O O15 0.929320 0.774888 0.045744
O O16 0.906999 0.630532 0.170551
#
# Coordination Sequence:
#
# PCOD9106802 Si02
#       8
#     2   2   2   2   2   1   2   2
#     4  12  25  41  60  95 129 165 205 253 328 378
#     4  11  22  39  64  94 127 156 214 263 308 369
#     4  11  26  39  61  90 137 170 197 255 313 381
#     4  12  22  42  71  92 118 163 214 263 313 375
#     4  10  23  37  64  92 122 173 215 256 299 367
#     4  10  16  34  60  86 118 154 216 246 292 350
#     4  10  23  38  65  92 125 167 220 252 303 365
#     4  11  21  40  67  98 116 157 216 279 297 353
#
# _framework density 19.769722999999999
#
# number of rings (size 3 to 8) (size 9 to 14) (size 15 to 20)
#    0.000    1.067    4.000    3.200    7.467    1.067 
#    0.000    1.333    0.000    0.000    0.000    0.000 
#    0.000    0.000    0.000    0.000    0.000    0.000 
#
# Total GULP energy -83620.861238 kJ/mol
# GULP energy per Si atom -5574.724083 kJ/mol
# Density = 1.972473 g / cm^3
# Si number density = 19.769723 Si / 1000 Ang^3
#
#
#
# Elastic Constant Matrix: (Units=GPa)
#
#
# Indices 1 2 3 4 5 6 
#
# 1 74.2149 10.4296 15.2730 -3.0135 -15.9454 -10.9182
# 2 10.4296 74.2955 32.7636 3.8159 -22.0349 6.4748
# 3 15.2730 32.7636 85.5770 -7.9808 -24.3866 10.6842
# 4 -3.0135 3.8159 -7.9808 37.3416 3.4914 3.2186
# 5 -15.9454 -22.0349 -24.3866 3.4914 53.2404 -4.9582
# 6 -10.9182 6.4748 10.6842 3.2186 -4.9582 28.5655
#
#
#
# Elastic Compliance Matrix: (Units=1/GPa)
#
#
# Indices 1 2 3 4 5 6 
#
# 1 0.016138 -0.000613 -0.002466 -0.000244 0.004210 0.007988
# 2 -0.000613 0.017626 -0.005484 -0.003381 0.004730 -0.000976
# 3 -0.002466 -0.005484 0.016353 0.003996 0.003696 -0.005625
# 4 -0.000244 -0.003381 0.003996 0.028515 -0.001919 -0.004368
# 5 0.004210 0.004730 0.003696 -0.001919 0.024152 0.003563
# 6 0.007988 -0.000976 -0.005625 -0.004368 0.003563 0.041496
#
#
# Mechanical properties :
#
#
# Convention : Reuss Voigt Hill
#
# Bulk Modulus (GPa) = 30.31131 39.00219 34.65675
# Shear Modulus (GPa) = 29.00179 35.53758 32.26968
#
# Velocity S-wave (km/s) = 3.83427 4.24438 4.04453
# Velocity P-wave (km/s) = 5.91335 6.61746 6.27529
#
# Compressibility (1/GPa) = 0.03299099
#
# Stress axis : x y z
#
# Youngs Moduli (GPa) = 61.96681 56.73458 61.14953
#
# Poissons Ratio (x) = 0.03478 0.15078
# Poissons Ratio (y) = 0.03799 0.33536
# Poissons Ratio (z) = 0.15279 0.31115
#
# Static dielectric constant tensor:
#      x y z
#    x 1.707480 -0.015590 0.035520 
#    y -0.015590 1.667580 -0.012700 
#    z 0.035520 -0.012700 1.733820 
# 
# From -- ./inp_files/70865.got.cif
#   From: 2010.05.17/outbox.cif.g08.bks.cpg/sg2_36_cif.got.tgz:70865.got - 2010.06.03 11:33:40.
