data_PCOD9106462
_publ_section_title
;
Structure prediction by ZEFSAII (Michael W. Deem and Ramdas Pophale) SiO2 
 PCOD9106462
Probable space group: P -1
;
_chemical_formula_sum "Si O2"
_cell_formula_units_Z 14
_cell_length_a 9.471508
_cell_length_b 7.875266
_cell_length_c 18.096171
_cell_angle_alpha 97.304562
_cell_angle_beta 27.166054
_cell_angle_gamma 103.287673
_cell_volume 590.627353
_symmetry_space_group_name_H-M "P -1"
_symmetry_group_IT_number 2
_symmetry_cell_setting 'triclinic'
loop_
_space_group_symop_operation_xyz
x,y,z
-x,-y,-z
loop_
_atom_site_type_symbol
_atom_site_label
_atom_site_fract_x
_atom_site_fract_y
_atom_site_fract_z
Si Si1 0.656700 0.017976 0.688185
Si Si2 0.783920 0.372540 0.318982
Si Si3 0.175433 0.831924 0.022541
Si Si4 0.669705 0.007417 0.310569
Si Si5 0.367922 0.521482 0.981306
Si Si6 0.665666 0.402151 0.527199
Si Si7 0.513551 0.624486 0.235276
O O1 0.419457 0.947221 0.727450
O O2 0.642605 0.221227 0.711582
O O3 0.486759 0.917296 0.833623
O O4 0.000000 0.000000 0.500000
O O5 0.913155 0.429766 0.345060
O O6 0.590806 0.506795 0.385719
O O7 0.603289 0.165505 0.398481
O O8 0.036597 0.371581 0.137260
O O9 0.274717 0.707150 0.029655
O O10 0.023317 0.976183 0.141053
O O11 0.875467 0.715872 0.104679
O O12 0.450220 0.809816 0.418403
O O13 0.488988 0.495891 0.841351
O O14 0.500000 0.500000 0.000000
O O15 0.684307 0.469737 0.606300
#
# Coordination Sequence:
#
# PCOD9106462 Si02
#       7
#     2   2   2   2   2   2   2
#     4  10  21  38  61 100 131 162 217 277 326 384
#     4  11  20  40  65  97 131 167 216 268 318 381
#     4  10  20  41  67  91 126 173 228 256 314 408
#     4  10  20  39  70  95 123 177 222 258 319 393
#     4  12  25  40  63  98 132 169 218 278 325 378
#     4   9  21  38  65  98 123 163 223 265 305 385
#     4  10  21  44  67  91 125 178 223 253 324 398
#
# _framework density 23.703609
#
# number of rings (size 3 to 8) (size 9 to 14) (size 15 to 20)
#    0.000    2.000    2.857    4.286    2.000    2.286 
#    5.143    5.714    0.000    0.000    0.000    0.000 
#    0.000    0.000    0.000    0.000    0.000    0.000 
#
# Total GULP energy -77937.550170 kJ/mol
# GULP energy per Si atom -5566.967869 kJ/mol
# Density = 2.364966 g / cm^3
# Si number density = 23.703609 Si / 1000 Ang^3
#
#
#
# Elastic Constant Matrix: (Units=GPa)
#
#
# Indices 1 2 3 4 5 6 
#
# 1 62.1071 -31.7357 -19.8230 -51.5760 37.7536 -52.2341
# 2 -31.7357 -48.1610 -75.8821 -84.0649 6.3651 -70.5829
# 3 -19.8230 -75.8821 3.2965 -72.7232 37.1840 -48.9703
# 4 -51.5760 -84.0649 -72.7232 -36.8177 7.7429 -23.3587
# 5 37.7536 6.3651 37.1840 7.7429 35.9753 7.5719
# 6 -52.2341 -70.5829 -48.9703 -23.3587 7.5719 26.0998
#
#
#
# Elastic Compliance Matrix: (Units=1/GPa)
#
#
# Indices 1 2 3 4 5 6 
#
# 1 0.020390 -0.012293 -0.001040 -0.005824 -0.018082 0.005644
# 2 -0.012293 0.022501 -0.010090 -0.010713 0.021331 0.001538
# 3 -0.001040 -0.010090 0.015143 -0.005808 -0.010895 -0.002993
# 4 -0.005824 -0.010713 -0.005808 0.034571 0.011612 -0.023954
# 5 -0.018082 0.021331 -0.010895 0.011612 0.052561 -0.003801
# 6 0.005644 0.001538 -0.002993 -0.023954 -0.003801 0.027818
#
#
# Mechanical properties :
#
#
# Convention : Reuss Voigt Hill
#
# Bulk Modulus (GPa) = 89.38999 -26.40434 31.49282
# Shear Modulus (GPa) = 22.36539 14.69703 18.53121
#
# Velocity S-wave (km/s) = 3.07505 2.49275 2.79908
# Velocity P-wave (km/s) = 7.09939 1.69661 4.87457
#
# Compressibility (1/GPa) = 0.01118694
#
# Stress axis : x y z
#
# Youngs Moduli (GPa) = 49.04376 44.44285 66.03660
#
# Poissons Ratio (x) = 0.54635 0.06866
# Poissons Ratio (y) = 0.60291 0.66634
# Poissons Ratio (z) = 0.05100 0.44845
#
# Static dielectric constant tensor:
#      x y z
#    x 1.951950 0.076090 0.010480 
#    y 0.076090 1.930490 0.021590 
#    z 0.010480 0.021590 2.110170 
# 
# From -- ./inp_files/495650.got.cif
#   From: 2010.05.17/outbox.cif.g08.bks.cpg/sg2_248_cif.got.tgz:495650.got - 2010.06.03 11:33:40.
