data_PCOD9106393
_publ_section_title
;
Structure prediction by ZEFSAII (Michael W. Deem and Ramdas Pophale) SiO2 
 PCOD9106393
Probable space group: P -1
;
_chemical_formula_sum "Si O2"
_cell_formula_units_Z 12
_cell_length_a 17.320027
_cell_length_b 6.950664
_cell_length_c 11.607911
_cell_angle_alpha 47.163460
_cell_angle_beta 150.763091
_cell_angle_gamma 135.739634
_cell_volume 470.119683
_symmetry_space_group_name_H-M "P -1"
_symmetry_group_IT_number 2
_symmetry_cell_setting 'triclinic'
loop_
_space_group_symop_operation_xyz
x,y,z
-x,-y,-z
loop_
_atom_site_type_symbol
_atom_site_label
_atom_site_fract_x
_atom_site_fract_y
_atom_site_fract_z
Si Si1 0.363091 0.146735 0.781776
Si Si2 0.644420 0.937593 0.564395
Si Si3 0.843110 0.856440 0.272655
Si Si4 0.847091 0.254036 0.501492
Si Si5 0.941258 0.114096 0.057017
Si Si6 0.317235 0.513323 0.369352
O O1 0.319351 0.195671 0.835545
O O2 0.388123 0.405023 0.621349
O O3 0.200274 0.915448 0.608743
O O4 0.500000 0.000000 0.000000
O O5 0.451240 0.821805 0.398695
O O6 0.670397 0.659196 0.659895
O O7 0.690459 0.137117 0.432918
O O8 0.789119 0.090985 0.781974
O O9 0.861892 0.567438 0.375344
O O10 0.862435 0.048840 0.108244
O O11 0.000000 0.000000 0.500000
O O12 0.993232 0.146871 0.784314
O O13 0.114237 0.383425 0.173148
#
# Coordination Sequence:
#
# PCOD9106393 Si02
#       6
#     2   2   2   2   2   2
#     4  10  23  41  64  95 134 171 222 276 330 393
#     4   9  19  38  66  95 130 179 215 265 332 394
#     4  12  23  41  66  97 134 175 219 278 334 391
#     4  10  22  40  67  94 131 178 216 270 335 390
#     4  10  20  39  69  97 132 174 217 271 332 395
#     4   9  18  37  66  92 129 172 219 267 323 391
#
# _framework density 25.525414000000001
#
# number of rings (size 3 to 8) (size 9 to 14) (size 15 to 20)
#    0.000    2.333    3.333    2.500    2.333    0.667 
#    0.000    3.333   11.000    0.000    0.000    0.000 
#    0.000    0.000    0.000    0.000    0.000    0.000 
#
# Total GULP energy -67018.717857 kJ/mol
# GULP energy per Si atom -5584.893155 kJ/mol
# Density = 2.546732 g / cm^3
# Si number density = 25.525414 Si / 1000 Ang^3
#
#
#
# Elastic Constant Matrix: (Units=GPa)
#
#
# Indices 1 2 3 4 5 6 
#
# 1 146.8917 29.8406 46.9116 2.5875 5.0286 36.3921
# 2 29.8406 116.1411 32.1729 21.5392 -4.7877 36.2991
# 3 46.9116 32.1729 112.8985 12.9628 16.6405 26.0705
# 4 2.5875 21.5392 12.9628 25.1374 -9.9951 5.5044
# 5 5.0286 -4.7877 16.6405 -9.9951 53.1971 4.7631
# 6 36.3921 36.2991 26.0705 5.5044 4.7631 39.6218
#
#
#
# Elastic Compliance Matrix: (Units=1/GPa)
#
#
# Indices 1 2 3 4 5 6 
#
# 1 0.009402 0.000341 -0.002651 0.002205 0.001069 -0.007639
# 2 0.000341 0.013987 -0.000533 -0.008894 0.000764 -0.011633
# 3 -0.002651 -0.000533 0.012428 -0.006683 -0.004603 -0.003773
# 4 0.002205 -0.008894 -0.006683 0.054743 0.011227 0.001566
# 5 0.001069 0.000764 -0.004603 0.011227 0.022577 -0.002927
# 6 -0.007639 -0.011633 -0.003773 0.001566 -0.002927 0.045529
#
#
# Mechanical properties :
#
#
# Convention : Reuss Voigt Hill
#
# Bulk Modulus (GPa) = 33.18673 65.97571 49.58122
# Shear Modulus (GPa) = 28.67064 41.39168 35.03116
#
# Velocity S-wave (km/s) = 3.35508 4.03126 3.70862
# Velocity P-wave (km/s) = 5.29513 6.89719 6.14857
#
# Compressibility (1/GPa) = 0.03013252
#
# Stress axis : x y z
#
# Youngs Moduli (GPa) = 106.35981 71.49527 80.46496
#
# Poissons Ratio (x) = -0.02440 0.21329
# Poissons Ratio (y) = -0.03631 0.04287
# Poissons Ratio (z) = 0.28193 0.03809
#
# Static dielectric constant tensor:
#      x y z
#    x 2.049040 -0.039610 0.117510 
#    y -0.039610 1.989430 0.028530 
#    z 0.117510 0.028530 2.021720 
# 
# From -- ./inp_files/238576.got.cif
#   From: 2010.05.17/outbox.cif.g08.bks.cpg/sg2_120_cif.got.tgz:238576.got - 2010.06.03 11:33:40.
