data_PCOD9106941
_publ_section_title
;
Structure prediction by ZEFSAII (Michael W. Deem and Ramdas Pophale) SiO2 
 PCOD9106941
Probable space group: P -1
;
_chemical_formula_sum "Si O2"
_cell_formula_units_Z 15
_cell_length_a 14.976808
_cell_length_b 8.120030
_cell_length_c 14.088332
_cell_angle_alpha 84.071211
_cell_angle_beta 29.659710
_cell_angle_gamma 64.305611
_cell_volume 603.453249
_symmetry_space_group_name_H-M "P -1"
_symmetry_group_IT_number 2
_symmetry_cell_setting 'triclinic'
loop_
_space_group_symop_operation_xyz
x,y,z
-x,-y,-z
loop_
_atom_site_type_symbol
_atom_site_label
_atom_site_fract_x
_atom_site_fract_y
_atom_site_fract_z
Si Si1 0.360140 0.264793 0.103980
Si Si2 0.206999 0.461063 0.440257
Si Si3 0.767232 0.757247 0.095187
Si Si4 0.500000 0.500000 0.500000
Si Si5 0.005025 0.752113 0.051005
Si Si6 0.752221 0.073724 0.444398
Si Si7 0.800881 0.145679 0.593087
Si Si8 0.255177 0.528597 0.580516
O O1 0.349224 0.334514 0.218628
O O2 0.073472 0.432261 0.321237
O O3 0.530676 0.263864 0.876136
O O4 0.500000 0.000000 0.000000
O O5 0.196454 0.665572 0.447063
O O6 0.329512 0.359003 0.436944
O O7 0.484825 0.892795 0.323713
O O8 0.799315 0.842315 0.155599
O O9 0.896392 0.492917 0.995409
O O10 0.951507 0.729662 0.851326
O O11 0.370448 0.406773 0.582162
O O12 0.232405 0.705450 0.795040
O O13 0.915172 0.902694 0.218939
O O14 0.878729 0.999418 0.435157
O O15 0.661758 0.324993 0.490698
O O16 0.000000 0.000000 0.500000
#
# Coordination Sequence:
#
# PCOD9106941 Si02
#       8
#     2   2   2   1   2   2   2   2
#     4  11  22  41  66  90 125 160 206 256 306 364
#     4  10  23  42  63  91 123 165 203 252 309 360
#     4  10  21  42  60  91 125 154 206 249 300 361
#     4  10  20  40  62  88 124 158 196 244 302 356
#     4  10  22  40  64  90 123 162 199 252 299 362
#     4  11  23  42  64  89 121 163 206 247 305 362
#     4  11  23  42  62  92 125 159 210 254 305 365
#     4  10  22  41  63  91 124 159 204 251 299 366
#
# _framework density 24.856938
#
# number of rings (size 3 to 8) (size 9 to 14) (size 15 to 20)
#    0.000    1.600    2.667    1.600    0.000    4.267 
#    9.600    0.000    0.000    0.000    0.000    0.000 
#    0.000    0.000    0.000    0.000    0.000    0.000 
#
# Total GULP energy -83665.910262 kJ/mol
# GULP energy per Si atom -5577.727351 kJ/mol
# Density = 2.480036 g / cm^3
# Si number density = 24.856938 Si / 1000 Ang^3
#
#
#
# Elastic Constant Matrix: (Units=GPa)
#
#
# Indices 1 2 3 4 5 6 
#
# 1 196.0126 25.8962 65.9731 16.2625 48.6582 43.6131
# 2 25.8962 66.2471 33.6070 -7.8867 0.2615 17.4465
# 3 65.9731 33.6070 112.4083 -30.8222 19.6101 29.3445
# 4 16.2625 -7.8867 -30.8222 38.7374 13.5374 2.3919
# 5 48.6582 0.2615 19.6101 13.5374 44.3050 9.2201
# 6 43.6131 17.4465 29.3445 2.3919 9.2201 30.7068
#
#
#
# Elastic Compliance Matrix: (Units=1/GPa)
#
#
# Indices 1 2 3 4 5 6 
#
# 1 0.010338 -0.000362 -0.003995 -0.004854 -0.006358 -0.008372
# 2 -0.000362 0.019372 -0.004392 -0.000290 0.003863 -0.007432
# 3 -0.003995 -0.004392 0.025768 0.026383 -0.011947 -0.014922
# 4 -0.004854 -0.000290 0.026383 0.056897 -0.020298 -0.016490
# 5 -0.006358 0.003863 -0.011947 -0.020298 0.039352 0.008018
# 6 -0.008372 -0.007432 -0.014922 -0.016490 0.008018 0.061817
#
#
# Mechanical properties :
#
#
# Convention : Reuss Voigt Hill
#
# Bulk Modulus (GPa) = 26.33080 69.51339 47.92209
# Shear Modulus (GPa) = 20.51664 39.36263 29.93964
#
# Velocity S-wave (km/s) = 2.87608 3.98372 3.47432
# Velocity P-wave (km/s) = 4.65242 7.01328 5.95110
#
# Compressibility (1/GPa) = 0.03797834
#
# Stress axis : x y z
#
# Youngs Moduli (GPa) = 96.72849 51.61999 38.80772
#
# Poissons Ratio (x) = 0.01870 0.15506
# Poissons Ratio (y) = 0.03504 0.17046
# Poissons Ratio (z) = 0.38648 0.22674
#
# Static dielectric constant tensor:
#      x y z
#    x -1.896500 2.198280 0.354370 
#    y 2.198280 0.746170 -0.172120 
#    z 0.354370 -0.172120 1.999170 
# 
# From -- ./inp_files/37741.got.cif
#   From: 2010.05.17/outbox.cif.g08.bks.cpg/sg2_19_cif.got.tgz:37741.got - 2010.06.03 11:33:40.
