data_PCOD9106857
_publ_section_title
;
Structure prediction by ZEFSAII (Michael W. Deem and Ramdas Pophale) SiO2 
 PCOD9106857
Probable space group: P -1
;
_chemical_formula_sum "Si O2"
_cell_formula_units_Z 16
_cell_length_a 9.337857
_cell_length_b 14.745543
_cell_length_c 27.112025
_cell_angle_alpha 157.898689
_cell_angle_beta 38.546527
_cell_angle_gamma 129.197936
_cell_volume 804.044235
_symmetry_space_group_name_H-M "P -1"
_symmetry_group_IT_number 2
_symmetry_cell_setting 'triclinic'
loop_
_space_group_symop_operation_xyz
x,y,z
-x,-y,-z
loop_
_atom_site_type_symbol
_atom_site_label
_atom_site_fract_x
_atom_site_fract_y
_atom_site_fract_z
Si Si1 0.919904 0.832191 0.636046
Si Si2 0.020295 0.775899 0.922527
Si Si3 0.111028 0.626547 0.378857
Si Si4 0.830527 0.319115 0.406691
Si Si5 0.540868 0.653666 0.017197
Si Si6 0.708326 0.180807 0.657641
Si Si7 0.226830 0.065275 0.085760
Si Si8 0.667251 0.723596 0.479161
O O1 0.801405 0.618968 0.572420
O O2 0.104439 0.695540 0.472259
O O3 0.069625 0.833744 0.645977
O O4 0.712620 0.104069 0.809157
O O5 0.166412 0.501835 0.716918
O O6 0.766997 0.761513 0.007299
O O7 0.000000 0.000000 0.000000
O O8 0.178463 0.841569 0.956239
O O9 0.289202 0.730432 0.353853
O O10 0.181637 0.322369 0.194758
O O11 0.830989 0.753125 0.495614
O O12 0.563271 0.334718 0.470263
O O13 0.029468 0.173534 0.237723
O O14 0.500000 0.500000 0.000000
O O15 0.616546 0.431454 0.843074
O O16 0.565835 0.996854 0.615116
O O17 0.000000 0.000000 0.500000
O O18 0.500000 0.000000 0.000000
#
# Coordination Sequence:
#
# PCOD9106857 Si02
#       8
#     2   2   2   2   2   2   2   2
#     4  10  24  41  67  90 136 170 222 269 341 388
#     4  12  24  41  69 103 126 175 228 277 330 392
#     4  10  21  41  65  92 126 175 213 271 330 388
#     4  10  25  43  63  97 131 177 215 278 339 394
#     4  12  24  40  70 101 138 174 227 277 328 404
#     4  10  20  40  61  93 129 169 210 268 333 382
#     4  11  26  41  65  95 135 168 220 277 336 391
#     4  11  22  40  66  92 132 162 223 269 325 400
#
# _framework density 19.899401999999998
#
# number of rings (size 3 to 8) (size 9 to 14) (size 15 to 20)
#    0.000    1.250    3.750    2.250   12.250    1.000 
#    0.000    2.500    0.000    0.000    0.000    0.000 
#    0.000    0.000    0.000    0.000    0.000    0.000 
#
# Total GULP energy -89209.721467 kJ/mol
# GULP energy per Si atom -5575.607592 kJ/mol
# Density = 1.985411 g / cm^3
# Si number density = 19.899402 Si / 1000 Ang^3
#
#
#
# Elastic Constant Matrix: (Units=GPa)
#
#
# Indices 1 2 3 4 5 6 
#
# 1 56.3802 15.5804 8.5936 8.3228 0.4729 -7.3223
# 2 15.5804 84.8114 0.3441 13.3107 -12.1347 -6.6210
# 3 8.5936 0.3441 69.1472 12.5517 2.0650 -5.1528
# 4 8.3228 13.3107 12.5517 28.3529 2.7928 -3.8769
# 5 0.4729 -12.1347 2.0650 2.7928 23.7191 2.9218
# 6 -7.3223 -6.6210 -5.1528 -3.8769 2.9218 28.1160
#
#
#
# Elastic Compliance Matrix: (Units=1/GPa)
#
#
# Indices 1 2 3 4 5 6 
#
# 1 0.019804 -0.003158 -0.001565 -0.002901 -0.002018 0.003937
# 2 -0.003158 0.014775 0.001483 -0.007331 0.008225 0.001063
# 3 -0.001565 0.001483 0.016079 -0.007093 -0.000010 0.001911
# 4 -0.002901 -0.007331 -0.007093 0.043990 -0.008647 0.003183
# 5 -0.002018 0.008225 -0.000010 -0.008647 0.048015 -0.004772
# 6 0.003937 0.001063 0.001911 0.003183 -0.004772 0.038128
#
#
# Mechanical properties :
#
#
# Convention : Reuss Voigt Hill
#
# Bulk Modulus (GPa) = 22.63513 28.81944 25.72728
# Shear Modulus (GPa) = 24.75270 28.42563 26.58916
#
# Velocity S-wave (km/s) = 3.53071 3.78361 3.65934
# Velocity P-wave (km/s) = 5.29346 5.79669 5.55078
#
# Compressibility (1/GPa) = 0.04417912
#
# Stress axis : x y z
#
# Youngs Moduli (GPa) = 50.49376 67.68020 62.19175
#
# Poissons Ratio (x) = 0.21373 0.09735
# Poissons Ratio (y) = 0.15945 -0.09225
# Poissons Ratio (z) = 0.07904 -0.10039
#
# Static dielectric constant tensor:
#      x y z
#    x 1.156410 -0.019200 -0.006340 
#    y -0.019200 1.760780 0.026790 
#    z -0.006340 0.026790 1.706480 
# 
# From -- ./inp_files/399397.got.cif
#   From: 2010.05.17/outbox.cif.g08.bks.cpg/sg2_200_cif.got.tgz:399397.got - 2010.06.03 11:33:40.
