data_PCOD9106130
_publ_section_title
;
Structure prediction by ZEFSAII (Michael W. Deem and Ramdas Pophale) SiO2 
 PCOD9106130
Probable space group: P -1
;
_chemical_formula_sum "Si O2"
_cell_formula_units_Z 16
_cell_length_a 11.227791
_cell_length_b 13.981444
_cell_length_c 12.592127
_cell_angle_alpha 50.434815
_cell_angle_beta 108.102903
_cell_angle_gamma 147.379343
_cell_volume 689.687988
_symmetry_space_group_name_H-M "P -1"
_symmetry_group_IT_number 2
_symmetry_cell_setting 'triclinic'
loop_
_space_group_symop_operation_xyz
x,y,z
-x,-y,-z
loop_
_atom_site_type_symbol
_atom_site_label
_atom_site_fract_x
_atom_site_fract_y
_atom_site_fract_z
Si Si1 0.454172 0.705111 0.558216
Si Si2 0.485280 0.302108 0.835601
Si Si3 0.224404 0.291456 0.661345
Si Si4 0.248106 0.451250 0.912997
Si Si5 0.226847 0.737799 0.541942
Si Si6 0.220796 0.820442 0.077522
Si Si7 0.014575 0.789128 0.532945
Si Si8 0.306717 0.218816 0.056529
O O1 0.406603 0.565125 0.552032
O O2 0.312240 0.538337 0.746777
O O3 0.331003 0.735217 0.481377
O O4 0.754230 0.977308 0.487104
O O5 0.359604 0.277522 0.726724
O O6 0.777160 0.526233 0.721537
O O7 0.465437 0.371338 0.884194
O O8 0.321581 0.036617 0.005419
O O9 0.098746 0.196885 0.577425
O O10 0.980518 0.086990 0.820244
O O11 0.507906 0.704673 0.873584
O O12 0.987791 0.300612 0.979834
O O13 0.237776 0.293761 0.032031
O O14 0.976663 0.445804 0.729831
O O15 0.111823 0.775363 0.480941
O O16 0.500000 0.000000 0.500000
O O17 0.500000 0.000000 0.000000
#
# Coordination Sequence:
#
# PCOD9106130 Si02
#       8
#     2   2   2   2   2   2   2   2
#     4  10  21  41  66  93 125 172 225 271 328 396
#     4  12  24  41  62  99 136 167 221 282 339 394
#     4  12  23  41  67  96 129 176 224 272 334 403
#     4  10  20  39  67  95 126 170 224 272 328 394
#     4   9  20  40  68  90 128 175 222 270 327 396
#     4  11  21  40  69  93 131 178 222 274 341 391
#     4  11  24  43  62  95 137 175 214 274 339 395
#     4  11  21  39  67  97 127 170 222 277 329 397
#
# _framework density 23.198896000000001
#
# number of rings (size 3 to 8) (size 9 to 14) (size 15 to 20)
#    0.000    1.250    5.000    2.250    0.000    1.000 
#    2.250    0.625    0.000    0.000    0.000    0.000 
#    0.000    0.000    0.000    0.000    0.000    0.000 
#
# Total GULP energy -89143.280038 kJ/mol
# GULP energy per Si atom -5571.455002 kJ/mol
# Density = 2.314609 g / cm^3
# Si number density = 23.198896 Si / 1000 Ang^3
#
#
#
# Elastic Constant Matrix: (Units=GPa)
#
#
# Indices 1 2 3 4 5 6 
#
# 1 107.2098 44.5862 29.7755 -16.9542 -4.2160 24.3741
# 2 44.5862 80.5442 27.6813 -26.0700 -7.0123 23.5000
# 3 29.7755 27.6813 86.6106 -31.5345 -5.6777 6.4520
# 4 -16.9542 -26.0700 -31.5345 36.2953 1.2162 -1.1140
# 5 -4.2160 -7.0123 -5.6777 1.2162 29.7365 -8.7562
# 6 24.3741 23.5000 6.4520 -1.1140 -8.7562 32.1224
#
#
#
# Elastic Compliance Matrix: (Units=1/GPa)
#
#
# Indices 1 2 3 4 5 6 
#
# 1 0.013524 -0.004526 -0.002547 0.000699 -0.001689 -0.006876
# 2 -0.004526 0.023379 0.000416 0.014621 0.000492 -0.013112
# 3 -0.002547 0.000416 0.017755 0.014433 0.002298 -0.000811
# 4 0.000699 0.014621 0.014433 0.050525 0.000645 -0.012198
# 5 -0.001689 0.000492 0.002298 0.000645 0.037032 0.010577
# 6 -0.006876 -0.013112 -0.000811 -0.012198 0.010577 0.048564
#
#
# Mechanical properties :
#
#
# Convention : Reuss Voigt Hill
#
# Bulk Modulus (GPa) = 24.18672 53.16118 38.67395
# Shear Modulus (GPa) = 22.94923 31.11894 27.03408
#
# Velocity S-wave (km/s) = 3.14863 3.66648 3.41738
# Velocity P-wave (km/s) = 4.86487 6.39447 5.68138
#
# Compressibility (1/GPa) = 0.04134500
#
# Stress axis : x y z
#
# Youngs Moduli (GPa) = 73.94011 42.77434 56.32349
#
# Poissons Ratio (x) = 0.19359 0.14345
# Poissons Ratio (y) = 0.33464 -0.02345
# Poissons Ratio (z) = 0.18832 -0.01781
#
# Static dielectric constant tensor:
#      x y z
#    x 1.907990 0.013130 0.024760 
#    y 0.013130 1.893790 -0.027080 
#    z 0.024760 -0.027080 1.937220 
# 
# From -- ./inp_files/319450.got.cif
#   From: 2010.05.17/outbox.cif.g08.bks.cpg/sg2_160_cif.got.tgz:319450.got - 2010.06.03 11:33:40.
