data_PCOD9106994
_publ_section_title
;
Structure prediction by ZEFSAII (Michael W. Deem and Ramdas Pophale) SiO2 
 PCOD9106994
Probable space group: P -1
;
_chemical_formula_sum "Si O2"
_cell_formula_units_Z 14
_cell_length_a 24.327003
_cell_length_b 11.838488
_cell_length_c 9.514804
_cell_angle_alpha 35.808436
_cell_angle_beta 34.083213
_cell_angle_gamma 23.263795
_cell_volume 590.775135
_symmetry_space_group_name_H-M "P -1"
_symmetry_group_IT_number 2
_symmetry_cell_setting 'triclinic'
loop_
_space_group_symop_operation_xyz
x,y,z
-x,-y,-z
loop_
_atom_site_type_symbol
_atom_site_label
_atom_site_fract_x
_atom_site_fract_y
_atom_site_fract_z
Si Si1 0.325388 0.291280 0.090750
Si Si2 0.126822 0.354323 0.261083
Si Si3 0.841830 0.743426 0.297130
Si Si4 0.697925 0.185533 0.743286
Si Si5 0.241906 0.701668 0.061665
Si Si6 0.445966 0.296226 0.301198
Si Si7 0.016590 0.802613 0.558557
O O1 0.227766 0.384226 0.066132
O O2 0.253548 0.244831 0.402297
O O3 0.313906 0.523175 0.945252
O O4 0.500000 0.000000 0.000000
O O5 0.000000 0.500000 0.500000
O O6 0.011130 0.550363 0.180442
O O7 0.242173 0.006879 0.332549
O O8 0.875957 0.541387 0.303739
O O9 0.763255 0.064932 0.133309
O O10 0.617385 0.511697 0.614780
O O11 0.586198 0.207986 0.035323
O O12 0.851712 0.974962 0.712231
O O13 0.326313 0.490529 0.231899
O O14 0.083342 0.824640 0.263864
O O15 0.500000 0.000000 0.500000
O O16 0.000000 0.000000 0.500000
#
# Coordination Sequence:
#
# PCOD9106994 Si02
#       7
#     2   2   2   2   2   2   2
#     4  10  21  39  65  92 129 170 217 263 313 391
#     4   9  19  42  65  92 127 165 213 264 323 385
#     4   9  22  39  64  93 129 167 209 272 321 378
#     4  10  22  41  65  95 126 170 217 266 328 392
#     4  11  23  42  62  95 127 167 219 267 329 380
#     4  11  25  44  64  91 135 176 215 267 331 405
#     4  10  20  40  62  91 122 163 210 262 315 387
#
# _framework density 23.697679999999998
#
# number of rings (size 3 to 8) (size 9 to 14) (size 15 to 20)
#    0.000    2.000    1.429    1.714    0.000    8.571 
#    0.000    7.143    0.000    0.000    0.000    0.000 
#    0.000    0.000    0.000    0.000    0.000    0.000 
#
# Total GULP energy -77973.807182 kJ/mol
# GULP energy per Si atom -5569.557656 kJ/mol
# Density = 2.364374 g / cm^3
# Si number density = 23.697680 Si / 1000 Ang^3
#
#
#
# Elastic Constant Matrix: (Units=GPa)
#
#
# Indices 1 2 3 4 5 6 
#
# 1 78.2772 47.2791 28.1920 -10.9619 -33.8334 17.4115
# 2 47.2791 184.0331 64.0079 -19.8860 -22.7766 43.3213
# 3 28.1920 64.0079 95.9964 -21.2800 -26.4104 1.6537
# 4 -10.9619 -19.8860 -21.2800 65.0232 1.2156 -19.0139
# 5 -33.8334 -22.7766 -26.4104 1.2156 28.5275 0.7516
# 6 17.4115 43.3213 1.6537 -19.0139 0.7516 53.0372
#
#
#
# Elastic Compliance Matrix: (Units=1/GPa)
#
#
# Indices 1 2 3 4 5 6 
#
# 1 0.032568 -0.002476 0.003985 0.002840 0.040436 -0.008348
# 2 -0.002476 0.009733 -0.006164 -0.001648 -0.000604 -0.007527
# 3 0.003985 -0.006164 0.019465 0.006336 0.017419 0.005145
# 4 0.002840 -0.001648 0.006336 0.019363 0.006907 0.007060
# 5 0.040436 -0.000604 0.017419 0.006907 0.098683 -0.012246
# 6 -0.008348 -0.007527 0.005145 0.007060 -0.012246 0.030288
#
#
# Mechanical properties :
#
#
# Convention : Reuss Voigt Hill
#
# Bulk Modulus (GPa) = 19.06427 70.80718 44.93572
# Shear Modulus (GPa) = 21.10635 43.90609 32.50622
#
# Velocity S-wave (km/s) = 2.98761 4.30904 3.70767
# Velocity P-wave (km/s) = 4.46804 7.39603 6.11002
#
# Compressibility (1/GPa) = 0.05245415
#
# Stress axis : x y z
#
# Youngs Moduli (GPa) = 30.70534 102.74332 51.37347
#
# Poissons Ratio (x) = 0.25442 -0.20471
# Poissons Ratio (y) = 0.07603 0.31669
# Poissons Ratio (z) = -0.12235 0.63335
#
# Static dielectric constant tensor:
#      x y z
#    x 2.061980 0.114790 0.044610 
#    y 0.114790 2.103570 0.090840 
#    z 0.044610 0.090840 2.006880 
# 
# From -- ./inp_files/476616.got.cif
#   From: 2010.05.17/outbox.cif.g08.bks.cpg/sg2_239_cif.got.tgz:476616.got - 2010.06.03 11:33:40.
