data_PCOD9106001
_publ_section_title
;
Structure prediction by ZEFSAII (Michael W. Deem and Ramdas Pophale) SiO2 
 PCOD9106001
Probable space group: P -1
;
_chemical_formula_sum "Si O2"
_cell_formula_units_Z 15
_cell_length_a 5.465082
_cell_length_b 8.457508
_cell_length_c 14.703922
_cell_angle_alpha 84.009515
_cell_angle_beta 94.044431
_cell_angle_gamma 63.762550
_cell_volume 601.070825
_symmetry_space_group_name_H-M "P -1"
_symmetry_group_IT_number 2
_symmetry_cell_setting 'triclinic'
loop_
_space_group_symop_operation_xyz
x,y,z
-x,-y,-z
loop_
_atom_site_type_symbol
_atom_site_label
_atom_site_fract_x
_atom_site_fract_y
_atom_site_fract_z
Si Si1 0.605353 0.798041 0.318472
Si Si2 0.069715 0.708666 0.811119
Si Si3 0.194801 0.921524 0.647671
Si Si4 0.000000 0.500000 0.500000
Si Si5 0.847122 0.541514 0.685471
Si Si6 0.606819 0.362630 0.804359
Si Si7 0.826798 0.387289 0.993600
Si Si8 0.314128 0.745758 0.471186
O O1 0.885158 0.652668 0.290846
O O2 0.388011 0.807690 0.236383
O O3 0.589493 0.703928 0.420577
O O4 0.631752 0.972047 0.332501
O O5 0.148434 0.828718 0.740038
O O6 0.833695 0.676746 0.756972
O O7 0.315911 0.505401 0.828211
O O8 0.043423 0.757739 0.913464
O O9 0.329968 0.791486 0.573477
O O10 0.901056 0.071666 0.593959
O O11 0.089268 0.389951 0.411006
O O12 0.812019 0.392084 0.533172
O O13 0.624632 0.477863 0.712411
O O14 0.823891 0.324569 0.893327
O O15 0.500000 0.500000 0.000000
O O16 0.000000 0.500000 0.000000
#
# Coordination Sequence:
#
# PCOD9106001 Si02
#       8
#     2   2   2   1   2   2   2   2
#     4  11  22  39  57  84 120 164 199 248 311 371
#     4  10  22  37  63  91 119 160 200 259 313 374
#     4  11  23  41  55  87 126 164 201 246 318 376
#     4  12  20  38  58  88 114 152 212 254 294 358
#     4  11  21  37  59  87 118 155 204 256 297 365
#     4  10  21  38  63  91 116 158 204 259 313 365
#     4  10  20  39  66  99 128 157 213 272 322 372
#     4  11  24  39  59  85 121 162 205 256 302 373
#
# _framework density 24.955462000000001
#
# number of rings (size 3 to 8) (size 9 to 14) (size 15 to 20)
#    0.000    1.333    5.333    0.400    0.000    2.667 
#    0.000    0.667    0.000    3.200    0.000    0.000 
#    0.000    0.000    0.000    0.000    0.000    0.000 
#
# Total GULP energy -83611.176457 kJ/mol
# GULP energy per Si atom -5574.078430 kJ/mol
# Density = 2.489866 g / cm^3
# Si number density = 24.955462 Si / 1000 Ang^3
#
#
#
# Elastic Constant Matrix: (Units=GPa)
#
#
# Indices 1 2 3 4 5 6 
#
# 1 79.9715 27.2524 24.2452 4.6712 -7.0047 31.8057
# 2 27.2524 73.4374 40.3089 -1.1366 5.8199 23.4843
# 3 24.2452 40.3089 196.8717 6.4006 13.4786 36.7634
# 4 4.6712 -1.1366 6.4006 33.2673 11.5006 4.7611
# 5 -7.0047 5.8199 13.4786 11.5006 39.9727 10.6852
# 6 31.8057 23.4843 36.7634 4.7611 10.6852 59.0506
#
#
#
# Elastic Compliance Matrix: (Units=1/GPa)
#
#
# Indices 1 2 3 4 5 6 
#
# 1 0.018669 -0.004628 -0.000011 -0.004079 0.007596 -0.009254
# 2 -0.004628 0.017858 -0.002473 0.003076 -0.002706 -0.002828
# 3 -0.000011 -0.002473 0.006158 -0.000599 -0.000839 -0.002644
# 4 -0.004079 0.003076 -0.000599 0.034598 -0.011064 0.000559
# 5 0.007596 -0.002706 -0.000839 -0.011064 0.032194 -0.007426
# 6 -0.009254 -0.002828 -0.002644 0.000559 -0.007426 0.025988
#
#
# Mechanical properties :
#
#
# Convention : Reuss Voigt Hill
#
# Bulk Modulus (GPa) = 35.13566 59.32151 47.22859
# Shear Modulus (GPa) = 31.41188 43.68971 37.55080
#
# Velocity S-wave (km/s) = 3.55169 4.18868 3.88327
# Velocity P-wave (km/s) = 5.56141 6.87139 6.25081
#
# Compressibility (1/GPa) = 0.02846111
#
# Stress axis : x y z
#
# Youngs Moduli (GPa) = 53.56550 55.99610 162.39445
#
# Poissons Ratio (x) = 0.25914 0.00179
# Poissons Ratio (y) = 0.24789 0.40162
# Poissons Ratio (z) = 0.00059 0.13848
#
# Static dielectric constant tensor:
#      x y z
#    x 2.050380 -0.038850 0.037650 
#    y -0.038850 1.941260 0.017490 
#    z 0.037650 0.017490 2.020290 
# 
# From -- ./inp_files/36346.got.cif
#   From: 2010.05.17/outbox.cif.g08.bks.cpg/sg2_19_cif.got.tgz:36346.got - 2010.06.03 11:33:40.
