data_PCOD9106648
_publ_section_title
;
Structure prediction by ZEFSAII (Michael W. Deem and Ramdas Pophale) SiO2 
 PCOD9106648
Probable space group: P -1
;
_chemical_formula_sum "Si O2"
_cell_formula_units_Z 16
_cell_length_a 9.110652
_cell_length_b 9.670432
_cell_length_c 11.583646
_cell_angle_alpha 68.407579
_cell_angle_beta 95.423285
_cell_angle_gamma 130.489938
_cell_volume 706.478845
_symmetry_space_group_name_H-M "P -1"
_symmetry_group_IT_number 2
_symmetry_cell_setting 'triclinic'
loop_
_space_group_symop_operation_xyz
x,y,z
-x,-y,-z
loop_
_atom_site_type_symbol
_atom_site_label
_atom_site_fract_x
_atom_site_fract_y
_atom_site_fract_z
Si Si1 0.979562 0.854511 0.687852
Si Si2 0.245246 0.046150 0.221544
Si Si3 0.931542 0.386259 0.720285
Si Si4 0.682241 0.752617 0.321894
Si Si5 0.660294 0.721969 0.073295
Si Si6 0.783935 0.448362 0.910752
Si Si7 0.772719 0.564919 0.551923
Si Si8 0.305239 0.611708 0.824535
O O1 0.858754 0.914515 0.707982
O O2 0.930794 0.681171 0.818751
O O3 0.898368 0.753758 0.588674
O O4 0.207008 0.051732 0.652657
O O5 0.474397 0.178041 0.232514
O O6 0.137158 0.818368 0.266817
O O7 0.244777 0.131240 0.072359
O O8 0.812952 0.347184 0.842881
O O9 0.874976 0.475075 0.597501
O O10 0.157711 0.545727 0.729544
O O11 0.747740 0.818403 0.175104
O O12 0.744190 0.631956 0.410218
O O13 0.447815 0.601610 0.362920
O O14 0.434023 0.624640 0.090746
O O15 0.671493 0.551929 0.112908
O O16 0.792390 0.400849 0.058056
#
# Coordination Sequence:
#
# PCOD9106648 Si02
#       8
#     2   2   2   2   2   2   2   2
#     4  11  20  39  67  92 116 163 216 251 295 374
#     4  11  23  38  64  96 131 156 205 251 310 387
#     4  11  24  38  59  95 129 159 205 257 316 362
#     4  11  22  39  72  85 118 169 215 258 300 353
#     4  11  20  40  65  94 124 168 205 249 308 370
#     4  10  20  40  59  90 132 159 205 252 299 375
#     4  10  24  46  59  93 124 159 219 262 296 364
#     4  11  21  38  61  89 134 168 188 255 316 362
#
# _framework density 22.647528999999999
#
# number of rings (size 3 to 8) (size 9 to 14) (size 15 to 20)
#    0.000    1.250    5.000    2.250    1.750    5.000 
#    0.000    2.500    0.000    4.500    0.000    0.000 
#    0.000    0.000    0.000    0.000    0.000    0.000 
#
# Total GULP energy -89561.273183 kJ/mol
# GULP energy per Si atom -5597.579574 kJ/mol
# Density = 2.259598 g / cm^3
# Si number density = 22.647529 Si / 1000 Ang^3
#
#
#
# Elastic Constant Matrix: (Units=GPa)
#
#
# Indices 1 2 3 4 5 6 
#
# 1 99.6490 40.6690 39.7105 10.1851 12.1364 -2.6426
# 2 40.6690 111.1648 19.4699 7.2163 7.1514 1.4659
# 3 39.7105 19.4699 59.1672 0.5194 18.6846 9.0217
# 4 10.1851 7.2163 0.5194 20.3314 -1.7505 1.4783
# 5 12.1364 7.1514 18.6846 -1.7505 39.6044 11.3004
# 6 -2.6426 1.4659 9.0217 1.4783 11.3004 39.6377
#
#
#
# Elastic Compliance Matrix: (Units=1/GPa)
#
#
# Indices 1 2 3 4 5 6 
#
# 1 0.016586 -0.003823 -0.010086 -0.007091 -0.001125 0.004128
# 2 -0.003823 0.010678 -0.000762 -0.001868 -0.000396 -0.000294
# 3 -0.010086 -0.000762 0.027140 0.004277 -0.008050 -0.004686
# 4 -0.007091 -0.001868 0.004277 0.053985 0.004187 -0.004584
# 5 -0.001125 -0.000396 -0.008050 0.004187 0.031772 -0.007442
# 6 0.004128 -0.000294 -0.004686 -0.004584 -0.007442 0.028874
#
#
# Mechanical properties :
#
#
# Convention : Reuss Voigt Hill
#
# Bulk Modulus (GPa) = 39.89860 52.18665 46.04263
# Shear Modulus (GPa) = 24.18603 31.25680 27.72142
#
# Velocity S-wave (km/s) = 3.27147 3.71906 3.50242
# Velocity P-wave (km/s) = 5.65026 6.44475 6.06054
#
# Compressibility (1/GPa) = 0.02506353
#
# Stress axis : x y z
#
# Youngs Moduli (GPa) = 60.29185 93.64728 36.84613
#
# Poissons Ratio (x) = 0.35803 0.37161
# Poissons Ratio (y) = 0.23051 0.02806
# Poissons Ratio (z) = 0.60807 0.07133
#
# Static dielectric constant tensor:
#      x y z
#    x 1.870270 0.023940 -0.006520 
#    y 0.023940 1.812810 0.019560 
#    z -0.006520 0.019560 1.877440 
# 
# From -- ./inp_files/382002.got.cif
#   From: 2010.05.17/outbox.cif.g08.bks.cpg/sg2_192_cif.got.tgz:382002.got - 2010.06.03 11:33:40.
