data_PCOD9106807
_publ_section_title
;
Structure prediction by ZEFSAII (Michael W. Deem and Ramdas Pophale) SiO2 
 PCOD9106807
Probable space group: P -1
;
_chemical_formula_sum "Si O2"
_cell_formula_units_Z 16
_cell_length_a 15.218480
_cell_length_b 9.493731
_cell_length_c 11.856182
_cell_angle_alpha 84.298874
_cell_angle_beta 152.445466
_cell_angle_gamma 84.433219
_cell_volume 721.950015
_symmetry_space_group_name_H-M "P -1"
_symmetry_group_IT_number 2
_symmetry_cell_setting 'triclinic'
loop_
_space_group_symop_operation_xyz
x,y,z
-x,-y,-z
loop_
_atom_site_type_symbol
_atom_site_label
_atom_site_fract_x
_atom_site_fract_y
_atom_site_fract_z
Si Si1 0.539133 0.755399 0.284180
Si Si2 0.465951 0.307519 0.296542
Si Si3 0.144971 0.874898 0.086658
Si Si4 0.507168 0.646497 0.930608
Si Si5 0.788367 0.367263 0.992958
Si Si6 0.171252 0.288109 0.573337
Si Si7 0.234819 0.948643 0.729888
Si Si8 0.415995 0.008655 0.278678
O O1 0.732124 0.665890 0.431489
O O2 0.583052 0.864296 0.415146
O O3 0.417275 0.663369 0.210333
O O4 0.374196 0.879653 0.003493
O O5 0.660325 0.234151 0.606932
O O6 0.516446 0.361725 0.229106
O O7 0.388240 0.173214 0.188403
O O8 0.292544 0.454674 0.147387
O O9 0.213271 0.973361 0.065000
O O10 0.089677 0.757213 0.954477
O O11 0.000000 0.000000 0.000000
O O12 0.326406 0.805865 0.758185
O O13 0.500000 0.500000 0.000000
O O14 0.726944 0.655767 0.212948
O O15 0.928767 0.345192 0.266274
O O16 0.252198 0.102600 0.691026
O O17 0.000000 0.000000 0.500000
O O18 0.500000 0.000000 0.500000
#
# Coordination Sequence:
#
# PCOD9106807 Si02
#       8
#     2   2   2   2   2   2   2   2
#     4  10  20  40  61  88 129 170 218 273 318 388
#     4  11  22  44  65  92 138 170 215 279 337 383
#     4  10  24  43  70  96 127 171 225 276 324 400
#     4  11  25  43  66 100 138 176 222 275 336 395
#     4  11  24  42  66  96 132 174 216 271 338 396
#     4  11  23  40  66  95 130 180 223 268 329 396
#     4  11  21  38  64  91 126 175 227 267 321 393
#     4   9  20  37  63  90 121 164 215 269 325 379
#
# _framework density 22.162199999999999
#
# number of rings (size 3 to 8) (size 9 to 14) (size 15 to 20)
#    0.000    1.500    1.250    4.875    5.250    0.500 
#    6.750    0.625    0.000    0.000    0.000    0.000 
#    0.000    0.000    0.000    0.000    0.000    0.000 
#
# Total GULP energy -89296.422129 kJ/mol
# GULP energy per Si atom -5581.026383 kJ/mol
# Density = 2.211176 g / cm^3
# Si number density = 22.162200 Si / 1000 Ang^3
#
#
#
# Elastic Constant Matrix: (Units=GPa)
#
#
# Indices 1 2 3 4 5 6 
#
# 1 71.7434 12.1955 -2.6499 6.3153 -6.8086 -3.8854
# 2 12.1955 118.6366 27.5157 -3.0786 0.9619 -0.4472
# 3 -2.6499 27.5157 61.7148 -3.7154 0.1429 -5.4793
# 4 6.3153 -3.0786 -3.7154 28.3282 -0.0999 -4.6794
# 5 -6.8086 0.9619 0.1429 -0.0999 22.7840 2.7491
# 6 -3.8854 -0.4472 -5.4793 -4.6794 2.7491 35.9926
#
#
#
# Elastic Compliance Matrix: (Units=1/GPa)
#
#
# Indices 1 2 3 4 5 6 
#
# 1 0.015092 -0.001998 0.001431 -0.003202 0.004443 0.001067
# 2 -0.001998 0.009682 -0.004404 0.000819 -0.000904 -0.000590
# 3 0.001431 -0.004404 0.018644 0.002179 0.000118 0.003212
# 4 -0.003202 0.000819 0.002179 0.037201 -0.001438 0.004942
# 5 0.004443 -0.000904 0.000118 -0.001438 0.045634 -0.003186
# 6 0.001067 -0.000590 0.003212 0.004942 -0.003186 0.029266
#
#
# Mechanical properties :
#
#
# Convention : Reuss Voigt Hill
#
# Bulk Modulus (GPa) = 29.87188 36.24641 33.05914
# Shear Modulus (GPa) = 28.30920 31.75652 30.03286
#
# Velocity S-wave (km/s) = 3.57790 3.78949 3.68521
# Velocity P-wave (km/s) = 5.52960 5.96134 5.74952
#
# Compressibility (1/GPa) = 0.03347630
#
# Stress axis : x y z
#
# Youngs Moduli (GPa) = 66.25867 103.28184 53.63524
#
# Poissons Ratio (x) = 0.20639 -0.07673
# Poissons Ratio (y) = 0.13241 0.23619
# Poissons Ratio (z) = -0.09479 0.45482
#
# Static dielectric constant tensor:
#      x y z
#    x 1.884530 -0.032530 0.046530 
#    y -0.032530 1.923750 0.040610 
#    z 0.046530 0.040610 1.821850 
# 
# From -- ./inp_files/447400.got.cif
#   From: 2010.05.17/outbox.cif.g08.bks.cpg/sg2_224_cif.got.tgz:447400.got - 2010.06.03 11:33:40.
