data_PCOD9106975
_publ_section_title
;
Structure prediction by ZEFSAII (Michael W. Deem and Ramdas Pophale) SiO2 
 PCOD9106975
Probable space group: P -1
;
_chemical_formula_sum "Si O2"
_cell_formula_units_Z 14
_cell_length_a 8.753799
_cell_length_b 10.355476
_cell_length_c 7.618173
_cell_angle_alpha 97.294345
_cell_angle_beta 130.668727
_cell_angle_gamma 91.540129
_cell_volume 514.018646
_symmetry_space_group_name_H-M "P -1"
_symmetry_group_IT_number 2
_symmetry_cell_setting 'triclinic'
loop_
_space_group_symop_operation_xyz
x,y,z
-x,-y,-z
loop_
_atom_site_type_symbol
_atom_site_label
_atom_site_fract_x
_atom_site_fract_y
_atom_site_fract_z
Si Si1 0.286294 0.725337 0.636774
Si Si2 0.908121 0.790017 0.491808
Si Si3 0.532169 0.987101 0.730023
Si Si4 0.500915 0.728392 0.284019
Si Si5 0.910843 0.313735 0.883735
Si Si6 0.036424 0.059939 0.811392
Si Si7 0.382899 0.371634 0.298080
O O1 0.364224 0.878794 0.675555
O O2 0.490935 0.658607 0.785660
O O3 0.112809 0.724677 0.651039
O O4 0.164374 0.658982 0.363709
O O5 0.704543 0.686804 0.347351
O O6 0.917062 0.857436 0.319087
O O7 0.922272 0.915285 0.654785
O O8 0.500000 0.000000 0.500000
O O9 0.510710 0.134816 0.799615
O O10 0.748815 0.953945 0.945767
O O11 0.571812 0.738378 0.544557
O O12 0.269557 0.658059 0.117177
O O13 0.920708 0.155911 0.859792
O O14 0.143845 0.373255 0.101068
O O15 0.500000 0.500000 0.500000
#
# Coordination Sequence:
#
# PCOD9106975 Si02
#       7
#     2   2   2   2   2   2   2
#     4  10  22  41  61  94 132 165 209 258 313 388
#     4  10  23  39  56  98 140 172 205 239 325 403
#     4  12  20  36  62  98 135 164 214 257 311 378
#     4  11  24  36  61  96 128 161 213 260 310 393
#     4  10  20  40  62  90 120 166 211 267 314 359
#     4  10  21  37  63  93 138 177 197 253 316 387
#     4  11  24  45  67  88 116 165 230 278 318 357
#
# _framework density 27.236367999999999
#
# number of rings (size 3 to 8) (size 9 to 14) (size 15 to 20)
#    0.000    1.429    4.286    2.571    2.000    5.143 
#    0.000    0.714    0.000    4.286    0.000    0.000 
#    0.000    0.000    0.000    0.000    0.000    0.000 
#
# Total GULP energy -78316.729264 kJ/mol
# GULP energy per Si atom -5594.052090 kJ/mol
# Density = 2.717438 g / cm^3
# Si number density = 27.236368 Si / 1000 Ang^3
#
#
#
# Elastic Constant Matrix: (Units=GPa)
#
#
# Indices 1 2 3 4 5 6 
#
# 1 172.9749 34.7133 41.0923 14.0784 65.1005 9.4459
# 2 34.7133 65.1418 26.5889 24.3167 13.8818 -0.3422
# 3 41.0923 26.5889 159.6251 -0.7204 40.8622 21.7723
# 4 14.0784 24.3167 -0.7204 39.1606 11.4854 3.2540
# 5 65.1005 13.8818 40.8622 11.4854 64.1448 0.8553
# 6 9.4459 -0.3422 21.7723 3.2540 0.8553 19.9272
#
#
#
# Elastic Compliance Matrix: (Units=1/GPa)
#
#
# Indices 1 2 3 4 5 6 
#
# 1 0.011011 -0.005702 0.002273 0.003789 -0.011962 -0.007906
# 2 -0.005702 0.026128 -0.006589 -0.017506 0.007293 0.012896
# 3 0.002273 -0.006589 0.011039 0.007294 -0.009032 -0.014055
# 4 0.003789 -0.017506 0.007294 0.039928 -0.011639 -0.016087
# 5 -0.011962 0.007293 -0.009032 -0.011639 0.033774 0.016114
# 6 -0.007906 0.012896 -0.014055 -0.016087 0.016114 0.071443
#
#
# Mechanical properties :
#
#
# Convention : Reuss Voigt Hill
#
# Bulk Modulus (GPa) = 35.53585 66.94786 51.24186
# Shear Modulus (GPa) = 22.44770 44.33635 33.39202
#
# Velocity S-wave (km/s) = 2.87397 4.03902 3.50524
# Velocity P-wave (km/s) = 4.90800 6.81067 5.93607
#
# Compressibility (1/GPa) = 0.02814060
#
# Stress axis : x y z
#
# Youngs Moduli (GPa) = 90.81974 38.27382 90.58689
#
# Poissons Ratio (x) = 0.21825 -0.20589
# Poissons Ratio (y) = 0.51788 0.59688
# Poissons Ratio (z) = -0.20642 0.25219
#
# Static dielectric constant tensor:
#      x y z
#    x 2.230140 -0.058720 -0.019100 
#    y -0.058720 2.217110 0.031510 
#    z -0.019100 0.031510 2.153370 
# 
# From -- ./inp_files/179608.got.cif
#   From: 2010.05.17/outbox.cif.g08.bks.cpg/sg2_90_cif.got.tgz:179608.got - 2010.06.03 11:33:40.
