data_PCOD9106264
_publ_section_title
;
Structure prediction by ZEFSAII (Michael W. Deem and Ramdas Pophale) SiO2 
 PCOD9106264
Probable space group: P -1
;
_chemical_formula_sum "Si O2"
_cell_formula_units_Z 14
_cell_length_a 21.656660
_cell_length_b 9.066818
_cell_length_c 5.561370
_cell_angle_alpha 119.625055
_cell_angle_beta 126.453823
_cell_angle_gamma 39.435103
_cell_volume 556.586854
_symmetry_space_group_name_H-M "P -1"
_symmetry_group_IT_number 2
_symmetry_cell_setting 'triclinic'
loop_
_space_group_symop_operation_xyz
x,y,z
-x,-y,-z
loop_
_atom_site_type_symbol
_atom_site_label
_atom_site_fract_x
_atom_site_fract_y
_atom_site_fract_z
Si Si1 0.076223 0.234321 0.539078
Si Si2 0.440868 0.054555 0.656069
Si Si3 0.201661 0.822646 0.144597
Si Si4 0.744829 0.827865 0.193701
Si Si5 0.258328 0.484988 0.375190
Si Si6 0.389032 0.765091 0.442326
Si Si7 0.110573 0.626387 0.520288
O O1 0.182018 0.170499 0.809767
O O2 0.000000 0.500000 0.500000
O O3 0.112580 0.074705 0.260735
O O4 0.010252 0.226835 0.572940
O O5 0.341232 0.333019 0.655494
O O6 0.500000 0.000000 0.500000
O O7 0.406032 0.910264 0.446366
O O8 0.500000 0.000000 0.000000
O O9 0.260666 0.656358 0.381900
O O10 0.290684 0.789275 0.176497
O O11 0.148991 0.740450 0.831583
O O12 0.819581 0.638241 0.429602
O O13 0.652732 0.084477 0.285992
O O14 0.710466 0.709509 0.892548
O O15 0.142711 0.612625 0.309355
O O16 0.500000 0.500000 0.500000
#
# Coordination Sequence:
#
# PCOD9106264 Si02
#       7
#     2   2   2   2   2   2   2
#     4   9  19  39  68  99 140 189 231 301 357 431
#     4  12  27  48  75 103 140 193 248 301 369 436
#     4  10  23  43  65 103 140 182 240 296 362 431
#     4   9  20  42  63  96 139 183 239 291 359 426
#     4  11  23  42  68  97 138 187 237 303 357 432
#     4  11  23  43  69  98 136 182 233 296 361 430
#     4  10  20  39  68  94 137 182 237 291 360 422
#
# _framework density 25.153307999999999
#
# number of rings (size 3 to 8) (size 9 to 14) (size 15 to 20)
#    0.000    1.714    1.429    2.143    4.000    1.143 
#    7.714    3.571    0.000    0.000    0.000    0.000 
#    0.000    0.000    0.000    0.000    0.000    0.000 
#
# Total GULP energy -78264.308867 kJ/mol
# GULP energy per Si atom -5590.307776 kJ/mol
# Density = 2.509606 g / cm^3
# Si number density = 25.153308 Si / 1000 Ang^3
#
#
#
# Elastic Constant Matrix: (Units=GPa)
#
#
# Indices 1 2 3 4 5 6 
#
# 1 223.8330 57.9773 26.9345 -1.6819 6.3490 1.3862
# 2 57.9773 155.6476 36.1609 26.5120 -0.1277 -3.4651
# 3 26.9345 36.1609 54.7907 15.2611 -1.2290 4.6243
# 4 -1.6819 26.5120 15.2611 40.2353 5.9919 -5.4559
# 5 6.3490 -0.1277 -1.2290 5.9919 23.3663 8.1216
# 6 1.3862 -3.4651 4.6243 -5.4559 8.1216 46.2137
#
#
#
# Elastic Compliance Matrix: (Units=1/GPa)
#
#
# Indices 1 2 3 4 5 6 
#
# 1 0.005327 -0.001929 -0.002247 0.002819 -0.002542 0.000700
# 2 -0.001929 0.008770 -0.003512 -0.004719 0.001513 0.000244
# 3 -0.002247 -0.003512 0.024589 -0.008591 0.005712 -0.004675
# 4 0.002819 -0.004719 -0.008591 0.034062 -0.012272 0.006599
# 5 -0.002542 0.001513 0.005712 -0.012272 0.050675 -0.010736
# 6 0.000700 0.000244 -0.004675 0.006599 -0.010736 0.024770
#
#
# Mechanical properties :
#
#
# Convention : Reuss Voigt Hill
#
# Bulk Modulus (GPa) = 42.89943 75.15740 59.02842
# Shear Modulus (GPa) = 29.18228 42.84298 36.01263
#
# Velocity S-wave (km/s) = 3.40983 4.13155 3.78792
# Velocity P-wave (km/s) = 5.70919 7.25977 6.53066
#
# Compressibility (1/GPa) = 0.02331033
#
# Stress axis : x y z
#
# Youngs Moduli (GPa) = 187.73847 114.02972 40.66846
#
# Poissons Ratio (x) = 0.21994 0.09138
# Poissons Ratio (y) = 0.36211 0.14282
# Poissons Ratio (z) = 0.42183 0.40044
#
# Static dielectric constant tensor:
#      x y z
#    x 2.064900 -0.051050 -0.008690 
#    y -0.051050 2.017710 -0.052070 
#    z -0.008690 -0.052070 2.055430 
# 
# From -- ./inp_files/122710.got.cif
#   From: 2010.05.17/outbox.cif.g08.bks.cpg/sg2_62_cif.got.tgz:122710.got - 2010.06.03 11:33:40.
