data_PCOD9106364
_publ_section_title
;
Structure prediction by ZEFSAII (Michael W. Deem and Ramdas Pophale) SiO2 
 PCOD9106364
Probable space group: P -1
;
_chemical_formula_sum "Si O2"
_cell_formula_units_Z 16
_cell_length_a 8.299118
_cell_length_b 10.533826
_cell_length_c 14.438580
_cell_angle_alpha 115.127067
_cell_angle_beta 60.284075
_cell_angle_gamma 67.312958
_cell_volume 647.127121
_symmetry_space_group_name_H-M "P -1"
_symmetry_group_IT_number 2
_symmetry_cell_setting 'triclinic'
loop_
_space_group_symop_operation_xyz
x,y,z
-x,-y,-z
loop_
_atom_site_type_symbol
_atom_site_label
_atom_site_fract_x
_atom_site_fract_y
_atom_site_fract_z
Si Si1 0.048465 0.048020 0.399988
Si Si2 0.380296 0.809172 0.717182
Si Si3 0.938001 0.502594 0.343468
Si Si4 0.505776 0.323668 0.146980
Si Si5 0.455703 0.834182 0.442005
Si Si6 0.580580 0.547225 0.079138
Si Si7 0.218392 0.169432 0.767530
Si Si8 0.900640 0.889560 0.787887
O O1 0.336596 0.799128 0.220717
O O2 0.102490 0.133824 0.329933
O O3 0.000000 0.000000 0.500000
O O4 0.718553 0.206819 0.515711
O O5 0.699127 0.623237 0.528149
O O6 0.377122 0.778917 0.816861
O O7 0.181326 0.813157 0.720046
O O8 0.269945 0.028816 0.790771
O O9 0.753528 0.646033 0.350565
O O10 0.167538 0.490857 0.293927
O O11 0.097425 0.263935 0.214489
O O12 0.564700 0.448803 0.138959
O O13 0.653000 0.133415 0.972671
O O14 0.531314 0.861717 0.330845
O O15 0.256590 0.052804 0.627055
O O16 0.500000 0.500000 0.000000
O O17 0.905370 0.411290 0.937702
#
# Coordination Sequence:
#
# PCOD9106364 Si02
#       8
#     2   2   2   2   2   2   2   2
#     4  12  27  43  67  98 132 174 219 272 332 396
#     4  11  23  43  68 100 129 172 226 266 328 393
#     4  11  25  41  68  95 139 174 216 265 341 387
#     4  12  25  41  70 102 127 174 227 273 317 392
#     4  10  21  41  66  95 128 171 213 266 329 381
#     4  12  21  42  68  94 129 168 223 268 324 382
#     4  10  20  39  69  93 125 165 216 273 314 382
#     4  12  24  46  64  94 140 177 212 273 335 394
#
# _framework density 24.724661999999999
#
# number of rings (size 3 to 8) (size 9 to 14) (size 15 to 20)
#    0.000    0.750    6.250    2.250    5.250    1.000 
#    0.000    0.625    0.000    0.000    0.000    0.000 
#    0.000    0.000    0.000    0.000    0.000    0.000 
#
# Total GULP energy -89235.200617 kJ/mol
# GULP energy per Si atom -5577.200039 kJ/mol
# Density = 2.466839 g / cm^3
# Si number density = 24.724662 Si / 1000 Ang^3
#
#
#
# Elastic Constant Matrix: (Units=GPa)
#
#
# Indices 1 2 3 4 5 6 
#
# 1 21.0968 -0.3198 19.3668 -11.0216 -7.4328 -7.9504
# 2 -0.3198 136.0529 11.1229 -16.8609 2.6010 -9.4853
# 3 19.3668 11.1229 94.0021 5.6096 -23.6680 -2.2230
# 4 -11.0216 -16.8609 5.6096 47.3600 -4.8248 2.9523
# 5 -7.4328 2.6010 -23.6680 -4.8248 34.9029 -10.2928
# 6 -7.9504 -9.4853 -2.2230 2.9523 -10.2928 32.0988
#
#
#
# Elastic Compliance Matrix: (Units=1/GPa)
#
#
# Indices 1 2 3 4 5 6 
#
# 1 0.093545 0.006323 -0.015696 0.026236 0.020746 0.028191
# 2 0.006323 0.008359 -0.002237 0.004574 0.000950 0.003765
# 3 -0.015696 -0.002237 0.016165 -0.005626 0.006791 -0.000734
# 4 0.026236 0.004574 -0.005626 0.029850 0.007673 0.007176
# 5 0.020746 0.000950 0.006791 0.007673 0.044391 0.019418
# 6 0.028191 0.003765 -0.000734 0.007176 0.019418 0.044765
#
#
# Mechanical properties :
#
#
# Convention : Reuss Voigt Hill
#
# Bulk Modulus (GPa) = 10.54301 34.61019 22.57660
# Shear Modulus (GPa) = 17.12857 37.60447 27.36652
#
# Velocity S-wave (km/s) = 2.63491 3.90414 3.33055
# Velocity P-wave (km/s) = 3.67838 5.86103 4.89296
#
# Compressibility (1/GPa) = 0.09484954
#
# Stress axis : x y z
#
# Youngs Moduli (GPa) = 10.69004 119.63075 61.86241
#
# Poissons Ratio (x) = -0.75646 0.97101
# Poissons Ratio (y) = -0.06760 0.13837
# Poissons Ratio (z) = 0.16779 0.26758
#
# Static dielectric constant tensor:
#      x y z
#    x 2.087710 -0.058050 0.059180 
#    y -0.058050 1.862330 -0.022490 
#    z 0.059180 -0.022490 1.955180 
# 
# From -- ./inp_files/259138.got.cif
#   From: 2010.05.17/outbox.cif.g08.bks.cpg/sg2_130_cif.got.tgz:259138.got - 2010.06.03 11:33:40.
