data_PCOD9106859
_publ_section_title
;
Structure prediction by ZEFSAII (Michael W. Deem and Ramdas Pophale) SiO2 
 PCOD9106859
Probable space group: P -1
;
_chemical_formula_sum "Si O2"
_cell_formula_units_Z 15
_cell_length_a 14.757581
_cell_length_b 5.584630
_cell_length_c 14.572157
_cell_angle_alpha 119.932770
_cell_angle_beta 142.414335
_cell_angle_gamma 60.900627
_cell_volume 625.359669
_symmetry_space_group_name_H-M "P -1"
_symmetry_group_IT_number 2
_symmetry_cell_setting 'triclinic'
loop_
_space_group_symop_operation_xyz
x,y,z
-x,-y,-z
loop_
_atom_site_type_symbol
_atom_site_label
_atom_site_fract_x
_atom_site_fract_y
_atom_site_fract_z
Si Si1 0.550609 0.792263 0.295627
Si Si2 0.785683 0.577895 0.725500
Si Si3 0.140848 0.104608 0.771082
Si Si4 0.836521 0.002983 0.566513
Si Si5 0.244125 0.135975 0.069126
Si Si6 0.500000 0.000000 0.500000
Si Si7 0.949825 0.310648 0.166161
Si Si8 0.562995 0.289971 0.095699
O O1 0.712103 0.839657 0.396343
O O2 0.420463 0.017336 0.188736
O O3 0.549887 0.839304 0.412052
O O4 0.523080 0.486065 0.188854
O O5 0.653249 0.827075 0.639500
O O6 0.944875 0.610412 0.815700
O O7 0.790898 0.591282 0.842714
O O8 0.751369 0.289555 0.600324
O O9 0.142995 0.422881 0.802026
O O10 0.258183 0.834529 0.785012
O O11 0.967430 0.064271 0.615377
O O12 0.184175 0.149265 0.920956
O O13 0.930190 0.839772 0.693177
O O14 0.158288 0.895669 0.995929
O O15 0.500000 0.500000 0.000000
O O16 0.500000 0.000000 0.000000
#
# Coordination Sequence:
#
# PCOD9106859 Si02
#       8
#     2   2   2   2   2   1   2   2
#     4  11  23  46  69 106 143 186 240 302 362 438
#     4  10  21  38  61  97 137 184 235 292 359 431
#     4  10  23  43  67  99 138 183 242 292 362 431
#     4  10  23  41  66  96 143 180 236 292 364 435
#     4  10  21  37  64  97 134 185 235 295 355 425
#     4  10  22  40  66 104 140 186 234 292 370 426
#     4  10  20  40  61  93 141 179 237 291 354 436
#     4  12  27  50  78 112 145 191 248 307 363 433
#
# _framework density 23.986196
#
# number of rings (size 3 to 8) (size 9 to 14) (size 15 to 20)
#    0.000    1.600    2.667    1.200    1.867    9.600 
#    7.200    0.667    0.000    0.000    0.000    0.000 
#    0.000    0.000    0.000    0.000    0.000    0.000 
#
# Total GULP energy -83566.766163 kJ/mol
# GULP energy per Si atom -5571.117744 kJ/mol
# Density = 2.393160 g / cm^3
# Si number density = 23.986196 Si / 1000 Ang^3
#
#
#
# Elastic Constant Matrix: (Units=GPa)
#
#
# Indices 1 2 3 4 5 6 
#
# 1 35.0480 23.5176 11.4996 4.2475 -0.1431 -11.8893
# 2 23.5176 80.2905 11.3106 -1.8158 17.5300 -14.7377
# 3 11.4996 11.3106 73.7084 -8.6077 32.6256 11.4329
# 4 4.2475 -1.8158 -8.6077 37.1543 -0.2249 8.1259
# 5 -0.1431 17.5300 32.6256 -0.2249 14.2269 -6.6881
# 6 -11.8893 -14.7377 11.4329 8.1259 -6.6881 25.9382
#
#
#
# Elastic Compliance Matrix: (Units=1/GPa)
#
#
# Indices 1 2 3 4 5 6 
#
# 1 0.020706 -0.001510 0.015825 0.003007 -0.038506 -0.009213
# 2 -0.001510 0.014962 -0.008630 -0.004356 0.008387 0.015140
# 3 0.015825 -0.008630 -0.008249 -0.007916 0.038194 0.018315
# 4 0.003007 -0.004356 -0.007916 0.024446 0.024423 0.001032
# 5 -0.038506 0.008387 0.038194 0.024423 -0.051437 -0.050634
# 6 -0.009213 0.015140 0.018315 0.001032 -0.050634 0.021480
#
#
# Mechanical properties :
#
#
# Convention : Reuss Voigt Hill
#
# Bulk Modulus (GPa) = 25.77963 31.30028 28.53995
# Shear Modulus (GPa) = 213.05434 24.97849 119.01641
#
# Velocity S-wave (km/s) = 9.43486 3.23053 7.05170
# Velocity P-wave (km/s) = 11.37804 5.19545 8.84456
#
# Compressibility (1/GPa) = 0.03879032
#
# Stress axis : x y z
#
# Youngs Moduli (GPa) = 48.29469 66.83517 -121.22711
#
# Poissons Ratio (x) = 0.10095 1.91847
# Poissons Ratio (y) = 0.07295 -1.04614
# Poissons Ratio (z) = -0.76428 0.57676
#
# Static dielectric constant tensor:
#      x y z
#    x 1.995540 0.054740 0.027400 
#    y 0.054740 1.992500 0.008320 
#    z 0.027400 0.008320 1.871710 
# 
# From -- ./inp_files/442286.got.cif
#   From: 2010.05.17/outbox.cif.g08.bks.cpg/sg2_222_cif.got.tgz:442286.got - 2010.06.03 11:33:40.
