data_PCOD9106830
_publ_section_title
;
Structure prediction by ZEFSAII (Michael W. Deem and Ramdas Pophale) SiO2 
 PCOD9106830
Probable space group: P -1
;
_chemical_formula_sum "Si O2"
_cell_formula_units_Z 16
_cell_length_a 11.011268
_cell_length_b 8.995200
_cell_length_c 11.257444
_cell_angle_alpha 91.868860
_cell_angle_beta 86.092192
_cell_angle_gamma 42.680195
_cell_volume 748.469203
_symmetry_space_group_name_H-M "P -1"
_symmetry_group_IT_number 2
_symmetry_cell_setting 'triclinic'
loop_
_space_group_symop_operation_xyz
x,y,z
-x,-y,-z
loop_
_atom_site_type_symbol
_atom_site_label
_atom_site_fract_x
_atom_site_fract_y
_atom_site_fract_z
Si Si1 0.962342 0.683634 0.078599
Si Si2 0.243344 0.486530 0.577950
Si Si3 0.282648 0.837129 0.983012
Si Si4 0.167151 0.812691 0.752758
Si Si5 0.275093 0.129811 0.661977
Si Si6 0.476900 0.340588 0.360930
Si Si7 0.694840 0.441358 0.858445
Si Si8 0.011832 0.141273 0.580598
O O1 0.851313 0.753329 0.209732
O O2 0.151177 0.592329 0.098264
O O3 0.834082 0.908938 0.015641
O O4 0.000000 0.500000 0.000000
O O5 0.162085 0.652341 0.697545
O O6 0.280512 0.285603 0.607673
O O7 0.420831 0.398350 0.503236
O O8 0.111243 0.631507 0.478888
O O9 0.188397 0.813304 0.890941
O O10 0.493019 0.668146 0.927588
O O11 0.279674 0.750722 0.103331
O O12 0.354883 0.709655 0.686821
O O13 0.020522 0.054841 0.709198
O O14 0.190166 0.083809 0.577665
O O15 0.466157 0.881943 0.674769
O O16 0.324416 0.525289 0.281201
O O17 0.000000 0.000000 0.500000
#
# Coordination Sequence:
#
# PCOD9106830 Si02
#       8
#     2   2   2   2   2   2   2   2
#     4  12  25  42  64  95 130 174 214 264 330 383
#     4  11  21  33  64  92 122 170 208 252 330 389
#     4  10  21  45  67  94 124 169 221 276 315 373
#     4   9  19  37  60  86 125 158 211 269 312 374
#     4  11  22  41  56  89 139 163 210 267 319 384
#     4  10  20  40  61  90 124 170 208 265 323 376
#     4  10  22  41  71  91 122 172 216 270 323 376
#     4   9  18  35  58  85 115 163 202 256 309 372
#
# _framework density 21.376964000000001
#
# number of rings (size 3 to 8) (size 9 to 14) (size 15 to 20)
#    0.000    1.750    3.750    2.250    1.750    0.500 
#    0.000    0.000    0.000    0.000    0.000    0.000 
#    0.000    0.000    0.000    0.000    0.000    0.000 
#
# Total GULP energy -89157.724908 kJ/mol
# GULP energy per Si atom -5572.357807 kJ/mol
# Density = 2.132831 g / cm^3
# Si number density = 21.376964 Si / 1000 Ang^3
#
#
#
# Elastic Constant Matrix: (Units=GPa)
#
#
# Indices 1 2 3 4 5 6 
#
# 1 54.5141 37.6143 29.5597 -9.2483 -2.4673 13.3125
# 2 37.6143 127.2185 55.9253 -34.8028 -2.4781 5.7633
# 3 29.5597 55.9253 91.3794 -8.9003 -8.3326 16.6825
# 4 -9.2483 -34.8028 -8.9003 35.2550 5.4811 -6.7304
# 5 -2.4673 -2.4781 -8.3326 5.4811 25.0094 -5.4404
# 6 13.3125 5.7633 16.6825 -6.7304 -5.4404 32.2346
#
#
#
# Elastic Compliance Matrix: (Units=1/GPa)
#
#
# Indices 1 2 3 4 5 6 
#
# 1 0.026312 -0.006507 -0.003205 -0.001871 -0.000562 -0.008530
# 2 -0.006507 0.017270 -0.008528 0.015002 -0.003639 0.006531
# 3 -0.003205 -0.008528 0.018300 -0.006771 0.004850 -0.007217
# 4 -0.001871 0.015002 -0.006771 0.044093 -0.008583 0.009353
# 5 -0.000562 -0.003639 0.004850 -0.008583 0.043935 0.003996
# 6 -0.008530 0.006531 -0.007217 0.009353 0.003996 0.039740
#
#
# Mechanical properties :
#
#
# Convention : Reuss Voigt Hill
#
# Bulk Modulus (GPa) = 39.36755 57.70118 48.53437
# Shear Modulus (GPa) = 21.31306 28.50065 24.90686
#
# Velocity S-wave (km/s) = 3.16097 3.65532 3.41710
# Velocity P-wave (km/s) = 5.63721 6.69821 6.19048
#
# Compressibility (1/GPa) = 0.02540163
#
# Stress axis : x y z
#
# Youngs Moduli (GPa) = 38.00584 57.90267 54.64552
#
# Poissons Ratio (x) = 0.37677 0.17516
# Poissons Ratio (y) = 0.24730 0.46600
# Poissons Ratio (z) = 0.12183 0.49378
#
# Static dielectric constant tensor:
#      x y z
#    x 1.819250 -0.135380 -0.058340 
#    y -0.135380 1.938050 0.096320 
#    z -0.058340 0.096320 1.864350 
# 
# From -- ./inp_files/273053.got.cif
#   From: 2010.05.17/outbox.cif.g08.bks.cpg/sg2_137_cif.got.tgz:273053.got - 2010.06.03 11:33:40.
