data_PCOD9106330
_publ_section_title
;
Structure prediction by ZEFSAII (Michael W. Deem and Ramdas Pophale) SiO2 
 PCOD9106330
Probable space group: P -1
;
_chemical_formula_sum "Si O2"
_cell_formula_units_Z 14
_cell_length_a 15.413062
_cell_length_b 12.948064
_cell_length_c 18.628381
_cell_angle_alpha 155.393615
_cell_angle_beta 27.479639
_cell_angle_gamma 135.201376
_cell_volume 616.520425
_symmetry_space_group_name_H-M "P -1"
_symmetry_group_IT_number 2
_symmetry_cell_setting 'triclinic'
loop_
_space_group_symop_operation_xyz
x,y,z
-x,-y,-z
loop_
_atom_site_type_symbol
_atom_site_label
_atom_site_fract_x
_atom_site_fract_y
_atom_site_fract_z
Si Si1 0.939851 0.708245 0.609454
Si Si2 0.511252 0.842023 0.966414
Si Si3 0.298495 0.564273 0.006952
Si Si4 0.755662 0.634333 0.235923
Si Si5 0.664640 0.301633 0.416842
Si Si6 0.945563 0.645361 0.845794
Si Si7 0.358323 0.742369 0.316314
O O1 0.992106 0.529126 0.384398
O O2 0.108462 0.820625 0.556451
O O3 0.000000 0.500000 0.500000
O O4 0.678292 0.896379 0.923403
O O5 0.309209 0.856351 0.167834
O O6 0.613220 0.512658 0.655980
O O7 0.500000 0.000000 0.000000
O O8 0.250067 0.468214 0.905556
O O9 0.518360 0.363464 0.765183
O O10 0.130486 0.529104 0.159128
O O11 0.566157 0.593412 0.385963
O O12 0.654554 0.972410 0.521312
O O13 0.000000 0.500000 0.000000
O O14 0.849638 0.334946 0.261202
O O15 0.770468 0.976281 0.163292
O O16 0.500000 0.500000 0.000000
#
# Coordination Sequence:
#
# PCOD9106330 Si02
#       7
#     2   2   2   2   2   2   2
#     4  11  22  37  63  97 127 168 215 276 332 392
#     4  10  23  39  60  91 132 170 214 266 341 403
#     4  11  22  42  70  95 129 183 227 280 329 406
#     4  11  25  42  65  99 138 180 220 279 351 403
#     4   9  20  39  66  87 132 164 216 268 333 387
#     4  10  20  39  69 100 124 166 231 280 322 393
#     4  12  23  41  68 100 136 169 236 281 326 407
#
# _framework density 22.708089000000001
#
# number of rings (size 3 to 8) (size 9 to 14) (size 15 to 20)
#    0.000    1.429    4.286    0.429    6.000    1.143 
#    0.000    7.143    0.000    0.000    0.000    0.000 
#    0.000    0.000    0.000    0.000    0.000    0.000 
#
# Total GULP energy -77950.615676 kJ/mol
# GULP energy per Si atom -5567.901120 kJ/mol
# Density = 2.265640 g / cm^3
# Si number density = 22.708089 Si / 1000 Ang^3
#
#
#
# Elastic Constant Matrix: (Units=GPa)
#
#
# Indices 1 2 3 4 5 6 
#
# 1 109.3049 48.0263 37.3477 -15.3336 -36.4333 20.0918
# 2 48.0263 194.8762 42.5295 -39.0883 -24.3875 17.0441
# 3 37.3477 42.5295 49.2957 -8.0612 -20.3337 14.3153
# 4 -15.3336 -39.0883 -8.0612 31.7927 11.0175 -16.1118
# 5 -36.4333 -24.3875 -20.3337 11.0175 36.9918 -15.7833
# 6 20.0918 17.0441 14.3153 -16.1118 -15.7833 43.2536
#
#
#
# Elastic Compliance Matrix: (Units=1/GPa)
#
#
# Indices 1 2 3 4 5 6 
#
# 1 0.015463 -0.000910 -0.006208 0.000752 0.010752 -0.000566
# 2 -0.000910 0.008294 -0.005788 0.009724 -0.000423 0.002538
# 3 -0.006208 -0.005788 0.033935 -0.007334 0.008473 -0.005707
# 4 0.000752 0.009724 -0.007334 0.051704 -0.005697 0.015427
# 5 0.010752 -0.000423 0.008473 -0.005697 0.046827 0.007333
# 6 -0.000566 0.002538 -0.005707 0.015427 0.007333 0.032694
#
#
# Mechanical properties :
#
#
# Convention : Reuss Voigt Hill
#
# Bulk Modulus (GPa) = 31.36593 67.69819 49.53206
# Shear Modulus (GPa) = 22.18718 37.44584 29.81651
#
# Velocity S-wave (km/s) = 3.12919 4.06520 3.62751
# Velocity P-wave (km/s) = 5.18637 7.20497 6.27734
#
# Compressibility (1/GPa) = 0.03188172
#
# Stress axis : x y z
#
# Youngs Moduli (GPa) = 64.67045 120.56351 29.46800
#
# Poissons Ratio (x) = 0.10973 0.18293
# Poissons Ratio (y) = 0.05886 0.17055
# Poissons Ratio (z) = 0.40145 0.69777
#
# Static dielectric constant tensor:
#      x y z
#    x 1.344480 -0.115530 -0.090990 
#    y -0.115530 1.950990 -0.161330 
#    z -0.090990 -0.161330 1.981040 
# 
# From -- ./inp_files/573639.got.cif
#   From: 2010.05.17/outbox.cif.g08.bks.cpg/sg2_287_cif.got.tgz:573639.got - 2010.06.03 11:33:40.
