data_PCOD9106629
_publ_section_title
;
Structure prediction by ZEFSAII (Michael W. Deem and Ramdas Pophale) SiO2 
 PCOD9106629
Probable space group: P -1
;
_chemical_formula_sum "Si O2"
_cell_formula_units_Z 14
_cell_length_a 9.051720
_cell_length_b 10.120823
_cell_length_c 14.149075
_cell_angle_alpha 44.642611
_cell_angle_beta 80.430783
_cell_angle_gamma 60.437941
_cell_volume 755.176517
_symmetry_space_group_name_H-M "P -1"
_symmetry_group_IT_number 2
_symmetry_cell_setting 'triclinic'
loop_
_space_group_symop_operation_xyz
x,y,z
-x,-y,-z
loop_
_atom_site_type_symbol
_atom_site_label
_atom_site_fract_x
_atom_site_fract_y
_atom_site_fract_z
Si Si1 0.860708 0.941454 0.578583
Si Si2 0.102245 0.111808 0.024480
Si Si3 0.153707 0.060205 0.838182
Si Si4 0.899253 0.509037 0.705232
Si Si5 0.511654 0.277957 0.144514
Si Si6 0.503224 0.772230 0.609385
Si Si7 0.174090 0.257814 0.126776
O O1 0.891043 0.733689 0.616719
O O2 0.872590 0.857943 0.726593
O O3 0.663392 0.160291 0.472516
O O4 0.000000 0.000000 0.500000
O O5 0.210655 0.127013 0.090617
O O6 0.211231 0.995115 0.975973
O O7 0.993314 0.004102 0.125283
O O8 0.955512 0.359038 0.871833
O O9 0.050396 0.329459 0.710233
O O10 0.314583 0.930394 0.816122
O O11 0.702761 0.580471 0.657405
O O12 0.527876 0.272624 0.258040
O O13 0.339106 0.273296 0.135434
O O14 0.500000 0.500000 0.000000
O O15 0.500000 0.000000 0.500000
O O16 0.000000 0.500000 0.000000
#
# Coordination Sequence:
#
# PCOD9106629 Si02
#       7
#     2   2   2   2   2   2   2
#     4  11  24  38  62  92 124 164 205 252 306 359
#     4   9  19  36  63  88 122 155 200 255 311 345
#     4   9  20  38  61  94 120 157 207 250 310 364
#     4   9  17  41  62  82 121 165 195 245 310 349
#     4  12  24  36  67  99 114 161 213 248 307 363
#     4  10  20  40  59  84 123 162 199 245 300 364
#     4  12  21  39  61  90 126 155 204 265 298 358
#
# _framework density 18.538713000000001
#
# number of rings (size 3 to 8) (size 9 to 14) (size 15 to 20)
#    0.857    0.857    4.286    1.714    4.000    0.571 
#    0.000    4.286    0.000    1.714    0.000    0.000 
#    0.000    0.000    0.000    0.000    0.000    0.000 
#
# Total GULP energy -77988.959863 kJ/mol
# GULP energy per Si atom -5570.639990 kJ/mol
# Density = 1.849652 g / cm^3
# Si number density = 18.538713 Si / 1000 Ang^3
#
#
#
# Elastic Constant Matrix: (Units=GPa)
#
#
# Indices 1 2 3 4 5 6 
#
# 1 51.1672 6.5108 28.1241 -0.2434 -1.2076 -2.0351
# 2 6.5108 78.8345 8.1261 -13.0149 5.3285 -13.5389
# 3 28.1241 8.1261 95.1008 2.0041 2.2901 -3.8873
# 4 -0.2434 -13.0149 2.0041 23.2889 0.1001 4.1309
# 5 -1.2076 5.3285 2.2901 0.1001 30.5854 -1.6555
# 6 -2.0351 -13.5389 -3.8873 4.1309 -1.6555 29.8580
#
#
#
# Elastic Compliance Matrix: (Units=1/GPa)
#
#
# Indices 1 2 3 4 5 6 
#
# 1 0.023542 -0.001303 -0.006884 0.000067 0.001683 0.000202
# 2 -0.001303 0.015240 -0.000794 0.007600 -0.002372 0.005535
# 3 -0.006884 -0.000794 0.012723 -0.001786 -0.001025 0.001018
# 4 0.000067 0.007600 -0.001786 0.047969 -0.001534 -0.003504
# 5 0.001683 -0.002372 -0.001025 -0.001534 0.033309 0.000965
# 6 0.000202 0.005535 0.001018 -0.003504 0.000965 0.036686
#
#
# Mechanical properties :
#
#
# Convention : Reuss Voigt Hill
#
# Bulk Modulus (GPa) = 29.81264 34.51385 32.16325
# Shear Modulus (GPa) = 25.17493 28.90256 27.03874
#
# Velocity S-wave (km/s) = 3.68906 3.95275 3.82318
# Velocity P-wave (km/s) = 5.85335 6.28410 6.07254
#
# Compressibility (1/GPa) = 0.03354281
#
# Stress axis : x y z
#
# Youngs Moduli (GPa) = 42.47810 65.61755 78.59897
#
# Poissons Ratio (x) = 0.08547 0.54110
# Poissons Ratio (y) = 0.05533 0.06239
# Poissons Ratio (z) = 0.29243 0.05209
#
# Static dielectric constant tensor:
#      x y z
#    x 1.646450 0.010860 0.008180 
#    y 0.010860 1.678460 -0.010300 
#    z 0.008180 -0.010300 1.650660 
# 
# From -- ./inp_files/498753.got.cif
#   From: 2010.05.17/outbox.cif.g08.bks.cpg/sg2_250_cif.got.tgz:498753.got - 2010.06.03 11:33:40.
