data_PCOD9106556
_publ_section_title
;
Structure prediction by ZEFSAII (Michael W. Deem and Ramdas Pophale) SiO2 
 PCOD9106556
Probable space group: P -1
;
_chemical_formula_sum "Si O2"
_cell_formula_units_Z 16
_cell_length_a 9.589400
_cell_length_b 19.919626
_cell_length_c 17.897129
_cell_angle_alpha 157.832532
_cell_angle_beta 35.433280
_cell_angle_gamma 151.420901
_cell_volume 617.034659
_symmetry_space_group_name_H-M "P -1"
_symmetry_group_IT_number 2
_symmetry_cell_setting 'triclinic'
loop_
_space_group_symop_operation_xyz
x,y,z
-x,-y,-z
loop_
_atom_site_type_symbol
_atom_site_label
_atom_site_fract_x
_atom_site_fract_y
_atom_site_fract_z
Si Si1 0.807925 0.743110 0.654136
Si Si2 0.761030 0.901609 0.437112
Si Si3 0.711360 0.481751 0.577693
Si Si4 0.938872 0.627317 0.021608
Si Si5 0.503022 0.040970 0.262763
Si Si6 0.818731 0.187971 0.580380
Si Si7 0.037471 0.191732 0.086324
Si Si8 0.262327 0.747569 0.851162
O O1 0.753606 0.597050 0.599783
O O2 0.010320 0.996211 0.852273
O O3 0.508225 0.313397 0.291914
O O4 0.977312 0.727653 0.494461
O O5 0.890089 0.066484 0.483114
O O6 0.494766 0.893189 0.584474
O O7 0.000000 0.000000 0.500000
O O8 0.710265 0.681708 0.202922
O O9 0.486634 0.223894 0.413527
O O10 0.000000 0.500000 0.500000
O O11 0.680029 0.621737 0.799482
O O12 0.231423 0.798017 0.116141
O O13 0.048056 0.695896 0.959939
O O14 0.832449 0.381695 0.816734
O O15 0.787137 0.068630 0.132944
O O16 0.500000 0.000000 0.500000
O O17 0.933193 0.303382 0.189490
O O18 0.500000 0.000000 0.000000
#
# Coordination Sequence:
#
# PCOD9106556 Si02
#       8
#     2   2   2   2   2   2   2   2
#     4  11  24  45  71 108 148 184 241 296 363 427
#     4  10  25  48  74 100 142 195 240 287 357 425
#     4  10  24  41  68 106 145 186 232 296 368 423
#     4  11  24  47  73 104 146 188 241 297 356 421
#     4  10  22  43  71 102 142 183 240 284 363 427
#     4  12  31  47  70 108 145 192 248 291 354 436
#     4  10  21  42  70 110 143 182 228 300 366 420
#     4  10  20  39  75 106 141 177 235 294 359 425
#
# _framework density 25.930474
#
# number of rings (size 3 to 8) (size 9 to 14) (size 15 to 20)
#    0.000    1.500    2.500    1.875    8.750    6.000 
#    2.250    0.000    0.000    0.000    0.000    0.000 
#    0.000    0.000    0.000    0.000    0.000    0.000 
#
# Total GULP energy -89473.103188 kJ/mol
# GULP energy per Si atom -5592.068949 kJ/mol
# Density = 2.587145 g / cm^3
# Si number density = 25.930474 Si / 1000 Ang^3
#
#
#
# Elastic Constant Matrix: (Units=GPa)
#
#
# Indices 1 2 3 4 5 6 
#
# 1 146.0636 37.9375 45.2512 4.6600 -6.4940 -24.6715
# 2 37.9375 96.6229 34.2791 -8.4067 -2.4426 -2.5783
# 3 45.2512 34.2791 209.5126 0.2813 -1.1760 1.3250
# 4 4.6600 -8.4067 0.2813 55.5488 -9.6036 5.0480
# 5 -6.4940 -2.4426 -1.1760 -9.6036 31.8617 5.5928
# 6 -24.6715 -2.5783 1.3250 5.0480 5.5928 30.0725
#
#
#
# Elastic Compliance Matrix: (Units=1/GPa)
#
#
# Indices 1 2 3 4 5 6 
#
# 1 0.009579 -0.003168 -0.001601 -0.002077 -0.000394 0.008079
# 2 -0.003168 0.012256 -0.001303 0.002568 0.001403 -0.002183
# 3 -0.001601 -0.001303 0.005343 0.000080 0.000092 -0.001691
# 4 -0.002077 0.002568 0.000080 0.020338 0.006995 -0.006202
# 5 -0.000394 0.001403 0.000092 0.006995 0.034907 -0.007873
# 6 0.008079 -0.002183 -0.001691 -0.006202 -0.007873 0.042274
#
#
# Mechanical properties :
#
#
# Convention : Reuss Voigt Hill
#
# Bulk Modulus (GPa) = 66.51489 76.34829 71.43159
# Shear Modulus (GPa) = 35.24823 45.81203 40.53013
#
# Velocity S-wave (km/s) = 3.69092 4.20780 3.95781
# Velocity P-wave (km/s) = 6.62350 7.28799 6.96368
#
# Compressibility (1/GPa) = 0.01503423
#
# Stress axis : x y z
#
# Youngs Moduli (GPa) = 104.39993 81.59108 187.15957
#
# Poissons Ratio (x) = 0.25848 0.29964
# Poissons Ratio (y) = 0.33074 0.24384
# Poissons Ratio (z) = 0.16714 0.10630
#
# Static dielectric constant tensor:
#      x y z
#    x 2.073780 0.040710 -0.019180 
#    y 0.040710 2.074850 -0.017530 
#    z -0.019180 -0.017530 2.194180 
# 
# From -- ./inp_files/570792.got.cif
#   From: 2010.05.17/outbox.cif.g08.bks.cpg/sg2_286_cif.got.tgz:570792.got - 2010.06.03 11:33:40.
