data_PCOD9106397
_publ_section_title
;
Structure prediction by ZEFSAII (Michael W. Deem and Ramdas Pophale) SiO2 
 PCOD9106397
Probable space group: P -1
;
_chemical_formula_sum "Si O2"
_cell_formula_units_Z 16
_cell_length_a 11.534370
_cell_length_b 8.956405
_cell_length_c 9.663052
_cell_angle_alpha 94.111092
_cell_angle_beta 109.281787
_cell_angle_gamma 125.555017
_cell_volume 719.965822
_symmetry_space_group_name_H-M "P -1"
_symmetry_group_IT_number 2
_symmetry_cell_setting 'triclinic'
loop_
_space_group_symop_operation_xyz
x,y,z
-x,-y,-z
loop_
_atom_site_type_symbol
_atom_site_label
_atom_site_fract_x
_atom_site_fract_y
_atom_site_fract_z
Si Si1 0.783188 0.459016 0.881748
Si Si2 0.113487 0.802137 0.130035
Si Si3 0.475040 0.575816 0.754163
Si Si4 0.245181 0.128829 0.730757
Si Si5 0.471100 0.804625 0.000652
Si Si6 0.275880 0.934020 0.490286
Si Si7 0.832373 0.894132 0.009057
Si Si8 0.613575 0.309455 0.537390
O O1 0.844711 0.339472 0.869668
O O2 0.660888 0.683691 0.879833
O O3 0.649488 0.327890 0.933511
O O4 0.727322 0.470113 0.709743
O O5 0.924121 0.662075 0.021100
O O6 0.179618 0.899589 0.311306
O O7 0.198293 0.959754 0.051571
O O8 0.350398 0.343716 0.718016
O O9 0.450722 0.622894 0.594857
O O10 0.424272 0.673363 0.839736
O O11 0.365941 0.133225 0.874433
O O12 0.197519 0.969400 0.585607
O O13 0.133255 0.096161 0.811618
O O14 0.500000 0.000000 0.000000
O O15 0.459049 0.130696 0.550686
O O16 0.298597 0.769984 0.498769
O O17 0.000000 0.000000 0.000000
#
# Coordination Sequence:
#
# PCOD9106397 Si02
#       8
#     2   2   2   2   2   2   2   2
#     4  10  21  39  68  98 123 167 214 275 322 391
#     4  10  22  40  64  95 132 164 214 263 337 391
#     4  11  24  41  63 100 131 167 225 276 321 387
#     4  11  24  41  63  98 132 169 223 276 319 388
#     4  11  21  37  68  96 126 166 221 276 324 375
#     4  10  20  40  67  98 129 168 215 276 327 387
#     4  11  24  41  64  87 132 182 210 260 332 398
#     4  10  20  39  69  98 127 166 223 269 328 383
#
# _framework density 22.223278000000001
#
# number of rings (size 3 to 8) (size 9 to 14) (size 15 to 20)
#    0.000    1.500    2.500    3.750    5.250    0.500 
#    2.250    1.875    0.000    5.250    3.250    0.000 
#    0.000    0.000    0.000    0.000    0.000    0.000 
#
# Total GULP energy -89239.375496 kJ/mol
# GULP energy per Si atom -5577.460968 kJ/mol
# Density = 2.217270 g / cm^3
# Si number density = 22.223278 Si / 1000 Ang^3
#
#
#
# Elastic Constant Matrix: (Units=GPa)
#
#
# Indices 1 2 3 4 5 6 
#
# 1 77.3824 6.7333 51.2135 6.7011 -14.3067 2.3384
# 2 6.7333 87.1201 23.0909 -1.9389 -13.8901 -7.3930
# 3 51.2135 23.0909 109.4439 9.3451 -14.1873 9.6808
# 4 6.7011 -1.9389 9.3451 40.2505 -4.4060 -3.4892
# 5 -14.3067 -13.8901 -14.1873 -4.4060 37.4502 -0.5110
# 6 2.3384 -7.3930 9.6808 -3.4892 -0.5110 21.2031
#
#
#
# Elastic Compliance Matrix: (Units=1/GPa)
#
#
# Indices 1 2 3 4 5 6 
#
# 1 0.019671 0.001905 -0.009214 -0.000286 0.004735 0.002769
# 2 0.001905 0.013784 -0.004008 0.002393 0.004698 0.006933
# 3 -0.009214 -0.004008 0.015272 -0.002845 0.000338 -0.007815
# 4 -0.000286 0.002393 -0.002845 0.026560 0.002915 0.006606
# 5 0.004735 0.004698 0.000338 0.002915 0.030754 0.002183
# 6 0.002769 0.006933 -0.007815 0.006606 0.002183 0.053983
#
#
# Mechanical properties :
#
#
# Convention : Reuss Voigt Hill
#
# Bulk Modulus (GPa) = 38.32272 48.44686 43.38479
# Shear Modulus (GPa) = 26.12926 32.64134 29.38530
#
# Velocity S-wave (km/s) = 3.43266 3.83664 3.64026
# Velocity P-wave (km/s) = 5.74393 6.44001 6.10190
#
# Compressibility (1/GPa) = 0.02609418
#
# Stress axis : x y z
#
# Youngs Moduli (GPa) = 50.83499 72.54688 65.47798
#
# Poissons Ratio (x) = -0.13822 0.60330
# Poissons Ratio (y) = -0.09685 0.26246
# Poissons Ratio (z) = 0.46838 0.29080
#
# Static dielectric constant tensor:
#      x y z
#    x 2.240420 -0.125140 -0.348420 
#    y -0.125140 1.865340 0.124230 
#    z -0.348420 0.124230 2.427510 
# 
# From -- ./inp_files/239833.got.cif
#   From: 2010.05.17/outbox.cif.g08.bks.cpg/sg2_120_cif.got.tgz:239833.got - 2010.06.03 11:33:40.
