data_PCOD9106873
_publ_section_title
;
Structure prediction by ZEFSAII (Michael W. Deem and Ramdas Pophale) SiO2 
 PCOD9106873
Probable space group: P -1
;
_chemical_formula_sum "Si O2"
_cell_formula_units_Z 16
_cell_length_a 9.672300
_cell_length_b 11.588654
_cell_length_c 12.381715
_cell_angle_alpha 125.588062
_cell_angle_beta 91.292029
_cell_angle_gamma 130.470224
_cell_volume 654.676077
_symmetry_space_group_name_H-M "P -1"
_symmetry_group_IT_number 2
_symmetry_cell_setting 'triclinic'
loop_
_space_group_symop_operation_xyz
x,y,z
-x,-y,-z
loop_
_atom_site_type_symbol
_atom_site_label
_atom_site_fract_x
_atom_site_fract_y
_atom_site_fract_z
Si Si1 0.925372 0.781890 0.164393
Si Si2 0.752575 0.206306 0.815727
Si Si3 0.641582 0.354578 0.753385
Si Si4 0.421574 0.855155 0.812373
Si Si5 0.651811 0.508821 0.444731
Si Si6 0.677100 0.669840 0.315618
Si Si7 0.829263 0.900876 0.039948
Si Si8 0.020035 0.353051 0.290614
O O1 0.833353 0.751884 0.262603
O O2 0.942899 0.930857 0.166922
O O3 0.157964 0.880243 0.238265
O O4 0.738137 0.526112 0.952806
O O5 0.630304 0.184486 0.702247
O O6 0.564511 0.048936 0.823526
O O7 0.000000 0.500000 0.000000
O O8 0.402056 0.231844 0.642180
O O9 0.836071 0.523979 0.752589
O O10 0.483219 0.739886 0.745266
O O11 0.134593 0.636437 0.685972
O O12 0.500000 0.000000 0.000000
O O13 0.500000 0.500000 0.500000
O O14 0.766161 0.687205 0.441830
O O15 0.804224 0.554876 0.563445
O O16 0.424057 0.380440 0.136149
O O17 0.825396 0.065350 0.131663
O O18 0.000000 0.000000 0.000000
#
# Coordination Sequence:
#
# PCOD9106873 Si02
#       8
#     2   2   2   2   2   2   2   2
#     4  10  22  37  65 103 140 181 245 299 356 411
#     4  10  24  40  66 106 145 176 233 311 362 412
#     4  10  20  40  62 100 142 182 228 298 364 416
#     4  12  28  46  79 110 139 192 256 299 353 432
#     4  12  27  50  73 104 154 196 239 298 370 437
#     4  11  23  40  71  99 138 193 244 295 357 430
#     4  11  20  38  70 106 139 180 247 302 350 426
#     4  12  25  43  72 105 147 190 238 299 371 430
#
# _framework density 24.439567
#
# number of rings (size 3 to 8) (size 9 to 14) (size 15 to 20)
#    0.000    1.000    3.750    4.125   14.000    0.000 
#    0.000    1.250    0.000    0.000    0.000    0.000 
#    0.000    0.000    0.000    0.000    0.000    0.000 
#
# Total GULP energy -89518.919065 kJ/mol
# GULP energy per Si atom -5594.932442 kJ/mol
# Density = 2.438394 g / cm^3
# Si number density = 24.439567 Si / 1000 Ang^3
#
#
#
# Elastic Constant Matrix: (Units=GPa)
#
#
# Indices 1 2 3 4 5 6 
#
# 1 156.5838 71.3622 31.7086 -31.7656 -3.7650 1.2750
# 2 71.3622 166.0747 35.1470 -53.4637 8.7702 10.8361
# 3 31.7086 35.1470 104.6182 -25.7641 1.3921 -1.0770
# 4 -31.7656 -53.4637 -25.7641 41.3063 -6.3462 3.7560
# 5 -3.7650 8.7702 1.3921 -6.3462 24.0130 -12.0294
# 6 1.2750 10.8361 -1.0770 3.7560 -12.0294 51.2758
#
#
#
# Elastic Compliance Matrix: (Units=1/GPa)
#
#
# Indices 1 2 3 4 5 6 
#
# 1 0.008510 -0.002825 -0.000994 0.002737 0.003659 0.001023
# 2 -0.002825 0.011905 0.000098 0.013154 -0.003431 -0.004212
# 3 -0.000994 0.000098 0.011451 0.006644 0.000883 -0.000035
# 4 0.002737 0.013154 0.006644 0.048802 0.005654 -0.004957
# 5 0.003659 -0.003431 0.000883 0.005654 0.051031 0.012210
# 6 0.001023 -0.004212 -0.000035 -0.004957 0.012210 0.023594
#
#
# Mechanical properties :
#
#
# Convention : Reuss Voigt Hill
#
# Bulk Modulus (GPa) = 40.94423 78.19025 59.56724
# Shear Modulus (GPa) = 29.26077 42.58959 35.92518
#
# Velocity S-wave (km/s) = 3.46391 4.17903 3.83816
# Velocity P-wave (km/s) = 5.72607 7.43966 6.63839
#
# Compressibility (1/GPa) = 0.02442347
#
# Stress axis : x y z
#
# Youngs Moduli (GPa) = 117.50609 83.99767 87.32906
#
# Poissons Ratio (x) = 0.23732 0.08684
# Poissons Ratio (y) = 0.33200 -0.00859
# Poissons Ratio (z) = 0.11684 -0.00826
#
# Static dielectric constant tensor:
#      x y z
#    x 1.984500 -0.016060 -0.003320 
#    y -0.016060 1.911260 0.055500 
#    z -0.003320 0.055500 2.135930 
# 
# From -- ./inp_files/392860.got.cif
#   From: 2010.05.17/outbox.cif.g08.bks.cpg/sg2_197_cif.got.tgz:392860.got - 2010.06.03 11:33:40.
