data_PCOD9106631
_publ_section_title
;
Structure prediction by ZEFSAII (Michael W. Deem and Ramdas Pophale) SiO2 
 PCOD9106631
Probable space group: P -1
;
_chemical_formula_sum "Si O2"
_cell_formula_units_Z 16
_cell_length_a 6.953127
_cell_length_b 14.782815
_cell_length_c 7.550130
_cell_angle_alpha 74.918557
_cell_angle_beta 82.013466
_cell_angle_gamma 94.730962
_cell_volume 736.323207
_symmetry_space_group_name_H-M "P -1"
_symmetry_group_IT_number 2
_symmetry_cell_setting 'triclinic'
loop_
_space_group_symop_operation_xyz
x,y,z
-x,-y,-z
loop_
_atom_site_type_symbol
_atom_site_label
_atom_site_fract_x
_atom_site_fract_y
_atom_site_fract_z
Si Si1 0.279795 0.845037 0.848305
Si Si2 0.046238 0.013486 0.773541
Si Si3 0.064999 0.653928 0.871431
Si Si4 0.437393 0.102232 0.509317
Si Si5 0.269423 0.482726 0.545922
Si Si6 0.732733 0.138718 0.758136
Si Si7 0.719408 0.518336 0.034926
Si Si8 0.065508 0.659860 0.456893
O O1 0.144647 0.746235 0.918681
O O2 0.470667 0.840039 0.703333
O O3 0.130431 0.916795 0.761578
O O4 0.339531 0.877699 0.022666
O O5 0.216520 0.087378 0.621227
O O6 0.847430 0.052610 0.721902
O O7 0.000000 0.000000 0.000000
O O8 0.169146 0.569978 0.987454
O O9 0.118808 0.672125 0.650533
O O10 0.835578 0.617023 0.909213
O O11 0.560494 0.144068 0.640499
O O12 0.500000 0.000000 0.500000
O O13 0.500000 0.500000 0.500000
O O14 0.242034 0.478201 0.762022
O O15 0.184490 0.573610 0.426627
O O16 0.156857 0.387720 0.523970
O O17 0.873947 0.237982 0.686265
O O18 0.500000 0.500000 0.000000
#
# Coordination Sequence:
#
# PCOD9106631 Si02
#       8
#     2   2   2   2   2   2   2   2
#     4  10  21  40  64  92 124 167 210 258 316 371
#     4   9  22  41  64  92 125 161 212 257 312 374
#     4  10  20  40  59  85 127 157 210 257 306 377
#     4  10  22  41  62  90 125 162 211 259 315 371
#     4  10  21  37  60  88 123 159 208 256 310 374
#     4  11  22  41  65  90 127 168 207 261 317 370
#     4  10  21  37  60  88 119 162 205 256 310 369
#     4  10  21  38  61  87 122 169 199 258 319 362
#
# _framework density 21.729589000000001
#
# number of rings (size 3 to 8) (size 9 to 14) (size 15 to 20)
#    0.000    2.000    1.250    1.500    0.000   10.500 
#    2.250    5.000    0.000    0.000    0.000    0.000 
#    0.000    0.000    0.000    0.000    0.000    0.000 
#
# Total GULP energy -89091.221870 kJ/mol
# GULP energy per Si atom -5568.201367 kJ/mol
# Density = 2.168013 g / cm^3
# Si number density = 21.729589 Si / 1000 Ang^3
#
#
#
# Elastic Constant Matrix: (Units=GPa)
#
#
# Indices 1 2 3 4 5 6 
#
# 1 80.3552 2.0636 23.1582 10.6636 -18.5342 7.9831
# 2 2.0636 53.3067 8.2867 1.7119 -4.6264 13.8017
# 3 23.1582 8.2867 97.0667 16.6193 -6.2262 -2.5750
# 4 10.6636 1.7119 16.6193 28.7240 7.1049 2.7959
# 5 -18.5342 -4.6264 -6.2262 7.1049 26.6794 1.9729
# 6 7.9831 13.8017 -2.5750 2.7959 1.9729 22.4739
#
#
#
# Elastic Compliance Matrix: (Units=1/GPa)
#
#
# Indices 1 2 3 4 5 6 
#
# 1 0.019013 0.003898 -0.002550 -0.008918 0.016387 -0.009769
# 2 0.003898 0.024176 -0.002646 -0.001675 0.007988 -0.017027
# 3 -0.002550 -0.002646 0.012648 -0.007238 0.002303 0.004679
# 4 -0.008918 -0.001675 -0.007238 0.047630 -0.020805 -0.000732
# 5 0.016387 0.007988 0.002303 -0.020805 0.057283 -0.012903
# 6 -0.009769 -0.017027 0.004679 -0.000732 -0.012903 0.060183
#
#
# Mechanical properties :
#
#
# Convention : Reuss Voigt Hill
#
# Bulk Modulus (GPa) = 18.78303 33.08285 25.93294
# Shear Modulus (GPa) = 20.72323 28.72346 24.72335
#
# Velocity S-wave (km/s) = 3.09153 3.63968 3.37675
# Velocity P-wave (km/s) = 4.62668 5.73767 5.21187
#
# Compressibility (1/GPa) = 0.05323954
#
# Stress axis : x y z
#
# Youngs Moduli (GPa) = 52.59521 41.36419 79.06600
#
# Poissons Ratio (x) = -0.16125 0.20163
# Poissons Ratio (y) = -0.20503 0.20924
# Poissons Ratio (z) = 0.13413 0.10947
#
# Static dielectric constant tensor:
#      x y z
#    x 1.911700 -0.037790 -0.326800 
#    y -0.037790 1.806530 0.061300 
#    z -0.326800 0.061300 2.557800 
# 
# From -- ./inp_files/134929.got.cif
#   From: 2010.05.17/outbox.cif.g08.bks.cpg/sg2_68_cif.got.tgz:134929.got - 2010.06.03 11:33:40.
