data_PCOD9106117
_publ_section_title
;
Structure prediction by ZEFSAII (Michael W. Deem and Ramdas Pophale) SiO2 
 PCOD9106117
Probable space group: P -1
;
_chemical_formula_sum "Si O2"
_cell_formula_units_Z 16
_cell_length_a 8.417640
_cell_length_b 8.143143
_cell_length_c 15.838157
_cell_angle_alpha 91.265779
_cell_angle_beta 117.072096
_cell_angle_gamma 45.509975
_cell_volume 609.679860
_symmetry_space_group_name_H-M "P -1"
_symmetry_group_IT_number 2
_symmetry_cell_setting 'triclinic'
loop_
_space_group_symop_operation_xyz
x,y,z
-x,-y,-z
loop_
_atom_site_type_symbol
_atom_site_label
_atom_site_fract_x
_atom_site_fract_y
_atom_site_fract_z
Si Si1 0.888321 0.147552 0.618698
Si Si2 0.371009 0.715014 0.257692
Si Si3 0.584094 0.174812 0.026475
Si Si4 0.503837 0.018222 0.854934
Si Si5 0.403086 0.309685 0.435354
Si Si6 0.437435 0.315042 0.244247
Si Si7 0.923737 0.435220 0.327563
Si Si8 0.923027 0.266113 0.144486
O O1 0.774659 0.206930 0.687047
O O2 0.731013 0.112730 0.530987
O O3 0.755736 0.416442 0.562796
O O4 0.222968 0.914059 0.687440
O O5 0.325008 0.576788 0.195751
O O6 0.705315 0.508727 0.340057
O O7 0.232086 0.980214 0.190227
O O8 0.632958 0.002457 0.105890
O O9 0.749924 0.220641 0.090129
O O10 0.257132 0.467701 0.944136
O O11 0.652604 0.048186 0.950537
O O12 0.664006 0.766687 0.835433
O O13 0.246441 0.282665 0.744112
O O14 0.372504 0.327815 0.326704
O O15 0.228387 0.280509 0.428051
O O16 0.937844 0.312885 0.245816
#
# Coordination Sequence:
#
# PCOD9106117 Si02
#       8
#     2   2   2   2   2   2   2   2
#     4  10  21  43  65  99 132 168 222 266 321 388
#     4  11  24  40  66  93 134 182 211 260 333 386
#     4   9  20  41  68  94 127 169 217 280 318 388
#     4  10  20  39  67  94 129 162 219 274 319 378
#     4  10  23  39  70  98 129 173 215 273 321 379
#     4  11  22  42  68  97 130 175 216 268 326 389
#     4  11  23  40  65  97 131 176 215 265 323 387
#     4  10  22  42  65  89 136 172 215 265 332 388
#
# _framework density 26.243282000000001
#
# number of rings (size 3 to 8) (size 9 to 14) (size 15 to 20)
#    0.000    1.750    1.250    2.625    3.500    0.500 
#    0.000   13.750    0.000    0.000    0.000    0.000 
#    0.000    0.000    0.000    0.000    0.000    0.000 
#
# Total GULP energy -89546.361802 kJ/mol
# GULP energy per Si atom -5596.647613 kJ/mol
# Density = 2.618355 g / cm^3
# Si number density = 26.243282 Si / 1000 Ang^3
#
#
#
# Elastic Constant Matrix: (Units=GPa)
#
#
# Indices 1 2 3 4 5 6 
#
# 1 82.3097 51.2781 16.3775 1.5847 34.6467 7.7390
# 2 51.2781 135.7637 33.5226 4.9320 8.9419 11.9028
# 3 16.3775 33.5226 70.7603 7.3822 27.5111 -1.1835
# 4 1.5847 4.9320 7.3822 48.6689 0.5260 13.1085
# 5 34.6467 8.9419 27.5111 0.5260 49.3408 -4.5315
# 6 7.7390 11.9028 -1.1835 13.1085 -4.5315 47.5339
#
#
#
# Elastic Compliance Matrix: (Units=1/GPa)
#
#
# Indices 1 2 3 4 5 6 
#
# 1 0.025749 -0.009663 0.006382 0.000373 -0.020227 -0.003645
# 2 -0.009663 0.012227 -0.006821 0.000275 0.008283 -0.000944
# 3 0.006382 -0.006821 0.022248 -0.002865 -0.015572 0.000528
# 4 0.000373 0.000275 -0.002865 0.022662 0.000456 -0.006407
# 5 -0.020227 0.008283 -0.015572 0.000456 0.042080 0.004717
# 6 -0.003645 -0.000944 0.000528 -0.006407 0.004717 0.024097
#
#
# Mechanical properties :
#
#
# Convention : Reuss Voigt Hill
#
# Bulk Modulus (GPa) = 24.98677 54.57668 39.78172
# Shear Modulus (GPa) = 27.38121 41.61909 34.50015
#
# Velocity S-wave (km/s) = 3.23361 3.98665 3.62971
# Velocity P-wave (km/s) = 4.84598 6.48327 5.72347
#
# Compressibility (1/GPa) = 0.04002118
#
# Stress axis : x y z
#
# Youngs Moduli (GPa) = 38.83653 81.78646 44.94748
#
# Poissons Ratio (x) = 0.79031 -0.28688
# Poissons Ratio (y) = 0.37528 0.30658
# Poissons Ratio (z) = -0.24787 0.55785
#
# Static dielectric constant tensor:
#      x y z
#    x 2.155600 0.016480 -0.008260 
#    y 0.016480 2.087530 -0.054910 
#    z -0.008260 -0.054910 2.055810 
# 
# From -- ./inp_files/89927.got.cif
#   From: 2010.05.17/outbox.cif.g08.bks.cpg/sg2_45_cif.got.tgz:89927.got - 2010.06.03 11:33:40.
