data_PCOD9106968
_publ_section_title
;
Structure prediction by ZEFSAII (Michael W. Deem and Ramdas Pophale) SiO2 
 PCOD9106968
Probable space group: P -1
;
_chemical_formula_sum "Si O2"
_cell_formula_units_Z 14
_cell_length_a 8.730313
_cell_length_b 9.650177
_cell_length_c 9.548271
_cell_angle_alpha 47.562930
_cell_angle_beta 74.648589
_cell_angle_gamma 90.283344
_cell_volume 553.128316
_symmetry_space_group_name_H-M "P -1"
_symmetry_group_IT_number 2
_symmetry_cell_setting 'triclinic'
loop_
_space_group_symop_operation_xyz
x,y,z
-x,-y,-z
loop_
_atom_site_type_symbol
_atom_site_label
_atom_site_fract_x
_atom_site_fract_y
_atom_site_fract_z
Si Si1 0.871439 0.227348 0.488067
Si Si2 0.219824 0.641350 0.315213
Si Si3 0.242250 0.366810 0.258443
Si Si4 0.737654 0.061757 0.121028
Si Si5 0.432289 0.304758 0.739042
Si Si6 0.385617 0.160470 0.149318
Si Si7 0.827376 0.338402 0.136603
O O1 0.886112 0.384708 0.501411
O O2 0.770550 0.284920 0.344138
O O3 0.054373 0.239361 0.383817
O O4 0.774907 0.017941 0.706762
O O5 0.255985 0.462130 0.343421
O O6 0.399730 0.763567 0.240810
O O7 0.165647 0.782308 0.122093
O O8 0.362055 0.250535 0.244943
O O9 0.264310 0.548280 0.022728
O O10 0.553438 0.093164 0.157281
O O11 0.825895 0.136858 0.194734
O O12 0.706151 0.847447 0.211555
O O13 0.500000 0.500000 0.500000
O O14 0.383178 0.299731 0.919397
O O15 0.000000 0.500000 0.000000
#
# Coordination Sequence:
#
# PCOD9106968 Si02
#       7
#     2   2   2   2   2   2   2
#     4  11  20  40  64  88 130 170 206 258 312 375
#     4  10  20  40  62  89 126 166 213 251 316 377
#     4  10  23  38  62  96 125 169 211 255 310 377
#     4  10  20  42  64  89 126 170 206 261 323 371
#     4  11  23  39  64  93 127 163 215 269 313 373
#     4  11  22  39  65  92 130 164 214 260 315 377
#     4   9  22  39  63  92 127 162 209 256 313 373
#
# _framework density 25.310583000000001
#
# number of rings (size 3 to 8) (size 9 to 14) (size 15 to 20)
#    0.000    1.714    2.857    1.714    2.000    6.857 
#    0.000    0.000    0.000    2.571    0.000    0.000 
#    0.000    0.000    0.000    0.000    0.000    0.000 
#
# Total GULP energy -78143.331591 kJ/mol
# GULP energy per Si atom -5581.666542 kJ/mol
# Density = 2.525298 g / cm^3
# Si number density = 25.310583 Si / 1000 Ang^3
#
#
#
# Elastic Constant Matrix: (Units=GPa)
#
#
# Indices 1 2 3 4 5 6 
#
# 1 34.9238 10.1314 16.0038 5.6492 -13.6883 8.1577
# 2 10.1314 148.9608 37.8664 26.4912 -5.7844 23.1262
# 3 16.0038 37.8664 147.1599 14.4388 -4.3752 0.9080
# 4 5.6492 26.4912 14.4388 48.5574 12.0712 -10.2793
# 5 -13.6883 -5.7844 -4.3752 12.0712 34.7790 3.7510
# 6 8.1577 23.1262 0.9080 -10.2793 3.7510 32.6878
#
#
#
# Elastic Compliance Matrix: (Units=1/GPa)
#
#
# Indices 1 2 3 4 5 6 
#
# 1 0.051195 0.007253 -0.004091 -0.022644 0.031781 -0.028562
# 2 0.007253 0.011746 -0.002188 -0.012417 0.010479 -0.015167
# 3 -0.004091 -0.002188 0.007720 0.000265 -0.001375 0.002595
# 4 -0.022644 -0.012417 0.000265 0.043992 -0.029628 0.031663
# 5 0.031781 0.010479 -0.001375 -0.029628 0.056469 -0.031104
# 6 -0.028562 -0.015167 0.002595 0.031663 -0.031104 0.061905
#
#
# Mechanical properties :
#
#
# Convention : Reuss Voigt Hill
#
# Bulk Modulus (GPa) = 13.77215 51.00531 32.38873
# Shear Modulus (GPa) = 19.58622 41.00771 30.29697
#
# Velocity S-wave (km/s) = 2.78481 4.02951 3.46353
# Velocity P-wave (km/s) = 3.97408 6.46876 5.36834
#
# Compressibility (1/GPa) = 0.07261028
#
# Stress axis : x y z
#
# Youngs Moduli (GPa) = 19.53307 85.13730 129.52893
#
# Poissons Ratio (x) = -0.61753 0.52992
# Poissons Ratio (y) = -0.14168 0.28337
# Poissons Ratio (z) = 0.07991 0.18626
#
# Static dielectric constant tensor:
#      x y z
#    x 2.021350 0.024340 0.029620 
#    y 0.024340 2.128240 -0.021750 
#    z 0.029620 -0.021750 2.078510 
# 
# From -- ./inp_files/177324.got.cif
#   From: 2010.05.17/outbox.cif.g08.bks.cpg/sg2_89_cif.got.tgz:177324.got - 2010.06.03 11:33:40.
