data_PCOD9106973
_publ_section_title
;
Structure prediction by ZEFSAII (Michael W. Deem and Ramdas Pophale) SiO2 
 PCOD9106973
Probable space group: P -1
;
_chemical_formula_sum "Si O2"
_cell_formula_units_Z 14
_cell_length_a 8.573583
_cell_length_b 12.017608
_cell_length_c 11.650034
_cell_angle_alpha 80.305694
_cell_angle_beta 38.726634
_cell_angle_gamma 58.931920
_cell_volume 578.538143
_symmetry_space_group_name_H-M "P -1"
_symmetry_group_IT_number 2
_symmetry_cell_setting 'triclinic'
loop_
_space_group_symop_operation_xyz
x,y,z
-x,-y,-z
loop_
_atom_site_type_symbol
_atom_site_label
_atom_site_fract_x
_atom_site_fract_y
_atom_site_fract_z
Si Si1 0.097427 0.581827 0.541012
Si Si2 0.680111 0.550176 0.957345
Si Si3 0.375307 0.287681 0.414797
Si Si4 0.247367 0.264981 0.759121
Si Si5 0.062880 0.844237 0.551503
Si Si6 0.814088 0.122302 0.758703
Si Si7 0.241625 0.027850 0.738894
O O1 0.870770 0.568030 0.750278
O O2 0.926944 0.646850 0.505452
O O3 0.408618 0.414583 0.374705
O O4 0.105778 0.700468 0.575127
O O5 0.925369 0.427327 0.929769
O O6 0.500000 0.500000 0.000000
O O7 0.463512 0.706485 0.113473
O O8 0.310983 0.269680 0.585623
O O9 0.642709 0.123599 0.250148
O O10 0.576263 0.209419 0.637276
O O11 0.190897 0.148256 0.829481
O O12 0.958334 0.893712 0.471044
O O13 0.827567 0.985623 0.740625
O O14 0.938865 0.093697 0.820829
O O15 0.500000 0.000000 0.500000
#
# Coordination Sequence:
#
# PCOD9106973 Si02
#       7
#     2   2   2   2   2   2   2
#     4  10  23  38  61  91 125 159 204 254 305 358
#     4  11  24  41  64  88 126 162 201 255 311 355
#     4   9  19  35  62  88 115 159 211 252 276 358
#     4  10  20  37  66  91 120 159 206 253 297 360
#     4  11  23  38  66  93 120 162 207 250 300 364
#     4  11  23  38  65  93 122 164 204 248 306 366
#     4  10  16  34  61  89 116 154 212 247 278 353
#
# _framework density 24.198922
#
# number of rings (size 3 to 8) (size 9 to 14) (size 15 to 20)
#    0.000    1.714    4.286    1.714    6.000    3.429 
#    0.000    0.714    3.143    0.000    0.000    0.000 
#    0.000    0.000    0.000    0.000    0.000    0.000 
#
# Total GULP energy -78064.789648 kJ/mol
# GULP energy per Si atom -5576.056403 kJ/mol
# Density = 2.414384 g / cm^3
# Si number density = 24.198922 Si / 1000 Ang^3
#
#
#
# Elastic Constant Matrix: (Units=GPa)
#
#
# Indices 1 2 3 4 5 6 
#
# 1 68.4935 68.0068 29.1777 9.2678 3.0420 20.1923
# 2 68.0068 253.4162 50.6876 55.1419 -15.9704 45.1437
# 3 29.1777 50.6876 51.7779 19.6046 2.1011 13.5864
# 4 9.2678 55.1419 19.6046 59.7358 0.3670 4.5026
# 5 3.0420 -15.9704 2.1011 0.3670 16.8088 4.0885
# 6 20.1923 45.1437 13.5864 4.5026 4.0885 50.7685
#
#
#
# Elastic Compliance Matrix: (Units=1/GPa)
#
#
# Indices 1 2 3 4 5 6 
#
# 1 0.024823 -0.006231 -0.008997 0.005032 -0.008997 -0.001647
# 2 -0.006231 0.009120 -0.002012 -0.006452 0.011511 -0.005448
# 3 -0.008997 -0.002012 0.029273 -0.006209 -0.003407 -0.001641
# 4 0.005032 -0.006452 -0.006209 0.023706 -0.007736 0.003918
# 5 -0.008997 0.011511 -0.003407 -0.007736 0.075359 -0.011128
# 6 -0.001647 -0.005448 -0.001641 0.003918 -0.011128 0.026185
#
#
# Mechanical properties :
#
#
# Convention : Reuss Voigt Hill
#
# Bulk Modulus (GPa) = 34.79810 74.38132 54.58971
# Shear Modulus (GPa) = 21.50320 40.51698 31.01009
#
# Velocity S-wave (km/s) = 2.98418 4.09630 3.58364
# Velocity P-wave (km/s) = 5.12689 7.29226 6.30325
#
# Compressibility (1/GPa) = 0.02873720
#
# Stress axis : x y z
#
# Youngs Moduli (GPa) = 40.28518 109.64373 34.16157
#
# Poissons Ratio (x) = 0.68315 0.30735
# Poissons Ratio (y) = 0.25100 0.06873
# Poissons Ratio (z) = 0.36245 0.22059
#
# Static dielectric constant tensor:
#      x y z
#    x 1.964620 0.041550 -0.003390 
#    y 0.041550 2.027280 0.088300 
#    z -0.003390 0.088300 2.058640 
# 
# From -- ./inp_files/499089.got.cif
#   From: 2010.05.17/outbox.cif.g08.bks.cpg/sg2_250_cif.got.tgz:499089.got - 2010.06.03 11:33:40.
