data_PCOD9106479
_publ_section_title
;
Structure prediction by ZEFSAII (Michael W. Deem and Ramdas Pophale) SiO2 
 PCOD9106479
Probable space group: P -1
;
_chemical_formula_sum "Si O2"
_cell_formula_units_Z 16
_cell_length_a 30.053778
_cell_length_b 8.202069
_cell_length_c 6.804854
_cell_angle_alpha 62.176834
_cell_angle_beta 44.893136
_cell_angle_gamma 39.188928
_cell_volume 735.223346
_symmetry_space_group_name_H-M "P -1"
_symmetry_group_IT_number 2
_symmetry_cell_setting 'triclinic'
loop_
_space_group_symop_operation_xyz
x,y,z
-x,-y,-z
loop_
_atom_site_type_symbol
_atom_site_label
_atom_site_fract_x
_atom_site_fract_y
_atom_site_fract_z
Si Si1 0.972857 0.596537 0.752903
Si Si2 0.453349 0.846245 0.776113
Si Si3 0.278871 0.723443 0.246633
Si Si4 0.850318 0.339645 0.263224
Si Si5 0.539307 0.820427 0.170232
Si Si6 0.222592 0.115682 0.886048
Si Si7 0.994142 0.827629 0.865737
Si Si8 0.358492 0.717305 0.359803
O O1 0.998015 0.743352 0.679638
O O2 0.000000 0.500000 0.500000
O O3 0.865717 0.791931 0.988097
O O4 0.018423 0.336956 0.879714
O O5 0.464590 0.860874 0.501473
O O6 0.552325 0.577165 0.690790
O O7 0.430291 0.082711 0.828394
O O8 0.388084 0.821400 0.064240
O O9 0.215544 0.680021 0.442265
O O10 0.293683 0.725278 0.429559
O O11 0.376563 0.477202 0.988346
O O12 0.237410 0.985298 0.119984
O O13 0.797399 0.626730 0.188670
O O14 0.916039 0.268820 0.273312
O O15 0.913066 0.127156 0.014486
O O16 0.500000 0.000000 0.000000
O O17 0.307565 0.900460 0.603867
#
# Coordination Sequence:
#
# PCOD9106479 Si02
#       8
#     2   2   2   2   2   2   2   2
#     4  10  20  39  70  97 131 176 223 270 340 402
#     4  10  23  41  65  93 124 170 226 275 338 400
#     4  12  24  41  64  96 131 174 222 279 339 393
#     4  10  22  42  67  94 136 176 222 275 337 398
#     4  11  22  42  66  95 127 172 223 279 338 407
#     4  11  24  42  61  98 136 170 222 280 332 398
#     4   9  20  42  65  95 132 176 219 276 328 401
#     4  11  23  42  63  91 131 173 222 281 331 398
#
# _framework density 21.762094999999999
#
# number of rings (size 3 to 8) (size 9 to 14) (size 15 to 20)
#    0.000    1.500    2.500    2.250    0.000    4.500 
#    0.000   15.000    0.000    0.000    0.000    0.000 
#    0.000    0.000    0.000    0.000    0.000    0.000 
#
# Total GULP energy -89499.043113 kJ/mol
# GULP energy per Si atom -5593.690195 kJ/mol
# Density = 2.171256 g / cm^3
# Si number density = 21.762095 Si / 1000 Ang^3
#
#
#
# Elastic Constant Matrix: (Units=GPa)
#
#
# Indices 1 2 3 4 5 6 
#
# 1 74.4219 8.5152 26.5026 4.9491 16.5457 13.3899
# 2 8.5152 83.5284 5.8313 0.9884 12.0668 -1.0512
# 3 26.5026 5.8313 73.3322 -15.3778 6.1692 0.7721
# 4 4.9491 0.9884 -15.3778 31.7607 3.4553 6.0554
# 5 16.5457 12.0668 6.1692 3.4553 27.6491 2.9338
# 6 13.3899 -1.0512 0.7721 6.0554 2.9338 20.4622
#
#
#
# Elastic Compliance Matrix: (Units=1/GPa)
#
#
# Indices 1 2 3 4 5 6 
#
# 1 0.020106 -0.000385 -0.007152 -0.003619 -0.008692 -0.010590
# 2 -0.000385 0.012856 -0.000520 -0.000348 -0.005413 0.001811
# 3 -0.007152 -0.000520 0.018414 0.009931 -0.000966 0.001158
# 4 -0.003619 -0.000348 0.009931 0.039003 -0.003815 -0.009019
# 5 -0.008692 -0.005413 -0.000966 -0.003815 0.044401 0.000209
# 6 -0.010590 0.001811 0.001158 -0.009019 0.000209 0.058489
#
#
# Mechanical properties :
#
#
# Convention : Reuss Voigt Hill
#
# Bulk Modulus (GPa) = 28.35852 34.77561 31.56706
# Shear Modulus (GPa) = 22.61022 28.66996 25.64009
#
# Velocity S-wave (km/s) = 3.22681 3.63357 3.43621
# Velocity P-wave (km/s) = 5.19061 5.79814 5.50277
#
# Compressibility (1/GPa) = 0.03526278
#
# Stress axis : x y z
#
# Youngs Moduli (GPa) = 49.73546 77.78203 54.30579
#
# Poissons Ratio (x) = 0.02996 0.38840
# Poissons Ratio (y) = 0.01916 0.02823
# Poissons Ratio (z) = 0.35572 0.04043
#
# Static dielectric constant tensor:
#      x y z
#    x 1.821670 0.000810 0.009240 
#    y 0.000810 1.771910 -0.014610 
#    z 0.009240 -0.014610 1.794790 
# 
# From -- ./inp_files/128227.got.cif
#   From: 2010.05.17/outbox.cif.g08.bks.cpg/sg2_65_cif.got.tgz:128227.got - 2010.06.03 11:33:40.
