data_PCOD9106291
_publ_section_title
;
Structure prediction by ZEFSAII (Michael W. Deem and Ramdas Pophale) SiO2 
 PCOD9106291
Probable space group: P -1
;
_chemical_formula_sum "Si O2"
_cell_formula_units_Z 16
_cell_length_a 14.532541
_cell_length_b 5.733010
_cell_length_c 16.164530
_cell_angle_alpha 119.837981
_cell_angle_beta 150.074892
_cell_angle_gamma 71.515274
_cell_volume 562.140572
_symmetry_space_group_name_H-M "P -1"
_symmetry_group_IT_number 2
_symmetry_cell_setting 'triclinic'
loop_
_space_group_symop_operation_xyz
x,y,z
-x,-y,-z
loop_
_atom_site_type_symbol
_atom_site_label
_atom_site_fract_x
_atom_site_fract_y
_atom_site_fract_z
Si Si1 0.175164 0.086993 0.913487
Si Si2 0.325818 0.786090 0.518178
Si Si3 0.770763 0.816594 0.838283
Si Si4 0.671127 0.688087 0.460324
Si Si5 0.453088 0.089196 0.839191
Si Si6 0.760574 0.679785 0.155064
Si Si7 0.946892 0.508221 0.553279
Si Si8 0.681324 0.224023 0.721965
O O1 0.149175 0.094185 0.992026
O O2 0.391356 0.081988 0.060300
O O3 0.157367 0.315888 0.873548
O O4 0.053461 0.799798 0.729797
O O5 0.542135 0.795152 0.661542
O O6 0.251836 0.462807 0.429389
O O7 0.246587 0.978717 0.427344
O O8 0.342617 0.969718 0.647832
O O9 0.774548 0.488700 0.781463
O O10 0.817595 0.059396 0.846103
O O11 0.443358 0.644577 0.286082
O O12 0.731276 0.519473 0.402016
O O13 0.327404 0.097453 0.824288
O O14 0.590931 0.398160 0.983169
O O15 0.952672 0.697171 0.359325
O O16 0.000000 0.500000 0.500000
O O17 0.500000 0.000000 0.500000
#
# Coordination Sequence:
#
# PCOD9106291 Si02
#       8
#     2   2   2   2   2   2   2   2
#     4  10  22  35  56  81 115 162 201 252 296 350
#     4   9  19  33  57  79 113 150 190 238 302 340
#     4   9  20  35  62  92 123 144 188 243 309 362
#     4  10  22  37  56  86 119 158 191 242 293 358
#     4   9  19  33  52  79 106 145 203 262 290 338
#     4  10  21  34  53  75 109 155 209 251 298 336
#     4  11  25  38  53  79 119 170 214 242 285 346
#     4  10  20  39  68  97 118 146 187 249 315 367
#
# _framework density 28.462629
#
# number of rings (size 3 to 8) (size 9 to 14) (size 15 to 20)
#    0.000    2.250    0.000    1.500   14.000    0.500 
#    0.000    0.000    0.000    1.500    0.000    0.000 
#    0.000    0.000    0.000    0.000    0.000    0.000 
#
# Total GULP energy -89339.706620 kJ/mol
# GULP energy per Si atom -5583.731664 kJ/mol
# Density = 2.839785 g / cm^3
# Si number density = 28.462629 Si / 1000 Ang^3
#
#
#
# Elastic Constant Matrix: (Units=GPa)
#
#
# Indices 1 2 3 4 5 6 
#
# 1 117.7089 40.7717 16.6965 -2.9554 -6.1023 8.2690
# 2 40.7717 206.6159 33.5680 -13.6676 -17.8783 30.7817
# 3 16.6965 33.5680 92.5428 5.4847 -18.0109 8.9716
# 4 -2.9554 -13.6676 5.4847 52.5107 7.6496 -5.7667
# 5 -6.1023 -17.8783 -18.0109 7.6496 44.0110 -1.9121
# 6 8.2690 30.7817 8.9716 -5.7667 -1.9121 61.0867
#
#
#
# Elastic Compliance Matrix: (Units=1/GPa)
#
#
# Indices 1 2 3 4 5 6 
#
# 1 0.009224 -0.001585 -0.001039 0.000160 0.000170 -0.000277
# 2 -0.001585 0.005936 -0.001450 0.001154 0.001293 -0.002414
# 3 -0.001039 -0.001450 0.012728 -0.002596 0.004880 -0.001090
# 4 0.000160 0.001154 -0.002596 0.020387 -0.004046 0.001576
# 5 0.000170 0.001293 0.004880 -0.004046 0.025929 -0.000962
# 6 -0.000277 -0.002414 -0.001090 0.001576 -0.000962 0.017903
#
#
# Mechanical properties :
#
#
# Convention : Reuss Voigt Hill
#
# Bulk Modulus (GPa) = 50.65505 66.54887 58.60196
# Shear Modulus (GPa) = 46.80105 53.24377 50.02241
#
# Velocity S-wave (km/s) = 4.05939 4.32980 4.19678
# Velocity P-wave (km/s) = 6.30930 6.95903 6.64211
#
# Compressibility (1/GPa) = 0.01974137
#
# Stress axis : x y z
#
# Youngs Moduli (GPa) = 108.41110 168.46103 78.56411
#
# Poissons Ratio (x) = 0.26699 0.08161
# Poissons Ratio (y) = 0.17182 0.11392
# Poissons Ratio (z) = 0.11262 0.24426
#
# Static dielectric constant tensor:
#      x y z
#    x 2.368830 0.086900 0.037930 
#    y 0.086900 2.444520 -0.005820 
#    z 0.037930 -0.005820 2.210370 
# 
# From -- ./inp_files/83102.got.cif
#   From: 2010.05.17/outbox.cif.g08.bks.cpg/sg2_42_cif.got.tgz:83102.got - 2010.06.03 11:33:40.
