data_PCOD9106272
_publ_section_title
;
Structure prediction by ZEFSAII (Michael W. Deem and Ramdas Pophale) SiO2 
 PCOD9106272
Probable space group: P -1
;
_chemical_formula_sum "Si O2"
_cell_formula_units_Z 14
_cell_length_a 6.954105
_cell_length_b 16.515667
_cell_length_c 11.527810
_cell_angle_alpha 37.186430
_cell_angle_beta 135.283096
_cell_angle_gamma 117.604027
_cell_volume 546.364999
_symmetry_space_group_name_H-M "P -1"
_symmetry_group_IT_number 2
_symmetry_cell_setting 'triclinic'
loop_
_space_group_symop_operation_xyz
x,y,z
-x,-y,-z
loop_
_atom_site_type_symbol
_atom_site_label
_atom_site_fract_x
_atom_site_fract_y
_atom_site_fract_z
Si Si1 0.589285 0.318474 0.639400
Si Si2 0.854529 0.676270 0.982611
Si Si3 0.980924 0.376462 0.352612
Si Si4 0.021166 0.089860 0.652620
Si Si5 0.731154 0.967177 0.492463
Si Si6 0.378006 0.974426 0.128602
Si Si7 0.709806 0.506955 0.298977
O O1 0.859000 0.312059 0.842452
O O2 0.308973 0.336108 0.575287
O O3 0.630349 0.181726 0.733160
O O4 0.526634 0.453981 0.375664
O O5 0.905019 0.532724 0.097264
O O6 0.657759 0.645791 0.040394
O O7 0.764264 0.805608 0.714167
O O8 0.958935 0.249772 0.409482
O O9 0.782006 0.390424 0.362865
O O10 0.325805 0.012469 0.819452
O O11 0.775751 0.030507 0.563550
O O12 0.099120 0.071178 0.842911
O O13 0.448922 0.013018 0.244414
O O14 0.000000 0.000000 0.500000
O O15 0.000000 0.500000 0.500000
#
# Coordination Sequence:
#
# PCOD9106272 Si02
#       7
#     2   2   2   2   2   2   2
#     4  10  16  34  57  85 111 148 192 234 283 343
#     4   9  18  33  53  82 116 142 187 240 276 336
#     4   9  19  31  59  84 112 146 192 238 285 335
#     4   9  17  34  52  81 116 147 186 245 276 337
#     4  10  19  33  55  84 115 152 190 234 286 342
#     4   9  18  30  56  83 110 152 198 219 292 348
#     4   8  18  31  53  84 116 144 188 235 287 336
#
# _framework density 25.623895000000001
#
# number of rings (size 3 to 8) (size 9 to 14) (size 15 to 20)
#    0.857    2.000    1.429    0.429    2.000    0.000 
#    0.000    7.857    0.000    0.857    0.000    0.000 
#    0.000    0.000    0.000    0.000    0.000    0.000 
#
# Total GULP energy -78059.662570 kJ/mol
# GULP energy per Si atom -5575.690184 kJ/mol
# Density = 2.556557 g / cm^3
# Si number density = 25.623895 Si / 1000 Ang^3
#
#
#
# Elastic Constant Matrix: (Units=GPa)
#
#
# Indices 1 2 3 4 5 6 
#
# 1 67.5639 9.4459 20.4837 15.0940 -1.4020 15.6642
# 2 9.4459 136.0294 61.5723 1.0003 10.6421 11.2169
# 3 20.4837 61.5723 97.8490 0.5885 -9.1723 19.3758
# 4 15.0940 1.0003 0.5885 47.2553 9.2484 -0.7993
# 5 -1.4020 10.6421 -9.1723 9.2484 30.7900 1.6119
# 6 15.6642 11.2169 19.3758 -0.7993 1.6119 28.3369
#
#
#
# Elastic Compliance Matrix: (Units=1/GPa)
#
#
# Indices 1 2 3 4 5 6 
#
# 1 0.019190 0.000150 -0.001878 -0.006827 0.002823 -0.009736
# 2 0.000150 0.011437 -0.008145 0.001165 -0.006795 0.001379
# 3 -0.001878 -0.008145 0.018347 -0.001381 0.009073 -0.008838
# 4 -0.006827 0.001165 -0.001381 0.025184 -0.008976 0.005478
# 5 0.002823 -0.006795 0.009073 -0.008976 0.040754 -0.007646
# 6 -0.009736 0.001379 -0.008838 0.005478 -0.007646 0.046759
#
#
# Mechanical properties :
#
#
# Convention : Reuss Voigt Hill
#
# Bulk Modulus (GPa) = 34.21397 53.82734 44.02065
# Shear Modulus (GPa) = 26.15600 35.27248 30.71424
#
# Velocity S-wave (km/s) = 3.19841 3.71421 3.46592
# Velocity P-wave (km/s) = 5.19818 6.28061 5.76486
#
# Compressibility (1/GPa) = 0.02922783
#
# Stress axis : x y z
#
# Youngs Moduli (GPa) = 52.11012 87.43480 54.50426
#
# Poissons Ratio (x) = -0.01308 0.10234
# Poissons Ratio (y) = -0.00779 0.44395
# Poissons Ratio (z) = 0.09785 0.71217
#
# Static dielectric constant tensor:
#      x y z
#    x 2.050560 -0.030260 -0.091970 
#    y -0.030260 2.038980 0.024450 
#    z -0.091970 0.024450 2.106510 
# 
# From -- ./inp_files/400390.got.cif
#   From: 2010.05.17/outbox.cif.g08.bks.cpg/sg2_201_cif.got.tgz:400390.got - 2010.06.03 11:33:40.
