data_PCOD9106829
_publ_section_title
;
Structure prediction by ZEFSAII (Michael W. Deem and Ramdas Pophale) SiO2 
 PCOD9106829
Probable space group: P -1
;
_chemical_formula_sum "Si O2"
_cell_formula_units_Z 16
_cell_length_a 8.580412
_cell_length_b 20.146252
_cell_length_c 20.593611
_cell_angle_alpha 159.904518
_cell_angle_beta 132.582128
_cell_angle_gamma 38.193956
_cell_volume 723.981325
_symmetry_space_group_name_H-M "P -1"
_symmetry_group_IT_number 2
_symmetry_cell_setting 'triclinic'
loop_
_space_group_symop_operation_xyz
x,y,z
-x,-y,-z
loop_
_atom_site_type_symbol
_atom_site_label
_atom_site_fract_x
_atom_site_fract_y
_atom_site_fract_z
Si Si1 0.413889 0.384610 0.527292
Si Si2 0.947881 0.454727 0.218364
Si Si3 0.766455 0.520586 0.986234
Si Si4 0.750903 0.351485 0.481003
Si Si5 0.598301 0.995326 0.594390
Si Si6 0.903657 0.817022 0.704667
Si Si7 0.643505 0.359830 0.130732
Si Si8 0.187454 0.726603 0.110097
O O1 0.641149 0.263833 0.425366
O O2 0.302290 0.244496 0.396135
O O3 0.493553 0.466157 0.687180
O O4 0.159760 0.625721 0.643813
O O5 0.702700 0.736233 0.410764
O O6 0.898698 0.342651 0.162440
O O7 0.190756 0.470453 0.306041
O O8 0.929260 0.337418 0.039980
O O9 0.619659 0.774134 0.215406
O O10 0.553721 0.549254 0.902679
O O11 0.902792 0.290603 0.860855
O O12 0.000000 0.500000 0.000000
O O13 0.500000 0.500000 0.500000
O O14 0.988638 0.204934 0.359239
O O15 0.500000 0.000000 0.500000
O O16 0.819687 0.042278 0.693131
O O17 0.752537 0.092212 0.934070
O O18 0.500000 0.500000 0.000000
#
# Coordination Sequence:
#
# PCOD9106829 Si02
#       8
#     2   2   2   2   2   2   2   2
#     4  10  23  43  67  97 133 166 221 271 330 393
#     4  12  22  40  70  92 128 176 223 265 328 397
#     4  11  24  41  59  94 135 162 216 275 317 382
#     4  10  23  44  67  96 131 171 222 272 329 393
#     4  11  20  40  69  87 121 179 215 257 326 389
#     4  10  22  46  68  94 133 173 210 279 330 390
#     4  12  23  41  69  94 129 176 220 263 339 390
#     4  10  20  40  61  90 123 164 218 257 314 390
#
# _framework density 22.100017000000001
#
# number of rings (size 3 to 8) (size 9 to 14) (size 15 to 20)
#    0.000    1.250    6.250    1.125    1.750    0.000 
#    4.500    3.750    0.000    0.000    0.000    0.000 
#    0.000    0.000    0.000    0.000    0.000    0.000 
#
# Total GULP energy -89251.967232 kJ/mol
# GULP energy per Si atom -5578.247952 kJ/mol
# Density = 2.204972 g / cm^3
# Si number density = 22.100017 Si / 1000 Ang^3
#
#
#
# Elastic Constant Matrix: (Units=GPa)
#
#
# Indices 1 2 3 4 5 6 
#
# 1 156.7019 16.8649 36.8538 -2.2169 5.7438 5.6682
# 2 16.8649 48.0432 20.5816 -19.1433 -3.1506 -2.5057
# 3 36.8538 20.5816 102.4329 -11.9244 17.5106 6.1694
# 4 -2.2169 -19.1433 -11.9244 34.8433 5.4988 6.5270
# 5 5.7438 -3.1506 17.5106 5.4988 37.4678 2.7550
# 6 5.6682 -2.5057 6.1694 6.5270 2.7550 36.9696
#
#
#
# Elastic Compliance Matrix: (Units=1/GPa)
#
#
# Indices 1 2 3 4 5 6 
#
# 1 0.007146 -0.002111 -0.002276 -0.001374 0.000038 -0.000619
# 2 -0.002111 0.028978 -0.003874 0.014016 0.002494 0.000274
# 3 -0.002276 -0.003874 0.013014 0.003615 -0.006424 -0.002245
# 4 -0.001374 0.014016 0.003615 0.039569 -0.005666 -0.006006
# 5 0.000038 0.002494 -0.006424 -0.005666 0.030731 -0.000055
# 6 -0.000619 0.000274 -0.002245 -0.006006 -0.000055 0.028602
#
#
# Mechanical properties :
#
#
# Convention : Reuss Voigt Hill
#
# Bulk Modulus (GPa) = 30.66003 50.64206 40.65105
# Shear Modulus (GPa) = 28.50088 37.38132 32.94110
#
# Velocity S-wave (km/s) = 3.59504 4.11720 3.86495
# Velocity P-wave (km/s) = 5.57995 6.75029 6.19283
#
# Compressibility (1/GPa) = 0.03261575
#
# Stress axis : x y z
#
# Youngs Moduli (GPa) = 139.94796 34.50927 76.84017
#
# Poissons Ratio (x) = 0.07283 0.17488
# Poissons Ratio (y) = 0.29537 0.29770
# Poissons Ratio (z) = 0.31851 0.13370
#
# Static dielectric constant tensor:
#      x y z
#    x 1.863170 -0.028240 -0.014880 
#    y -0.028240 1.825870 -0.011320 
#    z -0.014880 -0.011320 1.773600 
# 
# From -- ./inp_files/591718.got.cif
#   From: 2010.05.17/outbox.cif.g08.bks.cpg/sg2_296_cif.got.tgz:591718.got - 2010.06.03 11:33:40.
