data_PCOD9106348
_publ_section_title
;
Structure prediction by ZEFSAII (Michael W. Deem and Ramdas Pophale) SiO2 
 PCOD9106348
Probable space group: P -1
;
_chemical_formula_sum "Si O2"
_cell_formula_units_Z 16
_cell_length_a 9.017131
_cell_length_b 14.177744
_cell_length_c 14.290295
_cell_angle_alpha 62.503474
_cell_angle_beta 152.052890
_cell_angle_gamma 108.036939
_cell_volume 737.972480
_symmetry_space_group_name_H-M "P -1"
_symmetry_group_IT_number 2
_symmetry_cell_setting 'triclinic'
loop_
_space_group_symop_operation_xyz
x,y,z
-x,-y,-z
loop_
_atom_site_type_symbol
_atom_site_label
_atom_site_fract_x
_atom_site_fract_y
_atom_site_fract_z
Si Si1 0.840568 0.838311 0.305967
Si Si2 0.185695 0.215851 0.362059
Si Si3 0.675301 0.021448 0.490224
Si Si4 0.855448 0.526072 0.510222
Si Si5 0.304276 0.694955 0.495496
Si Si6 0.775789 0.330745 0.249359
Si Si7 0.289972 0.745953 0.096011
Si Si8 0.295384 0.261697 0.119555
O O1 0.480411 0.841153 0.139686
O O2 0.979563 0.945058 0.320348
O O3 0.961457 0.765975 0.313000
O O4 0.044546 0.765715 0.535728
O O5 0.524603 0.244796 0.512889
O O6 0.956257 0.294991 0.269986
O O7 0.264628 0.087419 0.488111
O O8 0.977722 0.232249 0.143857
O O9 0.450523 0.131120 0.270752
O O10 0.500000 0.000000 0.500000
O O11 0.725482 0.419968 0.509265
O O12 0.561590 0.633438 0.290570
O O13 0.000000 0.500000 0.500000
O O14 0.129928 0.560036 0.711584
O O15 0.544787 0.685507 0.726243
O O16 0.407610 0.320105 0.065042
O O17 0.083663 0.731324 0.079068
#
# Coordination Sequence:
#
# PCOD9106348 Si02
#       8
#     2   2   2   2   2   2   2   2
#     4   9  18  34  58  79 103 143 187 205 253 335
#     4  11  21  34  54  85 113 132 177 231 268 302
#     4  10  16  34  58  79 107 150 172 211 266 322
#     4  11  18  37  62  72 101 151 183 213 266 326
#     4   9  17  33  56  76 101 142 180 214 258 326
#     4   9  20  36  54  78 111 141 176 220 270 316
#     4  10  20  33  56  84 104 133 189 225 252 312
#     4   9  18  33  54  79 108 142 182 209 257 331
#
# _framework density 21.681025000000002
#
# number of rings (size 3 to 8) (size 9 to 14) (size 15 to 20)
#    0.000    2.500    7.500    0.000    0.000    5.000 
#    0.000    3.125    0.000    3.750    0.000    0.000 
#    0.000    0.000    0.000    0.000    0.000    0.000 
#
# Total GULP energy -89105.755446 kJ/mol
# GULP energy per Si atom -5569.109715 kJ/mol
# Density = 2.163168 g / cm^3
# Si number density = 21.681025 Si / 1000 Ang^3
#
#
#
# Elastic Constant Matrix: (Units=GPa)
#
#
# Indices 1 2 3 4 5 6 
#
# 1 78.2233 29.6730 5.9045 20.1371 31.5292 12.9035
# 2 29.6730 143.1099 8.3914 5.5758 16.5797 29.9253
# 3 5.9045 8.3914 38.9239 -0.2226 15.0750 10.3874
# 4 20.1371 5.5758 -0.2226 24.6301 7.4437 7.1798
# 5 31.5292 16.5797 15.0750 7.4437 32.9668 5.4251
# 6 12.9035 29.9253 10.3874 7.1798 5.4251 29.0149
#
#
#
# Elastic Compliance Matrix: (Units=1/GPa)
#
#
# Indices 1 2 3 4 5 6 
#
# 1 0.026726 -0.001583 0.006972 -0.012611 -0.024267 -0.005091
# 2 -0.001583 0.009561 0.002176 0.003094 -0.003329 -0.010079
# 3 0.006972 0.002176 0.037600 0.005924 -0.023686 -0.015842
# 4 -0.012611 0.003094 0.005924 0.054735 -0.002458 -0.012788
# 5 -0.024267 -0.003329 -0.023686 -0.002458 0.064759 0.011205
# 6 -0.005091 -0.010079 -0.015842 -0.012788 0.011205 0.053865
#
#
# Mechanical properties :
#
#
# Convention : Reuss Voigt Hill
#
# Bulk Modulus (GPa) = 11.23390 38.68831 24.96111
# Shear Modulus (GPa) = 19.09948 31.74158 25.42053
#
# Velocity S-wave (km/s) = 2.97127 3.83041 3.42786
# Velocity P-wave (km/s) = 4.11873 6.11930 5.21583
#
# Compressibility (1/GPa) = 0.08901629
#
# Stress axis : x y z
#
# Youngs Moduli (GPa) = 37.41738 104.59111 26.59595
#
# Poissons Ratio (x) = 0.16556 -0.18543
# Poissons Ratio (y) = 0.05923 -0.05787
# Poissons Ratio (z) = -0.26088 -0.22757
#
# Static dielectric constant tensor:
#      x y z
#    x 1.883800 0.041610 0.065580 
#    y 0.041610 1.833060 0.049080 
#    z 0.065580 0.049080 1.882050 
# 
# From -- ./inp_files/504083.got.cif
#   From: 2010.05.17/outbox.cif.g08.bks.cpg/sg2_253_cif.got.tgz:504083.got - 2010.06.03 11:33:40.
