data_PCOD9106226
_publ_section_title
;
Structure prediction by ZEFSAII (Michael W. Deem and Ramdas Pophale) SiO2 
 PCOD9106226
Probable space group: P -1
;
_chemical_formula_sum "Si O2"
_cell_formula_units_Z 12
_cell_length_a 27.537445
_cell_length_b 14.831824
_cell_length_c 9.317015
_cell_angle_alpha 31.027108
_cell_angle_beta 152.467503
_cell_angle_gamma 164.895789
_cell_volume 458.349949
_symmetry_space_group_name_H-M "P -1"
_symmetry_group_IT_number 2
_symmetry_cell_setting 'triclinic'
loop_
_space_group_symop_operation_xyz
x,y,z
-x,-y,-z
loop_
_atom_site_type_symbol
_atom_site_label
_atom_site_fract_x
_atom_site_fract_y
_atom_site_fract_z
Si Si1 0.973597 0.293151 0.354461
Si Si2 0.203220 0.793498 0.731726
Si Si3 0.388172 0.741141 0.893256
Si Si4 0.171232 0.102952 0.751950
Si Si5 0.776600 0.643693 0.724473
Si Si6 0.230419 0.163835 0.135835
O O1 0.858100 0.270625 0.177040
O O2 0.217849 0.644669 0.550481
O O3 0.926109 0.190937 0.201933
O O4 0.882507 0.976754 0.609906
O O5 0.000000 0.500000 0.500000
O O6 0.372749 0.886978 0.026414
O O7 0.308988 0.122321 0.499011
O O8 0.359907 0.630335 0.132233
O O9 0.316053 0.479497 0.958007
O O10 0.311208 0.409938 0.584479
O O11 0.270431 0.177124 0.056305
O O12 0.000000 0.000000 0.500000
O O13 0.982836 0.828953 0.973744
#
# Coordination Sequence:
#
# PCOD9106226 Si02
#       6
#     2   2   2   2   2   2
#     4   9  18  36  54  80 112 128 175 225 265 304
#     4  12  25  35  50  79 112 147 181 211 258 319
#     4  11  18  34  61  78 102 139 180 227 266 298
#     4   8  15  28  60  86 105 129 167 230 276 302
#     4   8  15  30  56  85 101 126 172 225 269 294
#     4  10  16  34  57  83 106 133 175 224 265 315
#
# _framework density 26.180871
#
# number of rings (size 3 to 8) (size 9 to 14) (size 15 to 20)
#    1.000    1.333    5.000    1.500    0.000    0.667 
#    0.000    4.167    0.000    1.000    0.000    0.000 
#    0.000    0.000    0.000    0.000    0.000    0.000 
#
# Total GULP energy -67036.969347 kJ/mol
# GULP energy per Si atom -5586.414112 kJ/mol
# Density = 2.612128 g / cm^3
# Si number density = 26.180871 Si / 1000 Ang^3
#
#
#
# Elastic Constant Matrix: (Units=GPa)
#
#
# Indices 1 2 3 4 5 6 
#
# 1 217.7194 29.3414 56.3980 15.5670 -28.9653 17.1968
# 2 29.3414 80.4588 11.3198 15.4542 -1.6192 13.7918
# 3 56.3980 11.3198 64.0058 -11.1348 -13.2740 26.5334
# 4 15.5670 15.4542 -11.1348 29.4005 15.5390 -1.1424
# 5 -28.9653 -1.6192 -13.2740 15.5390 41.4361 3.4238
# 6 17.1968 13.7918 26.5334 -1.1424 3.4238 32.8271
#
#
#
# Elastic Compliance Matrix: (Units=1/GPa)
#
#
# Indices 1 2 3 4 5 6 
#
# 1 0.008535 0.000348 -0.008505 -0.011921 0.007640 0.001045
# 2 0.000348 0.016188 -0.001244 -0.012466 0.005732 -0.007010
# 3 -0.008505 -0.001244 0.036632 0.017466 0.001186 -0.024147
# 4 -0.011921 -0.012466 0.017466 0.069133 -0.029385 0.002836
# 5 0.007640 0.005732 0.001186 -0.029385 0.042154 -0.012788
# 6 0.001045 -0.007010 -0.024147 0.002836 -0.012788 0.053810
#
#
# Mechanical properties :
#
#
# Convention : Reuss Voigt Hill
#
# Bulk Modulus (GPa) = 23.49952 61.81138 42.65545
# Shear Modulus (GPa) = 19.27222 38.40773 28.83997
#
# Velocity S-wave (km/s) = 2.71609 3.83432 3.32259
# Velocity P-wave (km/s) = 4.33953 6.57748 5.57202
#
# Compressibility (1/GPa) = 0.04255405
#
# Stress axis : x y z
#
# Youngs Moduli (GPa) = 117.15777 61.77338 27.29817
#
# Poissons Ratio (x) = -0.02151 0.23218
# Poissons Ratio (y) = -0.04079 0.03396
# Poissons Ratio (z) = 0.99647 0.07684
#
# Static dielectric constant tensor:
#      x y z
#    x 2.065400 -0.060960 0.002000 
#    y -0.060960 2.189070 -0.006840 
#    z 0.002000 -0.006840 2.061140 
# 
# From -- ./inp_files/258422.got.cif
#   From: 2010.05.17/outbox.cif.g08.bks.cpg/sg2_130_cif.got.tgz:258422.got - 2010.06.03 11:33:40.
