data_PCOD9106988
_publ_section_title
;
Structure prediction by ZEFSAII (Michael W. Deem and Ramdas Pophale) SiO2 
 PCOD9106988
Probable space group: P -1
;
_chemical_formula_sum "Si O2"
_cell_formula_units_Z 16
_cell_length_a 11.805790
_cell_length_b 9.148324
_cell_length_c 12.178858
_cell_angle_alpha 56.929062
_cell_angle_beta 46.855040
_cell_angle_gamma 78.716884
_cell_volume 769.602632
_symmetry_space_group_name_H-M "P -1"
_symmetry_group_IT_number 2
_symmetry_cell_setting 'triclinic'
loop_
_space_group_symop_operation_xyz
x,y,z
-x,-y,-z
loop_
_atom_site_type_symbol
_atom_site_label
_atom_site_fract_x
_atom_site_fract_y
_atom_site_fract_z
Si Si1 0.778066 0.819541 0.264476
Si Si2 0.850788 0.964935 0.697981
Si Si3 0.735235 0.230484 0.314524
Si Si4 0.362012 0.568022 0.507629
Si Si5 0.035837 0.120399 0.103389
Si Si6 0.622189 0.188794 0.797423
Si Si7 0.453653 0.916236 0.703280
Si Si8 0.492512 0.304818 0.037867
O O1 0.731119 0.612975 0.422453
O O2 0.921953 0.937647 0.196533
O O3 0.645085 0.932231 0.300295
O O4 0.832511 0.805116 0.108459
O O5 0.692749 0.807586 0.824364
O O6 0.896678 0.912340 0.810231
O O7 0.789255 0.144011 0.680534
O O8 0.000000 0.000000 0.500000
O O9 0.731453 0.367850 0.357816
O O10 0.914631 0.242015 0.153346
O O11 0.625802 0.230179 0.279113
O O12 0.639730 0.028804 0.508474
O O13 0.500000 0.500000 0.500000
O O14 0.427437 0.735585 0.313391
O O15 0.608256 0.323954 0.847727
O O16 0.500000 0.000000 0.000000
O O17 0.446716 0.815456 0.863367
O O18 0.500000 0.500000 0.000000
#
# Coordination Sequence:
#
# PCOD9106988 Si02
#       8
#     2   2   2   2   2   2   2   2
#     4  10  23  40  66  92 126 169 212 275 316 385
#     4  11  23  42  69  90 133 179 215 259 330 407
#     4  10  21  37  64  93 125 167 208 272 314 385
#     4  12  24  37  67 100 127 156 224 274 320 364
#     4  10  22  42  63  90 129 176 212 249 337 389
#     4  10  24  43  65  94 131 177 215 264 329 394
#     4  10  20  40  62  90 128 169 218 260 323 378
#     4  11  25  40  66  96 130 168 227 273 322 383
#
# _framework density 20.789950999999999
#
# number of rings (size 3 to 8) (size 9 to 14) (size 15 to 20)
#    0.000    1.500    1.250    3.750    5.250    1.500 
#    0.000   10.000    0.000    0.000    0.000    0.000 
#    0.000    0.000    0.000    0.000    0.000    0.000 
#
# Total GULP energy -89316.193669 kJ/mol
# GULP energy per Si atom -5582.262104 kJ/mol
# Density = 2.074263 g / cm^3
# Si number density = 20.789951 Si / 1000 Ang^3
#
#
#
# Elastic Constant Matrix: (Units=GPa)
#
#
# Indices 1 2 3 4 5 6 
#
# 1 97.8116 33.1642 37.5527 1.0552 20.6204 5.4195
# 2 33.1642 133.0128 45.3675 18.1146 2.6358 3.9405
# 3 37.5527 45.3675 90.3022 23.6406 11.4446 -6.3955
# 4 1.0552 18.1146 23.6406 40.7153 2.1434 -5.1651
# 5 20.6204 2.6358 11.4446 2.1434 30.0687 7.7667
# 6 5.4195 3.9405 -6.3955 -5.1651 7.7667 27.9587
#
#
#
# Elastic Compliance Matrix: (Units=1/GPa)
#
#
# Indices 1 2 3 4 5 6 
#
# 1 0.014591 -0.002292 -0.004960 0.003854 -0.008011 -0.000703
# 2 -0.002292 0.009817 -0.003934 -0.002602 0.003225 -0.003216
# 3 -0.004960 -0.003934 0.018000 -0.007693 -0.003926 0.005303
# 4 0.003854 -0.002602 -0.007693 0.030781 -0.002798 0.004324
# 5 -0.008011 0.003225 -0.003926 -0.002798 0.043355 -0.012360
# 6 -0.000703 -0.003216 0.005303 0.004324 -0.012360 0.041802
#
#
# Mechanical properties :
#
#
# Convention : Reuss Voigt Hill
#
# Bulk Modulus (GPa) = 49.90855 61.47726 55.69290
# Shear Modulus (GPa) = 26.68136 33.41802 30.04969
#
# Velocity S-wave (km/s) = 3.58631 4.01360 3.80596
# Velocity P-wave (km/s) = 6.41927 7.14937 6.79414
#
# Compressibility (1/GPa) = 0.02003665
#
# Stress axis : x y z
#
# Youngs Moduli (GPa) = 68.53454 101.86377 55.55440
#
# Poissons Ratio (x) = 0.23343 0.27555
# Poissons Ratio (y) = 0.15705 0.21857
# Poissons Ratio (z) = 0.33993 0.40077
#
# Static dielectric constant tensor:
#      x y z
#    x 1.762470 0.051460 -0.036310 
#    y 0.051460 1.848970 -0.029570 
#    z -0.036310 -0.029570 1.788220 
# 
# From -- ./inp_files/416459.got.cif
#   From: 2010.05.17/outbox.cif.g08.bks.cpg/sg2_209_cif.got.tgz:416459.got - 2010.06.03 11:33:40.
