data_PCOD9106025
_publ_section_title
;
Structure prediction by ZEFSAII (Michael W. Deem and Ramdas Pophale) SiO2 
 PCOD9106025
Probable space group: P -1
;
_chemical_formula_sum "Si O2"
_cell_formula_units_Z 12
_cell_length_a 9.184734
_cell_length_b 11.439774
_cell_length_c 9.382852
_cell_angle_alpha 110.091864
_cell_angle_beta 94.610218
_cell_angle_gamma 140.883483
_cell_volume 473.543061
_symmetry_space_group_name_H-M "P -1"
_symmetry_group_IT_number 2
_symmetry_cell_setting 'triclinic'
loop_
_space_group_symop_operation_xyz
x,y,z
-x,-y,-z
loop_
_atom_site_type_symbol
_atom_site_label
_atom_site_fract_x
_atom_site_fract_y
_atom_site_fract_z
Si Si1 0.680148 0.724208 0.209665
Si Si2 0.693675 0.572449 0.428210
Si Si3 0.139346 0.032024 0.157735
Si Si4 0.671704 0.315121 0.694322
Si Si5 0.316748 0.921659 0.245496
Si Si6 0.102561 0.701478 0.668081
O O1 0.733476 0.683570 0.338975
O O2 0.505260 0.718368 0.238026
O O3 0.500000 0.500000 0.000000
O O4 0.973616 0.969002 0.253710
O O5 0.500000 0.500000 0.500000
O O6 0.475004 0.297587 0.269251
O O7 0.979470 0.723502 0.574162
O O8 0.112137 0.866575 0.124769
O O9 0.000000 0.000000 0.000000
O O10 0.465653 0.110891 0.465623
O O11 0.931155 0.575522 0.747972
O O12 0.790824 0.281726 0.772336
O O13 0.560933 0.054805 0.212065
O O14 0.000000 0.500000 0.500000
#
# Coordination Sequence:
#
# PCOD9106025 Si02
#       6
#     2   2   2   2   2   2
#     4  12  27  44  69 100 147 191 230 285 351 425
#     4  12  24  43  72 104 137 184 238 289 340 417
#     4  12  26  46  69  98 145 189 233 285 352 421
#     4  10  22  42  69 105 131 179 232 291 346 406
#     4  10  23  42  72 105 135 176 233 298 346 413
#     4  10  20  39  67 102 138 167 225 289 350 398
#
# _framework density 25.340883999999999
#
# number of rings (size 3 to 8) (size 9 to 14) (size 15 to 20)
#    0.000    1.000    6.667    0.000    9.333    1.333 
#    0.000    1.667    3.667    0.000    0.000    0.000 
#    0.000    0.000    0.000    0.000    0.000    0.000 
#
# Total GULP energy -67203.954913 kJ/mol
# GULP energy per Si atom -5600.329576 kJ/mol
# Density = 2.528321 g / cm^3
# Si number density = 25.340884 Si / 1000 Ang^3
#
#
#
# Elastic Constant Matrix: (Units=GPa)
#
#
# Indices 1 2 3 4 5 6 
#
# 1 202.0975 42.9763 62.8430 -33.5627 26.7227 -13.9438
# 2 42.9763 124.6299 50.3691 -40.4037 18.3629 1.0127
# 3 62.8430 50.3691 95.2992 -22.0424 -4.1246 -13.1523
# 4 -33.5627 -40.4037 -22.0424 42.9921 -5.8457 10.6379
# 5 26.7227 18.3629 -4.1246 -5.8457 38.8559 -13.7291
# 6 -13.9438 1.0127 -13.1523 10.6379 -13.7291 58.0131
#
#
#
# Elastic Compliance Matrix: (Units=1/GPa)
#
#
# Indices 1 2 3 4 5 6 
#
# 1 0.007900 0.002298 -0.005897 0.004840 -0.007143 -0.002056
# 2 0.002298 0.016630 -0.008638 0.013181 -0.010723 -0.006651
# 3 -0.005897 -0.008638 0.019793 -0.002543 0.012177 0.006569
# 4 0.004840 0.013181 -0.002543 0.039281 -0.006916 -0.008483
# 5 -0.007143 -0.010723 0.012177 -0.006916 0.040214 0.012016
# 6 -0.002056 -0.006651 0.006569 -0.008483 0.012016 0.022748
#
#
# Mechanical properties :
#
#
# Convention : Reuss Voigt Hill
#
# Bulk Modulus (GPa) = 50.38376 81.60039 65.99207
# Shear Modulus (GPa) = 28.14445 45.69479 36.91962
#
# Velocity S-wave (km/s) = 3.33623 4.25102 3.82110
# Velocity P-wave (km/s) = 5.89628 7.50772 6.75026
#
# Compressibility (1/GPa) = 0.01984767
#
# Stress axis : x y z
#
# Youngs Moduli (GPa) = 126.58675 60.13406 50.52376
#
# Poissons Ratio (x) = -0.13816 0.29794
# Poissons Ratio (y) = -0.29085 0.43641
# Poissons Ratio (z) = 0.74649 0.51942
#
# Static dielectric constant tensor:
#      x y z
#    x 2.038180 -0.028190 -0.114540 
#    y -0.028190 2.029800 0.101640 
#    z -0.114540 0.101640 2.166270 
# 
# From -- ./inp_files/181710.got.cif
#   From: 2010.05.17/outbox.cif.g08.bks.cpg/sg2_91_cif.got.tgz:181710.got - 2010.06.03 11:33:40.
