data_PCOD9106888
_publ_section_title
;
Structure prediction by ZEFSAII (Michael W. Deem and Ramdas Pophale) SiO2 
 PCOD9106888
Probable space group: P -1
;
_chemical_formula_sum "Si O2"
_cell_formula_units_Z 16
_cell_length_a 21.403664
_cell_length_b 17.934466
_cell_length_c 9.567326
_cell_angle_alpha 122.318174
_cell_angle_beta 46.391038
_cell_angle_gamma 159.573011
_cell_volume 832.424948
_symmetry_space_group_name_H-M "P -1"
_symmetry_group_IT_number 2
_symmetry_cell_setting 'triclinic'
loop_
_space_group_symop_operation_xyz
x,y,z
-x,-y,-z
loop_
_atom_site_type_symbol
_atom_site_label
_atom_site_fract_x
_atom_site_fract_y
_atom_site_fract_z
Si Si1 0.315640 0.356787 0.755015
Si Si2 0.372486 0.779584 0.137504
Si Si3 0.481615 0.710058 0.216720
Si Si4 0.190110 0.077810 0.868472
Si Si5 0.061307 0.828071 0.558851
Si Si6 0.345369 0.767950 0.494853
Si Si7 0.553719 0.766734 0.851477
Si Si8 0.844294 0.279270 0.778668
O O1 0.500000 0.500000 0.500000
O O2 0.288539 0.256712 0.815173
O O3 0.418287 0.546828 0.837423
O O4 0.049010 0.121565 0.884583
O O5 0.300935 0.714773 0.343752
O O6 0.218317 0.697297 0.198595
O O7 0.389248 0.692418 0.983279
O O8 0.635199 0.065182 0.995092
O O9 0.617609 0.776645 0.177920
O O10 0.470575 0.798461 0.383104
O O11 0.212483 0.428237 0.315930
O O12 0.611539 0.839492 0.996890
O O13 0.119444 0.937527 0.719284
O O14 0.131682 0.790863 0.413613
O O15 0.222635 0.021664 0.381313
O O16 0.093082 0.533050 0.718183
O O17 0.500000 0.000000 0.500000
#
# Coordination Sequence:
#
# PCOD9106888 Si02
#       8
#     2   2   2   2   2   2   2   2
#     4  11  23  42  63  91 119 151 202 249 298 358
#     4   9  19  35  57  84 113 157 198 228 290 349
#     4  10  23  41  59  91 122 156 198 241 300 357
#     4  11  24  40  65  90 117 157 199 244 303 353
#     4  10  20  40  64  86 124 159 192 250 292 348
#     4  10  21  34  54  85 122 150 190 242 284 342
#     4  10  20  40  62  83 126 159 193 253 297 344
#     4   9  19  35  58  85 113 157 197 229 289 348
#
# _framework density 19.220952
#
# number of rings (size 3 to 8) (size 9 to 14) (size 15 to 20)
#    0.000    2.000    2.500    0.375    1.750    3.000 
#    0.000    1.250    0.000    0.000    0.000    0.000 
#    0.000    0.000    0.000    0.000    0.000    0.000 
#
# Total GULP energy -89241.904236 kJ/mol
# GULP energy per Si atom -5577.619015 kJ/mol
# Density = 1.917720 g / cm^3
# Si number density = 19.220952 Si / 1000 Ang^3
#
#
#
# Elastic Constant Matrix: (Units=GPa)
#
#
# Indices 1 2 3 4 5 6 
#
# 1 123.9037 38.5551 28.5686 -7.6332 -23.1218 -4.4042
# 2 38.5551 68.5916 28.0759 -0.4069 -13.7596 -21.4895
# 3 28.5686 28.0759 96.8634 -22.9749 -6.3323 5.5072
# 4 -7.6332 -0.4069 -22.9749 16.8592 -2.6815 -2.6868
# 5 -23.1218 -13.7596 -6.3323 -2.6815 22.2228 -0.0570
# 6 -4.4042 -21.4895 5.5072 -2.6868 -0.0570 28.4011
#
#
#
# Elastic Compliance Matrix: (Units=1/GPa)
#
#
# Indices 1 2 3 4 5 6 
#
# 1 0.011885 -0.005314 0.000521 0.007320 0.010103 -0.001566
# 2 -0.005314 0.031413 -0.010943 -0.011219 0.009511 0.024024
# 3 0.000521 -0.010943 0.020398 0.026676 0.002773 -0.009625
# 4 0.007320 -0.011219 0.026676 0.101514 0.020512 -0.002882
# 5 0.010103 0.009511 0.002773 0.020512 0.064690 0.010296
# 6 -0.001566 0.024024 -0.009625 -0.002882 0.010296 0.054760
#
#
# Mechanical properties :
#
#
# Convention : Reuss Voigt Hill
#
# Bulk Modulus (GPa) = 31.03377 53.30644 42.17011
# Shear Modulus (GPa) = 15.29641 26.44055 20.86848
#
# Velocity S-wave (km/s) = 2.82409 3.71295 3.29859
# Velocity P-wave (km/s) = 5.17830 6.79522 6.04110
#
# Compressibility (1/GPa) = 0.03222296
#
# Stress axis : x y z
#
# Youngs Moduli (GPa) = 84.14027 31.83356 49.02491
#
# Poissons Ratio (x) = 0.16917 -0.02552
# Poissons Ratio (y) = 0.44713 0.53648
# Poissons Ratio (z) = -0.04381 0.34836
#
# Static dielectric constant tensor:
#      x y z
#    x 1.656520 -0.030220 -0.027760 
#    y -0.030220 1.681580 0.016550 
#    z -0.027760 0.016550 1.711460 
# 
# From -- ./inp_files/348514.got.cif
#   From: 2010.05.17/outbox.cif.g08.bks.cpg/sg2_175_cif.got.tgz:348514.got - 2010.06.03 11:33:40.
