data_PCOD9106749
_publ_section_title
;
Structure prediction by ZEFSAII (Michael W. Deem and Ramdas Pophale) SiO2 
 PCOD9106749
Probable space group: P -1
;
_chemical_formula_sum "Si O2"
_cell_formula_units_Z 16
_cell_length_a 8.871764
_cell_length_b 10.804034
_cell_length_c 11.297865
_cell_angle_alpha 138.861801
_cell_angle_beta 109.603458
_cell_angle_gamma 60.761621
_cell_volume 620.668026
_symmetry_space_group_name_H-M "P -1"
_symmetry_group_IT_number 2
_symmetry_cell_setting 'triclinic'
loop_
_space_group_symop_operation_xyz
x,y,z
-x,-y,-z
loop_
_atom_site_type_symbol
_atom_site_label
_atom_site_fract_x
_atom_site_fract_y
_atom_site_fract_z
Si Si1 0.246329 0.952184 0.293000
Si Si2 0.128198 0.851906 0.703742
Si Si3 0.970461 0.598938 0.190700
Si Si4 0.530818 0.064222 0.877324
Si Si5 0.232154 0.810363 0.443248
Si Si6 0.314230 0.517937 0.912356
Si Si7 0.779996 0.807267 0.938313
Si Si8 0.403616 0.558015 0.718273
O O1 0.401736 0.962158 0.259312
O O2 0.271127 0.921311 0.418681
O O3 0.212366 0.749388 0.095878
O O4 0.066463 0.137379 0.350840
O O5 0.182005 0.904122 0.626642
O O6 0.274596 0.642429 0.636293
O O7 0.132508 0.026875 0.920024
O O8 0.066405 0.753893 0.329403
O O9 0.769149 0.638891 0.180086
O O10 0.080350 0.419194 0.180896
O O11 0.000000 0.500000 0.000000
O O12 0.339774 0.137411 0.935165
O O13 0.578849 0.246471 0.074234
O O14 0.646452 0.859397 0.831258
O O15 0.405363 0.609886 0.367729
O O16 0.318560 0.483941 0.749574
O O17 0.500000 0.500000 0.000000
#
# Coordination Sequence:
#
# PCOD9106749 Si02
#       8
#     2   2   2   2   2   2   2   2
#     4  11  22  39  64  88 125 167 210 259 314 363
#     4  11  24  40  61  91 133 172 207 248 319 388
#     4  12  22  36  65  94 121 157 211 262 311 363
#     4   9  21  36  66  89 123 154 213 269 300 358
#     4  12  23  42  61  94 130 169 208 256 315 382
#     4  11  21  38  64  94 120 152 213 268 309 359
#     4  10  20  40  60  96 117 160 210 256 312 363
#     4  10  21  38  63  92 125 167 208 258 319 363
#
# _framework density 25.778676999999998
#
# number of rings (size 3 to 8) (size 9 to 14) (size 15 to 20)
#    0.000    1.250    5.000    0.750    3.500    1.500 
#    0.000    2.500    0.000    0.000    0.000    0.000 
#    0.000    0.000    0.000    0.000    0.000    0.000 
#
# Total GULP energy -89354.244542 kJ/mol
# GULP energy per Si atom -5584.640284 kJ/mol
# Density = 2.572000 g / cm^3
# Si number density = 25.778677 Si / 1000 Ang^3
#
#
#
# Elastic Constant Matrix: (Units=GPa)
#
#
# Indices 1 2 3 4 5 6 
#
# 1 134.1045 54.7344 23.4119 -15.7883 -17.1899 -3.9487
# 2 54.7344 149.0577 14.3055 -9.4562 -11.2958 -26.1209
# 3 23.4119 14.3055 54.8207 -8.1677 -2.5780 -1.4717
# 4 -15.7883 -9.4562 -8.1677 25.5007 0.4870 -9.6692
# 5 -17.1899 -11.2958 -2.5780 0.4870 27.1311 4.1570
# 6 -3.9487 -26.1209 -1.4717 -9.6692 4.1570 40.9623
#
#
#
# Elastic Compliance Matrix: (Units=1/GPa)
#
#
# Indices 1 2 3 4 5 6 
#
# 1 0.010253 -0.002957 -0.002782 0.004057 0.005012 -0.000548
# 2 -0.002957 0.009277 -0.000358 0.003924 0.000896 0.006453
# 3 -0.002782 -0.000358 0.020328 0.005230 -0.000304 0.001499
# 4 0.004057 0.003924 0.005230 0.050454 0.001523 0.014837
# 5 0.005012 0.000896 -0.000304 0.001523 0.040769 -0.002735
# 6 -0.000548 0.006453 0.001499 0.014837 -0.002735 0.032308
#
#
# Mechanical properties :
#
#
# Convention : Reuss Voigt Hill
#
# Bulk Modulus (GPa) = 36.14717 58.09852 47.12284
# Shear Modulus (GPa) = 27.05568 35.08756 31.07162
#
# Velocity S-wave (km/s) = 3.24317 3.69332 3.47554
# Velocity P-wave (km/s) = 5.29875 6.38544 5.86731
#
# Compressibility (1/GPa) = 0.02766469
#
# Stress axis : x y z
#
# Youngs Moduli (GPa) = 97.52904 107.79800 49.19354
#
# Poissons Ratio (x) = 0.31875 0.13684
# Poissons Ratio (y) = 0.28839 0.01761
# Poissons Ratio (z) = 0.27130 0.03858
#
# Static dielectric constant tensor:
#      x y z
#    x 2.182170 0.001680 -0.017720 
#    y 0.001680 2.131120 0.035180 
#    z -0.017720 0.035180 1.998700 
# 
# From -- ./inp_files/391392.got.cif
#   From: 2010.05.17/outbox.cif.g08.bks.cpg/sg2_196_cif.got.tgz:391392.got - 2010.06.03 11:33:40.
