data_PCOD9106287
_publ_section_title
;
Structure prediction by ZEFSAII (Michael W. Deem and Ramdas Pophale) SiO2 
 PCOD9106287
Probable space group: P -1
;
_chemical_formula_sum "Si O2"
_cell_formula_units_Z 14
_cell_length_a 12.019024
_cell_length_b 9.447849
_cell_length_c 16.953428
_cell_angle_alpha 99.967234
_cell_angle_beta 38.654625
_cell_angle_gamma 130.775423
_cell_volume 639.120379
_symmetry_space_group_name_H-M "P -1"
_symmetry_group_IT_number 2
_symmetry_cell_setting 'triclinic'
loop_
_space_group_symop_operation_xyz
x,y,z
-x,-y,-z
loop_
_atom_site_type_symbol
_atom_site_label
_atom_site_fract_x
_atom_site_fract_y
_atom_site_fract_z
Si Si1 0.819186 0.605198 0.773893
Si Si2 0.369892 0.905820 0.373473
Si Si3 0.337149 0.204036 0.786588
Si Si4 0.909321 0.938312 0.848910
Si Si5 0.964905 0.813320 0.473307
Si Si6 0.220935 0.722443 0.677863
Si Si7 0.151551 0.337333 0.656691
O O1 0.920096 0.838022 0.758361
O O2 0.052331 0.696488 0.587502
O O3 0.891320 0.574428 0.814314
O O4 0.434762 0.329626 0.943552
O O5 0.485040 0.821942 0.289190
O O6 0.251250 0.911737 0.363890
O O7 0.666659 0.180521 0.285198
O O8 0.609430 0.512794 0.670258
O O9 0.211431 0.109525 0.756296
O O10 0.000000 0.000000 0.000000
O O11 0.918259 0.107114 0.829716
O O12 0.963270 0.788907 0.378273
O O13 0.000000 0.000000 0.500000
O O14 0.190442 0.534276 0.658372
O O15 0.500000 0.000000 0.500000
O O16 0.500000 0.500000 0.500000
#
# Coordination Sequence:
#
# PCOD9106287 Si02
#       7
#     2   2   2   2   2   2   2
#     4  10  21  41  71 101 134 178 230 282 342 410
#     4  11  23  44  72 101 133 185 231 282 348 418
#     4  12  26  45  71 100 140 184 235 288 345 417
#     4  11  23  41  68 104 138 174 232 285 337 414
#     4  12  25  43  69 102 143 183 228 285 355 414
#     4  10  20  39  68  96 129 173 230 275 335 410
#     4  12  23  40  69  99 136 178 226 282 346 409
#
# _framework density 21.905104999999999
#
# number of rings (size 3 to 8) (size 9 to 14) (size 15 to 20)
#    0.000    0.857    2.857    6.429    0.000    2.857 
#    0.000    0.714    0.000    0.000    0.000    0.000 
#    0.000    0.000    0.000    0.000    0.000    0.000 
#
# Total GULP energy -78306.777532 kJ/mol
# GULP energy per Si atom -5593.341252 kJ/mol
# Density = 2.185525 g / cm^3
# Si number density = 21.905105 Si / 1000 Ang^3
#
#
#
# Elastic Constant Matrix: (Units=GPa)
#
#
# Indices 1 2 3 4 5 6 
#
# 1 155.0574 58.0610 6.8048 -8.6763 -19.9746 2.3406
# 2 58.0610 171.0602 25.4748 -12.0418 -9.6290 -23.2398
# 3 6.8048 25.4748 47.1468 8.8363 -12.8707 -12.6123
# 4 -8.6763 -12.0418 8.8363 29.0394 3.7400 -4.9283
# 5 -19.9746 -9.6290 -12.8707 3.7400 31.5036 -3.0703
# 6 2.3406 -23.2398 -12.6123 -4.9283 -3.0703 47.4117
#
#
#
# Elastic Compliance Matrix: (Units=1/GPa)
#
#
# Indices 1 2 3 4 5 6 
#
# 1 0.008071 -0.002823 0.001332 0.000042 0.004684 -0.001120
# 2 -0.002823 0.008156 -0.004298 0.004585 -0.001267 0.003388
# 3 0.001332 -0.004298 0.030908 -0.011629 0.014099 0.005754
# 4 0.000042 0.004585 -0.011629 0.041412 -0.007953 0.002941
# 5 0.004684 -0.001267 0.014099 -0.007953 0.041493 0.004759
# 6 -0.001120 0.003388 0.005754 0.002941 0.004759 0.024953
#
#
# Mechanical properties :
#
#
# Convention : Reuss Voigt Hill
#
# Bulk Modulus (GPa) = 28.12505 61.54955 44.83730
# Shear Modulus (GPa) = 28.02323 40.45251 34.23787
#
# Velocity S-wave (km/s) = 3.58061 4.30201 3.95778
# Velocity P-wave (km/s) = 5.47373 7.26881 6.43418
#
# Compressibility (1/GPa) = 0.03555549
#
# Stress axis : x y z
#
# Youngs Moduli (GPa) = 123.90653 122.60926 32.35377
#
# Poissons Ratio (x) = 0.34615 -0.04309
# Poissons Ratio (y) = 0.34982 0.13906
# Poissons Ratio (z) = -0.16502 0.52701
#
# Static dielectric constant tensor:
#      x y z
#    x 1.853860 0.043280 0.035400 
#    y 0.043280 1.822300 -0.005630 
#    z 0.035400 -0.005630 1.828700 
# 
# From -- ./inp_files/566758.got.cif
#   From: 2010.05.17/outbox.cif.g08.bks.cpg/sg2_284_cif.got.tgz:566758.got - 2010.06.03 11:33:40.
