data_PCOD9106904
_publ_section_title
;
Structure prediction by ZEFSAII (Michael W. Deem and Ramdas Pophale) SiO2 
 PCOD9106904
Probable space group: P -1
;
_chemical_formula_sum "Si O2"
_cell_formula_units_Z 15
_cell_length_a 8.326475
_cell_length_b 9.919804
_cell_length_c 14.454257
_cell_angle_alpha 66.146059
_cell_angle_beta 141.158524
_cell_angle_gamma 122.332649
_cell_volume 632.505074
_symmetry_space_group_name_H-M "P -1"
_symmetry_group_IT_number 2
_symmetry_cell_setting 'triclinic'
loop_
_space_group_symop_operation_xyz
x,y,z
-x,-y,-z
loop_
_atom_site_type_symbol
_atom_site_label
_atom_site_fract_x
_atom_site_fract_y
_atom_site_fract_z
Si Si1 0.937219 0.001696 0.677060
Si Si2 0.000000 0.000000 0.500000
Si Si3 0.467820 0.329259 0.236155
Si Si4 0.352433 0.752598 0.473569
Si Si5 0.144733 0.427434 0.808564
Si Si6 0.528818 0.954897 0.797119
Si Si7 0.578615 0.288208 0.025365
Si Si8 0.867773 0.186104 0.032312
O O1 0.091771 0.060831 0.633614
O O2 0.677884 0.839436 0.577246
O O3 0.093939 0.946887 0.843887
O O4 0.795530 0.121536 0.614376
O O5 0.295322 0.982628 0.625349
O O6 0.647773 0.334900 0.405826
O O7 0.664575 0.456637 0.218111
O O8 0.371034 0.153084 0.195380
O O9 0.168287 0.330648 0.123965
O O10 0.171494 0.637919 0.345075
O O11 0.209960 0.536533 0.897723
O O12 0.278916 0.294719 0.909051
O O13 0.386708 0.836394 0.851793
O O14 0.756950 0.107698 0.905038
O O15 0.646796 0.243201 0.967813
#
# Coordination Sequence:
#
# PCOD9106904 Si02
#       8
#     2   1   2   2   2   2   2   2
#     4  10  22  38  63  92 122 149 197 252 295 367
#     4  12  22  38  58 100 122 144 198 250 308 356
#     4  10  22  39  59  91 123 155 206 244 287 365
#     4  10  20  40  62  86 123 159 195 241 308 348
#     4  10  22  40  60  82 119 170 198 243 294 351
#     4  11  22  38  63  90 124 156 191 255 304 349
#     4  10  22  39  59  83 119 160 208 244 285 364
#     4  11  22  39  63  91 121 158 198 249 304 346
#
# _framework density 23.715222000000001
#
# number of rings (size 3 to 8) (size 9 to 14) (size 15 to 20)
#    0.000    1.600    2.667    2.000    1.867    0.533 
#    7.200    4.000    0.000    0.000    0.000    0.000 
#    0.000    0.000    0.000    0.000    0.000    0.000 
#
# Total GULP energy -83585.390818 kJ/mol
# GULP energy per Si atom -5572.359388 kJ/mol
# Density = 2.366125 g / cm^3
# Si number density = 23.715222 Si / 1000 Ang^3
#
#
#
# Elastic Constant Matrix: (Units=GPa)
#
#
# Indices 1 2 3 4 5 6 
#
# 1 29.7056 -5.3264 -10.4729 -3.7756 -0.5514 -6.8260
# 2 -5.3264 34.2322 27.1423 3.5098 4.4491 1.2637
# 3 -10.4729 27.1423 156.5965 9.1641 -1.1932 -0.8566
# 4 -3.7756 3.5098 9.1641 39.4211 5.6277 -5.3248
# 5 -0.5514 4.4491 -1.1932 5.6277 31.3861 -3.1077
# 6 -6.8260 1.2637 -0.8566 -5.3248 -3.1077 21.1571
#
#
#
# Elastic Compliance Matrix: (Units=1/GPa)
#
#
# Indices 1 2 3 4 5 6 
#
# 1 0.038668 0.003521 0.001780 0.004710 0.000753 0.013634
# 2 0.003521 0.035277 -0.005872 -0.000996 -0.005204 -0.002224
# 3 0.001780 -0.005872 0.007606 -0.001127 0.001470 0.001165
# 4 0.004710 -0.000996 -0.001127 0.027816 -0.004020 0.007944
# 5 0.000753 -0.005204 0.001470 -0.004020 0.033842 0.004572
# 6 0.013634 -0.002224 0.001165 0.007944 0.004572 0.054515
#
#
# Mechanical properties :
#
#
# Convention : Reuss Voigt Hill
#
# Bulk Modulus (GPa) = 12.43641 27.02446 19.73043
# Shear Modulus (GPa) = 22.15634 32.33895 27.24765
#
# Velocity S-wave (km/s) = 3.05989 3.69675 3.39330
# Velocity P-wave (km/s) = 4.21181 5.44440 4.86728
#
# Compressibility (1/GPa) = 0.08040907
#
# Stress axis : x y z
#
# Youngs Moduli (GPa) = 25.86105 28.34723 131.46971
#
# Poissons Ratio (x) = -0.09981 -0.23408
# Poissons Ratio (y) = -0.09105 0.77205
# Poissons Ratio (z) = -0.04605 0.16647
#
# Static dielectric constant tensor:
#      x y z
#    x 5.278500 0.538700 -1.489900 
#    y 0.538700 2.040910 -0.237220 
#    z -1.489900 -0.237220 2.562660 
# 
# From -- ./inp_files/181906.got.cif
#   From: 2010.05.17/outbox.cif.g08.bks.cpg/sg2_91_cif.got.tgz:181906.got - 2010.06.03 11:33:40.
