data_PCOD9106469
_publ_section_title
;
Structure prediction by ZEFSAII (Michael W. Deem and Ramdas Pophale) SiO2 
 PCOD9106469
Probable space group: P -1
;
_chemical_formula_sum "Si O2"
_cell_formula_units_Z 16
_cell_length_a 12.751156
_cell_length_b 7.527494
_cell_length_c 11.951077
_cell_angle_alpha 99.005800
_cell_angle_beta 97.528969
_cell_angle_gamma 142.486483
_cell_volume 624.740012
_symmetry_space_group_name_H-M "P -1"
_symmetry_group_IT_number 2
_symmetry_cell_setting 'triclinic'
loop_
_space_group_symop_operation_xyz
x,y,z
-x,-y,-z
loop_
_atom_site_type_symbol
_atom_site_label
_atom_site_fract_x
_atom_site_fract_y
_atom_site_fract_z
Si Si1 0.541796 0.416674 0.667761
Si Si2 0.689945 0.580284 0.303675
Si Si3 0.870726 0.202403 0.368744
Si Si4 0.570746 0.846014 0.977241
Si Si5 0.292881 0.359996 0.066799
Si Si6 0.107390 0.422543 0.963079
Si Si7 0.517434 0.181650 0.428894
Si Si8 0.092276 0.601887 0.214122
O O1 0.485736 0.544362 0.688949
O O2 0.701061 0.589633 0.796205
O O3 0.578252 0.426261 0.546334
O O4 0.344061 0.050259 0.649025
O O5 0.610868 0.408622 0.156268
O O6 0.677278 0.404675 0.375535
O O7 0.859354 0.965753 0.358671
O O8 0.000000 0.500000 0.500000
O O9 0.945912 0.348901 0.268697
O O10 0.684423 0.820634 0.966699
O O11 0.702559 0.201190 0.008873
O O12 0.489894 0.712959 0.076509
O O13 0.138705 0.256449 0.968386
O O14 0.072478 0.450625 0.085889
O O15 0.958051 0.274126 0.834031
O O16 0.500000 0.000000 0.500000
O O17 0.304756 0.887837 0.319236
#
# Coordination Sequence:
#
# PCOD9106469 Si02
#       8
#     2   2   2   2   2   2   2   2
#     4   9  20  36  66  89 125 162 223 266 320 401
#     4   9  21  39  65  96 121 175 220 269 333 392
#     4  10  20  40  68  90 128 177 216 272 339 389
#     4  10  20  39  70  95 138 164 226 285 318 412
#     4  10  21  39  64 107 121 179 222 271 339 392
#     4  11  23  40  67  91 143 175 223 275 340 396
#     4  12  22  40  68  94 129 170 223 277 329 403
#     4  11  23  41  62  95 134 181 216 281 340 384
#
# _framework density 25.610654
#
# number of rings (size 3 to 8) (size 9 to 14) (size 15 to 20)
#    0.750    1.000    2.500    2.250    1.750    0.000 
#    0.000    3.125    8.250    0.000    0.000    0.000 
#    0.000    0.000    0.000    0.000    0.000    0.000 
#
# Total GULP energy -89348.398276 kJ/mol
# GULP energy per Si atom -5584.274892 kJ/mol
# Density = 2.555236 g / cm^3
# Si number density = 25.610654 Si / 1000 Ang^3
#
#
#
# Elastic Constant Matrix: (Units=GPa)
#
#
# Indices 1 2 3 4 5 6 
#
# 1 57.0730 20.1615 27.6314 -8.6722 13.4053 -22.7121
# 2 20.1615 189.8414 61.3519 -15.3244 7.1171 -3.8819
# 3 27.6314 61.3519 159.4400 -22.5535 12.0211 7.9204
# 4 -8.6722 -15.3244 -22.5535 39.3410 10.7375 3.3979
# 5 13.4053 7.1171 12.0211 10.7375 38.3114 -8.1554
# 6 -22.7121 -3.8819 7.9204 3.3979 -8.1554 30.5579
#
#
#
# Elastic Compliance Matrix: (Units=1/GPa)
#
#
# Indices 1 2 3 4 5 6 
#
# 1 0.031083 -0.000643 -0.005495 0.002839 -0.004974 0.022802
# 2 -0.000643 0.006129 -0.002084 0.001121 -0.000447 0.000597
# 3 -0.005495 -0.002084 0.009477 0.005207 -0.003918 -0.008430
# 4 0.002839 0.001121 0.005207 0.033762 -0.013682 -0.006503
# 5 -0.004974 -0.000447 -0.003918 -0.013682 0.034702 0.008044
# 6 0.022802 0.000597 -0.008430 -0.006503 0.008044 0.054803
#
#
# Mechanical properties :
#
#
# Convention : Reuss Voigt Hill
#
# Bulk Modulus (GPa) = 33.06539 69.40488 51.23513
# Shear Modulus (GPa) = 25.44757 41.45602 33.45179
#
# Velocity S-wave (km/s) = 3.15561 4.02767 3.61801
# Velocity P-wave (km/s) = 5.12016 6.98487 6.12390
#
# Compressibility (1/GPa) = 0.03024311
#
# Stress axis : x y z
#
# Youngs Moduli (GPa) = 32.17219 163.16135 105.51825
#
# Poissons Ratio (x) = 0.10494 0.57985
# Poissons Ratio (y) = 0.02069 0.21993
# Poissons Ratio (z) = 0.17680 0.34008
#
# Static dielectric constant tensor:
#      x y z
#    x 2.152050 -0.044810 0.046470 
#    y -0.044810 2.074650 -0.028900 
#    z 0.046470 -0.028900 2.022180 
# 
# From -- ./inp_files/447539.got.cif
#   From: 2010.05.17/outbox.cif.g08.bks.cpg/sg2_224_cif.got.tgz:447539.got - 2010.06.03 11:33:40.
