data_PCOD9106490
_publ_section_title
;
Structure prediction by ZEFSAII (Michael W. Deem and Ramdas Pophale) SiO2 
 PCOD9106490
Probable space group: P -1
;
_chemical_formula_sum "Si O2"
_cell_formula_units_Z 16
_cell_length_a 7.388518
_cell_length_b 13.059875
_cell_length_c 10.637964
_cell_angle_alpha 104.128160
_cell_angle_beta 75.719176
_cell_angle_gamma 139.035973
_cell_volume 649.449830
_symmetry_space_group_name_H-M "P -1"
_symmetry_group_IT_number 2
_symmetry_cell_setting 'triclinic'
loop_
_space_group_symop_operation_xyz
x,y,z
-x,-y,-z
loop_
_atom_site_type_symbol
_atom_site_label
_atom_site_fract_x
_atom_site_fract_y
_atom_site_fract_z
Si Si1 0.170246 0.616370 0.392605
Si Si2 0.428722 0.169258 0.265082
Si Si3 0.347396 0.655941 0.120950
Si Si4 0.339279 0.040513 0.506990
Si Si5 0.896483 0.012176 0.208931
Si Si6 0.220569 0.855047 0.927425
Si Si7 0.160487 0.404925 0.899194
Si Si8 0.345932 0.497710 0.634122
O O1 0.978533 0.632874 0.385784
O O2 0.000000 0.500000 0.500000
O O3 0.223833 0.566593 0.248894
O O4 0.456990 0.778151 0.441579
O O5 0.300354 0.045861 0.366612
O O6 0.193105 0.080543 0.171960
O O7 0.534671 0.332579 0.326572
O O8 0.689602 0.215153 0.179181
O O9 0.637181 0.831630 0.158246
O O10 0.117782 0.645018 0.108544
O O11 0.348707 0.563947 0.993466
O O12 0.113696 0.957333 0.631672
O O13 0.500000 0.000000 0.500000
O O14 0.967966 0.735993 0.031254
O O15 0.863328 0.098477 0.151757
O O16 0.500000 0.000000 0.000000
O O17 0.332480 0.443232 0.759054
O O18 0.500000 0.500000 0.500000
#
# Coordination Sequence:
#
# PCOD9106490 Si02
#       8
#     2   2   2   2   2   2   2   2
#     4  10  20  39  70  99 137 189 245 300 365 437
#     4  12  26  47  76 111 154 194 250 321 370 446
#     4   9  19  40  72 104 141 194 247 299 371 439
#     4  11  23  43  73 107 143 201 248 299 379 440
#     4  11  25  45  72 113 152 194 251 306 375 447
#     4  12  25  47  77 107 149 204 247 300 381 448
#     4  10  21  45  76 100 145 196 251 304 367 448
#     4  11  26  46  74 109 147 192 253 315 377 444
#
# _framework density 24.636239
#
# number of rings (size 3 to 8) (size 9 to 14) (size 15 to 20)
#    0.000    1.250    3.750    2.625    1.750    0.500 
#    2.250    0.625    2.750    0.000    0.000    0.000 
#    0.000    0.000    0.000    0.000    0.000    0.000 
#
# Total GULP energy -89502.792312 kJ/mol
# GULP energy per Si atom -5593.924520 kJ/mol
# Density = 2.458017 g / cm^3
# Si number density = 24.636239 Si / 1000 Ang^3
#
#
#
# Elastic Constant Matrix: (Units=GPa)
#
#
# Indices 1 2 3 4 5 6 
#
# 1 110.9008 31.6689 32.2327 -0.9245 9.1562 -5.0713
# 2 31.6689 119.6878 55.8747 -24.9108 0.6436 -8.1123
# 3 32.2327 55.8747 146.6115 -28.1151 -11.7362 -6.8130
# 4 -0.9245 -24.9108 -28.1151 46.3228 3.5465 8.4976
# 5 9.1562 0.6436 -11.7362 3.5465 30.5715 4.6917
# 6 -5.0713 -8.1123 -6.8130 8.4976 4.6917 24.6031
#
#
#
# Elastic Compliance Matrix: (Units=1/GPa)
#
#
# Indices 1 2 3 4 5 6 
#
# 1 0.010700 -0.002101 -0.002228 -0.002414 -0.004122 0.002516
# 2 -0.002101 0.011306 -0.003136 0.004005 -0.001481 0.001326
# 3 -0.002228 -0.003136 0.009540 0.003928 0.004092 -0.000988
# 4 -0.002414 0.004005 0.003928 0.027461 0.000127 -0.007598
# 5 -0.004122 -0.001481 0.004092 0.000127 0.036642 -0.007236
# 6 0.002516 0.001326 -0.000988 -0.007598 -0.007236 0.045332
#
#
# Mechanical properties :
#
#
# Convention : Reuss Voigt Hill
#
# Bulk Modulus (GPa) = 60.17793 68.52809 64.35301
# Shear Modulus (GPa) = 30.96937 37.46106 34.21522
#
# Velocity S-wave (km/s) = 3.54936 3.90368 3.73073
# Velocity P-wave (km/s) = 6.42471 6.94223 6.68848
#
# Compressibility (1/GPa) = 0.01661739
#
# Stress axis : x y z
#
# Youngs Moduli (GPa) = 93.46090 88.44599 104.81715
#
# Poissons Ratio (x) = 0.18582 0.23350
# Poissons Ratio (y) = 0.19636 0.32870
# Poissons Ratio (z) = 0.20820 0.27736
#
# Static dielectric constant tensor:
#      x y z
#    x 1.984000 -0.012090 0.015520 
#    y -0.012090 1.964300 -0.052830 
#    z 0.015520 -0.052830 2.016000 
# 
# From -- ./inp_files/391003.got.cif
#   From: 2010.05.17/outbox.cif.g08.bks.cpg/sg2_196_cif.got.tgz:391003.got - 2010.06.03 11:33:40.
