data_PCOD9106323
_publ_section_title
;
Structure prediction by ZEFSAII (Michael W. Deem and Ramdas Pophale) SiO2 
 PCOD9106323
Probable space group: P -1
;
_chemical_formula_sum "Si O2"
_cell_formula_units_Z 15
_cell_length_a 7.374110
_cell_length_b 9.462356
_cell_length_c 12.235164
_cell_angle_alpha 45.646400
_cell_angle_beta 77.101295
_cell_angle_gamma 72.823841
_cell_volume 583.046545
_symmetry_space_group_name_H-M "P -1"
_symmetry_group_IT_number 2
_symmetry_cell_setting 'triclinic'
loop_
_space_group_symop_operation_xyz
x,y,z
-x,-y,-z
loop_
_atom_site_type_symbol
_atom_site_label
_atom_site_fract_x
_atom_site_fract_y
_atom_site_fract_z
Si Si1 0.387151 0.528504 0.288624
Si Si2 0.691605 0.720154 0.242999
Si Si3 0.044896 0.306891 0.218642
Si Si4 0.364958 0.776151 0.737778
Si Si5 0.309272 0.852487 0.937193
Si Si6 0.843449 0.780760 0.503418
Si Si7 0.000000 0.500000 0.500000
Si Si8 0.927705 0.771984 0.974993
O O1 0.536863 0.581954 0.323895
O O2 0.475755 0.341318 0.299132
O O3 0.214141 0.436574 0.411700
O O4 0.332787 0.720430 0.114496
O O5 0.865383 0.613943 0.349940
O O6 0.767273 0.766819 0.087371
O O7 0.612716 0.943529 0.176739
O O8 0.108455 0.222237 0.374234
O O9 0.826241 0.292875 0.237632
O O10 0.052117 0.541704 0.087696
O O11 0.143787 0.200456 0.154681
O O12 0.402849 0.731609 0.883920
O O13 0.309413 0.018807 0.606482
O O14 0.082542 0.901355 0.916897
O O15 0.020392 0.736490 0.423346
#
# Coordination Sequence:
#
# PCOD9106323 Si02
#       8
#     2   2   2   2   2   2   1   2
#     4  12  25  43  66  96 144 176 220 276 330 404
#     4  12  24  44  68 101 135 180 220 274 344 395
#     4  10  20  39  68  99 129 170 230 284 319 382
#     4  11  23  42  69  99 136 175 227 270 335 399
#     4  11  23  42  69  99 136 175 227 270 335 399
#     4  12  24  44  68 101 135 180 220 274 344 395
#     4  12  24  46  70  90 138 174 222 284 322 398
#     4  10  20  39  68  99 129 170 230 284 319 382
#
# _framework density 25.726935999999998
#
# number of rings (size 3 to 8) (size 9 to 14) (size 15 to 20)
#    0.000    0.800    5.333    2.000    0.000    1.600 
#    0.000    0.000    0.000    0.000    0.000    0.000 
#    0.000    0.000    0.000    0.000    0.000    0.000 
#
# Total GULP energy -83809.378674 kJ/mol
# GULP energy per Si atom -5587.291912 kJ/mol
# Density = 2.566838 g / cm^3
# Si number density = 25.726936 Si / 1000 Ang^3
#
#
#
# Elastic Constant Matrix: (Units=GPa)
#
#
# Indices 1 2 3 4 5 6 
#
# 1 80.9157 41.9174 15.6742 6.2479 -7.9599 1.4662
# 2 41.9174 130.3591 42.2435 12.2939 0.7995 -5.4302
# 3 15.6742 42.2435 71.8164 10.4242 4.3239 -13.7867
# 4 6.2479 12.2939 10.4242 64.5388 -0.8714 3.6735
# 5 -7.9599 0.7995 4.3239 -0.8714 25.8492 -0.5521
# 6 1.4662 -5.4302 -13.7867 3.6735 -0.5521 33.7305
#
#
#
# Elastic Compliance Matrix: (Units=1/GPa)
#
#
# Indices 1 2 3 4 5 6 
#
# 1 0.015587 -0.004685 -0.001273 -0.000237 0.005110 -0.001843
# 2 -0.004685 0.010963 -0.005279 -0.000788 -0.000928 -0.000118
# 3 -0.001273 -0.005279 0.019265 -0.002443 -0.003378 0.007290
# 4 -0.000237 -0.000788 -0.002443 0.016237 0.000846 -0.002870
# 5 0.005110 -0.000928 -0.003378 0.000846 0.040857 -0.001176
# 6 -0.001843 -0.000118 0.007290 -0.002870 -0.001176 0.032981
#
#
# Mechanical properties :
#
#
# Convention : Reuss Voigt Hill
#
# Bulk Modulus (GPa) = 42.84285 53.64017 48.24151
# Shear Modulus (GPa) = 30.09448 37.04077 33.56762
#
# Velocity S-wave (km/s) = 3.42389 3.79854 3.61607
# Velocity P-wave (km/s) = 5.68505 6.33511 6.01886
#
# Compressibility (1/GPa) = 0.02334112
#
# Stress axis : x y z
#
# Youngs Moduli (GPa) = 64.15761 91.21331 51.90801
#
# Poissons Ratio (x) = 0.42735 0.06608
# Poissons Ratio (y) = 0.30059 0.27401
# Poissons Ratio (z) = 0.08167 0.48149
#
# Static dielectric constant tensor:
#      x y z
#    x 2.087390 -0.053690 -0.091690 
#    y -0.053690 2.117210 0.003460 
#    z -0.091690 0.003460 2.072580 
# 
# From -- ./inp_files/174455.got.cif
#   From: 2010.05.17/outbox.cif.g08.bks.cpg/sg2_88_cif.got.tgz:174455.got - 2010.06.03 11:33:40.
