data_PCOD9106719
_publ_section_title
;
Structure prediction by ZEFSAII (Michael W. Deem and Ramdas Pophale) SiO2 
 PCOD9106719
Probable space group: P -1
;
_chemical_formula_sum "Si O2"
_cell_formula_units_Z 13
_cell_length_a 14.787193
_cell_length_b 18.660639
_cell_length_c 16.410521
_cell_angle_alpha 23.370994
_cell_angle_beta 22.943215
_cell_angle_gamma 18.582497
_cell_volume 524.184093
_symmetry_space_group_name_H-M "P -1"
_symmetry_group_IT_number 2
_symmetry_cell_setting 'triclinic'
loop_
_space_group_symop_operation_xyz
x,y,z
-x,-y,-z
loop_
_atom_site_type_symbol
_atom_site_label
_atom_site_fract_x
_atom_site_fract_y
_atom_site_fract_z
Si Si1 0.283499 0.173602 0.393976
Si Si2 0.445702 0.244284 0.625845
Si Si3 0.500000 0.000000 0.000000
Si Si4 0.905308 0.717813 0.735423
Si Si5 0.910260 0.678216 0.314094
Si Si6 0.769303 0.128430 0.133117
Si Si7 0.786883 0.417896 0.218992
O O1 0.068257 0.329197 0.333146
O O2 0.431431 0.248126 0.253294
O O3 0.595553 0.937581 0.336586
O O4 0.156140 0.070877 0.658196
O O5 0.380252 0.154022 0.852817
O O6 0.192906 0.370481 0.631728
O O7 0.565790 0.375755 0.417559
O O8 0.743767 0.991949 0.599047
O O9 0.863118 0.811621 0.859517
O O10 0.198240 0.563319 0.714821
O O11 0.702395 0.654790 0.003436
O O12 0.000000 0.500000 0.500000
O O13 0.156138 0.712854 0.059470
O O14 0.000000 0.000000 0.000000
#
# Coordination Sequence:
#
# PCOD9106719 Si02
#       7
#     2   2   1   2   2   2   2
#     4   9  19  38  60  83 117 158 195 253 300 346
#     4  10  22  40  60  86 126 158 194 256 297 354
#     4  10  20  40  60  90 118 152 200 246 304 360
#     4   9  19  38  62  86 116 159 196 240 307 360
#     4  10  22  37  56  88 119 158 203 239 299 364
#     4   9  19  37  57  82 115 153 198 247 288 354
#     4  10  21  39  61  89 122 153 197 251 303 362
#
# _framework density 24.800446999999998
#
# number of rings (size 3 to 8) (size 9 to 14) (size 15 to 20)
#    0.000    2.462    0.000    1.846    2.154    4.308 
#    8.308   12.308    0.000    0.000    0.000    0.000 
#    0.000    0.000    0.000    0.000    0.000    0.000 
#
# Total GULP energy -72454.335352 kJ/mol
# GULP energy per Si atom -5573.410412 kJ/mol
# Density = 2.474400 g / cm^3
# Si number density = 24.800447 Si / 1000 Ang^3
#
#
#
# Elastic Constant Matrix: (Units=GPa)
#
#
# Indices 1 2 3 4 5 6 
#
# 1 243.1326 21.5272 127.3749 -13.2748 -12.3948 -33.9517
# 2 21.5272 69.5213 32.1934 5.6313 4.9770 -26.0387
# 3 127.3749 32.1934 183.5782 -8.7346 -15.1676 -31.6644
# 4 -13.2748 5.6313 -8.7346 31.1117 10.4314 3.7769
# 5 -12.3948 4.9770 -15.1676 10.4314 41.4888 -4.2584
# 6 -33.9517 -26.0387 -31.6644 3.7769 -4.2584 37.1550
#
#
#
# Elastic Compliance Matrix: (Units=1/GPa)
#
#
# Indices 1 2 3 4 5 6 
#
# 1 0.006766 0.000946 -0.004226 0.000994 0.000441 0.003194
# 2 0.000946 0.020883 -0.002143 -0.005666 -0.000120 0.014235
# 3 -0.004226 -0.002143 0.009514 -0.000057 0.002802 0.003072
# 4 0.000994 -0.005666 -0.000057 0.037680 -0.009340 -0.008012
# 5 0.000441 -0.000120 0.002802 -0.009340 0.028330 0.006903
# 6 0.003194 0.014235 0.003072 -0.008012 0.006903 0.044032
#
#
# Mechanical properties :
#
#
# Convention : Reuss Voigt Hill
#
# Bulk Modulus (GPa) = 37.99786 95.38034 66.68910
# Shear Modulus (GPa) = 29.97214 42.96022 36.46618
#
# Velocity S-wave (km/s) = 3.48017 4.16653 3.83872
# Velocity P-wave (km/s) = 5.61279 7.85425 6.82615
#
# Compressibility (1/GPa) = 0.02631727
#
# Stress axis : x y z
#
# Youngs Moduli (GPa) = 147.80374 47.88682 105.11232
#
# Poissons Ratio (x) = -0.04529 0.44417
# Poissons Ratio (y) = -0.13980 0.22520
# Poissons Ratio (z) = 0.62457 0.10260
#
# Static dielectric constant tensor:
#      x y z
#    x 2.024010 0.092580 0.029760 
#    y 0.092580 2.149750 0.077670 
#    z 0.029760 0.077670 2.060070 
# 
# From -- ./inp_files/115355.got.cif
#   From: 2010.05.17/outbox.cif.g08.bks.cpg/sg2_58_cif.got.tgz:115355.got - 2010.06.03 11:33:40.
