data_PCOD9106743
_publ_section_title
;
Structure prediction by ZEFSAII (Michael W. Deem and Ramdas Pophale) SiO2 
 PCOD9106743
Probable space group: P -1
;
_chemical_formula_sum "Si O2"
_cell_formula_units_Z 14
_cell_length_a 18.811832
_cell_length_b 15.163757
_cell_length_c 8.807185
_cell_angle_alpha 50.807954
_cell_angle_beta 52.789973
_cell_angle_gamma 20.238402
_cell_volume 672.908745
_symmetry_space_group_name_H-M "P -1"
_symmetry_group_IT_number 2
_symmetry_cell_setting 'triclinic'
loop_
_space_group_symop_operation_xyz
x,y,z
-x,-y,-z
loop_
_atom_site_type_symbol
_atom_site_label
_atom_site_fract_x
_atom_site_fract_y
_atom_site_fract_z
Si Si1 0.899004 0.738966 0.348093
Si Si2 0.880216 0.461562 0.248897
Si Si3 0.569807 0.682174 0.212874
Si Si4 0.278275 0.721485 0.985443
Si Si5 0.774285 0.824823 0.097187
Si Si6 0.228222 0.964805 0.536205
Si Si7 0.122101 0.709489 0.017046
O O1 0.755963 0.892890 0.216589
O O2 0.000000 0.500000 0.500000
O O3 0.785024 0.918293 0.448534
O O4 0.069902 0.638707 0.198079
O O5 0.683623 0.629754 0.245304
O O6 0.816687 0.641730 0.237815
O O7 0.023507 0.212368 0.430826
O O8 0.027261 0.343531 0.054554
O O9 0.425412 0.758202 0.401540
O O10 0.746106 0.429867 0.152434
O O11 0.417984 0.926408 0.032212
O O12 0.241546 0.834641 0.755069
O O13 0.242045 0.632932 0.083412
O O14 0.500000 0.500000 0.000000
O O15 0.097850 0.974289 0.052279
#
# Coordination Sequence:
#
# PCOD9106743 Si02
#       7
#     2   2   2   2   2   2   2
#     4  11  21  42  65  97 135 172 213 271 316 386
#     4  10  20  40  60  92 138 171 211 260 314 389
#     4  11  23  39  66  96 130 172 215 261 320 392
#     4  10  24  47  70  92 128 169 216 276 322 388
#     4  10  21  37  63  91 135 180 206 255 322 378
#     4  10  24  40  65  98 130 164 221 270 322 364
#     4  10  24  42  68  93 125 174 214 255 340 378
#
# _framework density 20.805199999999999
#
# number of rings (size 3 to 8) (size 9 to 14) (size 15 to 20)
#    0.000    1.714    2.857    0.429    4.000    5.143 
#    0.000    2.857    0.000    0.000    0.000    0.000 
#    0.000    0.000    0.000    0.000    0.000    0.000 
#
# Total GULP energy -78232.437290 kJ/mol
# GULP energy per Si atom -5588.031235 kJ/mol
# Density = 2.075785 g / cm^3
# Si number density = 20.805200 Si / 1000 Ang^3
#
#
#
# Elastic Constant Matrix: (Units=GPa)
#
#
# Indices 1 2 3 4 5 6 
#
# 1 100.0747 35.3587 27.5998 -4.9781 -9.5842 -18.1206
# 2 35.3587 89.3227 39.7013 21.4550 -2.6246 -16.7153
# 3 27.5998 39.7013 77.8559 0.5639 -0.6207 -1.3755
# 4 -4.9781 21.4550 0.5639 30.4718 6.5617 13.9707
# 5 -9.5842 -2.6246 -0.6207 6.5617 23.2345 -1.9271
# 6 -18.1206 -16.7153 -1.3755 13.9707 -1.9271 43.2465
#
#
#
# Elastic Compliance Matrix: (Units=1/GPa)
#
#
# Indices 1 2 3 4 5 6 
#
# 1 0.013267 -0.003888 -0.002641 0.002415 0.004562 0.003395
# 2 -0.003888 0.033045 -0.014674 -0.037428 0.014248 0.023402
# 3 -0.002641 -0.014674 0.020871 0.016637 -0.007870 -0.011840
# 4 0.002415 -0.037428 0.016637 0.084877 -0.030216 -0.041691
# 5 0.004562 0.014248 -0.007870 -0.030216 0.056467 0.019445
# 6 0.003395 0.023402 -0.011840 -0.041691 0.019445 0.047549
#
#
# Mechanical properties :
#
#
# Convention : Reuss Voigt Hill
#
# Bulk Modulus (GPa) = 40.36351 52.50808 46.43580
# Shear Modulus (GPa) = 16.30040 30.36345 23.33193
#
# Velocity S-wave (km/s) = 2.80210 3.82438 3.35243
# Velocity P-wave (km/s) = 5.46917 6.69282 6.11170
#
# Compressibility (1/GPa) = 0.02477485
#
# Stress axis : x y z
#
# Youngs Moduli (GPa) = 75.37706 30.26211 47.91354
#
# Poissons Ratio (x) = 0.11767 0.12656
# Poissons Ratio (y) = 0.29309 0.70308
# Poissons Ratio (z) = 0.19910 0.44407
#
# Static dielectric constant tensor:
#      x y z
#    x 1.753270 0.007930 0.002130 
#    y 0.007930 1.737330 0.001890 
#    z 0.002130 0.001890 1.743010 
# 
# From -- ./inp_files/27261.got.cif
#   From: 2010.05.17/outbox.cif.g08.bks.cpg/sg2_14_cif.got.tgz:27261.got - 2010.06.03 11:33:40.
