data_PCOD9106890
_publ_section_title
;
Structure prediction by ZEFSAII (Michael W. Deem and Ramdas Pophale) SiO2 
 PCOD9106890
Probable space group: P -1
;
_chemical_formula_sum "Si O2"
_cell_formula_units_Z 16
_cell_length_a 20.358439
_cell_length_b 15.035600
_cell_length_c 10.445126
_cell_angle_alpha 107.028400
_cell_angle_beta 121.155057
_cell_angle_gamma 21.545161
_cell_volume 804.317443
_symmetry_space_group_name_H-M "P -1"
_symmetry_group_IT_number 2
_symmetry_cell_setting 'triclinic'
loop_
_space_group_symop_operation_xyz
x,y,z
-x,-y,-z
loop_
_atom_site_type_symbol
_atom_site_label
_atom_site_fract_x
_atom_site_fract_y
_atom_site_fract_z
Si Si1 0.118989 0.610530 0.650525
Si Si2 0.075594 0.352309 0.637695
Si Si3 0.515653 0.574822 0.961552
Si Si4 0.617698 0.765780 0.983416
Si Si5 0.971595 0.597515 0.887146
Si Si6 0.449882 0.775320 0.197336
Si Si7 0.904993 0.029594 0.717494
Si Si8 0.479119 0.489154 0.671846
O O1 0.287290 0.481243 0.676898
O O2 0.049014 0.602477 0.494117
O O3 0.263185 0.412689 0.842657
O O4 0.905451 0.922818 0.622342
O O5 0.989057 0.509256 0.743236
O O6 0.000000 0.500000 0.500000
O O7 0.374392 0.990662 0.789347
O O8 0.375610 0.817620 0.000701
O O9 0.500000 0.500000 0.000000
O O10 0.404744 0.663991 0.756374
O O11 0.808083 0.267363 0.110076
O O12 0.818455 0.564550 0.994589
O O13 0.500000 0.000000 0.000000
O O14 0.724944 0.943298 0.804096
O O15 0.000000 0.500000 0.000000
O O16 0.478795 0.653152 0.265794
O O17 0.743814 0.212525 0.760322
O O18 0.736263 0.280016 0.551840
#
# Coordination Sequence:
#
# PCOD9106890 Si02
#       8
#     2   2   2   2   2   2   2   2
#     4  11  22  40  63  91 124 167 207 254 310 374
#     4  11  23  41  68  88 122 171 213 248 306 378
#     4   9  20  38  62  85 119 158 200 246 309 369
#     4  10  20  40  62  84 121 161 204 253 307 357
#     4  11  23  40  63  92 129 160 206 262 310 361
#     4  10  22  39  62  88 126 162 201 259 311 357
#     4  10  22  38  63  91 123 160 203 257 310 361
#     4  10  21  40  63  89 121 159 207 256 306 368
#
# _framework density 19.892643
#
# number of rings (size 3 to 8) (size 9 to 14) (size 15 to 20)
#    0.000    1.750    2.500    2.625    0.000    8.000 
#    0.000    7.500    0.000    0.000    0.000    0.000 
#    0.000    0.000    0.000    0.000    0.000    0.000 
#
# Total GULP energy -89148.135311 kJ/mol
# GULP energy per Si atom -5571.758457 kJ/mol
# Density = 1.984737 g / cm^3
# Si number density = 19.892643 Si / 1000 Ang^3
#
#
#
# Elastic Constant Matrix: (Units=GPa)
#
#
# Indices 1 2 3 4 5 6 
#
# 1 76.5211 2.4293 53.9325 16.2790 -9.3350 1.1455
# 2 2.4293 62.9207 19.7246 22.4955 -9.3487 6.8206
# 3 53.9325 19.7246 90.7374 10.9512 -9.0494 -1.5968
# 4 16.2790 22.4955 10.9512 32.7678 6.1671 0.7253
# 5 -9.3350 -9.3487 -9.0494 6.1671 32.6524 3.9027
# 6 1.1455 6.8206 -1.5968 0.7253 3.9027 30.7840
#
#
#
# Elastic Compliance Matrix: (Units=1/GPa)
#
#
# Indices 1 2 3 4 5 6 
#
# 1 0.032325 0.015557 -0.018578 -0.022957 0.013696 -0.006809
# 2 0.015557 0.033226 -0.011277 -0.029874 0.017680 -0.010063
# 3 -0.018578 -0.011277 0.022916 0.010085 -0.004659 0.004732
# 4 -0.022957 -0.029874 0.010085 0.063646 -0.025505 0.009730
# 5 0.013696 0.017680 -0.004659 -0.025505 0.044286 -0.009682
# 6 -0.006809 -0.010063 0.004732 0.009730 -0.009682 0.036211
#
#
# Mechanical properties :
#
#
# Convention : Reuss Voigt Hill
#
# Bulk Modulus (GPa) = 16.70313 42.48357 29.59335
# Shear Modulus (GPa) = 17.78311 29.51369 23.64840
#
# Velocity S-wave (km/s) = 2.99315 3.85599 3.45164
# Velocity P-wave (km/s) = 4.51222 6.42088 5.54923
#
# Compressibility (1/GPa) = 0.05986900
#
# Stress axis : x y z
#
# Youngs Moduli (GPa) = 30.93574 30.09681 43.63715
#
# Poissons Ratio (x) = -0.46820 0.81070
# Poissons Ratio (y) = -0.48125 0.49212
# Poissons Ratio (z) = 0.57473 0.33942
#
# Static dielectric constant tensor:
#      x y z
#    x 1.729850 -0.046580 0.008500 
#    y -0.046580 1.704970 -0.034450 
#    z 0.008500 -0.034450 1.715440 
# 
# From -- ./inp_files/347624.got.cif
#   From: 2010.05.17/outbox.cif.g08.bks.cpg/sg2_174_cif.got.tgz:347624.got - 2010.06.03 11:33:40.
