data_PCOD9106766
_publ_section_title
;
Structure prediction by ZEFSAII (Michael W. Deem and Ramdas Pophale) SiO2 
 PCOD9106766
Probable space group: P -1
;
_chemical_formula_sum "Si O2"
_cell_formula_units_Z 16
_cell_length_a 7.717834
_cell_length_b 17.377719
_cell_length_c 14.812977
_cell_angle_alpha 154.448035
_cell_angle_beta 74.208061
_cell_angle_gamma 120.748479
_cell_volume 633.399547
_symmetry_space_group_name_H-M "P -1"
_symmetry_group_IT_number 2
_symmetry_cell_setting 'triclinic'
loop_
_space_group_symop_operation_xyz
x,y,z
-x,-y,-z
loop_
_atom_site_type_symbol
_atom_site_label
_atom_site_fract_x
_atom_site_fract_y
_atom_site_fract_z
Si Si1 0.309270 0.448622 0.544355
Si Si2 0.686573 0.391386 0.758279
Si Si3 0.351639 0.054229 0.748720
Si Si4 0.146545 0.689563 0.103871
Si Si5 0.758739 0.900903 0.377384
Si Si6 0.992603 0.283142 0.259596
Si Si7 0.430083 0.041512 0.925002
Si Si8 0.566574 0.380089 0.564473
O O1 0.500000 0.500000 0.500000
O O2 0.081939 0.269381 0.328939
O O3 0.355831 0.362195 0.534372
O O4 0.350336 0.686212 0.804401
O O5 0.497657 0.324485 0.790283
O O6 0.586756 0.405274 0.694683
O O7 0.707616 0.191133 0.525842
O O8 0.948390 0.622111 0.989423
O O9 0.631829 0.266439 0.923625
O O10 0.229080 0.087297 0.720547
O O11 0.318117 0.047809 0.853953
O O12 0.263195 0.915806 0.385540
O O13 0.000000 0.500000 0.000000
O O14 0.000000 0.000000 0.500000
O O15 0.189844 0.384783 0.263110
O O16 0.000000 0.500000 0.500000
O O17 0.727152 0.046761 0.054397
O O18 0.463062 0.850275 0.699037
#
# Coordination Sequence:
#
# PCOD9106766 Si02
#       8
#     2   2   2   2   2   2   2   2
#     4  10  22  40  61  90 121 159 208 249 307 371
#     4  10  20  40  61  84 122 160 204 251 298 366
#     4  10  21  38  60  88 119 160 208 242 305 371
#     4  11  19  39  65  80 113 169 200 241 300 361
#     4  11  23  37  56  92 122 153 201 254 310 361
#     4   9  20  39  61  88 118 159 204 243 306 367
#     4  10  22  40  62  88 125 160 197 262 304 355
#     4   9  21  39  61  90 121 161 208 251 303 371
#
# _framework density 25.260517
#
# number of rings (size 3 to 8) (size 9 to 14) (size 15 to 20)
#    0.000    2.000    2.500    0.750    0.000   12.000 
#    2.250    8.750    0.000    0.000    0.000    0.000 
#    0.000    0.000    0.000    0.000    0.000    0.000 
#
# Total GULP energy -89237.135767 kJ/mol
# GULP energy per Si atom -5577.320985 kJ/mol
# Density = 2.520302 g / cm^3
# Si number density = 25.260517 Si / 1000 Ang^3
#
#
#
# Elastic Constant Matrix: (Units=GPa)
#
#
# Indices 1 2 3 4 5 6 
#
# 1 85.1156 25.4463 12.1191 7.6251 18.1168 -31.8106
# 2 25.4463 91.0318 -1.2184 4.2238 3.4674 -19.2509
# 3 12.1191 -1.2184 85.5859 -5.9314 -9.1657 -1.8328
# 4 7.6251 4.2238 -5.9314 23.3734 -3.0121 16.3787
# 5 18.1168 3.4674 -9.1657 -3.0121 42.9421 -7.4563
# 6 -31.8106 -19.2509 -1.8328 16.3787 -7.4563 42.9346
#
#
#
# Elastic Compliance Matrix: (Units=1/GPa)
#
#
# Indices 1 2 3 4 5 6 
#
# 1 0.033369 0.001169 -0.008076 -0.041878 -0.012100 0.038776
# 2 0.001169 0.013454 -0.000537 -0.010605 -0.000558 0.010824
# 3 -0.008076 -0.000537 0.014196 0.014075 0.005733 -0.009992
# 4 -0.041878 -0.010605 0.014075 0.118339 0.016375 -0.077482
# 5 -0.012100 -0.000558 0.005733 0.016375 0.029043 -0.010174
# 6 0.038776 0.010824 -0.009992 -0.077482 -0.010174 0.084239
#
#
# Mechanical properties :
#
#
# Convention : Reuss Voigt Hill
#
# Bulk Modulus (GPa) = 21.67851 37.15859 29.41855
# Shear Modulus (GPa) = 15.48450 36.87578 26.18014
#
# Velocity S-wave (km/s) = 2.47855 3.82490 3.22282
# Velocity P-wave (km/s) = 4.09775 5.85223 5.05174
#
# Compressibility (1/GPa) = 0.04612864
#
# Stress axis : x y z
#
# Youngs Moduli (GPa) = 29.96828 74.32907 70.44478
#
# Poissons Ratio (x) = -0.08686 0.56893
# Poissons Ratio (y) = -0.03502 0.03782
# Poissons Ratio (z) = 0.24203 0.03991
#
# Static dielectric constant tensor:
#      x y z
#    x 2.142480 -0.149510 -0.019410 
#    y -0.149510 1.796340 -0.143270 
#    z -0.019410 -0.143270 1.965160 
# 
# From -- ./inp_files/507093.got.cif
#   From: 2010.05.17/outbox.cif.g08.bks.cpg/sg2_254_cif.got.tgz:507093.got - 2010.06.03 11:33:40.
