data_PCOD9106188
_publ_section_title
;
Structure prediction by ZEFSAII (Michael W. Deem and Ramdas Pophale) SiO2 
 PCOD9106188
Probable space group: P -1
;
_chemical_formula_sum "Si O2"
_cell_formula_units_Z 16
_cell_length_a 11.214416
_cell_length_b 9.095003
_cell_length_c 15.236797
_cell_angle_alpha 50.435472
_cell_angle_beta 138.526098
_cell_angle_gamma 132.194802
_cell_volume 733.666419
_symmetry_space_group_name_H-M "P -1"
_symmetry_group_IT_number 2
_symmetry_cell_setting 'triclinic'
loop_
_space_group_symop_operation_xyz
x,y,z
-x,-y,-z
loop_
_atom_site_type_symbol
_atom_site_label
_atom_site_fract_x
_atom_site_fract_y
_atom_site_fract_z
Si Si1 0.015318 0.734099 0.412742
Si Si2 0.935500 0.959124 0.116725
Si Si3 0.398003 0.310778 0.078970
Si Si4 0.073219 0.924761 0.674130
Si Si5 0.296593 0.833572 0.984581
Si Si6 0.307341 0.387885 0.185808
Si Si7 0.386941 0.303819 0.456836
Si Si8 0.339926 0.933425 0.651262
O O1 0.000000 0.500000 0.500000
O O2 0.223322 0.839302 0.534077
O O3 0.987290 0.810064 0.271157
O O4 0.890359 0.841729 0.360115
O O5 0.121023 0.176902 0.141396
O O6 0.773240 0.040304 0.031600
O O7 0.825585 0.820692 0.025076
O O8 0.427874 0.402837 0.158501
O O9 0.527483 0.175777 0.196668
O O10 0.500000 0.500000 0.000000
O O11 0.185140 0.932010 0.642249
O O12 0.840997 0.796919 0.601309
O O13 0.155374 0.807248 0.833964
O O14 0.284083 0.609105 0.094753
O O15 0.500000 0.000000 0.000000
O O16 0.391811 0.344838 0.340503
O O17 0.500000 0.500000 0.500000
O O18 0.478861 0.150249 0.606109
#
# Coordination Sequence:
#
# PCOD9106188 Si02
#       8
#     2   2   2   2   2   2   2   2
#     4  10  20  39  67  98 137 178 223 282 346 414
#     4  11  23  45  69 102 142 185 234 290 354 416
#     4  12  27  46  70 105 143 189 242 288 354 428
#     4  10  22  44  69 100 138 178 239 284 346 429
#     4  11  23  40  73 104 138 182 234 294 356 419
#     4  12  25  47  70 103 145 182 239 300 355 422
#     4  11  25  44  70 105 137 181 237 291 358 416
#     4  11  23  47  66  98 145 180 236 287 340 428
#
# _framework density 21.808277
#
# number of rings (size 3 to 8) (size 9 to 14) (size 15 to 20)
#    0.000    1.000    3.750    5.250    3.500    1.500 
#    4.500    1.250    0.000    0.000    0.000    0.000 
#    0.000    0.000    0.000    0.000    0.000    0.000 
#
# Total GULP energy -89106.221392 kJ/mol
# GULP energy per Si atom -5569.138837 kJ/mol
# Density = 2.175864 g / cm^3
# Si number density = 21.808277 Si / 1000 Ang^3
#
#
#
# Elastic Constant Matrix: (Units=GPa)
#
#
# Indices 1 2 3 4 5 6 
#
# 1 57.3005 18.0002 58.6091 -7.7966 -25.6186 -14.0084
# 2 18.0002 131.8296 61.0662 -28.7428 -9.7738 -7.9981
# 3 58.6091 61.0662 144.4211 -28.6076 -25.5916 -0.9077
# 4 -7.7966 -28.7428 -28.6076 53.4397 -2.0264 -6.8011
# 5 -25.6186 -9.7738 -25.5916 -2.0264 28.7067 9.0583
# 6 -14.0084 -7.9981 -0.9077 -6.8011 9.0583 16.3301
#
#
#
# Elastic Compliance Matrix: (Units=1/GPa)
#
#
# Indices 1 2 3 4 5 6 
#
# 1 0.058689 0.007890 -0.021269 0.007835 0.022900 0.043588
# 2 0.007890 0.011827 -0.006817 0.005683 0.000971 0.014010
# 3 -0.021269 -0.006817 0.018852 0.000667 0.002356 -0.021565
# 4 0.007835 0.005683 0.000667 0.025647 0.006002 0.016894
# 5 0.022900 0.000971 0.002356 0.006002 0.061757 -0.011506
# 6 0.043588 0.014010 -0.021565 0.016894 -0.011506 0.117709
#
#
# Mechanical properties :
#
#
# Convention : Reuss Voigt Hill
#
# Bulk Modulus (GPa) = 20.41859 67.65579 44.03719
# Shear Modulus (GPa) = 14.23694 32.75368 23.49531
#
# Velocity S-wave (km/s) = 2.55781 3.87963 3.28587
# Velocity P-wave (km/s) = 4.25515 7.15255 5.88495
#
# Compressibility (1/GPa) = 0.04897499
#
# Stress axis : x y z
#
# Youngs Moduli (GPa) = 17.03908 84.55244 53.04409
#
# Poissons Ratio (x) = -0.66708 1.12820
# Poissons Ratio (y) = -0.13443 0.36159
# Poissons Ratio (z) = 0.36241 0.57638
#
# Static dielectric constant tensor:
#      x y z
#    x 1.848170 -0.002340 0.009490 
#    y -0.002340 1.871130 -0.045000 
#    z 0.009490 -0.045000 1.847490 
# 
# From -- ./inp_files/515128.got.cif
#   From: 2010.05.17/outbox.cif.g08.bks.cpg/sg2_258_cif.got.tgz:515128.got - 2010.06.03 11:33:40.
