data_PCOD9106833
_publ_section_title
;
Structure prediction by ZEFSAII (Michael W. Deem and Ramdas Pophale) SiO2 
 PCOD9106833
Probable space group: P -1
;
_chemical_formula_sum "Si O2"
_cell_formula_units_Z 16
_cell_length_a 15.377585
_cell_length_b 21.065106
_cell_length_c 8.693378
_cell_angle_alpha 152.645150
_cell_angle_beta 40.044126
_cell_angle_gamma 145.429089
_cell_volume 727.890314
_symmetry_space_group_name_H-M "P -1"
_symmetry_group_IT_number 2
_symmetry_cell_setting 'triclinic'
loop_
_space_group_symop_operation_xyz
x,y,z
-x,-y,-z
loop_
_atom_site_type_symbol
_atom_site_label
_atom_site_fract_x
_atom_site_fract_y
_atom_site_fract_z
Si Si1 0.965040 0.966310 0.155616
Si Si2 0.182520 0.868687 0.791004
Si Si3 0.633433 0.220406 0.135632
Si Si4 0.700230 0.365252 0.838266
Si Si5 0.789847 0.694619 0.326851
Si Si6 0.841377 0.481184 0.601673
Si Si7 0.550000 0.806512 0.962648
Si Si8 0.699370 0.972731 0.691691
O O1 0.795522 0.910588 0.329656
O O2 0.070039 0.138400 0.459877
O O3 0.029794 0.856101 0.898237
O O4 0.000000 0.000000 0.000000
O O5 0.195066 0.711251 0.417901
O O6 0.213765 0.932906 0.064647
O O7 0.322036 0.011167 0.815862
O O8 0.780054 0.393498 0.337456
O O9 0.584931 0.209545 0.001367
O O10 0.466042 0.164146 0.321641
O O11 0.679347 0.093645 0.866085
O O12 0.705712 0.353470 0.621575
O O13 0.767776 0.553301 0.168614
O O14 0.531944 0.267201 0.925329
O O15 0.638161 0.714498 0.581000
O O16 0.829016 0.636900 0.989598
O O17 0.000000 0.500000 0.500000
#
# Coordination Sequence:
#
# PCOD9106833 Si02
#       8
#     2   2   2   2   2   2   2   2
#     4  11  24  40  63  92 124 160 203 257 304 360
#     4  10  21  39  63  92 121 167 206 244 313 359
#     4  10  21  36  64  93 116 161 208 254 297 354
#     4  10  21  38  64  87 122 166 205 248 309 365
#     4   9  22  40  63  84 129 164 197 244 318 355
#     4  10  21  40  62  85 119 167 201 241 306 374
#     4  10  21  38  60  95 127 158 204 261 295 361
#     4  10  20  40  61  90 127 156 205 255 302 361
#
# _framework density 21.981334
#
# number of rings (size 3 to 8) (size 9 to 14) (size 15 to 20)
#    0.750    1.250    1.250    1.875    1.750    2.500 
#    0.000    2.500    0.000    0.000    0.000    0.000 
#    0.000    0.000    0.000    0.000    0.000    0.000 
#
# Total GULP energy -89197.204060 kJ/mol
# GULP energy per Si atom -5574.825254 kJ/mol
# Density = 2.193130 g / cm^3
# Si number density = 21.981334 Si / 1000 Ang^3
#
#
#
# Elastic Constant Matrix: (Units=GPa)
#
#
# Indices 1 2 3 4 5 6 
#
# 1 74.2044 11.3893 31.5578 -11.3867 -19.3187 9.8831
# 2 11.3893 50.9012 7.2666 -2.2593 0.6226 -9.6038
# 3 31.5578 7.2666 88.9624 5.9465 -28.1214 0.7589
# 4 -11.3867 -2.2593 5.9465 34.6053 -5.3640 -6.2977
# 5 -19.3187 0.6226 -28.1214 -5.3640 27.0731 5.4352
# 6 9.8831 -9.6038 0.7589 -6.2977 5.4352 21.1406
#
#
#
# Elastic Compliance Matrix: (Units=1/GPa)
#
#
# Indices 1 2 3 4 5 6 
#
# 1 0.024811 -0.008765 -0.001653 0.007800 0.021494 -0.018724
# 2 -0.008765 0.026210 -0.003959 0.000886 -0.014856 0.020230
# 3 -0.001653 -0.003959 0.018371 -0.002338 0.018990 -0.007264
# 4 0.007800 0.000886 -0.002338 0.034168 0.008939 0.004720
# 5 0.021494 -0.014856 0.018990 0.008939 0.081282 -0.035713
# 6 -0.018724 0.020230 -0.007264 0.004720 -0.035713 0.076094
#
#
# Mechanical properties :
#
#
# Convention : Reuss Voigt Hill
#
# Bulk Modulus (GPa) = 24.60740 34.94392 29.77566
# Shear Modulus (GPa) = 16.48874 27.48743 21.98809
#
# Velocity S-wave (km/s) = 2.74181 3.54006 3.16619
# Velocity P-wave (km/s) = 4.60894 5.71323 5.19054
#
# Compressibility (1/GPa) = 0.04063818
#
# Stress axis : x y z
#
# Youngs Moduli (GPa) = 40.30487 38.15290 54.43287
#
# Poissons Ratio (x) = 0.33441 0.08996
# Poissons Ratio (y) = 0.35327 0.21553
# Poissons Ratio (z) = 0.06661 0.15107
#
# Static dielectric constant tensor:
#      x y z
#    x 1.822370 -0.032060 0.004200 
#    y -0.032060 1.853230 -0.032410 
#    z 0.004200 -0.032410 1.846270 
# 
# From -- ./inp_files/319136.got.cif
#   From: 2010.05.17/outbox.cif.g08.bks.cpg/sg2_160_cif.got.tgz:319136.got - 2010.06.03 11:33:40.
