data_PCOD9106209
_publ_section_title
;
Structure prediction by ZEFSAII (Michael W. Deem and Ramdas Pophale) SiO2 
 PCOD9106209
Probable space group: P -1
;
_chemical_formula_sum "Si O2"
_cell_formula_units_Z 14
_cell_length_a 26.299453
_cell_length_b 5.565832
_cell_length_c 14.907868
_cell_angle_alpha 111.774610
_cell_angle_beta 161.323097
_cell_angle_gamma 73.226957
_cell_volume 634.291400
_symmetry_space_group_name_H-M "P -1"
_symmetry_group_IT_number 2
_symmetry_cell_setting 'triclinic'
loop_
_space_group_symop_operation_xyz
x,y,z
-x,-y,-z
loop_
_atom_site_type_symbol
_atom_site_label
_atom_site_fract_x
_atom_site_fract_y
_atom_site_fract_z
Si Si1 0.525503 0.039723 0.653159
Si Si2 0.321103 0.532857 0.244022
Si Si3 0.824282 0.823702 0.192416
Si Si4 0.900699 0.702411 0.815027
Si Si5 0.352893 0.144128 0.918353
Si Si6 0.359947 0.444935 0.491848
Si Si7 0.328043 0.516454 0.759831
O O1 0.513830 0.313348 0.713600
O O2 0.500000 0.000000 0.500000
O O3 0.364795 0.835509 0.388762
O O4 0.693808 0.971706 0.950333
O O5 0.500000 0.500000 0.500000
O O6 0.276775 0.399415 0.247858
O O7 0.200897 0.439418 0.948382
O O8 0.765058 0.796860 0.191291
O O9 0.000000 0.000000 0.500000
O O10 0.755767 0.692188 0.642940
O O11 0.816818 0.580363 0.566141
O O12 0.000000 0.500000 0.000000
O O13 0.000000 0.000000 0.000000
O O14 0.314258 0.307364 0.789816
O O15 0.330593 0.825661 0.828510
O O16 0.543918 0.261676 0.279069
O O17 0.500000 0.500000 0.000000
#
# Coordination Sequence:
#
# PCOD9106209 Si02
#       7
#     2   2   2   2   2   2   2
#     4  11  20  42  71 100 137 195 245 287 347 454
#     4  10  20  39  68 102 139 182 245 285 348 447
#     4  11  24  43  68 110 154 182 240 309 373 421
#     4  12  31  51  75 112 151 187 247 320 379 422
#     4  12  25  46  79 109 143 202 249 295 371 443
#     4  12  24  44  78 100 141 196 252 292 366 442
#     4  12  27  49  79 107 146 191 259 306 357 449
#
# _framework density 22.071871999999999
#
# number of rings (size 3 to 8) (size 9 to 14) (size 15 to 20)
#    0.000    0.571    7.143    2.143    4.000    2.286 
#    0.000    5.000    0.000    0.000    0.000    0.000 
#    0.000    0.000    0.000    0.000    0.000    0.000 
#
# Total GULP energy -78067.263202 kJ/mol
# GULP energy per Si atom -5576.233086 kJ/mol
# Density = 2.202164 g / cm^3
# Si number density = 22.071872 Si / 1000 Ang^3
#
#
#
# Elastic Constant Matrix: (Units=GPa)
#
#
# Indices 1 2 3 4 5 6 
#
# 1 161.3580 53.6781 65.1761 8.5846 -11.0926 35.8474
# 2 53.6781 127.6520 53.8939 16.0837 -13.2771 13.2985
# 3 65.1761 53.8939 143.1457 26.4492 -10.9629 7.9178
# 4 8.5846 16.0837 26.4492 41.7701 8.2885 -8.8571
# 5 -11.0926 -13.2771 -10.9629 8.2885 38.5828 1.2221
# 6 35.8474 13.2985 7.9178 -8.8571 1.2221 38.3998
#
#
#
# Elastic Compliance Matrix: (Units=1/GPa)
#
#
# Indices 1 2 3 4 5 6 
#
# 1 0.010159 -0.001621 -0.003020 -0.001849 0.002181 -0.008795
# 2 -0.001621 0.010498 -0.002151 -0.003573 0.003386 -0.002611
# 3 -0.003020 -0.002151 0.010407 -0.005641 0.002560 0.000035
# 4 -0.001849 -0.003573 -0.005641 0.034083 -0.011077 0.012341
# 5 0.002181 0.003386 0.002560 -0.011077 0.031048 -0.007279
# 6 -0.008795 -0.002611 0.000035 0.012341 -0.007279 0.038228
#
#
# Mechanical properties :
#
#
# Convention : Reuss Voigt Hill
#
# Bulk Modulus (GPa) = 57.20537 86.40575 71.80556
# Shear Modulus (GPa) = 32.50313 41.04439 36.77376
#
# Velocity S-wave (km/s) = 3.84162 4.31696 4.08621
# Velocity P-wave (km/s) = 6.75658 8.00504 7.40716
#
# Compressibility (1/GPa) = 0.01748088
#
# Stress axis : x y z
#
# Youngs Moduli (GPa) = 98.43808 95.26066 96.08867
#
# Poissons Ratio (x) = 0.15438 0.29019
# Poissons Ratio (y) = 0.15953 0.20664
# Poissons Ratio (z) = 0.29728 0.20486
#
# Static dielectric constant tensor:
#      x y z
#    x 1.866550 -0.001880 -0.064410 
#    y -0.001880 2.108220 0.060550 
#    z -0.064410 0.060550 1.825550 
# 
# From -- ./inp_files/543617.got.cif
#   From: 2010.05.17/outbox.cif.g08.bks.cpg/sg2_272_cif.got.tgz:543617.got - 2010.06.03 11:33:40.
