data_PCOD9106738
_publ_section_title
;
Structure prediction by ZEFSAII (Michael W. Deem and Ramdas Pophale) SiO2 
 PCOD9106738
Probable space group: P -1
;
_chemical_formula_sum "Si O2"
_cell_formula_units_Z 15
_cell_length_a 13.418054
_cell_length_b 11.522576
_cell_length_c 6.671399
_cell_angle_alpha 109.660028
_cell_angle_beta 38.563577
_cell_angle_gamma 95.074277
_cell_volume 578.107838
_symmetry_space_group_name_H-M "P -1"
_symmetry_group_IT_number 2
_symmetry_cell_setting 'triclinic'
loop_
_space_group_symop_operation_xyz
x,y,z
-x,-y,-z
loop_
_atom_site_type_symbol
_atom_site_label
_atom_site_fract_x
_atom_site_fract_y
_atom_site_fract_z
Si Si1 0.500000 0.000000 0.000000
Si Si2 0.741481 0.993410 0.953715
Si Si3 0.052457 0.917363 0.667905
Si Si4 0.287472 0.570017 0.844955
Si Si5 0.478315 0.734291 0.393094
Si Si6 0.696559 0.341086 0.711510
Si Si7 0.687424 0.721154 0.396800
Si Si8 0.025413 0.638218 0.021158
O O1 0.595835 0.954581 0.043826
O O2 0.546832 0.847426 0.768410
O O3 0.853390 0.018535 0.605425
O O4 0.651938 0.122507 0.297053
O O5 0.881311 0.906943 0.832174
O O6 0.194748 0.791246 0.437639
O O7 0.000000 0.000000 0.000000
O O8 0.399394 0.650663 0.619628
O O9 0.315579 0.424728 0.635867
O O10 0.323572 0.561266 0.018569
O O11 0.097831 0.655958 0.135868
O O12 0.462544 0.677101 0.166189
O O13 0.654782 0.730706 0.212599
O O14 0.817919 0.370405 0.372044
O O15 0.861261 0.729096 0.224688
O O16 0.000000 0.500000 0.000000
#
# Coordination Sequence:
#
# PCOD9106738 Si02
#       8
#     1   2   2   2   2   2   2   2
#     4  10  24  40  64  88 128 174 198 252 324 380
#     4  10  22  40  62  90 127 166 207 257 312 366
#     4  11  22  37  66  92 122 167 217 261 300 363
#     4  10  21  40  67  92 119 165 210 265 306 366
#     4  10  20  40  60  92 125 159 207 258 313 367
#     4  11  22  37  66  97 123 160 215 261 310 366
#     4  10  22  40  61  89 127 166 207 250 320 377
#     4   9  22  41  63  91 126 162 205 257 311 371
#
# _framework density 25.946717
#
# number of rings (size 3 to 8) (size 9 to 14) (size 15 to 20)
#    0.000    1.867    2.667    0.400    3.733    2.667 
#    0.000    3.333    0.000    0.000    0.000    0.000 
#    0.000    0.000    0.000    0.000    0.000    0.000 
#
# Total GULP energy -83558.516640 kJ/mol
# GULP energy per Si atom -5570.567776 kJ/mol
# Density = 2.588766 g / cm^3
# Si number density = 25.946717 Si / 1000 Ang^3
#
#
#
# Elastic Constant Matrix: (Units=GPa)
#
#
# Indices 1 2 3 4 5 6 
#
# 1 240.5026 37.8615 42.9651 11.5495 9.9670 -35.3590
# 2 37.8615 69.6929 32.1672 13.9329 4.5442 -5.6894
# 3 42.9651 32.1672 79.3286 19.6974 16.3366 7.8441
# 4 11.5495 13.9329 19.6974 40.9280 0.5530 1.2970
# 5 9.9670 4.5442 16.3366 0.5530 48.5454 10.2495
# 6 -35.3590 -5.6894 7.8441 1.2970 10.2495 41.2323
#
#
#
# Elastic Compliance Matrix: (Units=1/GPa)
#
#
# Indices 1 2 3 4 5 6 
#
# 1 0.005754 -0.001245 -0.002917 0.000043 -0.001273 0.005632
# 2 -0.001245 0.018868 -0.006533 -0.003019 0.000122 0.002843
# 3 -0.002917 -0.006533 0.019826 -0.006250 -0.004134 -0.005950
# 4 0.000043 -0.003019 -0.006250 0.028447 0.002186 -0.000629
# 5 -0.001273 0.000122 -0.004134 0.002186 0.023526 -0.006205
# 6 0.005632 0.002843 -0.005950 -0.000629 -0.006205 0.032169
#
#
# Mechanical properties :
#
#
# Convention : Reuss Voigt Hill
#
# Bulk Modulus (GPa) = 43.36848 68.39017 55.87933
# Shear Modulus (GPa) = 31.71233 44.57649 38.14441
#
# Velocity S-wave (km/s) = 3.49980 4.14937 3.83836
# Velocity P-wave (km/s) = 5.75172 7.02649 6.42082
#
# Compressibility (1/GPa) = 0.02305822
#
# Stress axis : x y z
#
# Youngs Moduli (GPa) = 173.79631 52.99881 50.43801
#
# Poissons Ratio (x) = 0.06600 0.14712
# Poissons Ratio (y) = 0.21644 0.32951
# Poissons Ratio (z) = 0.50693 0.34624
#
# Static dielectric constant tensor:
#      x y z
#    x 2.274120 -0.047550 0.048200 
#    y -0.047550 2.045810 -0.021310 
#    z 0.048200 -0.021310 2.103270 
# 
# From -- ./inp_files/74909.got.cif
#   From: 2010.05.17/outbox.cif.g08.bks.cpg/sg2_38_cif.got.tgz:74909.got - 2010.06.03 11:33:40.
