data_PCOD9106116
_publ_section_title
;
Structure prediction by ZEFSAII (Michael W. Deem and Ramdas Pophale) SiO2 
 PCOD9106116
Probable space group: P -1
;
_chemical_formula_sum "Si O2"
_cell_formula_units_Z 15
_cell_length_a 28.937464
_cell_length_b 14.974427
_cell_length_c 8.696546
_cell_angle_alpha 46.571858
_cell_angle_beta 142.739355
_cell_angle_gamma 160.303278
_cell_volume 732.770306
_symmetry_space_group_name_H-M "P -1"
_symmetry_group_IT_number 2
_symmetry_cell_setting 'triclinic'
loop_
_space_group_symop_operation_xyz
x,y,z
-x,-y,-z
loop_
_atom_site_type_symbol
_atom_site_label
_atom_site_fract_x
_atom_site_fract_y
_atom_site_fract_z
Si Si1 0.534986 0.270383 0.463201
Si Si2 0.520515 0.884373 0.159566
Si Si3 0.802737 0.238827 0.246675
Si Si4 0.831713 0.827353 0.458097
Si Si5 0.731561 0.293634 0.698864
Si Si6 0.000000 0.500000 0.000000
Si Si7 0.777756 0.616185 0.272257
Si Si8 0.742635 0.968882 0.150823
O O1 0.490774 0.198093 0.609776
O O2 0.735007 0.583768 0.590398
O O3 0.456029 0.033579 0.455817
O O4 0.427391 0.226492 0.154348
O O5 0.698734 0.117003 0.269254
O O6 0.372490 0.619548 0.969023
O O7 0.500000 0.000000 0.000000
O O8 0.000000 0.500000 0.500000
O O9 0.735294 0.019098 0.240549
O O10 0.774954 0.309985 0.966749
O O11 0.764756 0.712630 0.240211
O O12 0.774642 0.871911 0.331349
O O13 0.037492 0.113994 0.643055
O O14 0.864377 0.410300 0.804796
O O15 0.760421 0.474024 0.508865
O O16 0.096308 0.735145 0.858844
#
# Coordination Sequence:
#
# PCOD9106116 Si02
#       8
#     2   2   2   2   2   1   2   2
#     4  10  23  40  68  93 132 177 219 270 336 383
#     4  12  26  41  66 103 137 175 218 285 323 391
#     4  10  25  39  67 102 130 166 229 282 323 380
#     4  11  24  42  67  96 132 182 214 277 330 410
#     4  10  20  39  67  94 128 176 224 271 317 405
#     4   8  16  32  66  90 114 166 220 262 312 370
#     4  11  24  42  67  96 138 171 228 261 343 397
#     4  10  21  42  67  92 131 171 225 270 323 397
#
# _framework density 20.470261000000001
#
# number of rings (size 3 to 8) (size 9 to 14) (size 15 to 20)
#    0.000    1.867    2.667    2.000   11.200    1.600 
#    0.000    5.333    0.000    0.000    0.000    0.000 
#    0.000    0.000    0.000    0.000    0.000    0.000 
#
# Total GULP energy -83518.182979 kJ/mol
# GULP energy per Si atom -5567.878865 kJ/mol
# Density = 2.042367 g / cm^3
# Si number density = 20.470261 Si / 1000 Ang^3
#
#
#
# Elastic Constant Matrix: (Units=GPa)
#
#
# Indices 1 2 3 4 5 6 
#
# 1 124.0352 49.2146 34.4952 2.5147 7.4718 13.5966
# 2 49.2146 83.5531 17.7906 9.9560 5.2720 34.9752
# 3 34.4952 17.7906 81.7924 16.1123 -11.3958 6.3914
# 4 2.5147 9.9560 16.1123 23.6029 -2.7043 2.3480
# 5 7.4718 5.2720 -11.3958 -2.7043 26.3159 -3.1546
# 6 13.5966 34.9752 6.3914 2.3480 -3.1546 43.0968
#
#
#
# Elastic Compliance Matrix: (Units=1/GPa)
#
#
# Indices 1 2 3 4 5 6 
#
# 1 0.012338 -0.007564 -0.005171 0.004763 -0.003437 0.002502
# 2 -0.007564 0.025520 -0.000044 -0.008806 -0.006081 -0.018283
# 3 -0.005171 -0.000044 0.017596 -0.010543 0.008040 0.000221
# 4 0.004763 -0.008806 -0.010543 0.052531 0.001781 0.004476
# 5 -0.003437 -0.006081 0.008040 0.001781 0.044819 0.008010
# 6 0.002502 -0.018283 0.000221 0.004476 0.008010 0.037561
#
#
# Mechanical properties :
#
#
# Convention : Reuss Voigt Hill
#
# Bulk Modulus (GPa) = 33.45087 54.70908 44.07998
# Shear Modulus (GPa) = 22.13482 31.12846 26.63164
#
# Velocity S-wave (km/s) = 3.29190 3.90380 3.61084
# Velocity P-wave (km/s) = 5.55207 6.86322 6.24217
#
# Compressibility (1/GPa) = 0.02989459
#
# Stress axis : x y z
#
# Youngs Moduli (GPa) = 81.05130 39.18568 56.83016
#
# Poissons Ratio (x) = 0.29641 0.29386
# Poissons Ratio (y) = 0.61310 0.00252
# Poissons Ratio (z) = 0.41910 0.00174
#
# Static dielectric constant tensor:
#      x y z
#    x 1.763470 -0.031290 0.003760 
#    y -0.031290 1.779110 0.020850 
#    z 0.003760 0.020850 1.724280 
# 
# From -- ./inp_files/358689.got.cif
#   From: 2010.05.17/outbox.cif.g08.bks.cpg/sg2_180_cif.got.tgz:358689.got - 2010.06.03 11:33:40.
