data_PCOD9106591
_publ_section_title
;
Structure prediction by ZEFSAII (Michael W. Deem and Ramdas Pophale) SiO2 
 PCOD9106591
Probable space group: P -1
;
_chemical_formula_sum "Si O2"
_cell_formula_units_Z 14
_cell_length_a 22.197537
_cell_length_b 12.174015
_cell_length_c 22.014582
_cell_angle_alpha 27.242988
_cell_angle_beta 161.945347
_cell_angle_gamma 161.998792
_cell_volume 562.618279
_symmetry_space_group_name_H-M "P -1"
_symmetry_group_IT_number 2
_symmetry_cell_setting 'triclinic'
loop_
_space_group_symop_operation_xyz
x,y,z
-x,-y,-z
loop_
_atom_site_type_symbol
_atom_site_label
_atom_site_fract_x
_atom_site_fract_y
_atom_site_fract_z
Si Si1 0.935060 0.755093 0.830229
Si Si2 0.838704 0.223626 0.077432
Si Si3 0.229966 0.618324 0.858294
Si Si4 0.131791 0.490884 0.534982
Si Si5 0.842059 0.482461 0.644937
Si Si6 0.447890 0.311907 0.249839
Si Si7 0.331256 0.029027 0.553976
O O1 0.650653 0.409721 0.688739
O O2 0.862100 0.958841 0.675306
O O3 0.181689 0.944601 0.922434
O O4 0.942636 0.583034 0.978012
O O5 0.073001 0.352378 0.288341
O O6 0.529478 0.954701 0.946205
O O7 0.970056 0.415422 0.660308
O O8 0.138394 0.719455 0.773509
O O9 0.258011 0.375001 0.030170
O O10 0.311864 0.459479 0.686360
O O11 0.326483 0.786316 0.629147
O O12 0.843447 0.149389 0.462621
O O13 0.621562 0.445568 0.414044
O O14 0.711017 0.091052 0.713621
#
# Coordination Sequence:
#
# PCOD9106591 Si02
#       7
#     2   2   2   2   2   2   2
#     4  10  22  38  61  85 122 155 197 238 292 350
#     4  11  22  40  58  90 119 155 197 243 287 354
#     4  11  22  40  62  90 118 155 196 244 292 352
#     4  10  21  38  63  88 123 149 198 244 290 352
#     4  10  23  41  61  86 121 153 198 244 293 349
#     4  10  22  41  61  90 116 153 198 247 293 348
#     4  10  20  40  57  90 117 161 190 241 297 343
#
# _framework density 24.883656999999999
#
# number of rings (size 3 to 8) (size 9 to 14) (size 15 to 20)
#    0.000    1.714    1.429    2.571    2.000    0.571 
#    5.143    2.143    0.000    0.000    0.000    0.000 
#    0.000    0.000    0.000    0.000    0.000    0.000 
#
# Total GULP energy -78332.163361 kJ/mol
# GULP energy per Si atom -5595.154526 kJ/mol
# Density = 2.482702 g / cm^3
# Si number density = 24.883657 Si / 1000 Ang^3
#
#
#
# Elastic Constant Matrix: (Units=GPa)
#
#
# Indices 1 2 3 4 5 6 
#
# 1 92.4895 22.0076 8.7686 9.4285 -8.1576 14.2126
# 2 22.0076 49.2655 5.4851 -1.2570 -0.0850 18.4922
# 3 8.7686 5.4851 82.1573 -14.9839 2.3169 2.1243
# 4 9.4285 -1.2570 -14.9839 34.7778 2.2535 3.1298
# 5 -8.1576 -0.0850 2.3169 2.2535 17.0105 5.7099
# 6 14.2126 18.4922 2.1243 3.1298 5.7099 33.3299
#
#
#
# Elastic Compliance Matrix: (Units=1/GPa)
#
#
# Indices 1 2 3 4 5 6 
#
# 1 0.014133 -0.004488 -0.002299 -0.005180 0.009262 -0.004490
# 2 -0.004488 0.027757 -0.000506 0.003121 0.002394 -0.014158
# 3 -0.002299 -0.000506 0.013787 0.006767 -0.004026 0.000437
# 4 -0.005180 0.003121 0.006767 0.033826 -0.007237 -0.001890
# 5 0.009262 0.002394 -0.004026 -0.007237 0.070245 -0.016376
# 6 -0.004490 -0.014158 0.000437 -0.001890 -0.016376 0.042728
#
#
# Mechanical properties :
#
#
# Convention : Reuss Voigt Hill
#
# Bulk Modulus (GPa) = 24.33615 32.93720 28.63668
# Shear Modulus (GPa) = 21.66759 29.53368 25.60064
#
# Velocity S-wave (km/s) = 2.95406 3.44884 3.21099
# Velocity P-wave (km/s) = 4.62996 5.39671 5.02797
#
# Compressibility (1/GPa) = 0.04109113
#
# Stress axis : x y z
#
# Youngs Moduli (GPa) = 70.75714 36.02633 72.53078
#
# Poissons Ratio (x) = 0.16169 0.16672
# Poissons Ratio (y) = 0.31757 0.03673
# Poissons Ratio (z) = 0.16264 0.01825
#
# Static dielectric constant tensor:
#      x y z
#    x 1.957100 0.025730 0.017030 
#    y 0.025730 2.028850 -0.014470 
#    z 0.017030 -0.014470 1.992510 
# 
# From -- ./inp_files/180897.got.cif
#   From: 2010.05.17/outbox.cif.g08.bks.cpg/sg2_91_cif.got.tgz:180897.got - 2010.06.03 11:33:40.
