data_PCOD9106329
_publ_section_title
;
Structure prediction by ZEFSAII (Michael W. Deem and Ramdas Pophale) SiO2 
 PCOD9106329
Probable space group: P -1
;
_chemical_formula_sum "Si O2"
_cell_formula_units_Z 14
_cell_length_a 17.336043
_cell_length_b 12.563491
_cell_length_c 7.752668
_cell_angle_alpha 138.667462
_cell_angle_beta 36.731349
_cell_angle_gamma 145.504593
_cell_volume 551.194579
_symmetry_space_group_name_H-M "P -1"
_symmetry_group_IT_number 2
_symmetry_cell_setting 'triclinic'
loop_
_space_group_symop_operation_xyz
x,y,z
-x,-y,-z
loop_
_atom_site_type_symbol
_atom_site_label
_atom_site_fract_x
_atom_site_fract_y
_atom_site_fract_z
Si Si1 0.963616 0.369664 0.578215
Si Si2 0.458932 0.403419 0.219664
Si Si3 0.206443 0.271063 0.940300
Si Si4 0.875573 0.963160 0.531813
Si Si5 0.412114 0.691172 0.463297
Si Si6 0.732978 0.020720 0.352846
Si Si7 0.127800 0.718981 0.923399
O O1 0.261725 0.686917 0.685803
O O2 0.000000 0.500000 0.500000
O O3 0.104616 0.339281 0.289154
O O4 0.806028 0.168819 0.561394
O O5 0.622127 0.545069 0.203298
O O6 0.395515 0.535582 0.441017
O O7 0.307439 0.197955 0.298367
O O8 0.524499 0.354861 0.876237
O O9 0.108037 0.124885 0.781404
O O10 0.240819 0.151005 0.866361
O O11 0.978988 0.515547 0.875286
O O12 0.898490 0.171382 0.744380
O O13 0.000000 0.000000 0.500000
O O14 0.548008 0.908938 0.540889
O O15 0.809651 0.133843 0.175242
#
# Coordination Sequence:
#
# PCOD9106329 Si02
#       7
#     2   2   2   2   2   2   2
#     4  10  21  37  61  93 121 164 214 261 302 362
#     4  10  22  41  67  92 128 164 213 256 319 375
#     4  11  23  42  62  92 128 169 209 254 322 376
#     4  12  26  42  62  94 133 169 203 257 327 382
#     4  10  20  39  69 100 114 162 221 271 297 360
#     4  10  21  37  64  93 125 164 212 259 305 373
#     4  11  22  40  65  95 124 164 217 262 309 366
#
# _framework density 25.399377999999999
#
# number of rings (size 3 to 8) (size 9 to 14) (size 15 to 20)
#    0.000    1.429    2.857    3.000    0.000    1.143 
#    0.000   10.000    0.000    0.000    0.000    0.000 
#    0.000    0.000    0.000    0.000    0.000    0.000 
#
# Total GULP energy -78422.023752 kJ/mol
# GULP energy per Si atom -5601.573125 kJ/mol
# Density = 2.534157 g / cm^3
# Si number density = 25.399378 Si / 1000 Ang^3
#
#
#
# Elastic Constant Matrix: (Units=GPa)
#
#
# Indices 1 2 3 4 5 6 
#
# 1 94.8644 30.7357 48.9912 1.1280 4.8563 29.6099
# 2 30.7357 170.3007 49.2721 16.9616 5.9970 24.9455
# 3 48.9912 49.2721 113.6801 10.4831 5.6719 12.0273
# 4 1.1280 16.9616 10.4831 42.1732 6.0606 9.8884
# 5 4.8563 5.9970 5.6719 6.0606 36.9956 9.6252
# 6 29.6099 24.9455 12.0273 9.8884 9.6252 53.5268
#
#
#
# Elastic Compliance Matrix: (Units=1/GPa)
#
#
# Indices 1 2 3 4 5 6 
#
# 1 0.016431 -0.000232 -0.006424 0.003103 0.000490 -0.008199
# 2 -0.000232 0.007177 -0.002614 -0.001704 0.000156 -0.002342
# 3 -0.006424 -0.002614 0.012698 -0.002391 -0.000946 0.002530
# 4 0.003103 -0.001704 -0.002391 0.026434 -0.002858 -0.004754
# 5 0.000490 0.000156 -0.000946 -0.002858 0.028798 -0.004782
# 6 -0.008199 -0.002342 0.002530 -0.004754 -0.004782 0.025479
#
#
# Mechanical properties :
#
#
# Convention : Reuss Voigt Hill
#
# Bulk Modulus (GPa) = 56.28305 70.76036 63.52170
# Shear Modulus (GPa) = 35.34108 43.19554 39.26831
#
# Velocity S-wave (km/s) = 3.73421 4.12837 3.93623
# Velocity P-wave (km/s) = 6.38747 7.11647 6.76180
#
# Compressibility (1/GPa) = 0.01776734
#
# Stress axis : x y z
#
# Youngs Moduli (GPa) = 60.86011 139.32616 78.75455
#
# Poissons Ratio (x) = 0.03236 0.50588
# Poissons Ratio (y) = 0.01414 0.20583
# Poissons Ratio (z) = 0.39094 0.36414
#
# Static dielectric constant tensor:
#      x y z
#    x 2.157980 -0.124920 0.101810 
#    y -0.124920 2.136700 -0.038950 
#    z 0.101810 -0.038950 1.978520 
# 
# From -- ./inp_files/465366.got.cif
#   From: 2010.05.17/outbox.cif.g08.bks.cpg/sg2_233_cif.got.tgz:465366.got - 2010.06.03 11:33:40.
