data_PCOD9106240
_publ_section_title
;
Structure prediction by ZEFSAII (Michael W. Deem and Ramdas Pophale) SiO2 
 PCOD9106240
Probable space group: P -1
;
_chemical_formula_sum "Si O2"
_cell_formula_units_Z 14
_cell_length_a 9.860272
_cell_length_b 9.789019
_cell_length_c 7.530591
_cell_angle_alpha 73.546118
_cell_angle_beta 128.316316
_cell_angle_gamma 87.478069
_cell_volume 523.134528
_symmetry_space_group_name_H-M "P -1"
_symmetry_group_IT_number 2
_symmetry_cell_setting 'triclinic'
loop_
_space_group_symop_operation_xyz
x,y,z
-x,-y,-z
loop_
_atom_site_type_symbol
_atom_site_label
_atom_site_fract_x
_atom_site_fract_y
_atom_site_fract_z
Si Si1 0.552584 0.599520 0.658421
Si Si2 0.928488 0.411011 0.197244
Si Si3 0.784686 0.233166 0.450356
Si Si4 0.381027 0.885761 0.944050
Si Si5 0.843090 0.907717 0.037293
Si Si6 0.218903 0.197608 0.333637
Si Si7 0.253473 0.295313 0.686449
O O1 0.500000 0.500000 0.500000
O O2 0.382462 0.657010 0.626613
O O3 0.609671 0.740477 0.576149
O O4 0.738166 0.518686 0.942489
O O5 0.867821 0.314394 0.335552
O O6 0.024771 0.327480 0.126672
O O7 0.103181 0.440854 0.432569
O O8 0.943447 0.148048 0.741893
O O9 0.712187 0.120665 0.315453
O O10 0.533840 0.723977 0.141980
O O11 0.500000 0.000000 0.000000
O O12 0.243241 0.943401 0.972786
O O13 0.782047 0.771364 0.130302
O O14 0.780128 0.913372 0.782359
O O15 0.217311 0.180312 0.550916
#
# Coordination Sequence:
#
# PCOD9106240 Si02
#       7
#     2   2   2   2   2   2   2
#     4  12  24  39  64  94 128 167 210 259 317 373
#     4   9  22  41  60  90 127 164 208 257 309 367
#     4  11  23  41  64  97 128 163 213 262 310 378
#     4  10  20  39  68  92 125 168 209 255 321 372
#     4  10  20  42  66  92 126 170 204 262 314 369
#     4  10  22  43  65  92 130 161 218 253 311 379
#     4   8  20  38  63  90 126 160 212 253 308 370
#
# _framework density 26.761758
#
# number of rings (size 3 to 8) (size 9 to 14) (size 15 to 20)
#    0.857    1.143    0.000    3.857    2.000    0.571 
#    2.571    5.000    0.000    0.000    0.000    0.000 
#    0.000    0.000    0.000    0.000    0.000    0.000 
#
# Total GULP energy -78147.420179 kJ/mol
# GULP energy per Si atom -5581.958584 kJ/mol
# Density = 2.670085 g / cm^3
# Si number density = 26.761758 Si / 1000 Ang^3
#
#
#
# Elastic Constant Matrix: (Units=GPa)
#
#
# Indices 1 2 3 4 5 6 
#
# 1 127.6901 38.5220 38.4302 5.9788 7.4297 -31.3927
# 2 38.5220 95.0912 51.6709 28.4190 9.2041 -38.1077
# 3 38.4302 51.6709 136.1375 9.3605 16.5232 -28.1490
# 4 5.9788 28.4190 9.3605 54.2973 -21.5355 -0.1936
# 5 7.4297 9.2041 16.5232 -21.5355 44.1040 -8.5267
# 6 -31.3927 -38.1077 -28.1490 -0.1936 -8.5267 45.9634
#
#
#
# Elastic Compliance Matrix: (Units=1/GPa)
#
#
# Indices 1 2 3 4 5 6 
#
# 1 0.009801 -0.001271 -0.001256 -0.000212 -0.000080 0.004855
# 2 -0.001271 0.024721 -0.003747 -0.015241 -0.007929 0.015797
# 3 -0.001256 -0.003747 0.009815 -0.000661 -0.002709 0.001541
# 4 -0.000212 -0.015241 -0.000661 0.033642 0.018016 -0.009702
# 5 -0.000080 -0.007929 -0.002709 0.018016 0.033777 -0.001945
# 6 0.004855 0.015797 0.001541 -0.009702 -0.001945 0.038712
#
#
# Mechanical properties :
#
#
# Convention : Reuss Voigt Hill
#
# Bulk Modulus (GPa) = 31.45839 68.46277 49.96058
# Shear Modulus (GPa) = 28.79953 44.22599 36.51276
#
# Velocity S-wave (km/s) = 3.28402 4.06961 3.69774
# Velocity P-wave (km/s) = 5.11471 6.90797 6.07784
#
# Compressibility (1/GPa) = 0.03178802
#
# Stress axis : x y z
#
# Youngs Moduli (GPa) = 102.02788 40.45212 101.88288
#
# Poissons Ratio (x) = 0.05143 0.12798
# Poissons Ratio (y) = 0.12971 0.38177
# Poissons Ratio (z) = 0.12816 0.15158
#
# Static dielectric constant tensor:
#      x y z
#    x 2.117750 0.034830 0.027590 
#    y 0.034830 2.359010 -0.198900 
#    z 0.027590 -0.198900 2.176030 
# 
# From -- ./inp_files/249612.got.cif
#   From: 2010.05.17/outbox.cif.g08.bks.cpg/sg2_125_cif.got.tgz:249612.got - 2010.06.03 11:33:40.
