data_PCOD9106332
_publ_section_title
;
Structure prediction by ZEFSAII (Michael W. Deem and Ramdas Pophale) SiO2 
 PCOD9106332
Probable space group: P -1
;
_chemical_formula_sum "Si O2"
_cell_formula_units_Z 16
_cell_length_a 4.976489
_cell_length_b 17.123321
_cell_length_c 9.357892
_cell_angle_alpha 90.291855
_cell_angle_beta 114.017865
_cell_angle_gamma 86.793316
_cell_volume 727.104479
_symmetry_space_group_name_H-M "P -1"
_symmetry_group_IT_number 2
_symmetry_cell_setting 'triclinic'
loop_
_space_group_symop_operation_xyz
x,y,z
-x,-y,-z
loop_
_atom_site_type_symbol
_atom_site_label
_atom_site_fract_x
_atom_site_fract_y
_atom_site_fract_z
Si Si1 0.498266 0.241865 0.154393
Si Si2 0.891159 0.500975 0.314358
Si Si3 0.211057 0.557303 0.132433
Si Si4 0.818815 0.077189 0.011293
Si Si5 0.194904 0.145085 0.871026
Si Si6 0.651842 0.903877 0.690884
Si Si7 0.257168 0.056174 0.600873
Si Si8 0.978439 0.341965 0.156399
O O1 0.483316 0.167146 0.254801
O O2 0.815639 0.271001 0.189655
O O3 0.307042 0.313134 0.185728
O O4 0.332982 0.221170 0.969487
O O5 0.543605 0.522226 0.220108
O O6 0.963260 0.415759 0.259254
O O7 0.000000 0.500000 0.500000
O O8 0.066061 0.561968 0.257182
O O9 0.191656 0.632243 0.026446
O O10 0.000000 0.500000 0.000000
O O11 0.475170 0.083880 0.967508
O O12 0.901712 0.134649 0.899686
O O13 0.006222 0.099278 0.189794
O O14 0.000000 0.000000 0.000000
O O15 0.154569 0.119675 0.698582
O O16 0.631508 0.901715 0.515905
O O17 0.507569 0.990046 0.701988
O O18 0.000000 0.000000 0.500000
#
# Coordination Sequence:
#
# PCOD9106332 Si02
#       8
#     2   2   2   2   2   2   2   2
#     4  11  24  40  64  89 126 173 213 256 319 396
#     4  11  22  40  71 108 135 167 217 268 310 366
#     4  10  20  39  69 100 133 172 221 265 300 363
#     4  11  20  36  61  85 107 145 204 271 312 356
#     4  11  24  39  61  88 115 154 214 263 308 379
#     4  10  24  39  59  89 119 161 212 266 336 381
#     4  11  24  40  63  85 119 160 212 283 333 369
#     4  11  22  43  66  92 132 172 211 253 319 381
#
# _framework density 22.005092000000001
#
# number of rings (size 3 to 8) (size 9 to 14) (size 15 to 20)
#    0.000    1.250    1.250    6.750    8.750    0.000 
#    0.000    3.750    0.000    0.000    0.000    0.000 
#    0.000    0.000    0.000    0.000    0.000    0.000 
#
# Total GULP energy -89325.391417 kJ/mol
# GULP energy per Si atom -5582.836964 kJ/mol
# Density = 2.195501 g / cm^3
# Si number density = 22.005092 Si / 1000 Ang^3
#
#
#
# Elastic Constant Matrix: (Units=GPa)
#
#
# Indices 1 2 3 4 5 6 
#
# 1 99.8350 20.7333 32.2150 -1.1694 -6.5388 -16.8891
# 2 20.7333 60.3320 34.6147 -5.0724 -10.8402 -1.7348
# 3 32.2150 34.6147 124.8569 -2.2364 -28.1714 -6.4320
# 4 -1.1694 -5.0724 -2.2364 25.1938 -0.6893 -1.4171
# 5 -6.5388 -10.8402 -28.1714 -0.6893 32.5854 -5.1482
# 6 -16.8891 -1.7348 -6.4320 -1.4171 -5.1482 34.0684
#
#
#
# Elastic Compliance Matrix: (Units=1/GPa)
#
#
# Indices 1 2 3 4 5 6 
#
# 1 0.012226 -0.002788 -0.001911 0.000178 0.000776 0.005683
# 2 -0.002788 0.020833 -0.004460 0.003702 0.002494 -0.000632
# 3 -0.001911 -0.004460 0.011848 0.000440 0.008765 0.002405
# 4 0.000178 0.003702 0.000440 0.040704 0.002902 0.002491
# 5 0.000776 0.002494 0.008765 0.002902 0.040645 0.008429
# 6 0.005683 -0.000632 0.002405 0.002491 0.008429 0.033969
#
#
# Mechanical properties :
#
#
# Convention : Reuss Voigt Hill
#
# Bulk Modulus (GPa) = 37.60727 51.12776 44.36751
# Shear Modulus (GPa) = 26.68000 31.53360 29.10680
#
# Velocity S-wave (km/s) = 3.48580 3.78962 3.64088
# Velocity P-wave (km/s) = 5.77308 6.51408 6.15474
#
# Compressibility (1/GPa) = 0.02659060
#
# Stress axis : x y z
#
# Youngs Moduli (GPa) = 81.79092 48.00106 84.40115
#
# Poissons Ratio (x) = 0.13381 0.16127
# Poissons Ratio (y) = 0.22800 0.37643
# Poissons Ratio (z) = 0.15629 0.21408
#
# Static dielectric constant tensor:
#      x y z
#    x 1.813270 0.019300 -0.010660 
#    y 0.019300 1.873430 0.006660 
#    z -0.010660 0.006660 1.872110 
# 
# From -- ./inp_files/137743.got.cif
#   From: 2010.05.17/outbox.cif.g08.bks.cpg/sg2_69_cif.got.tgz:137743.got - 2010.06.03 11:33:40.
