data_PCOD9106649
_publ_section_title
;
Structure prediction by ZEFSAII (Michael W. Deem and Ramdas Pophale) SiO2 
 PCOD9106649
Probable space group: P -1
;
_chemical_formula_sum "Si O2"
_cell_formula_units_Z 13
_cell_length_a 5.745889
_cell_length_b 17.510873
_cell_length_c 14.054557
_cell_angle_alpha 33.791855
_cell_angle_beta 99.770429
_cell_angle_gamma 72.833808
_cell_volume 469.379279
_symmetry_space_group_name_H-M "P -1"
_symmetry_group_IT_number 2
_symmetry_cell_setting 'triclinic'
loop_
_space_group_symop_operation_xyz
x,y,z
-x,-y,-z
loop_
_atom_site_type_symbol
_atom_site_label
_atom_site_fract_x
_atom_site_fract_y
_atom_site_fract_z
Si Si1 0.979628 0.040152 0.116938
Si Si2 0.361911 0.794199 0.670007
Si Si3 0.811161 0.607978 0.184024
Si Si4 0.000000 0.500000 0.500000
Si Si5 0.653754 0.461046 0.185591
Si Si6 0.968901 0.812779 0.223601
Si Si7 0.219144 0.114440 0.226662
O O1 0.199044 0.029800 0.218686
O O2 0.107744 0.832083 0.305259
O O3 0.559229 0.209053 0.959850
O O4 0.957458 0.135381 0.919833
O O5 0.243381 0.740010 0.634333
O O6 0.479968 0.891690 0.540706
O O7 0.656394 0.564031 0.988767
O O8 0.000000 0.000000 0.500000
O O9 0.886759 0.434059 0.311011
O O10 0.135217 0.484892 0.413238
O O11 0.707323 0.768737 0.929593
O O12 0.874536 0.410291 0.543218
O O13 0.208080 0.672760 0.975048
O O14 0.500000 0.000000 0.000000
#
# Coordination Sequence:
#
# PCOD9106649 Si02
#       7
#     2   2   2   1   2   2   2
#     4  10  21  41  61  85 126 167 204 259 301 364
#     4   9  19  41  68  89 121 156 201 253 316 367
#     4  11  23  42  59  92 131 160 214 250 305 363
#     4  12  24  40  60  90 126 170 206 258 294 362
#     4   9  21  41  64  92 119 159 203 255 308 373
#     4  11  22  42  60  86 123 165 216 256 301 358
#     4  10  20  40  59  91 125 158 202 256 303 370
#
# _framework density 27.696152000000001
#
# number of rings (size 3 to 8) (size 9 to 14) (size 15 to 20)
#    0.000    1.846    3.077    0.000    2.154    1.231 
#    5.538    6.923    0.000    0.000    0.000    0.000 
#    0.000    0.000    0.000    0.000    0.000    0.000 
#
# Total GULP energy -72476.256923 kJ/mol
# GULP energy per Si atom -5575.096686 kJ/mol
# Density = 2.763311 g / cm^3
# Si number density = 27.696152 Si / 1000 Ang^3
#
#
#
# Elastic Constant Matrix: (Units=GPa)
#
#
# Indices 1 2 3 4 5 6 
#
# 1 73.6725 48.8543 44.1591 -18.6630 -29.7813 -7.3667
# 2 48.8543 150.6455 -14.6367 28.9553 -4.0320 41.4308
# 3 44.1591 -14.6367 32.7381 61.6755 -21.6819 -1.9247
# 4 -18.6630 28.9553 61.6755 -31.3208 -17.1431 -33.8785
# 5 -29.7813 -4.0320 -21.6819 -17.1431 64.4211 -17.7752
# 6 -7.3667 41.4308 -1.9247 -33.8785 -17.7752 73.3465
#
#
#
# Elastic Compliance Matrix: (Units=1/GPa)
#
#
# Indices 1 2 3 4 5 6 
#
# 1 0.013495 -0.002156 0.000888 -0.009380 0.003673 -0.000846
# 2 -0.002156 0.006803 -0.003244 0.004401 -0.001151 -0.002391
# 3 0.000888 -0.003244 0.015748 0.010657 0.011088 0.009945
# 4 -0.009380 0.004401 0.010657 0.001785 -0.000686 -0.002490
# 5 0.003673 -0.001151 0.011088 -0.000686 0.022475 0.006440
# 6 -0.000846 -0.002391 0.009945 -0.002490 0.006440 0.015571
#
#
# Mechanical properties :
#
#
# Convention : Reuss Voigt Hill
#
# Bulk Modulus (GPa) = 37.00823 45.97883 41.49353
# Shear Modulus (GPa) = 53.24377 33.20132 43.22255
#
# Velocity S-wave (km/s) = 4.38930 3.46608 3.95473
# Velocity P-wave (km/s) = 6.25134 5.71450 5.98894
#
# Compressibility (1/GPa) = 0.02702102
#
# Stress axis : x y z
#
# Youngs Moduli (GPa) = 74.10283 146.99777 63.49911
#
# Poissons Ratio (x) = 0.31693 -0.05639
# Poissons Ratio (y) = 0.15977 0.20602
# Poissons Ratio (z) = -0.06581 0.47693
#
# Static dielectric constant tensor:
#      x y z
#    x 10.003150 4.637270 11.238150 
#    y 4.637270 4.981830 6.897320 
#    z 11.238150 6.897320 18.347530 
# 
# From -- ./inp_files/317266.got.cif
#   From: 2010.05.17/outbox.cif.g08.bks.cpg/sg2_159_cif.got.tgz:317266.got - 2010.06.03 11:33:40.
