data_PCOD9106445
_publ_section_title
;
Structure prediction by ZEFSAII (Michael W. Deem and Ramdas Pophale) SiO2 
 PCOD9106445
Probable space group: P -1
;
_chemical_formula_sum "Si O2"
_cell_formula_units_Z 16
_cell_length_a 14.741568
_cell_length_b 9.627588
_cell_length_c 14.595036
_cell_angle_alpha 123.147623
_cell_angle_beta 40.977141
_cell_angle_gamma 91.780977
_cell_volume 817.418276
_symmetry_space_group_name_H-M "P -1"
_symmetry_group_IT_number 2
_symmetry_cell_setting 'triclinic'
loop_
_space_group_symop_operation_xyz
x,y,z
-x,-y,-z
loop_
_atom_site_type_symbol
_atom_site_label
_atom_site_fract_x
_atom_site_fract_y
_atom_site_fract_z
Si Si1 0.273044 0.116991 0.121668
Si Si2 0.013246 0.735927 0.110901
Si Si3 0.706404 0.679348 0.001935
Si Si4 0.291099 0.336810 0.361981
Si Si5 0.360733 0.740556 0.243223
Si Si6 0.925754 0.175705 0.361987
Si Si7 0.907573 0.778304 0.419772
Si Si8 0.281289 0.232593 0.769570
O O1 0.280107 0.210547 0.054495
O O2 0.246192 0.273299 0.279443
O O3 0.099088 0.133762 0.259352
O O4 0.478068 0.854178 0.879899
O O5 0.933363 0.773159 0.288826
O O6 0.868095 0.769975 0.163421
O O7 0.011913 0.933978 0.167526
O O8 0.214667 0.467249 0.863606
O O9 0.882438 0.402463 0.760937
O O10 0.502069 0.758086 0.187903
O O11 0.741034 0.740068 0.093999
O O12 0.187334 0.600295 0.535232
O O13 0.203704 0.294881 0.493214
O O14 0.230350 0.752509 0.418773
O O15 0.223585 0.957130 0.357377
O O16 0.500000 0.500000 0.000000
O O17 0.500000 0.000000 0.500000
#
# Coordination Sequence:
#
# PCOD9106445 Si02
#       8
#     2   2   2   2   2   2   2   2
#     4  11  24  39  61  91 129 170 211 241 303 373
#     4   9  22  41  61  97 119 150 209 262 312 364
#     4  11  22  41  64  92 119 166 210 245 312 375
#     4  11  23  39  64  87 128 177 205 239 305 375
#     4  11  24  38  58  95 129 158 212 260 292 361
#     4  11  23  40  62  92 130 158 204 267 304 353
#     4  10  21  39  63  88 123 166 203 249 302 369
#     4  10  20  39  70  88 117 159 205 257 319 369
#
# _framework density 19.573822
#
# number of rings (size 3 to 8) (size 9 to 14) (size 15 to 20)
#    0.000    1.500    2.500    2.625    3.500    4.500 
#    0.000    0.625    0.000    1.500    0.000    0.000 
#    0.000    0.000    0.000    0.000    0.000    0.000 
#
# Total GULP energy -89363.064409 kJ/mol
# GULP energy per Si atom -5585.191526 kJ/mol
# Density = 1.952927 g / cm^3
# Si number density = 19.573822 Si / 1000 Ang^3
#
#
#
# Elastic Constant Matrix: (Units=GPa)
#
#
# Indices 1 2 3 4 5 6 
#
# 1 79.6991 28.2280 24.6576 10.6836 -8.2005 -0.6811
# 2 28.2280 116.1727 44.7474 22.9621 -3.9029 12.3973
# 3 24.6576 44.7474 119.1248 32.9536 -21.4228 8.9242
# 4 10.6836 22.9621 32.9536 49.5602 6.0350 -2.9208
# 5 -8.2005 -3.9029 -21.4228 6.0350 27.8387 -3.1288
# 6 -0.6811 12.3973 8.9242 -2.9208 -3.1288 20.3492
#
#
#
# Elastic Compliance Matrix: (Units=1/GPa)
#
#
# Indices 1 2 3 4 5 6 
#
# 1 0.014549 -0.003093 -0.001100 -0.001224 0.003635 0.003237
# 2 -0.003093 0.011673 -0.002565 -0.003276 -0.001298 -0.006760
# 3 -0.001100 -0.002565 0.015099 -0.010431 0.012674 -0.004644
# 4 -0.001224 -0.003276 -0.010431 0.031192 -0.014624 0.008758
# 5 0.003635 -0.001298 0.012674 -0.014624 0.049837 0.000918
# 6 0.003237 -0.006760 -0.004644 0.008758 0.000918 0.056803
#
#
# Mechanical properties :
#
#
# Convention : Reuss Voigt Hill
#
# Bulk Modulus (GPa) = 35.96654 56.69585 46.33120
# Shear Modulus (GPa) = 24.76039 34.04054 29.40046
#
# Velocity S-wave (km/s) = 3.56051 4.17476 3.87981
# Velocity P-wave (km/s) = 5.94287 7.22953 6.61755
#
# Compressibility (1/GPa) = 0.02780362
#
# Stress axis : x y z
#
# Youngs Moduli (GPa) = 68.73519 85.66963 66.23169
#
# Poissons Ratio (x) = 0.26496 0.07285
# Poissons Ratio (y) = 0.21258 0.16991
# Poissons Ratio (z) = 0.07561 0.21977
#
# Static dielectric constant tensor:
#      x y z
#    x 1.682440 0.004340 0.006400 
#    y 0.004340 1.690270 0.041630 
#    z 0.006400 0.041630 1.741020 
# 
# From -- ./inp_files/313423.got.cif
#   From: 2010.05.17/outbox.cif.g08.bks.cpg/sg2_157_cif.got.tgz:313423.got - 2010.06.03 11:33:40.
