data_PCOD9106990
_publ_section_title
;
Structure prediction by ZEFSAII (Michael W. Deem and Ramdas Pophale) SiO2 
 PCOD9106990
Probable space group: P -1
;
_chemical_formula_sum "Si O2"
_cell_formula_units_Z 15
_cell_length_a 16.064988
_cell_length_b 6.266118
_cell_length_c 8.362258
_cell_angle_alpha 98.141875
_cell_angle_beta 53.948118
_cell_angle_gamma 120.428437
_cell_volume 571.865537
_symmetry_space_group_name_H-M "P -1"
_symmetry_group_IT_number 2
_symmetry_cell_setting 'triclinic'
loop_
_space_group_symop_operation_xyz
x,y,z
-x,-y,-z
loop_
_atom_site_type_symbol
_atom_site_label
_atom_site_fract_x
_atom_site_fract_y
_atom_site_fract_z
Si Si1 0.800213 0.807559 0.668117
Si Si2 0.389655 0.002465 0.547891
Si Si3 0.205881 0.593122 0.524298
Si Si4 0.333277 0.041265 0.939854
Si Si5 0.943446 0.684797 0.039400
Si Si6 0.553208 0.614807 0.731947
Si Si7 0.017102 0.698965 0.634770
Si Si8 0.500000 0.000000 0.000000
O O1 0.809417 0.561432 0.634786
O O2 0.681738 0.699018 0.675979
O O3 0.925612 0.026411 0.475436
O O4 0.769962 0.922522 0.864322
O O5 0.343164 0.809909 0.429023
O O6 0.500000 0.000000 0.500000
O O7 0.297170 0.919177 0.791070
O O8 0.419711 0.259615 0.459653
O O9 0.134408 0.735439 0.602602
O O10 0.154152 0.410528 0.717502
O O11 0.451479 0.321806 0.804764
O O12 0.383727 0.925484 0.997043
O O13 0.916048 0.620491 0.875091
O O14 0.000000 0.500000 0.000000
O O15 0.000000 0.000000 0.000000
O O16 0.501057 0.749485 0.913867
O O17 0.000000 0.500000 0.500000
#
# Coordination Sequence:
#
# PCOD9106990 Si02
#       8
#     2   2   2   2   2   2   2   1
#     4  11  23  42  68 100 135 178 232 284 372 418
#     4  12  24  44  68 100 140 186 235 284 351 427
#     4  11  25  46  70  98 143 181 229 297 356 426
#     4  11  25  39  67 100 136 186 234 288 345 424
#     4  10  22  47  76 103 138 188 239 301 370 429
#     4  11  23  41  68  92 140 184 237 281 347 412
#     4  11  25  46  72 102 136 183 237 298 361 438
#     4  10  20  40  62  90 134 178 224 278 340 402
#
# _framework density 26.229941
#
# number of rings (size 3 to 8) (size 9 to 14) (size 15 to 20)
#    0.000    1.067    4.000    2.800    3.733    0.533 
#    0.000    1.333    0.000    0.000    0.000    0.000 
#    0.000    0.000    0.000    0.000    0.000    0.000 
#
# Total GULP energy -83523.786168 kJ/mol
# GULP energy per Si atom -5568.252411 kJ/mol
# Density = 2.617024 g / cm^3
# Si number density = 26.229941 Si / 1000 Ang^3
#
#
#
# Elastic Constant Matrix: (Units=GPa)
#
#
# Indices 1 2 3 4 5 6 
#
# 1 74.1310 16.2331 -1.0296 -3.7645 10.0969 -27.1420
# 2 16.2331 119.4812 19.7193 1.8694 5.7890 -5.4093
# 3 -1.0296 19.7193 102.1336 4.7939 17.3389 -12.8676
# 4 -3.7645 1.8694 4.7939 57.0241 2.9569 0.6737
# 5 10.0969 5.7890 17.3389 2.9569 34.8880 9.8910
# 6 -27.1420 -5.4093 -12.8676 0.6737 9.8910 36.5972
#
#
#
# Elastic Compliance Matrix: (Units=1/GPa)
#
#
# Indices 1 2 3 4 5 6 
#
# 1 0.026719 -0.002733 0.007287 0.001892 -0.018715 0.026997
# 2 -0.002733 0.008976 -0.002097 -0.000322 0.000842 -0.001659
# 3 0.007287 -0.002097 0.014106 -0.000143 -0.012574 0.013455
# 4 0.001892 -0.000322 -0.000143 0.017789 -0.002391 0.001624
# 5 -0.018715 0.000842 -0.012574 -0.002391 0.049310 -0.031459
# 6 0.026997 -0.001659 0.013455 0.001624 -0.031459 0.060305
#
#
# Mechanical properties :
#
#
# Convention : Reuss Voigt Hill
#
# Bulk Modulus (GPa) = 18.27711 40.62125 29.44918
# Shear Modulus (GPa) = 26.24247 43.09008 34.66627
#
# Velocity S-wave (km/s) = 3.16646 4.05752 3.63937
# Velocity P-wave (km/s) = 4.51130 6.12140 5.37696
#
# Compressibility (1/GPa) = 0.05471324
#
# Stress axis : x y z
#
# Youngs Moduli (GPa) = 37.42634 111.40607 70.89189
#
# Poissons Ratio (x) = 0.30451 -0.51657
# Poissons Ratio (y) = 0.10230 0.14869
# Poissons Ratio (z) = -0.27272 0.23367
#
# Static dielectric constant tensor:
#      x y z
#    x 2.119350 -0.025820 -0.003750 
#    y -0.025820 2.167810 -0.051190 
#    z -0.003750 -0.051190 2.259350 
# 
# From -- ./inp_files/323855.got.cif
#   From: 2010.05.17/outbox.cif.g08.bks.cpg/sg2_162_cif.got.tgz:323855.got - 2010.06.03 11:33:40.
