data_PCOD9106854
_publ_section_title
;
Structure prediction by ZEFSAII (Michael W. Deem and Ramdas Pophale) SiO2 
 PCOD9106854
Probable space group: P -1
;
_chemical_formula_sum "Si O2"
_cell_formula_units_Z 16
_cell_length_a 8.009451
_cell_length_b 8.078216
_cell_length_c 15.888233
_cell_angle_alpha 127.730260
_cell_angle_beta 129.311561
_cell_angle_gamma 72.425590
_cell_volume 622.858206
_symmetry_space_group_name_H-M "P -1"
_symmetry_group_IT_number 2
_symmetry_cell_setting 'triclinic'
loop_
_space_group_symop_operation_xyz
x,y,z
-x,-y,-z
loop_
_atom_site_type_symbol
_atom_site_label
_atom_site_fract_x
_atom_site_fract_y
_atom_site_fract_z
Si Si1 0.286557 0.398894 0.192968
Si Si2 0.594933 0.148976 0.830051
Si Si3 0.198708 0.350516 0.703291
Si Si4 0.026114 0.940898 0.331800
Si Si5 0.055944 0.211974 0.912964
Si Si6 0.346531 0.307498 0.546332
Si Si7 0.136358 0.787971 0.895260
Si Si8 0.677435 0.251149 0.345394
O O1 0.393979 0.620956 0.336893
O O2 0.503236 0.284819 0.227241
O O3 0.096221 0.272234 0.149136
O O4 0.192950 0.392657 0.068101
O O5 0.416094 0.300230 0.803666
O O6 0.808264 0.189465 0.855703
O O7 0.470484 0.915060 0.694975
O O8 0.682289 0.172218 0.961108
O O9 0.241312 0.314431 0.608110
O O10 0.163449 0.586030 0.785837
O O11 0.003550 0.184319 0.628953
O O12 0.933291 0.773099 0.178646
O O13 0.254029 0.073068 0.416443
O O14 0.869463 0.125313 0.340598
O O15 0.134980 0.994964 0.903017
O O16 0.267568 0.505353 0.531413
#
# Coordination Sequence:
#
# PCOD9106854 Si02
#       8
#     2   2   2   2   2   2   2   2
#     4   9  20  37  66  87 119 151 200 244 296 345
#     4  10  20  40  61  93 124 155 190 250 301 354
#     4  11  25  38  58  86 123 163 199 243 299 356
#     4  11  24  38  60  90 122 157 204 247 293 357
#     4  11  20  39  66  93 118 154 199 248 295 351
#     4  10  21  43  60  84 119 167 197 248 297 348
#     4  11  19  39  63  94 121 155 195 245 299 360
#     4   9  18  38  63  88 115 154 205 241 293 346
#
# _framework density 25.688030999999999
#
# number of rings (size 3 to 8) (size 9 to 14) (size 15 to 20)
#    0.750    1.000    2.500    2.625    0.000    4.500 
#    0.000   10.000    0.000    0.000    0.000    0.000 
#    0.000    0.000    0.000    0.000    0.000    0.000 
#
# Total GULP energy -89479.363008 kJ/mol
# GULP energy per Si atom -5592.460188 kJ/mol
# Density = 2.562956 g / cm^3
# Si number density = 25.688031 Si / 1000 Ang^3
#
#
#
# Elastic Constant Matrix: (Units=GPa)
#
#
# Indices 1 2 3 4 5 6 
#
# 1 31.7527 13.2080 13.1363 -7.7855 10.3336 5.3808
# 2 13.2080 92.8755 15.1822 17.7564 6.9575 4.6664
# 3 13.1363 15.1822 52.9565 -0.3699 14.4379 -8.8746
# 4 -7.7855 17.7564 -0.3699 29.3105 2.1757 3.3640
# 5 10.3336 6.9575 14.4379 2.1757 40.8401 -1.7289
# 6 5.3808 4.6664 -8.8746 3.3640 -1.7289 24.8621
#
#
#
# Elastic Compliance Matrix: (Units=1/GPa)
#
#
# Indices 1 2 3 4 5 6 
#
# 1 0.049774 -0.007791 -0.010129 0.020391 -0.009464 -0.016343
# 2 -0.007791 0.014306 -0.002584 -0.010799 0.001006 -0.000390
# 3 -0.010129 -0.002584 0.025564 -0.001736 -0.005448 0.011658
# 4 0.020391 -0.010799 -0.001736 0.047603 -0.005659 -0.009841
# 5 -0.009464 0.001006 -0.005448 -0.005659 0.029051 0.002700
# 6 -0.016343 -0.000390 0.011658 -0.009841 0.002700 0.049513
#
#
# Mechanical properties :
#
#
# Convention : Reuss Voigt Hill
#
# Bulk Modulus (GPa) = 20.56117 28.95975 24.76046
# Shear Modulus (GPa) = 18.31287 28.07307 23.19297
#
# Velocity S-wave (km/s) = 2.67291 3.30941 3.00804
# Velocity P-wave (km/s) = 4.18897 5.08931 4.66093
#
# Compressibility (1/GPa) = 0.04863535
#
# Stress axis : x y z
#
# Youngs Moduli (GPa) = 20.09080 69.89935 39.11767
#
# Poissons Ratio (x) = 0.54459 0.39623
# Poissons Ratio (y) = 0.15653 0.10108
# Poissons Ratio (z) = 0.20351 0.18063
#
# Static dielectric constant tensor:
#      x y z
#    x 1.985990 -0.002120 0.041350 
#    y -0.002120 2.050090 0.057750 
#    z 0.041350 0.057750 2.101400 
# 
# From -- ./inp_files/556628.got.cif
#   From: 2010.05.17/outbox.cif.g08.bks.cpg/sg2_279_cif.got.tgz:556628.got - 2010.06.03 11:33:40.
