data_PCOD9106778
_publ_section_title
;
Structure prediction by ZEFSAII (Michael W. Deem and Ramdas Pophale) SiO2 
 PCOD9106778
Probable space group: P -1
;
_chemical_formula_sum "Si O2"
_cell_formula_units_Z 16
_cell_length_a 14.460884
_cell_length_b 8.010148
_cell_length_c 6.908990
_cell_angle_alpha 80.964860
_cell_angle_beta 68.268576
_cell_angle_gamma 95.707187
_cell_volume 723.280046
_symmetry_space_group_name_H-M "P -1"
_symmetry_group_IT_number 2
_symmetry_cell_setting 'triclinic'
loop_
_space_group_symop_operation_xyz
x,y,z
-x,-y,-z
loop_
_atom_site_type_symbol
_atom_site_label
_atom_site_fract_x
_atom_site_fract_y
_atom_site_fract_z
Si Si1 0.484007 0.778439 0.424779
Si Si2 0.637905 0.097546 0.183880
Si Si3 0.286048 0.563324 0.124435
Si Si4 0.957016 0.909248 0.357267
Si Si5 0.102276 0.475062 0.529311
Si Si6 0.858164 0.005669 0.061046
Si Si7 0.615543 0.579922 0.601138
Si Si8 0.808451 0.605362 0.162201
O O1 0.391580 0.845409 0.588719
O O2 0.549913 0.720065 0.562366
O O3 0.447789 0.608154 0.362025
O O4 0.555291 0.930950 0.232205
O O5 0.749614 0.053043 0.104714
O O6 0.641532 0.260256 0.012940
O O7 0.198025 0.591511 0.336157
O O8 0.345821 0.429791 0.208843
O O9 0.231038 0.491351 0.983725
O O10 0.891808 0.724302 0.482630
O O11 0.892013 0.017170 0.256592
O O12 0.000000 0.000000 0.500000
O O13 0.053445 0.887217 0.154355
O O14 0.114613 0.483295 0.750704
O O15 0.000000 0.500000 0.500000
O O16 0.853924 0.803861 0.050050
O O17 0.711267 0.604941 0.376846
#
# Coordination Sequence:
#
# PCOD9106778 Si02
#       8
#     2   2   2   2   2   2   2   2
#     4  10  22  42  65  87 127 163 204 264 308 357
#     4  11  22  39  62  96 124 160 204 260 314 352
#     4  11  23  38  65  90 119 164 208 247 311 370
#     4  10  21  39  62  90 119 163 206 244 303 368
#     4  10  22  38  60  90 124 157 203 254 304 365
#     4  10  21  39  62  87 127 161 200 251 306 367
#     4  10  21  43  64  85 122 166 206 252 301 376
#     4  10  20  40  61  86 123 165 202 247 305 370
#
# _framework density 22.121445000000001
#
# number of rings (size 3 to 8) (size 9 to 14) (size 15 to 20)
#    0.000    1.750    2.500    1.500    0.000    2.500 
#    2.250    1.250    0.000    0.000    0.000    0.000 
#    0.000    0.000    0.000    0.000    0.000    0.000 
#
# Total GULP energy -89405.381883 kJ/mol
# GULP energy per Si atom -5587.836368 kJ/mol
# Density = 2.207110 g / cm^3
# Si number density = 22.121445 Si / 1000 Ang^3
#
#
#
# Elastic Constant Matrix: (Units=GPa)
#
#
# Indices 1 2 3 4 5 6 
#
# 1 73.0601 4.4378 26.0897 -7.9804 7.2290 -3.4959
# 2 4.4378 53.3697 19.7282 -18.7483 3.6984 18.2778
# 3 26.0897 19.7282 66.6140 -17.6281 9.7055 6.1291
# 4 -7.9804 -18.7483 -17.6281 24.4778 11.0423 -7.2380
# 5 7.2290 3.6984 9.7055 11.0423 48.9909 -1.3821
# 6 -3.4959 18.2778 6.1291 -7.2380 -1.3821 34.1020
#
#
#
# Elastic Compliance Matrix: (Units=1/GPa)
#
#
# Indices 1 2 3 4 5 6 
#
# 1 0.016441 0.001427 -0.005667 0.004213 -0.002284 0.002741
# 2 0.001427 0.032447 -0.001380 0.024451 -0.008240 -0.012141
# 3 -0.005667 -0.001380 0.023330 0.017094 -0.007554 -0.000712
# 4 0.004213 0.024451 0.017094 0.084895 -0.024953 0.001262
# 5 -0.002284 -0.008240 -0.007554 -0.024953 0.028531 0.001400
# 6 0.002741 -0.012141 -0.000712 0.001262 0.001400 0.036564
#
#
# Mechanical properties :
#
#
# Convention : Reuss Voigt Hill
#
# Bulk Modulus (GPa) = 16.39912 32.61724 24.50818
# Shear Modulus (GPa) = 19.70249 31.03334 25.36792
#
# Velocity S-wave (km/s) = 2.98762 3.74954 3.39005
# Velocity P-wave (km/s) = 4.39664 5.78982 5.14065
#
# Compressibility (1/GPa) = 0.06097888
#
# Stress axis : x y z
#
# Youngs Moduli (GPa) = 60.82172 30.81940 42.86364
#
# Poissons Ratio (x) = -0.04398 0.24289
# Poissons Ratio (y) = -0.08680 0.05917
# Poissons Ratio (z) = 0.34465 0.04254
#
# Static dielectric constant tensor:
#      x y z
#    x 1.832580 -0.009810 0.021910 
#    y -0.009810 1.810820 -0.009490 
#    z 0.021910 -0.009490 1.805360 
# 
# From -- ./inp_files/37768.got.cif
#   From: 2010.05.17/outbox.cif.g08.bks.cpg/sg2_19_cif.got.tgz:37768.got - 2010.06.03 11:33:40.
