data_PCOD9106926
_publ_section_title
;
Structure prediction by ZEFSAII (Michael W. Deem and Ramdas Pophale) SiO2 
 PCOD9106926
Probable space group: P -1
;
_chemical_formula_sum "Si O2"
_cell_formula_units_Z 12
_cell_length_a 5.450554
_cell_length_b 8.579445
_cell_length_c 27.870662
_cell_angle_alpha 30.274872
_cell_angle_beta 130.451925
_cell_angle_gamma 119.736831
_cell_volume 492.916911
_symmetry_space_group_name_H-M "P -1"
_symmetry_group_IT_number 2
_symmetry_cell_setting 'triclinic'
loop_
_space_group_symop_operation_xyz
x,y,z
-x,-y,-z
loop_
_atom_site_type_symbol
_atom_site_label
_atom_site_fract_x
_atom_site_fract_y
_atom_site_fract_z
Si Si1 0.051878 0.337559 0.433027
Si Si2 0.594344 0.984174 0.661574
Si Si3 0.349564 0.230801 0.025856
Si Si4 0.139901 0.203237 0.902758
Si Si5 0.200608 0.421391 0.756148
Si Si6 0.197587 0.252083 0.628641
O O1 0.057311 0.509809 0.337423
O O2 0.765587 0.528703 0.378759
O O3 0.372331 0.245658 0.530250
O O4 0.000000 0.000000 0.500000
O O5 0.467589 0.654987 0.722462
O O6 0.485922 0.065912 0.681621
O O7 0.957705 0.031514 0.680577
O O8 0.638447 0.939925 0.130971
O O9 0.500000 0.500000 0.000000
O O10 0.150161 0.331214 0.924477
O O11 0.095614 0.050332 0.068943
O O12 0.076608 0.456465 0.785386
O O13 0.500000 0.000000 0.000000
O O14 0.000000 0.500000 0.500000
#
# Coordination Sequence:
#
# PCOD9106926 Si02
#       6
#     2   2   2   2   2   2
#     4   9  19  39  58  91 131 170 212 269 324 391
#     4  10  22  40  64  90 137 177 221 272 325 395
#     4  10  22  43  69  96 129 171 229 283 353 407
#     4   9  21  43  66  88 133 168 219 286 348 404
#     4  10  22  40  59  97 127 171 224 271 342 401
#     4  10  20  40  62  87 128 184 225 267 328 386
#
# _framework density 24.344873
#
# number of rings (size 3 to 8) (size 9 to 14) (size 15 to 20)
#    0.000    2.333    0.000    2.000    2.333    4.000 
#   18.000   11.667    0.000    0.000    0.000    0.000 
#    0.000    0.000    0.000    0.000    0.000    0.000 
#
# Total GULP energy -66913.568545 kJ/mol
# GULP energy per Si atom -5576.130712 kJ/mol
# Density = 2.428946 g / cm^3
# Si number density = 24.344873 Si / 1000 Ang^3
#
#
#
# Elastic Constant Matrix: (Units=GPa)
#
#
# Indices 1 2 3 4 5 6 
#
# 1 117.9362 55.7523 29.2709 -11.3368 -34.4054 -5.3861
# 2 55.7523 192.9398 58.0890 -35.7854 -15.5491 -4.8709
# 3 29.2709 58.0890 124.8223 7.2364 -30.5817 -13.0928
# 4 -11.3368 -35.7854 7.2364 44.2783 -6.6362 -2.6210
# 5 -34.4054 -15.5491 -30.5817 -6.6362 39.1396 -7.0113
# 6 -5.3861 -4.8709 -13.0928 -2.6210 -7.0113 31.7371
#
#
#
# Elastic Compliance Matrix: (Units=1/GPa)
#
#
# Indices 1 2 3 4 5 6 
#
# 1 0.014198 -0.002648 0.001967 0.003762 0.014747 0.006383
# 2 -0.002648 0.008203 -0.003896 0.006389 -0.001122 -0.000518
# 3 0.001967 -0.003896 0.013048 -0.002654 0.011249 0.007384
# 4 0.003762 0.006389 -0.002654 0.030951 0.009965 0.005282
# 5 0.014747 -0.001122 0.011249 0.009965 0.052000 0.019282
# 6 0.006383 -0.000518 0.007384 0.005282 0.019282 0.040255
#
#
# Mechanical properties :
#
#
# Convention : Reuss Voigt Hill
#
# Bulk Modulus (GPa) = 38.02976 80.21363 59.12170
# Shear Modulus (GPa) = 28.31702 42.53674 35.42688
#
# Velocity S-wave (km/s) = 3.41422 4.18455 3.81886
# Velocity P-wave (km/s) = 5.58549 7.50785 6.61685
#
# Compressibility (1/GPa) = 0.02629520
#
# Stress axis : x y z
#
# Youngs Moduli (GPa) = 70.43355 121.91383 76.64182
#
# Poissons Ratio (x) = 0.32277 -0.15077
# Poissons Ratio (y) = 0.18647 0.29860
# Poissons Ratio (z) = -0.13856 0.47499
#
# Static dielectric constant tensor:
#      x y z
#    x 2.221700 -0.090700 0.080760 
#    y -0.090700 2.011050 -0.005440 
#    z 0.080760 -0.005440 2.012520 
# 
# From -- ./inp_files/615218.got.cif
#   From: 2010.05.17/outbox.cif.g08.bks.cpg/sg2_308_cif.got.tgz:615218.got - 2010.06.03 11:33:40.
