data_PCOD9106146
_publ_section_title
;
Structure prediction by ZEFSAII (Michael W. Deem and Ramdas Pophale) SiO2 
 PCOD9106146
Probable space group: P -1
;
_chemical_formula_sum "Si O2"
_cell_formula_units_Z 16
_cell_length_a 11.770012
_cell_length_b 14.039812
_cell_length_c 12.702908
_cell_angle_alpha 127.821346
_cell_angle_beta 33.078339
_cell_angle_gamma 145.111508
_cell_volume 636.568229
_symmetry_space_group_name_H-M "P -1"
_symmetry_group_IT_number 2
_symmetry_cell_setting 'triclinic'
loop_
_space_group_symop_operation_xyz
x,y,z
-x,-y,-z
loop_
_atom_site_type_symbol
_atom_site_label
_atom_site_fract_x
_atom_site_fract_y
_atom_site_fract_z
Si Si1 0.590981 0.233000 0.095891
Si Si2 0.420459 0.608821 0.430063
Si Si3 0.794748 0.231775 0.713790
Si Si4 0.891670 0.607767 0.065533
Si Si5 0.056648 0.113936 0.326287
Si Si6 0.810263 0.973551 0.034291
Si Si7 0.274279 0.420325 0.216387
Si Si8 0.147828 0.732570 0.741199
O O1 0.686243 0.197389 0.894351
O O2 0.768062 0.244571 0.061073
O O3 0.733238 0.425709 0.112067
O O4 0.248066 0.122985 0.272516
O O5 0.697992 0.643135 0.271432
O O6 0.379945 0.571136 0.311304
O O7 0.409103 0.744112 0.557092
O O8 0.116651 0.426303 0.588543
O O9 0.834342 0.112908 0.557535
O O10 0.540148 0.198095 0.823219
O O11 0.900437 0.591589 0.922593
O O12 0.233125 0.288424 0.235963
O O13 0.022319 0.000376 0.183764
O O14 0.801786 0.111653 0.156065
O O15 0.000000 0.000000 0.000000
O O16 0.967319 0.315207 0.321478
O O17 0.500000 0.500000 0.000000
#
# Coordination Sequence:
#
# PCOD9106146 Si02
#       8
#     2   2   2   2   2   2   2   2
#     4  10  20  39  67  96 124 164 206 265 315 370
#     4  11  23  39  63  99 127 164 207 258 322 372
#     4  10  22  41  63  91 127 162 215 253 310 378
#     4  11  22  38  65  99 128 159 209 264 320 361
#     4  10  21  43  63  91 124 170 212 251 320 371
#     4  11  25  43  62  89 129 174 211 254 309 378
#     4  11  20  38  63  90 129 162 200 259 322 374
#     4  12  24  41  61  95 132 162 210 262 312 376
#
# _framework density 25.134777
#
# number of rings (size 3 to 8) (size 9 to 14) (size 15 to 20)
#    0.000    1.250    6.250    0.375    1.750    3.000 
#    4.500    2.500    0.000    4.500    0.000    0.000 
#    0.000    0.000    0.000    0.000    0.000    0.000 
#
# Total GULP energy -89402.213997 kJ/mol
# GULP energy per Si atom -5587.638375 kJ/mol
# Density = 2.507757 g / cm^3
# Si number density = 25.134777 Si / 1000 Ang^3
#
#
#
# Elastic Constant Matrix: (Units=GPa)
#
#
# Indices 1 2 3 4 5 6 
#
# 1 109.0640 21.6792 43.9198 4.7385 -32.5397 22.8564
# 2 21.6792 63.6654 44.5335 36.8903 -13.3467 -1.0981
# 3 43.9198 44.5335 189.5287 40.6469 -28.7343 5.0438
# 4 4.7385 36.8903 40.6469 54.4022 1.7049 1.3636
# 5 -32.5397 -13.3467 -28.7343 1.7049 41.6254 -2.4712
# 6 22.8564 -1.0981 5.0438 1.3636 -2.4712 21.5315
#
#
#
# Elastic Compliance Matrix: (Units=1/GPa)
#
#
# Indices 1 2 3 4 5 6 
#
# 1 0.017052 -0.004752 -0.001582 0.003047 0.009576 -0.017067
# 2 -0.004752 0.031757 -0.001067 -0.020773 0.007119 0.009047
# 3 -0.001582 -0.001067 0.007507 -0.004883 0.003839 0.000617
# 4 0.003047 -0.020773 -0.004883 0.036313 -0.009525 -0.006543
# 5 0.009576 0.007119 0.003839 -0.009525 0.036482 -0.005911
# 6 -0.017067 0.009047 0.000617 -0.006543 -0.005911 0.064614
#
#
# Mechanical properties :
#
#
# Convention : Reuss Voigt Hill
#
# Bulk Modulus (GPa) = 24.08935 64.72480 44.40707
# Shear Modulus (GPa) = 22.48554 40.32020 31.40287
#
# Velocity S-wave (km/s) = 2.99423 4.00954 3.53849
# Velocity P-wave (km/s) = 4.64314 6.87330 5.86519
#
# Compressibility (1/GPa) = 0.04151212
#
# Stress axis : x y z
#
# Youngs Moduli (GPa) = 58.64359 31.48915 133.21745
#
# Poissons Ratio (x) = 0.14965 0.21080
# Poissons Ratio (y) = 0.27869 0.14215
# Poissons Ratio (z) = 0.09280 0.03360
#
# Static dielectric constant tensor:
#      x y z
#    x 1.994230 0.009100 -0.036550 
#    y 0.009100 2.107490 -0.046270 
#    z -0.036550 -0.046270 1.985240 
# 
# From -- ./inp_files/522413.got.cif
#   From: 2010.05.17/outbox.cif.g08.bks.cpg/sg2_262_cif.got.tgz:522413.got - 2010.06.03 11:33:40.
