data_PCOD9106647
_publ_section_title
;
Structure prediction by ZEFSAII (Michael W. Deem and Ramdas Pophale) SiO2 
 PCOD9106647
Probable space group: P -1
;
_chemical_formula_sum "Si O2"
_cell_formula_units_Z 16
_cell_length_a 8.329110
_cell_length_b 8.273131
_cell_length_c 15.922119
_cell_angle_alpha 119.696952
_cell_angle_beta 123.192629
_cell_angle_gamma 90.096607
_cell_volume 739.212470
_symmetry_space_group_name_H-M "P -1"
_symmetry_group_IT_number 2
_symmetry_cell_setting 'triclinic'
loop_
_space_group_symop_operation_xyz
x,y,z
-x,-y,-z
loop_
_atom_site_type_symbol
_atom_site_label
_atom_site_fract_x
_atom_site_fract_y
_atom_site_fract_z
Si Si1 0.842770 0.780737 0.793741
Si Si2 0.771071 0.843510 0.322451
Si Si3 0.683220 0.183527 0.642840
Si Si4 0.039261 0.763455 0.006982
Si Si5 0.153685 0.756725 0.470846
Si Si6 0.670874 0.421422 0.865471
Si Si7 0.389835 0.517928 0.560246
Si Si8 0.912707 0.898966 0.657655
O O1 0.597837 0.648970 0.702477
O O2 0.922838 0.801347 0.725568
O O3 0.869971 0.003758 0.887128
O O4 0.989429 0.723060 0.884140
O O5 0.563468 0.661286 0.191745
O O6 0.923744 0.755724 0.391495
O O7 0.726873 0.008089 0.410572
O O8 0.892391 0.983303 0.314846
O O9 0.789701 0.302364 0.619920
O O10 0.654643 0.322897 0.742598
O O11 0.500000 0.000000 0.500000
O O12 0.819277 0.067967 0.691883
O O13 0.195411 0.667251 0.061197
O O14 0.814400 0.654446 0.958520
O O15 0.231743 0.631200 0.526869
O O16 0.500000 0.500000 0.500000
O O17 0.253151 0.290525 0.488833
#
# Coordination Sequence:
#
# PCOD9106647 Si02
#       8
#     2   2   2   2   2   2   2   2
#     4  10  20  40  59  90 122 159 205 263 295 347
#     4  10  22  39  59  89 140 157 191 248 322 375
#     4  11  19  33  64  90 121 152 207 256 304 355
#     4  10  23  38  64  87 116 161 228 255 282 343
#     4  10  21  36  57  95 127 159 192 244 319 378
#     4  11  22  40  63  92 116 165 211 261 292 351
#     4  10  21  36  64  96 121 156 204 249 310 366
#     4  10  22  37  60  95 127 158 188 252 322 379
#
# _framework density 21.644656000000001
#
# number of rings (size 3 to 8) (size 9 to 14) (size 15 to 20)
#    0.000    1.750    2.500    2.250    5.250    0.500 
#    0.000    3.750    0.000    0.000    0.000    0.000 
#    0.000    0.000    0.000    0.000    0.000    0.000 
#
# Total GULP energy -89213.934173 kJ/mol
# GULP energy per Si atom -5575.870886 kJ/mol
# Density = 2.159539 g / cm^3
# Si number density = 21.644656 Si / 1000 Ang^3
#
#
#
# Elastic Constant Matrix: (Units=GPa)
#
#
# Indices 1 2 3 4 5 6 
#
# 1 55.0442 26.7418 21.3817 -0.0674 9.1091 18.6046
# 2 26.7418 91.9316 40.8903 -8.3542 12.7123 1.4344
# 3 21.3817 40.8903 112.9137 0.9347 19.3949 14.6093
# 4 -0.0674 -8.3542 0.9347 43.1331 10.2013 -2.6230
# 5 9.1091 12.7123 19.3949 10.2013 33.2710 2.3640
# 6 18.6046 1.4344 14.6093 -2.6230 2.3640 32.6677
#
#
#
# Elastic Compliance Matrix: (Units=1/GPa)
#
#
# Indices 1 2 3 4 5 6 
#
# 1 0.027442 -0.007472 0.000024 -0.001596 -0.003102 -0.015215
# 2 -0.007472 0.015820 -0.004627 0.004249 -0.003044 0.006192
# 3 0.000024 -0.004627 0.011978 -0.000320 -0.004778 -0.004847
# 4 -0.001596 0.004249 -0.000320 0.026451 -0.009370 0.003668
# 5 -0.003102 -0.003044 -0.004778 -0.009370 0.037687 0.000557
# 6 -0.015215 0.006192 -0.004847 0.003668 0.000557 0.041426
#
#
# Mechanical properties :
#
#
# Convention : Reuss Voigt Hill
#
# Bulk Modulus (GPa) = 32.16585 48.65747 40.41166
# Shear Modulus (GPa) = 25.59930 33.20607 29.40268
#
# Velocity S-wave (km/s) = 3.44278 3.92107 3.68968
# Velocity P-wave (km/s) = 5.54047 6.55962 6.07147
#
# Compressibility (1/GPa) = 0.03108887
#
# Stress axis : x y z
#
# Youngs Moduli (GPa) = 36.44078 63.21168 83.48548
#
# Poissons Ratio (x) = 0.47231 -0.00200
# Poissons Ratio (y) = 0.27228 0.38633
# Poissons Ratio (z) = -0.00087 0.29251
#
# Static dielectric constant tensor:
#      x y z
#    x 1.819630 0.046330 0.003560 
#    y 0.046330 1.845210 -0.008800 
#    z 0.003560 -0.008800 1.833790 
# 
# From -- ./inp_files/557506.got.cif
#   From: 2010.05.17/outbox.cif.g08.bks.cpg/sg2_279_cif.got.tgz:557506.got - 2010.06.03 11:33:40.
