data_PCOD9106849
_publ_section_title
;
Structure prediction by ZEFSAII (Michael W. Deem and Ramdas Pophale) SiO2 
 PCOD9106849
Probable space group: P -1
;
_chemical_formula_sum "Si O2"
_cell_formula_units_Z 16
_cell_length_a 13.290888
_cell_length_b 13.421758
_cell_length_c 8.155579
_cell_angle_alpha 58.970943
_cell_angle_beta 69.155423
_cell_angle_gamma 33.087687
_cell_volume 671.531292
_symmetry_space_group_name_H-M "P -1"
_symmetry_group_IT_number 2
_symmetry_cell_setting 'triclinic'
loop_
_space_group_symop_operation_xyz
x,y,z
-x,-y,-z
loop_
_atom_site_type_symbol
_atom_site_label
_atom_site_fract_x
_atom_site_fract_y
_atom_site_fract_z
Si Si1 0.205892 0.089195 0.120107
Si Si2 0.317561 0.102972 0.434202
Si Si3 0.749787 0.343720 0.457414
Si Si4 0.591435 0.275773 0.467381
Si Si5 0.413567 0.183512 0.042719
Si Si6 0.837359 0.090293 0.912024
Si Si7 0.056337 0.588425 0.755823
Si Si8 0.541539 0.240905 0.182394
O O1 0.048719 0.313588 0.090615
O O2 0.286436 0.939870 0.353089
O O3 0.380273 0.986271 0.005050
O O4 0.117033 0.072591 0.062532
O O5 0.095213 0.326370 0.358226
O O6 0.500000 0.000000 0.500000
O O7 0.320279 0.979176 0.635032
O O8 0.378676 0.090086 0.226337
O O9 0.713867 0.285985 0.377590
O O10 0.555288 0.574429 0.427948
O O11 0.799663 0.214089 0.685223
O O12 0.895031 0.318863 0.379696
O O13 0.482746 0.349179 0.298065
O O14 0.254035 0.351923 0.860923
O O15 0.401536 0.293633 0.100244
O O16 0.656527 0.226708 0.014324
O O17 0.000000 0.000000 0.000000
#
# Coordination Sequence:
#
# PCOD9106849 Si02
#       8
#     2   2   2   2   2   2   2   2
#     4  10  22  39  63  91 130 167 215 260 315 379
#     4  10  22  42  67  92 126 170 209 274 333 367
#     4  10  23  37  63  92 133 169 210 259 312 382
#     4  10  20  40  61  92 128 175 207 253 321 380
#     4  10  23  43  64  97 129 160 222 272 314 380
#     4  10  22  36  56  92 128 169 210 262 308 375
#     4  12  22  40  70  95 124 175 214 262 322 387
#     4  10  21  40  64  89 130 172 210 262 322 375
#
# _framework density 23.826142999999998
#
# number of rings (size 3 to 8) (size 9 to 14) (size 15 to 20)
#    0.000    1.750    2.500    1.125    3.500    3.000 
#    0.000    0.000    0.000   11.250    0.000    0.000 
#    0.000    0.000    0.000    0.000    0.000    0.000 
#
# Total GULP energy -89205.659622 kJ/mol
# GULP energy per Si atom -5575.353726 kJ/mol
# Density = 2.377191 g / cm^3
# Si number density = 23.826143 Si / 1000 Ang^3
#
#
#
# Elastic Constant Matrix: (Units=GPa)
#
#
# Indices 1 2 3 4 5 6 
#
# 1 137.9899 24.2603 37.5029 -0.3726 9.2368 -21.2566
# 2 24.2603 50.0293 1.7440 -8.6968 2.2300 -8.1640
# 3 37.5029 1.7440 71.6569 -0.8687 0.4698 -8.1606
# 4 -0.3726 -8.6968 -0.8687 33.4132 -7.8229 4.3108
# 5 9.2368 2.2300 0.4698 -7.8229 51.0358 1.1891
# 6 -21.2566 -8.1640 -8.1606 4.3108 1.1891 32.1253
#
#
#
# Elastic Compliance Matrix: (Units=1/GPa)
#
#
# Indices 1 2 3 4 5 6 
#
# 1 0.010138 -0.004262 -0.004667 -0.002221 -0.002058 0.004813
# 2 -0.004262 0.023444 0.002052 0.005872 0.000562 0.002850
# 3 -0.004667 0.002052 0.016524 0.000885 0.000704 0.001486
# 4 -0.002221 0.005872 0.000885 0.033275 0.005340 -0.004415
# 5 -0.002058 0.000562 0.000704 0.005340 0.020813 -0.002527
# 6 0.004813 0.002850 0.001486 -0.004415 -0.002527 0.036101
#
#
# Mechanical properties :
#
#
# Convention : Reuss Voigt Hill
#
# Bulk Modulus (GPa) = 27.50951 42.96562 35.23757
# Shear Modulus (GPa) = 30.09028 36.39277 33.24153
#
# Velocity S-wave (km/s) = 3.55760 3.91248 3.73925
# Velocity P-wave (km/s) = 5.33351 6.20339 5.78483
#
# Compressibility (1/GPa) = 0.03635106
#
# Stress axis : x y z
#
# Youngs Moduli (GPa) = 98.63833 42.65416 60.51972
#
# Poissons Ratio (x) = 0.18180 0.28247
# Poissons Ratio (y) = 0.42042 -0.12420
# Poissons Ratio (z) = 0.46039 -0.08754
#
# Static dielectric constant tensor:
#      x y z
#    x 2.124140 0.015500 0.021130 
#    y 0.015500 2.042550 -0.023810 
#    z 0.021130 -0.023810 1.905890 
# 
# From -- ./inp_files/314794.got.cif
#   From: 2010.05.17/outbox.cif.g08.bks.cpg/sg2_158_cif.got.tgz:314794.got - 2010.06.03 11:33:40.
