data_PCOD9106827
_publ_section_title
;
Structure prediction by ZEFSAII (Michael W. Deem and Ramdas Pophale) SiO2 
 PCOD9106827
Probable space group: P -1
;
_chemical_formula_sum "Si O2"
_cell_formula_units_Z 16
_cell_length_a 15.522398
_cell_length_b 12.294656
_cell_length_c 19.570188
_cell_angle_alpha 25.111356
_cell_angle_beta 21.190458
_cell_angle_gamma 33.501327
_cell_volume 571.607096
_symmetry_space_group_name_H-M "P -1"
_symmetry_group_IT_number 2
_symmetry_cell_setting 'triclinic'
loop_
_space_group_symop_operation_xyz
x,y,z
-x,-y,-z
loop_
_atom_site_type_symbol
_atom_site_label
_atom_site_fract_x
_atom_site_fract_y
_atom_site_fract_z
Si Si1 0.309442 0.986738 0.741066
Si Si2 0.713985 0.693404 0.301525
Si Si3 0.796949 0.107080 0.884469
Si Si4 0.638033 0.921004 0.852022
Si Si5 0.278215 0.636281 0.837358
Si Si6 0.834646 0.396229 0.256689
Si Si7 0.073408 0.154039 0.458297
Si Si8 0.727659 0.670463 0.658386
O O1 0.185216 0.173952 0.779359
O O2 0.488169 0.196184 0.452371
O O3 0.201115 0.794607 0.871790
O O4 0.484154 0.811614 0.754875
O O5 0.810775 0.457617 0.321952
O O6 0.433843 0.600989 0.573509
O O7 0.732477 0.919999 0.101536
O O8 0.703269 0.387584 0.807036
O O9 0.073151 0.169308 0.626290
O O10 0.630049 0.005513 0.003466
O O11 0.800571 0.143338 0.642932
O O12 0.766549 0.870234 0.713226
O O13 0.654535 0.650116 0.031901
O O14 0.065857 0.595299 0.960905
O O15 0.898614 0.105671 0.371735
O O16 0.168238 0.362416 0.323861
#
# Coordination Sequence:
#
# PCOD9106827 Si02
#       8
#     2   2   2   2   2   2   2   2
#     4  11  22  41  63  88 120 162 206 240 300 357
#     4  11  23  40  65  91 118 159 202 251 297 353
#     4  11  23  40  62  90 127 152 200 255 295 355
#     4  10  20  40  61  90 122 156 195 248 299 360
#     4  10  23  39  62  88 124 161 196 250 295 359
#     4  10  21  42  59  93 120 152 203 247 300 349
#     4  10  21  40  67  89 118 158 201 244 303 360
#     4  11  23  40  63  91 119 159 202 249 300 351
#
# _framework density 27.991256
#
# number of rings (size 3 to 8) (size 9 to 14) (size 15 to 20)
#    0.000    1.500    3.750    0.750    1.750    2.500 
#    9.000    3.750    0.000    0.000    0.000    0.000 
#    0.000    0.000    0.000    0.000    0.000    0.000 
#
# Total GULP energy -89633.629988 kJ/mol
# GULP energy per Si atom -5602.101874 kJ/mol
# Density = 2.792755 g / cm^3
# Si number density = 27.991256 Si / 1000 Ang^3
#
#
#
# Elastic Constant Matrix: (Units=GPa)
#
#
# Indices 1 2 3 4 5 6 
#
# 1 91.8103 -7.5175 17.4400 -18.5857 -23.0863 14.4413
# 2 -7.5175 61.5687 5.0482 -1.8018 12.1295 12.5128
# 3 17.4400 5.0482 111.5315 -20.6940 0.4225 -4.2394
# 4 -18.5857 -1.8018 -20.6940 39.4333 9.1830 2.1234
# 5 -23.0863 12.1295 0.4225 9.1830 61.0784 -10.7308
# 6 14.4413 12.5128 -4.2394 2.1234 -10.7308 47.0774
#
#
#
# Elastic Compliance Matrix: (Units=1/GPa)
#
#
# Indices 1 2 3 4 5 6 
#
# 1 0.013978 0.002269 -0.001469 0.005412 0.003233 -0.004530
# 2 0.002269 0.019005 -0.000927 0.002894 -0.004576 -0.007004
# 3 -0.001469 -0.000927 0.010169 0.004760 -0.000949 0.001182
# 4 0.005412 0.002894 0.004760 0.031730 -0.004100 -0.004367
# 5 0.003233 -0.004576 -0.000949 -0.004100 0.019983 0.004879
# 6 -0.004530 -0.007004 0.001182 -0.004367 0.004879 0.025909
#
#
# Mechanical properties :
#
#
# Convention : Reuss Voigt Hill
#
# Bulk Modulus (GPa) = 23.31038 32.76132 28.03585
# Shear Modulus (GPa) = 36.94769 46.18046 41.56408
#
# Velocity S-wave (km/s) = 3.63708 4.06620 3.85761
# Velocity P-wave (km/s) = 5.09742 5.81161 5.46619
#
# Compressibility (1/GPa) = 0.04289934
#
# Stress axis : x y z
#
# Youngs Moduli (GPa) = 71.54064 52.61835 98.33504
#
# Poissons Ratio (x) = -0.11940 0.14443
# Poissons Ratio (y) = -0.16234 0.09115
# Poissons Ratio (z) = 0.10507 0.04877
#
# Static dielectric constant tensor:
#      x y z
#    x 2.207780 0.055060 0.017060 
#    y 0.055060 2.128450 0.109670 
#    z 0.017060 0.109670 2.259740 
# 
# From -- ./inp_files/223863.got.cif
#   From: 2010.05.17/outbox.cif.g08.bks.cpg/sg2_112_cif.got.tgz:223863.got - 2010.06.03 11:33:40.
