data_PCOD9106039
_publ_section_title
;
Structure prediction by ZEFSAII (Michael W. Deem and Ramdas Pophale) SiO2 
 PCOD9106039
Probable space group: P -1
;
_chemical_formula_sum "Si O2"
_cell_formula_units_Z 14
_cell_length_a 9.804187
_cell_length_b 17.147134
_cell_length_c 12.404200
_cell_angle_alpha 149.202965
_cell_angle_beta 95.809408
_cell_angle_gamma 107.064444
_cell_volume 706.418931
_symmetry_space_group_name_H-M "P -1"
_symmetry_group_IT_number 2
_symmetry_cell_setting 'triclinic'
loop_
_space_group_symop_operation_xyz
x,y,z
-x,-y,-z
loop_
_atom_site_type_symbol
_atom_site_label
_atom_site_fract_x
_atom_site_fract_y
_atom_site_fract_z
Si Si1 0.788536 0.404970 0.757180
Si Si2 0.537827 0.206725 0.720911
Si Si3 0.000412 0.699689 0.861413
Si Si4 0.123070 0.945292 0.941532
Si Si5 0.564881 0.228401 0.301753
Si Si6 0.918072 0.537785 0.281314
Si Si7 0.927237 0.083458 0.660971
O O1 0.648814 0.295653 0.720241
O O2 0.643188 0.304958 0.522177
O O3 0.924874 0.370877 0.695916
O O4 0.959891 0.678839 0.102068
O O5 0.500000 0.000000 0.500000
O O6 0.319386 0.108608 0.587542
O O7 0.699770 0.401550 0.052939
O O8 0.767706 0.453128 0.521503
O O9 0.112513 0.849482 0.941848
O O10 0.095787 0.630891 0.849207
O O11 0.003599 0.837346 0.114361
O O12 0.016704 0.746853 0.611311
O O13 0.363026 0.161275 0.188096
O O14 0.000000 0.000000 0.000000
O O15 0.500000 0.000000 0.000000
O O16 0.000000 0.000000 0.500000
#
# Coordination Sequence:
#
# PCOD9106039 Si02
#       7
#     2   2   2   2   2   2   2
#     4  10  22  39  64  93 123 157 219 249 295 385
#     4  12  22  38  65  95 121 164 207 255 308 359
#     4  10  22  42  65  89 124 164 214 245 303 390
#     4  12  25  41  61  96 128 156 209 265 311 358
#     4  10  20  39  67  87 117 171 205 245 315 360
#     4  10  22  40  63  95 123 167 212 254 302 380
#     4  10  23  42  63  93 127 163 200 256 320 360
#
# _framework density 19.818269000000001
#
# number of rings (size 3 to 8) (size 9 to 14) (size 15 to 20)
#    0.000    1.714    5.714    1.714    0.000    4.571 
#    0.000    0.000    0.000    0.000    0.000    0.000 
#    0.000    0.000    0.000    0.000    0.000    0.000 
#
# Total GULP energy -78150.143341 kJ/mol
# GULP energy per Si atom -5582.153096 kJ/mol
# Density = 1.977316 g / cm^3
# Si number density = 19.818269 Si / 1000 Ang^3
#
#
#
# Elastic Constant Matrix: (Units=GPa)
#
#
# Indices 1 2 3 4 5 6 
#
# 1 113.2672 16.2047 50.1224 -3.2491 2.0298 22.7464
# 2 16.2047 80.3386 20.4131 3.0326 1.8929 20.8161
# 3 50.1224 20.4131 117.4282 -15.1128 6.1379 15.3692
# 4 -3.2491 3.0326 -15.1128 18.7588 8.5411 3.2588
# 5 2.0298 1.8929 6.1379 8.5411 39.7539 -2.9371
# 6 22.7464 20.8161 15.3692 3.2588 -2.9371 21.3308
#
#
#
# Elastic Compliance Matrix: (Units=1/GPa)
#
#
# Indices 1 2 3 4 5 6 
#
# 1 0.013025 0.001771 -0.003773 0.001983 -0.001584 -0.013421
# 2 0.001771 0.017119 -0.001122 0.000829 -0.002257 -0.018223
# 3 -0.003773 -0.001122 0.013381 0.014047 -0.005385 -0.007410
# 4 0.001983 0.000829 0.014047 0.079500 -0.021469 -0.028146
# 5 -0.001584 -0.002257 -0.005385 -0.021469 0.031929 0.015448
# 6 -0.013421 -0.018223 -0.007410 -0.028146 0.015448 0.090742
#
#
# Mechanical properties :
#
#
# Convention : Reuss Voigt Hill
#
# Bulk Modulus (GPa) = 26.82628 53.83494 40.33061
# Shear Modulus (GPa) = 18.91299 30.92161 24.91730
#
# Velocity S-wave (km/s) = 3.09256 3.95430 3.54967
# Velocity P-wave (km/s) = 5.13005 6.93339 6.09874
#
# Compressibility (1/GPa) = 0.03727689
#
# Stress axis : x y z
#
# Youngs Moduli (GPa) = 76.77326 58.41529 74.73552
#
# Poissons Ratio (x) = -0.10347 0.28198
# Poissons Ratio (y) = -0.13599 0.08387
# Poissons Ratio (z) = 0.28967 0.06555
#
# Static dielectric constant tensor:
#      x y z
#    x 1.725570 0.013800 0.006600 
#    y 0.013800 1.730340 -0.018930 
#    z 0.006600 -0.018930 1.719650 
# 
# From -- ./inp_files/402505.got.cif
#   From: 2010.05.17/outbox.cif.g08.bks.cpg/sg2_202_cif.got.tgz:402505.got - 2010.06.03 11:33:40.
