data_PCOD9106257
_publ_section_title
;
Structure prediction by ZEFSAII (Michael W. Deem and Ramdas Pophale) SiO2 
 PCOD9106257
Probable space group: P -1
;
_chemical_formula_sum "Si O2"
_cell_formula_units_Z 16
_cell_length_a 10.525007
_cell_length_b 8.908408
_cell_length_c 14.754853
_cell_angle_alpha 120.681940
_cell_angle_beta 35.750086
_cell_angle_gamma 118.087432
_cell_volume 690.684073
_symmetry_space_group_name_H-M "P -1"
_symmetry_group_IT_number 2
_symmetry_cell_setting 'triclinic'
loop_
_space_group_symop_operation_xyz
x,y,z
-x,-y,-z
loop_
_atom_site_type_symbol
_atom_site_label
_atom_site_fract_x
_atom_site_fract_y
_atom_site_fract_z
Si Si1 0.870731 0.119249 0.050714
Si Si2 0.993956 0.511982 0.116532
Si Si3 0.879560 0.173878 0.621879
Si Si4 0.460739 0.058715 0.925580
Si Si5 0.355802 0.831885 0.436873
Si Si6 0.479019 0.687995 0.898976
Si Si7 0.170402 0.481924 0.476535
Si Si8 0.211535 0.171244 0.716464
O O1 0.986307 0.120212 0.884943
O O2 0.892007 0.315224 0.139172
O O3 0.636002 0.012880 0.136075
O O4 0.000000 0.000000 0.000000
O O5 0.833926 0.662911 0.267583
O O6 0.247444 0.570637 0.015387
O O7 0.000000 0.500000 0.000000
O O8 0.710418 0.139445 0.790522
O O9 0.740205 0.194476 0.616658
O O10 0.055436 0.346125 0.573576
O O11 0.000000 0.000000 0.500000
O O12 0.439427 0.875771 0.936322
O O13 0.374865 0.230481 0.074739
O O14 0.239663 0.681788 0.525283
O O15 0.608176 0.805131 0.300039
O O16 0.293338 0.018850 0.562233
O O17 0.622840 0.593313 0.714734
O O18 0.000000 0.500000 0.500000
#
# Coordination Sequence:
#
# PCOD9106257 Si02
#       8
#     2   2   2   2   2   2   2   2
#     4  11  23  41  65  95 134 163 210 269 334 374
#     4  10  20  39  68  94 121 170 218 261 321 390
#     4  11  23  39  62  91 132 168 209 265 328 381
#     4  11  24  38  67  98 126 168 213 276 316 379
#     4  10  23  40  63  91 128 168 218 261 322 386
#     4  11  22  40  67  98 124 166 229 262 316 395
#     4  10  22  39  63  87 130 172 210 255 326 389
#     4  10  21  40  67  90 119 172 220 261 307 396
#
# _framework density 23.165438000000002
#
# number of rings (size 3 to 8) (size 9 to 14) (size 15 to 20)
#    0.000    1.500    3.750    2.250    5.250    1.000 
#    2.250    3.125    0.000    3.750    0.000    0.000 
#    0.000    0.000    0.000    0.000    0.000    0.000 
#
# Total GULP energy -89167.116277 kJ/mol
# GULP energy per Si atom -5572.944767 kJ/mol
# Density = 2.311271 g / cm^3
# Si number density = 23.165438 Si / 1000 Ang^3
#
#
#
# Elastic Constant Matrix: (Units=GPa)
#
#
# Indices 1 2 3 4 5 6 
#
# 1 50.0136 31.9910 8.3084 3.3531 -12.7176 7.5683
# 2 31.9910 156.5596 38.0827 6.8251 -11.3738 5.9295
# 3 8.3084 38.0827 65.0649 0.6972 -17.1246 4.0961
# 4 3.3531 6.8251 0.6972 33.3431 -2.8180 -2.2341
# 5 -12.7176 -11.3738 -17.1246 -2.8180 26.2930 -2.5630
# 6 7.5683 5.9295 4.0961 -2.2341 -2.5630 32.9001
#
#
#
# Elastic Compliance Matrix: (Units=1/GPa)
#
#
# Indices 1 2 3 4 5 6 
#
# 1 0.026589 -0.005079 0.003068 -0.000991 0.012097 -0.004708
# 2 -0.005079 0.008516 -0.004870 -0.001308 -0.002086 -0.000011
# 3 0.003068 -0.004870 0.021407 0.001275 0.013323 -0.001369
# 4 -0.000991 -0.001308 0.001275 0.030793 0.003344 0.002657
# 5 0.012097 -0.002086 0.013323 0.003344 0.052038 0.000216
# 6 -0.004708 -0.000011 -0.001369 0.002657 0.000216 0.031848
#
#
# Mechanical properties :
#
#
# Convention : Reuss Voigt Hill
#
# Bulk Modulus (GPa) = 23.39200 47.60026 35.49613
# Shear Modulus (GPa) = 25.10031 31.39100 28.24565
#
# Velocity S-wave (km/s) = 3.29526 3.68513 3.49564
# Velocity P-wave (km/s) = 4.95964 6.22089 5.62573
#
# Compressibility (1/GPa) = 0.04274966
#
# Stress axis : x y z
#
# Youngs Moduli (GPa) = 37.61022 117.43032 46.71388
#
# Poissons Ratio (x) = 0.59644 -0.14333
# Poissons Ratio (y) = 0.19103 0.22750
# Poissons Ratio (z) = -0.11540 0.57189
#
# Static dielectric constant tensor:
#      x y z
#    x 2.153820 0.099710 -0.013050 
#    y 0.099710 1.936120 -0.033660 
#    z -0.013050 -0.033660 1.993390 
# 
# From -- ./inp_files/566121.got.cif
#   From: 2010.05.17/outbox.cif.g08.bks.cpg/sg2_284_cif.got.tgz:566121.got - 2010.06.03 11:33:40.
