data_PCOD9106725
_publ_section_title
;
Structure prediction by ZEFSAII (Michael W. Deem and Ramdas Pophale) SiO2 
 PCOD9106725
Probable space group: P -1
;
_chemical_formula_sum "Si O2"
_cell_formula_units_Z 16
_cell_length_a 8.943967
_cell_length_b 20.805668
_cell_length_c 11.609548
_cell_angle_alpha 129.990471
_cell_angle_beta 120.058043
_cell_angle_gamma 30.265937
_cell_volume 825.973626
_symmetry_space_group_name_H-M "P -1"
_symmetry_group_IT_number 2
_symmetry_cell_setting 'triclinic'
loop_
_space_group_symop_operation_xyz
x,y,z
-x,-y,-z
loop_
_atom_site_type_symbol
_atom_site_label
_atom_site_fract_x
_atom_site_fract_y
_atom_site_fract_z
Si Si1 0.229974 0.560769 0.394674
Si Si2 0.517693 0.361774 0.804398
Si Si3 0.960707 0.528926 0.654130
Si Si4 0.588419 0.025441 0.218117
Si Si5 0.453030 0.098127 0.513022
Si Si6 0.414479 0.505498 0.141062
Si Si7 0.081798 0.945202 0.337170
Si Si8 0.872065 0.756616 0.886603
O O1 0.500000 0.500000 0.500000
O O2 0.200512 0.483621 0.359538
O O3 0.319984 0.517405 0.244894
O O4 0.894308 0.735779 0.453940
O O5 0.680207 0.364346 0.787595
O O6 0.748518 0.209833 0.777018
O O7 0.295270 0.396904 0.681989
O O8 0.334113 0.478592 0.971353
O O9 0.829665 0.673879 0.796134
O O10 0.000000 0.500000 0.500000
O O11 0.774053 0.036304 0.263967
O O12 0.577446 0.027964 0.353505
O O13 0.261323 0.168946 0.203950
O O14 0.716219 0.886817 0.059130
O O15 0.672343 0.083056 0.634244
O O16 0.500000 0.000000 0.500000
O O17 0.774315 0.369231 0.119929
O O18 0.000000 0.000000 0.500000
#
# Coordination Sequence:
#
# PCOD9106725 Si02
#       8
#     2   2   2   2   2   2   2   2
#     4  12  25  42  63  94 131 167 209 265 321 376
#     4  10  20  40  60  91 119 160 212 250 309 370
#     4  11  23  40  63  88 125 165 211 257 310 377
#     4  10  21  41  65  88 123 159 214 251 308 379
#     4  11  25  41  61  92 128 164 207 262 314 371
#     4  10  22  37  66  91 127 158 203 263 314 372
#     4  10  21  37  63  85 117 162 207 253 293 374
#     4  10  21  40  65  92 118 164 205 261 307 375
#
# _framework density 19.371078000000001
#
# number of rings (size 3 to 8) (size 9 to 14) (size 15 to 20)
#    0.000    1.500    2.500    3.000    5.250    1.500 
#    2.250    0.000    0.000    3.750    0.000    0.000 
#    0.000    0.000    0.000    0.000    0.000    0.000 
#
# Total GULP energy -89107.942822 kJ/mol
# GULP energy per Si atom -5569.246426 kJ/mol
# Density = 1.932699 g / cm^3
# Si number density = 19.371078 Si / 1000 Ang^3
#
#
#
# Elastic Constant Matrix: (Units=GPa)
#
#
# Indices 1 2 3 4 5 6 
#
# 1 133.1158 35.0222 59.5287 -1.3219 2.6047 21.6094
# 2 35.0222 77.8204 20.9385 -7.6467 5.7252 1.3018
# 3 59.5287 20.9385 83.0089 -16.1382 1.6975 5.4543
# 4 -1.3219 -7.6467 -16.1382 36.6487 5.8885 2.8729
# 5 2.6047 5.7252 1.6975 5.8885 32.0538 -4.5242
# 6 21.6094 1.3018 5.4543 2.8729 -4.5242 25.6909
#
#
#
# Elastic Compliance Matrix: (Units=1/GPa)
#
#
# Indices 1 2 3 4 5 6 
#
# 1 0.014234 -0.004064 -0.009235 -0.003553 -0.000633 -0.009520
# 2 -0.004064 0.015260 -0.000393 0.003146 -0.002684 0.001905
# 3 -0.009235 -0.000393 0.020325 0.008603 -0.001520 0.002243
# 4 -0.003553 0.003146 0.008603 0.033101 -0.007374 -0.003997
# 5 -0.000633 -0.002684 -0.001520 -0.007374 0.034271 0.007850
# 6 -0.009520 0.001905 0.002243 -0.003997 0.007850 0.048189
#
#
# Mechanical properties :
#
#
# Convention : Reuss Voigt Hill
#
# Bulk Modulus (GPa) = 44.57488 58.32488 51.44988
# Shear Modulus (GPa) = 24.96977 30.77572 27.87275
#
# Velocity S-wave (km/s) = 3.59419 3.99023 3.79738
# Velocity P-wave (km/s) = 6.34707 7.16965 6.77086
#
# Compressibility (1/GPa) = 0.02243416
#
# Stress axis : x y z
#
# Youngs Moduli (GPa) = 70.25502 65.53206 49.20064
#
# Poissons Ratio (x) = 0.26635 0.45435
# Poissons Ratio (y) = 0.28555 0.01934
# Poissons Ratio (z) = 0.64879 0.02576
#
# Static dielectric constant tensor:
#      x y z
#    x 1.696480 -0.039020 0.044010 
#    y -0.039020 1.727110 -0.016380 
#    z 0.044010 -0.016380 1.693310 
# 
# From -- ./inp_files/256408.got.cif
#   From: 2010.05.17/outbox.cif.g08.bks.cpg/sg2_129_cif.got.tgz:256408.got - 2010.06.03 11:33:40.
