data_PCOD9106786
_publ_section_title
;
Structure prediction by ZEFSAII (Michael W. Deem and Ramdas Pophale) SiO2 
 PCOD9106786
Probable space group: P -1
;
_chemical_formula_sum "Si O2"
_cell_formula_units_Z 16
_cell_length_a 15.094338
_cell_length_b 14.715064
_cell_length_c 10.749008
_cell_angle_alpha 105.493519
_cell_angle_beta 84.886121
_cell_angle_gamma 28.265498
_cell_volume 766.276805
_symmetry_space_group_name_H-M "P -1"
_symmetry_group_IT_number 2
_symmetry_cell_setting 'triclinic'
loop_
_space_group_symop_operation_xyz
x,y,z
-x,-y,-z
loop_
_atom_site_type_symbol
_atom_site_label
_atom_site_fract_x
_atom_site_fract_y
_atom_site_fract_z
Si Si1 0.806370 0.249589 0.981447
Si Si2 0.116276 0.293702 0.068407
Si Si3 0.120628 0.672544 0.536897
Si Si4 0.732964 0.650099 0.019263
Si Si5 0.525670 0.731992 0.870352
Si Si6 0.995196 0.153464 0.138600
Si Si7 0.794059 0.181093 0.699821
Si Si8 0.895638 0.701601 0.640003
O O1 0.978820 0.983109 0.884481
O O2 0.517645 0.519416 0.176965
O O3 0.793945 0.260621 0.837850
O O4 0.916765 0.229888 0.031598
O O5 0.912159 0.461602 0.050814
O O6 0.387604 0.961667 0.908143
O O7 0.170581 0.349564 0.058109
O O8 0.025129 0.372081 0.250925
O O9 0.011000 0.676451 0.545158
O O10 0.336381 0.466569 0.326700
O O11 0.896496 0.976275 0.657939
O O12 0.203127 0.605717 0.646305
O O13 0.723283 0.574112 0.893635
O O14 0.423263 0.974672 0.209377
O O15 0.279045 0.921287 0.029422
O O16 0.000000 0.000000 0.500000
O O17 0.000000 0.500000 0.500000
#
# Coordination Sequence:
#
# PCOD9106786 Si02
#       8
#     2   2   2   2   2   2   2   2
#     4   9  21  39  63  86 121 159 201 261 314 370
#     4  10  21  39  61  89 120 167 207 254 317 360
#     4  11  22  38  60  91 119 162 212 247 310 374
#     4  10  21  39  62  86 124 164 209 255 312 368
#     4  11  21  40  61  87 127 162 199 261 306 363
#     4  10  20  40  61  87 118 161 207 252 315 368
#     4  10  21  40  61  92 124 159 205 258 316 365
#     4  11  21  39  62  90 129 165 203 261 306 363
#
# _framework density 20.880181
#
# number of rings (size 3 to 8) (size 9 to 14) (size 15 to 20)
#    0.000    1.750    2.500    3.750    0.000    2.500 
#    6.750    3.750    0.000    0.000    0.000    0.000 
#    0.000    0.000    0.000    0.000    0.000    0.000 
#
# Total GULP energy -89236.605728 kJ/mol
# GULP energy per Si atom -5577.287858 kJ/mol
# Density = 2.083266 g / cm^3
# Si number density = 20.880181 Si / 1000 Ang^3
#
#
#
# Elastic Constant Matrix: (Units=GPa)
#
#
# Indices 1 2 3 4 5 6 
#
# 1 75.6787 18.0589 23.7475 -16.7333 13.5258 -7.5651
# 2 18.0589 71.2146 19.1893 -15.2626 11.1648 -18.4100
# 3 23.7475 19.1893 130.5869 -2.3668 13.5262 -15.4293
# 4 -16.7333 -15.2626 -2.3668 19.2367 4.3703 11.9351
# 5 13.5258 11.1648 13.5262 4.3703 39.6378 -4.3608
# 6 -7.5651 -18.4100 -15.4293 11.9351 -4.3608 33.6701
#
#
#
# Elastic Compliance Matrix: (Units=1/GPa)
#
#
# Indices 1 2 3 4 5 6 
#
# 1 0.020354 0.000657 -0.003123 0.023778 -0.009362 -0.006140
# 2 0.000657 0.019515 -0.001584 0.014816 -0.006372 0.004015
# 3 -0.003123 -0.001584 0.008926 -0.005519 -0.000439 0.004422
# 4 0.023778 0.014816 -0.005519 0.108852 -0.025818 -0.031014
# 5 -0.009362 -0.006372 -0.000439 -0.025818 0.034070 0.007775
# 6 -0.006140 0.004015 0.004422 -0.031014 0.007775 0.044542
#
#
# Mechanical properties :
#
#
# Convention : Reuss Voigt Hill
#
# Bulk Modulus (GPa) = 24.57332 44.38575 34.47954
# Shear Modulus (GPa) = 19.38556 32.94124 26.16340
#
# Velocity S-wave (km/s) = 3.05030 3.97625 3.54365
# Velocity P-wave (km/s) = 4.91936 6.51032 5.76994
#
# Compressibility (1/GPa) = 0.04069453
#
# Stress axis : x y z
#
# Youngs Moduli (GPa) = 49.13021 51.24363 112.02795
#
# Poissons Ratio (x) = -0.03364 0.34983
# Poissons Ratio (y) = -0.03226 0.17747
# Poissons Ratio (z) = 0.15342 0.08118
#
# Static dielectric constant tensor:
#      x y z
#    x 1.763410 0.011020 0.022040 
#    y 0.011020 1.837750 -0.073010 
#    z 0.022040 -0.073010 1.770710 
# 
# From -- ./inp_files/315596.got.cif
#   From: 2010.05.17/outbox.cif.g08.bks.cpg/sg2_158_cif.got.tgz:315596.got - 2010.06.03 11:33:40.
