data_PCOD9106080
_publ_section_title
;
Structure prediction by ZEFSAII (Michael W. Deem and Ramdas Pophale) SiO2 
 PCOD9106080
Probable space group: P -1
;
_chemical_formula_sum "Si O2"
_cell_formula_units_Z 16
_cell_length_a 18.165775
_cell_length_b 5.371640
_cell_length_c 8.313418
_cell_angle_alpha 93.229697
_cell_angle_beta 77.776220
_cell_angle_gamma 116.228533
_cell_volume 710.558424
_symmetry_space_group_name_H-M "P -1"
_symmetry_group_IT_number 2
_symmetry_cell_setting 'triclinic'
loop_
_space_group_symop_operation_xyz
x,y,z
-x,-y,-z
loop_
_atom_site_type_symbol
_atom_site_label
_atom_site_fract_x
_atom_site_fract_y
_atom_site_fract_z
Si Si1 0.752132 0.716769 0.488594
Si Si2 0.083604 0.065464 0.769202
Si Si3 0.301042 0.861187 0.665516
Si Si4 0.451358 0.684591 0.073555
Si Si5 0.487028 0.237661 0.606999
Si Si6 0.833297 0.182997 0.056880
Si Si7 0.259327 0.344155 0.134796
Si Si8 0.908563 0.658428 0.873888
O O1 0.847307 0.780665 0.392350
O O2 0.698669 0.397316 0.442891
O O3 0.742554 0.747835 0.683263
O O4 0.726260 0.936100 0.419366
O O5 0.114247 0.847971 0.821250
O O6 0.086379 0.236264 0.937821
O O7 0.987486 0.888230 0.756511
O O8 0.232915 0.722063 0.832189
O O9 0.390525 0.073047 0.701521
O O10 0.453368 0.677245 0.264859
O O11 0.354598 0.557044 0.058912
O O12 0.500000 0.500000 0.000000
O O13 0.500000 0.000000 0.000000
O O14 0.500000 0.500000 0.500000
O O15 0.500000 0.000000 0.500000
O O16 0.902431 0.356520 0.898489
O O17 0.771862 0.898638 0.990575
O O18 0.182221 0.425046 0.163230
#
# Coordination Sequence:
#
# PCOD9106080 Si02
#       8
#     2   2   2   2   2   2   2   2
#     4  11  24  43  66  99 133 173 210 274 328 393
#     4   9  20  39  64  98 125 172 223 264 317 387
#     4  11  23  42  69  89 129 172 224 262 323 395
#     4  12  28  46  69  99 137 178 227 285 339 402
#     4  12  25  44  68  98 130 175 226 281 335 399
#     4  10  21  39  65  94 125 175 217 267 318 396
#     4  11  26  40  64  97 134 170 215 274 344 386
#     4  10  20  39  67  92 131 169 221 267 320 395
#
# _framework density 22.517502
#
# number of rings (size 3 to 8) (size 9 to 14) (size 15 to 20)
#    0.000    1.250    1.250    4.125    5.250    0.500 
#    0.000    0.625    0.000    0.000    0.000    0.000 
#    0.000    0.000    0.000    0.000    0.000    0.000 
#
# Total GULP energy -89234.285532 kJ/mol
# GULP energy per Si atom -5577.142846 kJ/mol
# Density = 2.246625 g / cm^3
# Si number density = 22.517502 Si / 1000 Ang^3
#
#
#
# Elastic Constant Matrix: (Units=GPa)
#
#
# Indices 1 2 3 4 5 6 
#
# 1 90.2807 54.5155 13.5811 -8.0200 -3.4294 26.8982
# 2 54.5155 102.9989 8.5528 -23.3186 -2.8854 10.9581
# 3 13.5811 8.5528 42.1050 -5.9246 -3.8480 -2.6063
# 4 -8.0200 -23.3186 -5.9246 31.3089 3.4569 -12.0469
# 5 -3.4294 -2.8854 -3.8480 3.4569 33.0911 -7.6105
# 6 26.8982 10.9581 -2.6063 -12.0469 -7.6105 42.2261
#
#
#
# Elastic Compliance Matrix: (Units=1/GPa)
#
#
# Indices 1 2 3 4 5 6 
#
# 1 0.023402 -0.012546 -0.007625 -0.010529 -0.002018 -0.015490
# 2 -0.012546 0.018485 0.002789 0.013861 0.000909 0.007485
# 3 -0.007625 0.002789 0.027728 0.008381 0.003856 0.008931
# 4 -0.010529 0.013861 0.008381 0.047791 0.000073 0.017275
# 5 -0.002018 0.000909 0.003856 0.000073 0.032165 0.007105
# 6 -0.015490 0.007485 0.008931 0.017275 0.007105 0.038367
#
#
# Mechanical properties :
#
#
# Convention : Reuss Voigt Hill
#
# Bulk Modulus (GPa) = 28.69375 43.18704 35.94039
# Shear Modulus (GPa) = 21.33856 31.90759 26.62308
#
# Velocity S-wave (km/s) = 3.08172 3.76841 3.44223
# Velocity P-wave (km/s) = 5.04313 6.17701 5.63865
#
# Compressibility (1/GPa) = 0.03485080
#
# Stress axis : x y z
#
# Youngs Moduli (GPa) = 42.73112 54.09913 36.06513
#
# Poissons Ratio (x) = 0.67870 0.27499
# Poissons Ratio (y) = 0.53609 -0.10057
# Poissons Ratio (z) = 0.32582 -0.15086
#
# Static dielectric constant tensor:
#      x y z
#    x 1.921310 -0.023610 -0.028510 
#    y -0.023610 1.814750 -0.100360 
#    z -0.028510 -0.100360 1.809880 
# 
# From -- ./inp_files/120006.got.cif
#   From: 2010.05.17/outbox.cif.g08.bks.cpg/sg2_61_cif.got.tgz:120006.got - 2010.06.03 11:33:40.
