data_PCOD9106517
_publ_section_title
;
Structure prediction by ZEFSAII (Michael W. Deem and Ramdas Pophale) SiO2 
 PCOD9106517
Probable space group: P -1
;
_chemical_formula_sum "Si O2"
_cell_formula_units_Z 12
_cell_length_a 8.804920
_cell_length_b 9.269556
_cell_length_c 13.230541
_cell_angle_alpha 62.299884
_cell_angle_beta 53.198001
_cell_angle_gamma 97.548551
_cell_volume 624.668871
_symmetry_space_group_name_H-M "P -1"
_symmetry_group_IT_number 2
_symmetry_cell_setting 'triclinic'
loop_
_space_group_symop_operation_xyz
x,y,z
-x,-y,-z
loop_
_atom_site_type_symbol
_atom_site_label
_atom_site_fract_x
_atom_site_fract_y
_atom_site_fract_z
Si Si1 0.411332 0.425783 0.672992
Si Si2 0.022113 0.596881 0.068185
Si Si3 0.724293 0.030831 0.825810
Si Si4 0.118983 0.387492 0.453194
Si Si5 0.706354 0.988865 0.073349
Si Si6 0.350732 0.562758 0.092744
O O1 0.500000 0.500000 0.500000
O O2 0.647711 0.535739 0.605214
O O3 0.292259 0.191882 0.823974
O O4 0.228695 0.471585 0.767584
O O5 0.160362 0.539661 0.100957
O O6 0.000000 0.500000 0.000000
O O7 0.185243 0.838324 0.941691
O O8 0.554988 0.091141 0.832148
O O9 0.822425 0.081920 0.885755
O O10 0.547912 0.792838 0.968533
O O11 0.939482 0.153594 0.625576
O O12 0.203201 0.439919 0.288448
O O13 0.000000 0.500000 0.500000
O O14 0.500000 0.500000 0.000000
#
# Coordination Sequence:
#
# PCOD9106517 Si02
#       6
#     2   2   2   2   2   2
#     4  12  23  39  66 102 132 168 217 269 330 388
#     4  11  25  42  63  95 135 175 209 268 341 382
#     4  10  20  39  71  99 120 169 230 270 312 378
#     4  12  21  39  70  96 126 167 225 268 312 391
#     4  10  20  41  67  95 131 171 219 269 321 390
#     4  11  24  44  67  93 135 173 217 273 323 388
#
# _framework density 19.210176000000001
#
# number of rings (size 3 to 8) (size 9 to 14) (size 15 to 20)
#    0.000    1.000    3.333    5.500    0.000    0.667 
#    0.000    0.833    0.000    0.000    0.000    0.000 
#    0.000    0.000    0.000    0.000    0.000    0.000 
#
# Total GULP energy -66874.852096 kJ/mol
# GULP energy per Si atom -5572.904341 kJ/mol
# Density = 1.916645 g / cm^3
# Si number density = 19.210176 Si / 1000 Ang^3
#
#
#
# Elastic Constant Matrix: (Units=GPa)
#
#
# Indices 1 2 3 4 5 6 
#
# 1 119.5116 62.7341 59.0203 17.2185 -1.7543 0.7510
# 2 62.7341 104.9882 74.1299 23.3383 4.8032 10.3368
# 3 59.0203 74.1299 177.8123 12.8088 6.8502 1.9294
# 4 17.2185 23.3383 12.8088 31.6920 -3.2374 -6.3926
# 5 -1.7543 4.8032 6.8502 -3.2374 38.1991 9.2446
# 6 0.7510 10.3368 1.9294 -6.3926 9.2446 36.9301
#
#
#
# Elastic Compliance Matrix: (Units=1/GPa)
#
#
# Indices 1 2 3 4 5 6 
#
# 1 0.012655 -0.006392 -0.001510 -0.001208 0.001292 0.001078
# 2 -0.006392 0.020320 -0.005455 -0.010785 -0.001125 -0.006858
# 3 -0.001510 -0.005455 0.008302 0.001710 -0.001140 0.001705
# 4 -0.001208 -0.010785 0.001710 0.041624 0.002196 0.009609
# 5 0.001292 -0.001125 -0.001140 0.002196 0.028309 -0.006358
# 6 0.001078 -0.006858 0.001705 0.009609 -0.006358 0.032142
#
#
# Mechanical properties :
#
#
# Convention : Reuss Voigt Hill
#
# Bulk Modulus (GPa) = 68.67194 88.23119 78.45156
# Shear Modulus (GPa) = 28.58467 35.12610 31.85538
#
# Velocity S-wave (km/s) = 3.86164 4.28075 4.07659
# Velocity P-wave (km/s) = 7.46380 8.39418 7.94262
#
# Compressibility (1/GPa) = 0.01456199
#
# Stress axis : x y z
#
# Youngs Moduli (GPa) = 79.02173 49.21219 120.45874
#
# Poissons Ratio (x) = 0.31457 0.18189
# Poissons Ratio (y) = 0.50512 0.65712
# Poissons Ratio (z) = 0.11932 0.26846
#
# Static dielectric constant tensor:
#      x y z
#    x 1.773430 -0.052910 0.083280 
#    y -0.052910 1.730010 -0.065880 
#    z 0.083280 -0.065880 1.765850 
# 
# From -- ./inp_files/160750.got.cif
#   From: 2010.05.17/outbox.cif.g08.bks.cpg/sg2_81_cif.got.tgz:160750.got - 2010.06.03 11:33:40.
