data_PCOD9106863
_publ_section_title
;
Structure prediction by ZEFSAII (Michael W. Deem and Ramdas Pophale) SiO2 
 PCOD9106863
Probable space group: P -1
;
_chemical_formula_sum "Si O2"
_cell_formula_units_Z 12
_cell_length_a 5.069584
_cell_length_b 7.666373
_cell_length_c 24.031099
_cell_angle_alpha 144.463082
_cell_angle_beta 106.213924
_cell_angle_gamma 68.286874
_cell_volume 503.923930
_symmetry_space_group_name_H-M "P -1"
_symmetry_group_IT_number 2
_symmetry_cell_setting 'triclinic'
loop_
_space_group_symop_operation_xyz
x,y,z
-x,-y,-z
loop_
_atom_site_type_symbol
_atom_site_label
_atom_site_fract_x
_atom_site_fract_y
_atom_site_fract_z
Si Si1 0.366185 0.604165 0.099284
Si Si2 0.563428 0.424531 0.688742
Si Si3 0.188267 0.723298 0.547970
Si Si4 0.280479 0.105452 0.889292
Si Si5 0.578964 0.060446 0.703408
Si Si6 0.965356 0.422814 0.610380
O O1 0.604991 0.707537 0.104241
O O2 0.423622 0.665654 0.182410
O O3 0.058514 0.823116 0.119426
O O4 0.351999 0.262437 0.990934
O O5 0.642843 0.157308 0.670201
O O6 0.813833 0.430112 0.662735
O O7 0.298430 0.383578 0.626114
O O8 0.441576 0.749673 0.797577
O O9 0.500000 0.500000 0.500000
O O10 0.089732 0.808271 0.501010
O O11 0.000000 0.500000 0.500000
O O12 0.272989 0.977632 0.658476
O O13 0.809236 0.764928 0.665053
#
# Coordination Sequence:
#
# PCOD9106863 Si02
#       6
#     2   2   2   2   2   2
#     4  10  21  38  67  86 129 167 208 261 315 380
#     4  12  24  39  69  95 128 170 214 258 324 380
#     4  10  23  41  66  92 127 171 213 259 320 374
#     4  10  20  40  61  95 123 169 206 257 327 368
#     4  11  24  42  68  96 124 175 215 262 320 379
#     4  11  24  44  61  93 135 167 208 273 309 375
#
# _framework density 23.813120000000001
#
# number of rings (size 3 to 8) (size 9 to 14) (size 15 to 20)
#    0.000    1.333    3.333    2.000    0.000    7.333 
#    0.000    0.000    0.000    8.000    0.000    0.000 
#    0.000    0.000    0.000    0.000    0.000    0.000 
#
# Total GULP energy -67155.181974 kJ/mol
# GULP energy per Si atom -5596.265165 kJ/mol
# Density = 2.375892 g / cm^3
# Si number density = 23.813120 Si / 1000 Ang^3
#
#
#
# Elastic Constant Matrix: (Units=GPa)
#
#
# Indices 1 2 3 4 5 6 
#
# 1 87.2409 3.9631 -6.3681 -4.2868 5.8941 1.9152
# 2 3.9631 99.2630 26.9194 -8.4551 -3.4754 5.9192
# 3 -6.3681 26.9194 164.7624 -7.6943 11.0218 -6.2594
# 4 -4.2868 -8.4551 -7.6943 46.7322 -7.0886 -8.4516
# 5 5.8941 -3.4754 11.0218 -7.0886 35.8510 -3.2771
# 6 1.9152 5.9192 -6.2594 -8.4516 -3.2771 33.8180
#
#
#
# Elastic Compliance Matrix: (Units=1/GPa)
#
#
# Indices 1 2 3 4 5 6 
#
# 1 0.011731 -0.000652 0.000716 0.000672 -0.002121 -0.000455
# 2 -0.000652 0.010924 -0.001927 0.001593 0.001923 -0.001647
# 3 0.000716 -0.001927 0.006643 0.000774 -0.002055 0.001521
# 4 0.000672 0.001593 0.000774 0.023779 0.005080 0.006261
# 5 -0.002121 0.001923 -0.002055 0.005080 0.030395 0.003618
# 6 -0.000455 -0.001647 0.001521 0.006261 0.003618 0.032081
#
#
# Mechanical properties :
#
#
# Convention : Reuss Voigt Hill
#
# Bulk Modulus (GPa) = 39.10618 44.47722 41.79170
# Shear Modulus (GPa) = 39.12263 45.06371 42.09317
#
# Velocity S-wave (km/s) = 4.05767 4.35488 4.20890
# Velocity P-wave (km/s) = 6.19764 6.63361 6.41933
#
# Compressibility (1/GPa) = 0.02557141
#
# Stress axis : x y z
#
# Youngs Moduli (GPa) = 85.24647 91.54067 150.52966
#
# Poissons Ratio (x) = 0.05972 -0.10777
# Poissons Ratio (y) = 0.05561 0.29005
# Poissons Ratio (z) = -0.06103 0.17639
#
# Static dielectric constant tensor:
#      x y z
#    x 1.829190 0.042820 0.035380 
#    y 0.042820 1.914390 0.000270 
#    z 0.035380 0.000270 1.920660 
# 
# From -- ./inp_files/603925.got.cif
#   From: 2010.05.17/outbox.cif.g08.bks.cpg/sg2_302_cif.got.tgz:603925.got - 2010.06.03 11:33:40.
