data_PCOD9107389
_publ_section_title
;
Structure prediction by ZEFSAII (Michael W. Deem and Ramdas Pophale) SiO2 
 PCOD9107389
Probable space group: P -1
;
_chemical_formula_sum "Si O2"
_cell_formula_units_Z 16
_cell_length_a 17.189301
_cell_length_b 20.564454
_cell_length_c 8.775749
_cell_angle_alpha 38.988592
_cell_angle_beta 31.798076
_cell_angle_gamma 27.660951
_cell_volume 755.027465
_symmetry_space_group_name_H-M "P -1"
_symmetry_group_IT_number 2
_symmetry_cell_setting 'triclinic'
loop_
_space_group_symop_operation_xyz
x,y,z
-x,-y,-z
loop_
_atom_site_type_symbol
_atom_site_label
_atom_site_fract_x
_atom_site_fract_y
_atom_site_fract_z
Si Si1 0.860022 0.629333 0.610423
Si Si2 0.043460 0.818034 0.306316
Si Si3 0.898723 0.451149 0.342901
Si Si4 0.648958 0.034005 0.367055
Si Si5 0.490547 0.691598 0.038430
Si Si6 0.053868 0.879547 0.515267
Si Si7 0.508880 0.381649 0.137413
Si Si8 0.270797 0.105751 0.829655
O O1 0.668373 0.647567 0.928018
O O2 0.784935 0.762466 0.399660
O O3 0.000000 0.500000 0.500000
O O4 0.977209 0.613076 0.589960
O O5 0.077897 0.676493 0.535169
O O6 0.013770 0.898154 0.365334
O O7 0.850800 0.925216 0.324642
O O8 0.253292 0.757301 0.993572
O O9 0.668634 0.588183 0.525267
O O10 0.000000 0.500000 0.000000
O O11 0.564415 0.189727 0.207598
O O12 0.475577 0.036184 0.705025
O O13 0.684479 0.992052 0.206050
O O14 0.550244 0.581294 0.011559
O O15 0.294812 0.753077 0.345826
O O16 0.000000 0.000000 0.500000
O O17 0.916267 0.850353 0.850119
O O18 0.500000 0.500000 0.000000
#
# Coordination Sequence:
#
# PCOD9107389 Si02
#       8
#     2   2   2   2   2   2   2   2
#     4  11  22  41  70  88 121 172 211 254 324 376
#     4  10  23  41  65  89 129 170 206 256 322 377
#     4  11  23  41  65  95 124 157 216 271 308 366
#     4  10  20  40  64  89 121 172 205 250 319 379
#     4  10  21  40  65  92 127 163 210 256 307 383
#     4  11  23  40  59  94 134 162 209 260 306 365
#     4   9  20  40  59  85 126 165 201 249 309 371
#     4  10  22  40  64  90 128 161 210 260 307 380
#
# _framework density 21.191282000000001
#
# number of rings (size 3 to 8) (size 9 to 14) (size 15 to 20)
#    0.000    1.750    3.750    0.000    1.750    2.500 
#    2.250    1.875    0.000    0.000    0.000    0.000 
#    0.000    0.000    0.000    0.000    0.000    0.000 
#
# Total GULP energy -89139.882815 kJ/mol
# GULP energy per Si atom -5571.242676 kJ/mol
# Density = 2.114305 g / cm^3
# Si number density = 21.191282 Si / 1000 Ang^3
#
#
#
# Elastic Constant Matrix: (Units=GPa)
#
#
# Indices 1 2 3 4 5 6 
#
# 1 102.5587 38.1181 25.2535 15.2814 -24.4936 4.2722
# 2 38.1181 46.8395 23.6733 13.9912 0.6026 3.2050
# 3 25.2535 23.6733 145.4903 45.2263 -25.9353 -11.0353
# 4 15.2814 13.9912 45.2263 30.1593 -4.3181 -5.2853
# 5 -24.4936 0.6026 -25.9353 -4.3181 28.2561 11.3585
# 6 4.2722 3.2050 -11.0353 -5.2853 11.3585 39.1732
#
#
#
# Elastic Compliance Matrix: (Units=1/GPa)
#
#
# Indices 1 2 3 4 5 6 
#
# 1 0.024995 -0.020373 0.007312 -0.011420 0.030884 -0.009495
# 2 -0.020373 0.042100 -0.007541 -0.001045 -0.027435 0.004467
# 3 0.007312 -0.007541 0.018007 -0.024998 0.021049 -0.004584
# 4 -0.011420 -0.001045 -0.024998 0.075278 -0.026153 0.012029
# 5 0.030884 -0.027435 0.021049 -0.026153 0.087790 -0.024178
# 6 -0.009495 0.004467 -0.004584 0.012029 -0.024178 0.033540
#
#
# Mechanical properties :
#
#
# Convention : Reuss Voigt Hill
#
# Bulk Modulus (GPa) = 22.78069 52.10871 37.44470
# Shear Modulus (GPa) = 14.81275 33.37398 24.09337
#
# Velocity S-wave (km/s) = 2.64673 3.97280 3.37552
# Velocity P-wave (km/s) = 4.48482 6.75923 5.73589
#
# Compressibility (1/GPa) = 0.04389684
#
# Stress axis : x y z
#
# Youngs Moduli (GPa) = 40.00745 23.75310 55.53547
#
# Poissons Ratio (x) = 0.48392 -0.40606
# Poissons Ratio (y) = 0.81507 0.41879
# Poissons Ratio (z) = -0.29252 0.17912
#
# Static dielectric constant tensor:
#      x y z
#    x 1.754690 -0.003450 -0.053020 
#    y -0.003450 1.855560 -0.005110 
#    z -0.053020 -0.005110 1.810740 
# 
# From -- ./inp_files/207682.got.cif
#   From: 2010.05.17/outbox.cif.g08.bks.cpg/sg2_104_cif.got.tgz:207682.got - 2010.06.03 11:33:40.
