data_PCOD9107238
_publ_section_title
;
Structure prediction by ZEFSAII (Michael W. Deem and Ramdas Pophale) SiO2 
 PCOD9107238
Probable space group: P -1
;
_chemical_formula_sum "Si O2"
_cell_formula_units_Z 16
_cell_length_a 5.532257
_cell_length_b 25.154186
_cell_length_c 5.346353
_cell_angle_alpha 123.552119
_cell_angle_beta 82.643585
_cell_angle_gamma 87.606787
_cell_volume 609.204372
_symmetry_space_group_name_H-M "P -1"
_symmetry_group_IT_number 2
_symmetry_cell_setting 'triclinic'
loop_
_space_group_symop_operation_xyz
x,y,z
-x,-y,-z
loop_
_atom_site_type_symbol
_atom_site_label
_atom_site_fract_x
_atom_site_fract_y
_atom_site_fract_z
Si Si1 0.771367 0.020445 0.267595
Si Si2 0.210719 0.215522 0.237508
Si Si3 0.276649 0.458266 0.377141
Si Si4 0.380142 0.102360 0.180665
Si Si5 0.587791 0.267824 0.040161
Si Si6 0.204066 0.682359 0.337712
Si Si7 0.931981 0.137019 0.713715
Si Si8 0.880914 0.573968 0.184889
O O1 0.581576 0.068183 0.252014
O O2 0.843886 0.067755 0.595608
O O3 0.662069 0.954370 0.156959
O O4 0.000000 0.000000 0.000000
O O5 0.428143 0.169472 0.226301
O O6 0.040720 0.266685 0.554549
O O7 0.312815 0.255488 0.105993
O O8 0.050059 0.164825 0.011996
O O9 0.500000 0.500000 0.500000
O O10 0.256349 0.412610 0.499237
O O11 0.000000 0.500000 0.500000
O O12 0.303193 0.422652 0.015230
O O13 0.139229 0.123196 0.436721
O O14 0.627477 0.309115 0.899757
O O15 0.732228 0.195418 0.800576
O O16 0.687375 0.297165 0.359104
O O17 0.096790 0.615773 0.212250
O O18 0.000000 0.500000 0.000000
#
# Coordination Sequence:
#
# PCOD9107238 Si02
#       8
#     2   2   2   2   2   2   2   2
#     4   9  20  36  64  95 130 174 221 288 351 421
#     4  11  25  41  69  98 130 187 232 290 352 426
#     4  10  21  42  72 107 147 193 241 290 366 441
#     4  10  20  40  63  93 133 170 232 281 354 423
#     4  11  25  42  72 100 141 187 237 293 355 419
#     4  11  25  48  68 106 143 182 244 294 352 429
#     4  10  21  40  63  91 135 174 228 284 355 412
#     4  10  22  45  73 102 146 188 237 297 366 432
#
# _framework density 26.263767999999999
#
# number of rings (size 3 to 8) (size 9 to 14) (size 15 to 20)
#    0.000    1.750    1.250    1.875    3.500    1.500 
#   13.500    8.750    0.000    0.000    0.000    0.000 
#    0.000    0.000    0.000    0.000    0.000    0.000 
#
# Total GULP energy -89636.587495 kJ/mol
# GULP energy per Si atom -5602.286718 kJ/mol
# Density = 2.620399 g / cm^3
# Si number density = 26.263768 Si / 1000 Ang^3
#
#
#
# Elastic Constant Matrix: (Units=GPa)
#
#
# Indices 1 2 3 4 5 6 
#
# 1 91.8376 35.1755 30.8235 1.4071 -0.9302 10.0634
# 2 35.1755 167.5161 53.5452 -0.8382 -7.3786 9.7624
# 3 30.8235 53.5452 112.1126 -2.4259 9.4520 1.0906
# 4 1.4071 -0.8382 -2.4259 55.5091 6.0744 -1.0842
# 5 -0.9302 -7.3786 9.4520 6.0744 40.2013 -0.8275
# 6 10.0634 9.7624 1.0906 -1.0842 -0.8275 41.1655
#
#
#
# Elastic Compliance Matrix: (Units=1/GPa)
#
#
# Indices 1 2 3 4 5 6 
#
# 1 0.012745 -0.001604 -0.002783 -0.000596 0.000690 -0.002663
# 2 -0.001604 0.007539 -0.003333 -0.000250 0.002142 -0.001271
# 3 -0.002783 -0.003333 0.011583 0.000933 -0.003517 0.001118
# 4 -0.000596 -0.000250 0.000933 0.018413 -0.003049 0.000604
# 5 0.000690 0.002142 -0.003517 -0.003049 0.026569 -0.000130
# 6 -0.002663 -0.001271 0.001118 0.000604 -0.000130 0.025228
#
#
# Mechanical properties :
#
#
# Convention : Reuss Voigt Hill
#
# Bulk Modulus (GPa) = 60.87945 67.83941 64.35943
# Shear Modulus (GPa) = 40.65263 44.16998 42.41130
#
# Velocity S-wave (km/s) = 3.93855 4.10540 4.02284
# Velocity P-wave (km/s) = 6.62671 6.95403 6.79234
#
# Compressibility (1/GPa) = 0.01642591
#
# Stress axis : x y z
#
# Youngs Moduli (GPa) = 78.46043 132.64326 86.33600
#
# Poissons Ratio (x) = 0.21276 0.24029
# Poissons Ratio (y) = 0.12585 0.28778
# Poissons Ratio (z) = 0.21837 0.44214
#
# Static dielectric constant tensor:
#      x y z
#    x 2.004280 -0.003710 0.121260 
#    y -0.003710 2.038680 -0.035390 
#    z 0.121260 -0.035390 1.933900 
# 
# From -- ./inp_files/14777.got.cif
#   From: 2010.05.17/outbox.cif.g08.bks.cpg/sg2_8_cif.got.tgz:14777.got - 2010.06.03 11:33:40.
