data_PCOD9107669
_publ_section_title
;
Structure prediction by ZEFSAII (Michael W. Deem and Ramdas Pophale) SiO2 
 PCOD9107669
Probable space group: P -1
;
_chemical_formula_sum "Si O2"
_cell_formula_units_Z 16
_cell_length_a 28.510063
_cell_length_b 18.222788
_cell_length_c 15.711483
_cell_angle_alpha 159.464669
_cell_angle_beta 161.724439
_cell_angle_gamma 19.016340
_cell_volume 771.848767
_symmetry_space_group_name_H-M "P -1"
_symmetry_group_IT_number 2
_symmetry_cell_setting 'triclinic'
loop_
_space_group_symop_operation_xyz
x,y,z
-x,-y,-z
loop_
_atom_site_type_symbol
_atom_site_label
_atom_site_fract_x
_atom_site_fract_y
_atom_site_fract_z
Si Si1 0.358247 0.211570 0.111075
Si Si2 0.488280 0.205812 0.942765
Si Si3 0.436134 0.313815 0.700219
Si Si4 0.830822 0.545949 0.456090
Si Si5 0.722170 0.951831 0.919638
Si Si6 0.113853 0.022863 0.411715
Si Si7 0.956113 0.255163 0.864046
Si Si8 0.594636 0.366366 0.604185
O O1 0.220141 0.498903 0.199031
O O2 0.514048 0.205406 0.320988
O O3 0.440724 0.039352 0.147339
O O4 0.251570 0.105665 0.764216
O O5 0.302605 0.297956 0.678192
O O6 0.636237 0.138915 0.052435
O O7 0.451730 0.427725 0.181990
O O8 0.294726 0.422167 0.647989
O O9 0.611410 0.080650 0.783543
O O10 0.338542 0.247305 0.387605
O O11 0.500000 0.500000 0.000000
O O12 0.953819 0.256182 0.345079
O O13 0.947366 0.654924 0.806927
O O14 0.918319 0.851943 0.118940
O O15 0.072550 0.931320 0.330241
O O16 0.206294 0.803039 0.265296
O O17 0.500000 0.500000 0.500000
#
# Coordination Sequence:
#
# PCOD9107669 Si02
#       8
#     2   2   2   2   2   2   2   2
#     4  11  23  41  65  89 117 161 209 254 303 365
#     4  11  24  40  60  95 128 161 198 252 310 357
#     4   9  16  33  59  84 122 170 198 233 296 365
#     4   9  22  37  59  95 126 153 200 251 304 361
#     4   9  20  35  56  91 128 157 198 245 296 363
#     4  11  22  41  68  89 117 163 211 253 299 360
#     4  10  20  40  65  91 121 164 202 242 302 368
#     4  12  24  43  67  87 114 165 214 251 308 364
#
# _framework density 20.72945
#
# number of rings (size 3 to 8) (size 9 to 14) (size 15 to 20)
#    0.000    1.750    2.500    1.875    0.000    4.000 
#    0.000    3.750    0.000    0.000    0.000    0.000 
#    0.000    0.000    0.000    0.000    0.000    0.000 
#
# Total GULP energy -89197.125284 kJ/mol
# GULP energy per Si atom -5574.820330 kJ/mol
# Density = 2.068227 g / cm^3
# Si number density = 20.729450 Si / 1000 Ang^3
#
#
#
# Elastic Constant Matrix: (Units=GPa)
#
#
# Indices 1 2 3 4 5 6 
#
# 1 87.3183 46.6471 34.9865 2.9692 -1.0466 -11.3625
# 2 46.6471 136.4169 6.3041 -11.9543 -7.7588 -8.5756
# 3 34.9865 6.3041 55.7105 6.3574 4.0142 4.9703
# 4 2.9692 -11.9543 6.3574 20.8753 1.5346 -6.1226
# 5 -1.0466 -7.7588 4.0142 1.5346 33.0704 6.3716
# 6 -11.3625 -8.5756 4.9703 -6.1226 6.3716 37.1334
#
#
#
# Elastic Compliance Matrix: (Units=1/GPa)
#
#
# Indices 1 2 3 4 5 6 
#
# 1 0.020769 -0.006172 -0.012833 -0.000600 -0.000483 0.006631
# 2 -0.006172 0.010048 0.001834 0.006249 0.001463 0.000966
# 3 -0.012833 0.001834 0.027528 -0.007825 -0.001366 -0.008244
# 4 -0.000600 0.006249 -0.007825 0.057748 -0.002649 0.012283
# 5 -0.000483 0.001463 -0.001366 -0.002649 0.031923 -0.005541
# 6 0.006631 0.000966 -0.008244 0.012283 -0.005541 0.033262
#
#
# Mechanical properties :
#
#
# Convention : Reuss Voigt Hill
#
# Bulk Modulus (GPa) = 41.65985 50.59123 46.12554
# Shear Modulus (GPa) = 22.35939 30.98300 26.67120
#
# Velocity S-wave (km/s) = 3.28781 3.87025 3.59086
# Velocity P-wave (km/s) = 5.87822 6.66560 6.28426
#
# Compressibility (1/GPa) = 0.02400393
#
# Stress axis : x y z
#
# Youngs Moduli (GPa) = 48.14873 99.52546 36.32612
#
# Poissons Ratio (x) = 0.61427 0.46617
# Poissons Ratio (y) = 0.29717 -0.06664
# Poissons Ratio (z) = 0.61789 -0.18257
#
# Static dielectric constant tensor:
#      x y z
#    x 1.752300 -0.000330 0.024770 
#    y -0.000330 1.840090 0.071560 
#    z 0.024770 0.071560 1.817250 
# 
# From -- ./inp_files/544357.got.cif
#   From: 2010.05.17/outbox.cif.g08.bks.cpg/sg2_273_cif.got.tgz:544357.got - 2010.06.03 11:33:40.
