data_PCOD9107066
_publ_section_title
;
Structure prediction by ZEFSAII (Michael W. Deem and Ramdas Pophale) SiO2 
 PCOD9107066
Probable space group: P -1
;
_chemical_formula_sum "Si O2"
_cell_formula_units_Z 13
_cell_length_a 25.573166
_cell_length_b 9.469299
_cell_length_c 5.099018
_cell_angle_alpha 70.831648
_cell_angle_beta 110.883951
_cell_angle_gamma 156.119749
_cell_volume 467.022146
_symmetry_space_group_name_H-M "P -1"
_symmetry_group_IT_number 2
_symmetry_cell_setting 'triclinic'
loop_
_space_group_symop_operation_xyz
x,y,z
-x,-y,-z
loop_
_atom_site_type_symbol
_atom_site_label
_atom_site_fract_x
_atom_site_fract_y
_atom_site_fract_z
Si Si1 0.197183 0.895698 0.152104
Si Si2 0.676670 0.223329 0.941854
Si Si3 0.194313 0.116873 0.651304
Si Si4 0.412401 0.172245 0.379692
Si Si5 0.000000 0.500000 0.500000
Si Si6 0.398227 0.618873 0.283369
Si Si7 0.151191 0.327923 0.556820
O O1 0.092605 0.639975 0.344268
O O2 0.277372 0.939027 0.264680
O O3 0.301415 0.285440 0.131874
O O4 0.138785 0.815327 0.818478
O O5 0.605265 0.211344 0.863478
O O6 0.774919 0.479364 0.709224
O O7 0.578935 0.856401 0.895091
O O8 0.766756 0.392547 0.239987
O O9 0.332161 0.440967 0.560419
O O10 0.171002 0.201161 0.736503
O O11 0.086472 0.869253 0.379642
O O12 0.500000 0.500000 0.500000
O O13 0.465765 0.141493 0.611892
O O14 0.000000 0.000000 0.500000
#
# Coordination Sequence:
#
# PCOD9107066 Si02
#       7
#     2   2   2   2   1   2   2
#     4  10  20  40  62  95 133 176 231 279 355 405
#     4  11  23  47  70 102 140 188 234 288 363 413
#     4  10  21  39  63  93 130 182 231 282 354 409
#     4  10  23  43  68 103 141 180 241 291 343 422
#     4  10  22  36  64  90 136 180 222 290 348 422
#     4   9  20  42  65  93 135 181 230 284 346 415
#     4  11  25  44  71 101 140 183 242 292 346 427
#
# _framework density 27.835939
#
# number of rings (size 3 to 8) (size 9 to 14) (size 15 to 20)
#    0.000    1.846    1.538    1.385    2.154    1.846 
#   11.077    2.308    0.000    0.000    0.000    0.000 
#    0.000    0.000    0.000    0.000    0.000    0.000 
#
# Total GULP energy -72443.977454 kJ/mol
# GULP energy per Si atom -5572.613650 kJ/mol
# Density = 2.777258 g / cm^3
# Si number density = 27.835939 Si / 1000 Ang^3
#
#
#
# Elastic Constant Matrix: (Units=GPa)
#
#
# Indices 1 2 3 4 5 6 
#
# 1 217.8843 63.3695 84.9854 1.5572 34.2952 3.8193
# 2 63.3695 94.3991 45.5793 20.7340 6.3642 4.9668
# 3 84.9854 45.5793 147.9930 -11.4993 6.2289 8.8068
# 4 1.5572 20.7340 -11.4993 52.2789 1.2079 -5.5372
# 5 34.2952 6.3642 6.2289 1.2079 42.9197 7.3262
# 6 3.8193 4.9668 8.8068 -5.5372 7.3262 63.8159
#
#
#
# Elastic Compliance Matrix: (Units=1/GPa)
#
#
# Indices 1 2 3 4 5 6 
#
# 1 0.007612 -0.003463 -0.003082 0.000687 -0.005295 0.000907
# 2 -0.003463 0.016211 -0.003545 -0.007279 0.001313 -0.001348
# 3 -0.003082 -0.003545 0.009874 0.003551 0.001588 -0.000777
# 4 0.000687 -0.007279 0.003551 0.023026 -0.001000 0.002148
# 5 -0.005295 0.001313 0.001588 -0.001000 0.027692 -0.003270
# 6 0.000907 -0.001348 -0.000777 0.002148 -0.003270 0.016390
#
#
# Mechanical properties :
#
#
# Convention : Reuss Voigt Hill
#
# Bulk Modulus (GPa) = 73.98284 94.23831 84.11058
# Shear Modulus (GPa) = 39.84408 49.55905 44.70157
#
# Velocity S-wave (km/s) = 3.78748 4.22405 4.01171
# Velocity P-wave (km/s) = 6.76480 7.59727 7.19309
#
# Compressibility (1/GPa) = 0.01351665
#
# Stress axis : x y z
#
# Youngs Moduli (GPa) = 131.37660 61.68775 101.27707
#
# Poissons Ratio (x) = 0.21364 0.31215
# Poissons Ratio (y) = 0.45498 0.35898
# Poissons Ratio (z) = 0.40492 0.21865
#
# Static dielectric constant tensor:
#      x y z
#    x 2.112400 -0.176820 0.125730 
#    y -0.176820 2.596450 0.401020 
#    z 0.125730 0.401020 4.159560 
# 
# From -- ./inp_files/60042.got.cif
#   From: 2010.05.17/outbox.cif.g08.bks.cpg/sg2_31_cif.got.tgz:60042.got - 2010.06.03 11:33:40.
