data_PCOD9107526
_publ_section_title
;
Structure prediction by ZEFSAII (Michael W. Deem and Ramdas Pophale) SiO2 
 PCOD9107526
Probable space group: P -1
;
_chemical_formula_sum "Si O2"
_cell_formula_units_Z 16
_cell_length_a 16.024693
_cell_length_b 5.739480
_cell_length_c 11.449499
_cell_angle_alpha 120.339567
_cell_angle_beta 61.087933
_cell_angle_gamma 85.813627
_cell_volume 722.030706
_symmetry_space_group_name_H-M "P -1"
_symmetry_group_IT_number 2
_symmetry_cell_setting 'triclinic'
loop_
_space_group_symop_operation_xyz
x,y,z
-x,-y,-z
loop_
_atom_site_type_symbol
_atom_site_label
_atom_site_fract_x
_atom_site_fract_y
_atom_site_fract_z
Si Si1 0.351304 0.821931 0.700565
Si Si2 0.723665 0.690671 0.744613
Si Si3 0.237181 0.439496 0.050568
Si Si4 0.995407 0.141242 0.668869
Si Si5 0.068610 0.526213 0.570079
Si Si6 0.624751 0.280325 0.616606
Si Si7 0.426664 0.644391 0.974651
Si Si8 0.433854 0.197517 0.487506
O O1 0.345552 0.778607 0.554179
O O2 0.352137 0.515771 0.668943
O O3 0.468463 0.791581 0.645182
O O4 0.269685 0.137186 0.879060
O O5 0.770167 0.643116 0.830700
O O6 0.811061 0.684845 0.593925
O O7 0.694726 0.416998 0.666846
O O8 0.622943 0.001761 0.892446
O O9 0.124175 0.697272 0.164685
O O10 0.331114 0.545768 0.005962
O O11 0.035711 0.397638 0.675350
O O12 0.000000 0.000000 0.500000
O O13 0.054820 0.868029 0.649157
O O14 0.000000 0.500000 0.500000
O O15 0.505470 0.514503 0.780867
O O16 0.624236 0.972170 0.582984
O O17 0.500000 0.500000 0.000000
O O18 0.500000 0.000000 0.500000
#
# Coordination Sequence:
#
# PCOD9107526 Si02
#       8
#     2   2   2   2   2   2   2   2
#     4  10  23  38  60  85 123 170 213 259 305 379
#     4  12  26  37  64  94 125 170 212 265 329 392
#     4  12  24  38  65  96 121 165 218 265 328 383
#     4  10  20  40  64  97 125 159 207 287 332 381
#     4  10  20  41  64  93 127 161 214 272 338 384
#     4  11  24  40  56  88 132 172 205 253 317 378
#     4  12  26  37  58  94 138 168 210 265 312 387
#     4   9  20  38  57  77 117 173 212 247 296 365
#
# _framework density 22.159724000000001
#
# number of rings (size 3 to 8) (size 9 to 14) (size 15 to 20)
#    0.000    1.250    5.000    1.875    7.000    0.000 
#    0.000    0.000    0.000    1.500    0.000    0.000 
#    0.000    0.000    0.000    0.000    0.000    0.000 
#
# Total GULP energy -89338.594269 kJ/mol
# GULP energy per Si atom -5583.662142 kJ/mol
# Density = 2.210929 g / cm^3
# Si number density = 22.159724 Si / 1000 Ang^3
#
#
#
# Elastic Constant Matrix: (Units=GPa)
#
#
# Indices 1 2 3 4 5 6 
#
# 1 31.6234 16.5929 46.9755 7.3018 -0.1145 9.5584
# 2 16.5929 101.5924 28.2678 15.3138 8.1767 6.0426
# 3 46.9755 28.2678 132.9211 22.2212 -1.4976 6.1922
# 4 7.3018 15.3138 22.2212 43.4461 4.7958 4.5640
# 5 -0.1145 8.1767 -1.4976 4.7958 34.4176 -4.2314
# 6 9.5584 6.0426 6.1922 4.5640 -4.2314 29.4924
#
#
#
# Elastic Compliance Matrix: (Units=1/GPa)
#
#
# Indices 1 2 3 4 5 6 
#
# 1 0.078715 -0.004688 -0.026670 0.004488 -0.002877 -0.020059
# 2 -0.004688 0.011336 -0.000296 -0.002719 -0.002425 -0.000668
# 3 -0.026670 -0.000296 0.017642 -0.005330 0.002248 0.006148
# 4 0.004488 -0.002719 -0.005330 0.026845 -0.003863 -0.004487
# 5 -0.002877 -0.002425 0.002248 -0.003863 0.030996 0.006002
# 6 -0.020059 -0.000668 0.006148 -0.004487 0.006002 0.040810
#
#
# Mechanical properties :
#
#
# Convention : Reuss Voigt Hill
#
# Bulk Modulus (GPa) = 22.52969 49.97882 36.25426
# Shear Modulus (GPa) = 17.57805 33.09125 25.33465
#
# Velocity S-wave (km/s) = 2.81951 3.86852 3.38490
# Velocity P-wave (km/s) = 4.55945 6.52356 5.62785
#
# Compressibility (1/GPa) = 0.04438587
#
# Stress axis : x y z
#
# Youngs Moduli (GPa) = 12.70401 88.21520 56.68391
#
# Poissons Ratio (x) = 0.41351 1.51177
# Poissons Ratio (y) = 0.05955 0.01677
# Poissons Ratio (z) = 0.33882 0.02610
#
# Static dielectric constant tensor:
#      x y z
#    x 1.810030 0.026570 0.009900 
#    y 0.026570 1.997830 -0.016990 
#    z 0.009900 -0.016990 1.817510 
# 
# From -- ./inp_files/459600.got.cif
#   From: 2010.05.17/outbox.cif.g08.bks.cpg/sg2_230_cif.got.tgz:459600.got - 2010.06.03 11:33:40.
