data_PCOD9107927
_publ_section_title
;
Structure prediction by ZEFSAII (Michael W. Deem and Ramdas Pophale) SiO2 
 PCOD9107927
Probable space group: P -1
;
_chemical_formula_sum "Si O2"
_cell_formula_units_Z 14
_cell_length_a 7.971749
_cell_length_b 16.940198
_cell_length_c 9.553000
_cell_angle_alpha 54.486023
_cell_angle_beta 31.241657
_cell_angle_gamma 65.467533
_cell_volume 534.388982
_symmetry_space_group_name_H-M "P -1"
_symmetry_group_IT_number 2
_symmetry_cell_setting 'triclinic'
loop_
_space_group_symop_operation_xyz
x,y,z
-x,-y,-z
loop_
_atom_site_type_symbol
_atom_site_label
_atom_site_fract_x
_atom_site_fract_y
_atom_site_fract_z
Si Si1 0.412071 0.714711 0.141436
Si Si2 0.814774 0.068392 0.415814
Si Si3 0.144913 0.960229 0.079444
Si Si4 0.472388 0.630179 0.680395
Si Si5 0.805905 0.503220 0.386707
Si Si6 0.479692 0.204196 0.305983
Si Si7 0.830380 0.232410 0.456661
O O1 0.215268 0.605317 0.425105
O O2 0.364103 0.776590 0.250124
O O3 0.330509 0.764268 0.005263
O O4 0.796353 0.708312 0.856804
O O5 0.672136 0.138165 0.333123
O O6 0.869167 0.133653 0.448884
O O7 0.105718 0.032407 0.162988
O O8 0.528662 0.974782 0.754099
O O9 0.877660 0.861789 0.400923
O O10 0.000000 0.000000 0.000000
O O11 0.751523 0.579176 0.468709
O O12 0.554536 0.696774 0.690060
O O13 0.370348 0.704950 0.562253
O O14 0.151687 0.545847 0.023823
O O15 0.500000 0.500000 0.500000
#
# Coordination Sequence:
#
# PCOD9107927 Si02
#       7
#     2   2   2   2   2   2   2
#     4  12  25  39  62  92 130 158 196 266 308 350
#     4  10  22  41  69  89 118 166 213 243 291 375
#     4  10  20  40  66  91 121 163 204 249 298 368
#     4  11  23  41  66  88 118 166 210 249 288 380
#     4  12  22  40  67  90 119 161 214 244 302 361
#     4  10  25  41  62  95 127 156 202 256 315 347
#     4  11  22  41  62  92 121 164 210 245 302 364
#
# _framework density 26.198143999999999
#
# number of rings (size 3 to 8) (size 9 to 14) (size 15 to 20)
#    0.000    1.143    2.857    3.857    0.000   12.571 
#    0.000    4.286    0.000    0.000    0.000    0.000 
#    0.000    0.000    0.000    0.000    0.000    0.000 
#
# Total GULP energy -78575.787205 kJ/mol
# GULP energy per Si atom -5612.556229 kJ/mol
# Density = 2.613852 g / cm^3
# Si number density = 26.198144 Si / 1000 Ang^3
#
#
#
# Elastic Constant Matrix: (Units=GPa)
#
#
# Indices 1 2 3 4 5 6 
#
# 1 66.4972 50.6949 46.6746 -4.1802 31.4426 4.2056
# 2 50.6949 97.4264 36.3350 5.6915 24.4269 24.0906
# 3 46.6746 36.3350 149.1909 10.5675 34.5469 4.2753
# 4 -4.1802 5.6915 10.5675 61.5960 1.0377 6.0500
# 5 31.4426 24.4269 34.5469 1.0377 45.7569 6.1425
# 6 4.2056 24.0906 4.2753 6.0500 6.1425 38.9991
#
#
#
# Elastic Compliance Matrix: (Units=1/GPa)
#
#
# Indices 1 2 3 4 5 6 
#
# 1 0.037654 -0.016372 -0.004958 0.004357 -0.014593 0.008219
# 2 -0.016372 0.021327 0.000076 -0.002006 0.001372 -0.011322
# 3 -0.004958 0.000076 0.009187 -0.001892 -0.003573 0.000337
# 4 0.004357 -0.002006 -0.001892 0.017208 -0.000672 -0.001587
# 5 -0.014593 0.001372 -0.003573 -0.000672 0.034427 -0.004200
# 6 0.008219 -0.011322 0.000337 -0.001587 -0.004200 0.032620
#
#
# Mechanical properties :
#
#
# Convention : Reuss Voigt Hill
#
# Bulk Modulus (GPa) = 38.96791 64.50260 51.73526
# Shear Modulus (GPa) = 24.57224 41.23107 32.90166
#
# Velocity S-wave (km/s) = 3.06590 3.97144 3.54768
# Velocity P-wave (km/s) = 5.23828 6.76049 6.04747
#
# Compressibility (1/GPa) = 0.02566214
#
# Stress axis : x y z
#
# Youngs Moduli (GPa) = 26.55792 46.88846 108.85113
#
# Poissons Ratio (x) = 0.76764 0.53964
# Poissons Ratio (y) = 0.43480 -0.00832
# Poissons Ratio (z) = 0.13166 -0.00359
#
# Static dielectric constant tensor:
#      x y z
#    x 2.090880 -0.002610 0.009360 
#    y -0.002610 2.062470 -0.022870 
#    z 0.009360 -0.022870 1.949940 
# 
# From -- ./inp_files/216931.got.cif
#   From: 2010.05.17/outbox.cif.g08.bks.cpg/sg2_109_cif.got.tgz:216931.got - 2010.06.03 11:33:40.
