data_PCOD9107763
_publ_section_title
;
Structure prediction by ZEFSAII (Michael W. Deem and Ramdas Pophale) SiO2 
 PCOD9107763
Probable space group: P -1
;
_chemical_formula_sum "Si O2"
_cell_formula_units_Z 12
_cell_length_a 23.196964
_cell_length_b 8.511540
_cell_length_c 13.374538
_cell_angle_alpha 140.368618
_cell_angle_beta 22.478784
_cell_angle_gamma 148.630970
_cell_volume 523.220846
_symmetry_space_group_name_H-M "P -1"
_symmetry_group_IT_number 2
_symmetry_cell_setting 'triclinic'
loop_
_space_group_symop_operation_xyz
x,y,z
-x,-y,-z
loop_
_atom_site_type_symbol
_atom_site_label
_atom_site_fract_x
_atom_site_fract_y
_atom_site_fract_z
Si Si1 0.032367 0.125250 0.279588
Si Si2 0.395244 0.651118 0.466567
Si Si3 0.117932 0.407693 0.601937
Si Si4 0.446833 0.615365 0.049942
Si Si5 0.939648 0.753186 0.062192
Si Si6 0.692371 0.170628 0.836990
O O1 0.198482 0.474802 0.175109
O O2 0.847912 0.109475 0.538535
O O3 0.990926 0.940669 0.358227
O O4 0.055126 0.943611 0.068582
O O5 0.255360 0.575638 0.560392
O O6 0.272458 0.445307 0.656980
O O7 0.500000 0.000000 0.500000
O O8 0.518222 0.538164 0.173988
O O9 0.242060 0.507980 0.352459
O O10 0.987705 0.516859 0.847664
O O11 0.500000 0.500000 0.000000
O O12 0.595264 0.980289 0.999244
O O13 0.000000 0.000000 0.000000
O O14 0.500000 0.000000 0.000000
#
# Coordination Sequence:
#
# PCOD9107763 Si02
#       6
#     2   2   2   2   2   2
#     4  10  22  46  64  94 139 176 216 278 333 398
#     4  10  21  41  65  94 131 171 213 269 329 398
#     4  10  22  44  68  90 132 175 220 272 336 394
#     4  10  20  40  65  95 128 168 220 268 325 397
#     4  11  24  43  64  95 131 172 222 274 338 394
#     4  11  23  39  69  97 132 172 223 271 335 391
#
# _framework density 22.934864000000001
#
# number of rings (size 3 to 8) (size 9 to 14) (size 15 to 20)
#    0.000    1.667    5.000    2.000    2.333    5.333 
#    0.000    3.333    0.000    0.000    0.000    0.000 
#    0.000    0.000    0.000    0.000    0.000    0.000 
#
# Total GULP energy -66913.555221 kJ/mol
# GULP energy per Si atom -5576.129602 kJ/mol
# Density = 2.288266 g / cm^3
# Si number density = 22.934864 Si / 1000 Ang^3
#
#
#
# Elastic Constant Matrix: (Units=GPa)
#
#
# Indices 1 2 3 4 5 6 
#
# 1 40.4760 27.9210 35.3286 -14.5021 -1.2743 -12.3170
# 2 27.9210 211.2678 90.8679 -39.8525 10.0577 -11.3307
# 3 35.3286 90.8679 167.9863 -4.9861 25.6573 -13.0555
# 4 -14.5021 -39.8525 -4.9861 49.4503 -11.9468 -1.6710
# 5 -1.2743 10.0577 25.6573 -11.9468 34.4791 -1.7260
# 6 -12.3170 -11.3307 -13.0555 -1.6710 -1.7260 39.0032
#
#
#
# Elastic Compliance Matrix: (Units=1/GPa)
#
#
# Indices 1 2 3 4 5 6 
#
# 1 0.043756 0.002454 -0.011546 0.018004 0.016340 0.012161
# 2 0.002454 0.007960 -0.005108 0.007733 0.004345 0.001901
# 3 -0.011546 -0.005108 0.012482 -0.009076 -0.011462 -0.001848
# 4 0.018004 0.007733 -0.009076 0.035357 0.017774 0.007196
# 5 0.016340 0.004345 -0.011462 0.017774 0.043291 0.005263
# 6 0.012161 0.001901 -0.001848 0.007196 0.005263 0.029954
#
#
# Mechanical properties :
#
#
# Convention : Reuss Voigt Hill
#
# Bulk Modulus (GPa) = 27.93469 80.88502 54.40985
# Shear Modulus (GPa) = 23.45958 42.29403 32.87680
#
# Velocity S-wave (km/s) = 3.20172 4.29895 3.79025
# Velocity P-wave (km/s) = 5.08669 7.74501 6.55208
#
# Compressibility (1/GPa) = 0.03579779
#
# Stress axis : x y z
#
# Youngs Moduli (GPa) = 22.85383 125.62848 80.11761
#
# Poissons Ratio (x) = -0.30823 0.92501
# Poissons Ratio (y) = -0.05607 0.40924
# Poissons Ratio (z) = 0.26386 0.64171
#
# Static dielectric constant tensor:
#      x y z
#    x 1.923620 -0.012850 -0.055480 
#    y -0.012850 1.889490 0.015180 
#    z -0.055480 0.015180 1.980140 
# 
# From -- ./inp_files/543791.got.cif
#   From: 2010.05.17/outbox.cif.g08.bks.cpg/sg2_272_cif.got.tgz:543791.got - 2010.06.03 11:33:40.
