data_PCOD9107230
_publ_section_title
;
Structure prediction by ZEFSAII (Michael W. Deem and Ramdas Pophale) SiO2 
 PCOD9107230
Probable space group: P -1
;
_chemical_formula_sum "Si O2"
_cell_formula_units_Z 15
_cell_length_a 11.187487
_cell_length_b 16.898761
_cell_length_c 14.542678
_cell_angle_alpha 154.094331
_cell_angle_beta 28.704600
_cell_angle_gamma 149.025217
_cell_volume 545.382467
_symmetry_space_group_name_H-M "P -1"
_symmetry_group_IT_number 2
_symmetry_cell_setting 'triclinic'
loop_
_space_group_symop_operation_xyz
x,y,z
-x,-y,-z
loop_
_atom_site_type_symbol
_atom_site_label
_atom_site_fract_x
_atom_site_fract_y
_atom_site_fract_z
Si Si1 0.270723 0.351875 0.441737
Si Si2 0.867043 0.191688 0.693689
Si Si3 0.180279 0.138931 0.909170
Si Si4 0.500000 0.000000 0.000000
Si Si5 0.621079 0.002099 0.087197
Si Si6 0.060784 0.222369 0.791475
Si Si7 0.487496 0.644779 0.239443
Si Si8 0.939552 0.696399 0.666138
O O1 0.500000 0.500000 0.500000
O O2 0.003298 0.307585 0.634207
O O3 0.215676 0.392884 0.415974
O O4 0.335018 0.145239 0.176667
O O5 0.553184 0.133462 0.860100
O O6 0.009410 0.285444 0.789895
O O7 0.891680 0.981654 0.451704
O O8 0.364772 0.165018 0.723460
O O9 0.091342 0.919512 0.770842
O O10 0.240867 0.283218 0.105131
O O11 0.892986 0.148186 0.083713
O O12 0.557553 0.917616 0.772094
O O13 0.791035 0.182197 0.987104
O O14 0.319335 0.354466 0.806592
O O15 0.191302 0.630337 0.448065
O O16 0.500000 0.500000 0.000000
#
# Coordination Sequence:
#
# PCOD9107230 Si02
#       8
#     2   2   2   1   2   2   2   2
#     4  11  24  42  60  89 130 167 208 258 319 383
#     4  10  21  38  65  95 117 161 215 275 305 364
#     4  10  21  43  68  92 123 170 222 264 309 382
#     4  10  16  34  64  86 118 150 202 266 298 356
#     4  10  20  36  64  92 118 158 214 261 310 366
#     4  10  20  38  62  96 123 160 214 261 319 372
#     4  12  25  41  62  98 140 167 202 266 333 395
#     4  10  24  42  66  92 120 178 221 261 311 381
#
# _framework density 27.503636
#
# number of rings (size 3 to 8) (size 9 to 14) (size 15 to 20)
#    0.000    1.600    2.667    2.000    0.000    7.467 
#    0.000    0.000    0.000    0.000    0.000    0.000 
#    0.000    0.000    0.000    0.000    0.000    0.000 
#
# Total GULP energy -83721.666475 kJ/mol
# GULP energy per Si atom -5581.444432 kJ/mol
# Density = 2.744104 g / cm^3
# Si number density = 27.503636 Si / 1000 Ang^3
#
#
#
# Elastic Constant Matrix: (Units=GPa)
#
#
# Indices 1 2 3 4 5 6 
#
# 1 125.7426 33.1565 40.1118 -8.6458 18.2198 49.5300
# 2 33.1565 96.6985 32.7916 -16.5375 17.4043 25.9603
# 3 40.1118 32.7916 92.4173 -27.6704 23.1776 10.5730
# 4 -8.6458 -16.5375 -27.6704 60.9244 -9.0580 7.3434
# 5 18.2198 17.4043 23.1776 -9.0580 44.3958 3.3430
# 6 49.5300 25.9603 10.5730 7.3434 3.3430 52.4514
#
#
#
# Elastic Compliance Matrix: (Units=1/GPa)
#
#
# Indices 1 2 3 4 5 6 
#
# 1 0.014995 0.000727 -0.003907 0.001766 -0.003000 -0.013788
# 2 0.000727 0.014101 -0.002750 0.003090 -0.003208 -0.007340
# 3 -0.003907 -0.002750 0.016058 0.005115 -0.004764 0.001401
# 4 0.001766 0.003090 0.005115 0.020710 0.000156 -0.007138
# 5 -0.003000 -0.003208 -0.004764 0.000156 0.027260 0.003622
# 6 -0.013788 -0.007340 0.001401 -0.007138 0.003622 0.036204
#
#
# Mechanical properties :
#
#
# Convention : Reuss Voigt Hill
#
# Bulk Modulus (GPa) = 30.03569 58.55314 44.29441
# Shear Modulus (GPa) = 32.83334 45.47422 39.15378
#
# Velocity S-wave (km/s) = 3.45886 4.07060 3.77714
# Velocity P-wave (km/s) = 5.18613 6.59003 5.92978
#
# Compressibility (1/GPa) = 0.03329372
#
# Stress axis : x y z
#
# Youngs Moduli (GPa) = 66.69016 70.91861 62.27448
#
# Poissons Ratio (x) = -0.05158 0.24333
# Poissons Ratio (y) = -0.04850 0.17123
# Poissons Ratio (z) = 0.26059 0.19500
#
# Static dielectric constant tensor:
#      x y z
#    x -6.106710 1.126450 2.341870 
#    y 1.126450 2.197700 -0.329170 
#    z 2.341870 -0.329170 1.491650 
# 
# From -- ./inp_files/523811.got.cif
#   From: 2010.05.17/outbox.cif.g08.bks.cpg/sg2_262_cif.got.tgz:523811.got - 2010.06.03 11:33:40.
