data_PCOD9107293
_publ_section_title
;
Structure prediction by ZEFSAII (Michael W. Deem and Ramdas Pophale) SiO2 
 PCOD9107293
Probable space group: P -1
;
_chemical_formula_sum "Si O2"
_cell_formula_units_Z 13
_cell_length_a 12.180570
_cell_length_b 5.067792
_cell_length_c 8.971628
_cell_angle_alpha 90.633779
_cell_angle_beta 67.241609
_cell_angle_gamma 91.206883
_cell_volume 510.573215
_symmetry_space_group_name_H-M "P -1"
_symmetry_group_IT_number 2
_symmetry_cell_setting 'triclinic'
loop_
_space_group_symop_operation_xyz
x,y,z
-x,-y,-z
loop_
_atom_site_type_symbol
_atom_site_label
_atom_site_fract_x
_atom_site_fract_y
_atom_site_fract_z
Si Si1 0.246043 0.099300 0.672223
Si Si2 0.347684 0.257828 0.298690
Si Si3 0.971099 0.220268 0.198014
Si Si4 0.552467 0.250718 0.385420
Si Si5 0.000000 0.500000 0.500000
Si Si6 0.764786 0.251573 0.783568
Si Si7 0.813120 0.549572 0.055447
O O1 0.104144 0.050419 0.751510
O O2 0.310271 0.822345 0.668521
O O3 0.281428 0.207448 0.492522
O O4 0.278770 0.295711 0.791249
O O5 0.487817 0.236981 0.259565
O O6 0.318831 0.547190 0.260878
O O7 0.288395 0.039296 0.220932
O O8 0.899682 0.391096 0.117296
O O9 0.969813 0.349392 0.360809
O O10 0.106157 0.226899 0.070926
O O11 0.500000 0.500000 0.500000
O O12 0.500000 0.000000 0.500000
O O13 0.104752 0.689666 0.355611
O O14 0.765055 0.352881 0.953498
#
# Coordination Sequence:
#
# PCOD9107293 Si02
#       7
#     2   2   2   2   1   2   2
#     4  11  22  39  69  93 127 173 221 275 327 389
#     4  11  23  43  67  96 129 171 222 278 316 385
#     4  10  21  41  63  95 134 168 225 259 336 388
#     4  10  23  40  68  99 128 167 224 278 328 379
#     4  10  20  40  64 100 120 178 212 276 310 394
#     4  11  24  42  64  95 137 171 217 267 330 384
#     4  10  24  40  62  95 136 177 211 266 334 402
#
# _framework density 25.461575
#
# number of rings (size 3 to 8) (size 9 to 14) (size 15 to 20)
#    0.000    1.538    1.538    3.231    6.462    0.615 
#    8.308    1.538    0.000    0.000    0.000    0.000 
#    0.000    0.000    0.000    0.000    0.000    0.000 
#
# Total GULP energy -72521.589721 kJ/mol
# GULP energy per Si atom -5578.583825 kJ/mol
# Density = 2.540362 g / cm^3
# Si number density = 25.461575 Si / 1000 Ang^3
#
#
#
# Elastic Constant Matrix: (Units=GPa)
#
#
# Indices 1 2 3 4 5 6 
#
# 1 63.9850 11.0712 24.9523 8.9948 11.1846 -0.7511
# 2 11.0712 68.3932 3.6390 6.3608 -4.4091 -12.7245
# 3 24.9523 3.6390 160.4600 28.4371 26.3230 -3.3617
# 4 8.9948 6.3608 28.4371 24.6297 10.3270 5.6733
# 5 11.1846 -4.4091 26.3230 10.3270 36.6956 -2.2223
# 6 -0.7511 -12.7245 -3.3617 5.6733 -2.2223 44.9501
#
#
#
# Elastic Compliance Matrix: (Units=1/GPa)
#
#
# Indices 1 2 3 4 5 6 
#
# 1 0.017781 -0.002991 -0.001708 -0.001901 -0.004057 -0.000638
# 2 -0.002991 0.017242 0.000754 -0.007730 0.004988 0.006110
# 3 -0.001708 0.000754 0.008526 -0.008566 -0.002987 0.001756
# 4 -0.001901 -0.007730 -0.008566 0.060767 -0.011979 -0.011122
# 5 -0.004057 0.004988 -0.002987 -0.011979 0.034865 0.004356
# 6 -0.000638 0.006110 0.001756 -0.011122 0.004356 0.025716
#
#
# Mechanical properties :
#
#
# Convention : Reuss Voigt Hill
#
# Bulk Modulus (GPa) = 28.04369 41.35145 34.69757
# Shear Modulus (GPa) = 27.07461 38.13347 32.60404
#
# Velocity S-wave (km/s) = 3.26444 3.87419 3.58232
# Velocity P-wave (km/s) = 5.02462 6.02399 5.54686
#
# Compressibility (1/GPa) = 0.03565865
#
# Stress axis : x y z
#
# Youngs Moduli (GPa) = 56.23893 57.99625 117.29362
#
# Poissons Ratio (x) = 0.17346 0.20035
# Poissons Ratio (y) = 0.16821 -0.08840
# Poissons Ratio (z) = 0.09606 -0.04371
#
# Static dielectric constant tensor:
#      x y z
#    x 1.370730 -0.210170 0.090740 
#    y -0.210170 1.942220 0.025220 
#    z 0.090740 0.025220 1.967800 
# 
# From -- ./inp_files/24640.got.cif
#   From: 2010.05.17/outbox.cif.g08.bks.cpg/sg2_13_cif.got.tgz:24640.got - 2010.06.03 11:33:40.
