data_PCOD9107734
_publ_section_title
;
Structure prediction by ZEFSAII (Michael W. Deem and Ramdas Pophale) SiO2 
 PCOD9107734
Probable space group: P -1
;
_chemical_formula_sum "Si O2"
_cell_formula_units_Z 12
_cell_length_a 7.654823
_cell_length_b 11.702125
_cell_length_c 9.550728
_cell_angle_alpha 76.387671
_cell_angle_beta 98.789093
_cell_angle_gamma 140.587073
_cell_volume 527.339150
_symmetry_space_group_name_H-M "P -1"
_symmetry_group_IT_number 2
_symmetry_cell_setting 'triclinic'
loop_
_space_group_symop_operation_xyz
x,y,z
-x,-y,-z
loop_
_atom_site_type_symbol
_atom_site_label
_atom_site_fract_x
_atom_site_fract_y
_atom_site_fract_z
Si Si1 0.559278 0.255877 0.701459
Si Si2 0.622624 0.827705 0.871707
Si Si3 0.287647 0.161547 0.414266
Si Si4 0.086327 0.409527 0.854829
Si Si5 0.864988 0.086728 0.069988
Si Si6 0.479014 0.480219 0.672666
O O1 0.523373 0.256037 0.530350
O O2 0.315771 0.044641 0.782100
O O3 0.515775 0.361344 0.737737
O O4 0.849542 0.358134 0.760159
O O5 0.683926 0.903103 0.700156
O O6 0.326196 0.614758 0.886355
O O7 0.666058 0.949604 0.955679
O O8 0.860345 0.852756 0.924601
O O9 0.307948 0.307606 0.323189
O O10 0.000000 0.000000 0.500000
O O11 0.219514 0.391015 0.758223
O O12 0.960672 0.267676 0.004919
O O13 0.500000 0.500000 0.500000
#
# Coordination Sequence:
#
# PCOD9107734 Si02
#       6
#     2   2   2   2   2   2
#     4  11  23  43  67  96 132 169 217 268 322 387
#     4  10  22  40  67  93 131 170 222 264 325 380
#     4  10  20  40  65  94 126 168 216 264 326 383
#     4  11  24  42  66 100 130 170 220 267 320 387
#     4  11  22  41  66  93 135 175 212 265 321 388
#     4   9  21  38  65  89 128 169 204 265 325 373
#
# _framework density 22.755754
#
# number of rings (size 3 to 8) (size 9 to 14) (size 15 to 20)
#    0.000    1.667    1.667    3.000    2.333    8.000 
#    3.000    0.833    0.000    0.000    0.000    0.000 
#    0.000    0.000    0.000    0.000    0.000    0.000 
#
# Total GULP energy -67035.583162 kJ/mol
# GULP energy per Si atom -5586.298597 kJ/mol
# Density = 2.270396 g / cm^3
# Si number density = 22.755754 Si / 1000 Ang^3
#
#
#
# Elastic Constant Matrix: (Units=GPa)
#
#
# Indices 1 2 3 4 5 6 
#
# 1 76.7579 29.4455 4.8301 -11.7566 14.7779 20.3160
# 2 29.4455 117.9036 33.4897 -7.5756 16.3043 18.1975
# 3 4.8301 33.4897 85.7569 -5.5902 4.2446 -4.3020
# 4 -11.7566 -7.5756 -5.5902 36.1359 1.4164 4.9958
# 5 14.7779 16.3043 4.2446 1.4164 27.3838 8.2745
# 6 20.3160 18.1975 -4.3020 4.9958 8.2745 24.3663
#
#
#
# Elastic Compliance Matrix: (Units=1/GPa)
#
#
# Indices 1 2 3 4 5 6 
#
# 1 0.020121 -0.001012 -0.000688 0.008660 -0.005776 -0.015957
# 2 -0.001012 0.012018 -0.004701 0.002753 -0.003504 -0.008336
# 3 -0.000688 -0.004701 0.013938 0.000034 -0.001078 0.006905
# 4 0.008660 0.002753 0.000034 0.033271 -0.003539 -0.014890
# 5 -0.005776 -0.003504 -0.001078 -0.003539 0.044199 -0.007041
# 6 -0.015957 -0.008336 0.006905 -0.014890 -0.007041 0.067233
#
#
# Mechanical properties :
#
#
# Convention : Reuss Voigt Hill
#
# Bulk Modulus (GPa) = 30.05387 46.21657 38.13522
# Shear Modulus (GPa) = 23.29121 31.75407 27.52264
#
# Velocity S-wave (km/s) = 3.20274 3.73960 3.48153
# Velocity P-wave (km/s) = 5.18773 6.24500 5.74076
#
# Compressibility (1/GPa) = 0.03327359
#
# Stress axis : x y z
#
# Youngs Moduli (GPa) = 49.69895 83.21122 71.74837
#
# Poissons Ratio (x) = 0.08418 0.04938
# Poissons Ratio (y) = 0.05028 0.33732
# Poissons Ratio (z) = 0.03421 0.39121
#
# Static dielectric constant tensor:
#      x y z
#    x 1.868210 -0.014150 -0.028430 
#    y -0.014150 1.862140 0.006550 
#    z -0.028430 0.006550 1.922830 
# 
# From -- ./inp_files/318338.got.cif
#   From: 2010.05.17/outbox.cif.g08.bks.cpg/sg2_160_cif.got.tgz:318338.got - 2010.06.03 11:33:40.
