data_PCOD9107952
_publ_section_title
;
Structure prediction by ZEFSAII (Michael W. Deem and Ramdas Pophale) SiO2 
 PCOD9107952
Probable space group: P -1
;
_chemical_formula_sum "Si O2"
_cell_formula_units_Z 14
_cell_length_a 12.283768
_cell_length_b 8.133325
_cell_length_c 11.721928
_cell_angle_alpha 77.833913
_cell_angle_beta 69.526171
_cell_angle_gamma 34.189307
_cell_volume 609.604524
_symmetry_space_group_name_H-M "P -1"
_symmetry_group_IT_number 2
_symmetry_cell_setting 'triclinic'
loop_
_space_group_symop_operation_xyz
x,y,z
-x,-y,-z
loop_
_atom_site_type_symbol
_atom_site_label
_atom_site_fract_x
_atom_site_fract_y
_atom_site_fract_z
Si Si1 0.182158 0.593398 0.340594
Si Si2 0.540347 0.594891 0.563818
Si Si3 0.816075 0.757657 0.140130
Si Si4 0.143747 0.992900 0.767075
Si Si5 0.496288 0.931030 0.350560
Si Si6 0.754590 0.486631 0.123499
Si Si7 0.446882 0.369971 0.059156
O O1 0.242311 0.633452 0.421395
O O2 0.289086 0.284002 0.361948
O O3 0.290182 0.539815 0.196090
O O4 0.950538 0.866906 0.344136
O O5 0.500000 0.500000 0.500000
O O6 0.385047 0.737078 0.701918
O O7 0.498683 0.815964 0.478013
O O8 0.934964 0.770574 0.151838
O O9 0.890404 0.493615 0.095127
O O10 0.684452 0.838083 0.284077
O O11 0.648786 0.029952 0.074053
O O12 0.123226 0.827899 0.843851
O O13 0.562823 0.736899 0.245914
O O14 0.654098 0.587171 0.022691
O O15 0.500000 0.500000 0.000000
#
# Coordination Sequence:
#
# PCOD9107952 Si02
#       7
#     2   2   2   2   2   2   2
#     4  11  26  40  62 100 124 161 217 258 313 378
#     4  12  21  43  67  88 126 171 209 258 315 370
#     4   9  20  39  63  90 125 163 208 254 310 368
#     4  12  23  43  64  95 131 162 208 264 317 368
#     4   9  21  40  67  87 125 166 210 254 310 373
#     4  10  20  40  66  92 124 168 211 256 302 384
#     4  11  19  39  71  88 125 174 207 253 319 368
#
# _framework density 22.965707999999999
#
# number of rings (size 3 to 8) (size 9 to 14) (size 15 to 20)
#    0.857    0.571    5.714    0.857    0.000    1.714 
#    2.571    0.714    0.000    0.000    0.000    0.000 
#    0.000    0.000    0.000    0.000    0.000    0.000 
#
# Total GULP energy -78121.237436 kJ/mol
# GULP energy per Si atom -5580.088388 kJ/mol
# Density = 2.291344 g / cm^3
# Si number density = 22.965708 Si / 1000 Ang^3
#
#
#
# Elastic Constant Matrix: (Units=GPa)
#
#
# Indices 1 2 3 4 5 6 
#
# 1 154.0406 56.4098 36.9320 -21.0522 30.7903 35.3183
# 2 56.4098 63.8324 22.6778 -17.0078 6.8172 7.8161
# 3 36.9320 22.6778 91.4538 -14.4500 24.8488 16.2542
# 4 -21.0522 -17.0078 -14.4500 38.0215 2.5628 0.2887
# 5 30.7903 6.8172 24.8488 2.5628 48.2404 -8.7950
# 6 35.3183 7.8161 16.2542 0.2887 -8.7950 45.2913
#
#
#
# Elastic Compliance Matrix: (Units=1/GPa)
#
#
# Indices 1 2 3 4 5 6 
#
# 1 0.017077 -0.011082 0.003632 0.006968 -0.014410 -0.015550
# 2 -0.011082 0.026424 -0.004653 0.003400 0.006843 0.007059
# 3 0.003632 -0.004653 0.017203 0.007417 -0.012875 -0.010750
# 4 0.006968 0.003400 0.007417 0.035441 -0.012705 -0.011375
# 5 -0.014410 0.006843 -0.012875 -0.012705 0.040387 0.022600
# 6 -0.015550 0.007059 -0.010750 -0.011375 0.022600 0.041307
#
#
# Mechanical properties :
#
#
# Convention : Reuss Voigt Hill
#
# Bulk Modulus (GPa) = 27.40051 60.15179 43.77615
# Shear Modulus (GPa) = 23.34133 39.19778 31.26956
#
# Velocity S-wave (km/s) = 3.19149 4.13582 3.69396
# Velocity P-wave (km/s) = 5.05349 7.00397 6.10710
#
# Compressibility (1/GPa) = 0.03649567
#
# Stress axis : x y z
#
# Youngs Moduli (GPa) = 58.55708 37.84483 58.13053
#
# Poissons Ratio (x) = 0.41940 -0.21111
# Poissons Ratio (y) = 0.64894 0.27051
# Poissons Ratio (z) = -0.21266 0.17611
#
# Static dielectric constant tensor:
#      x y z
#    x 1.913680 0.018670 0.020660 
#    y 0.018670 1.898930 0.072240 
#    z 0.020660 0.072240 1.869950 
# 
# From -- ./inp_files/414665.got.cif
#   From: 2010.05.17/outbox.cif.g08.bks.cpg/sg2_208_cif.got.tgz:414665.got - 2010.06.03 11:33:40.
