data_PCOD9107617
_publ_section_title
;
Structure prediction by ZEFSAII (Michael W. Deem and Ramdas Pophale) SiO2 
 PCOD9107617
Probable space group: P -1
;
_chemical_formula_sum "Si O2"
_cell_formula_units_Z 15
_cell_length_a 10.187936
_cell_length_b 19.131753
_cell_length_c 5.508373
_cell_angle_alpha 60.821198
_cell_angle_beta 139.939811
_cell_angle_gamma 113.824503
_cell_volume 602.403080
_symmetry_space_group_name_H-M "P -1"
_symmetry_group_IT_number 2
_symmetry_cell_setting 'triclinic'
loop_
_space_group_symop_operation_xyz
x,y,z
-x,-y,-z
loop_
_atom_site_type_symbol
_atom_site_label
_atom_site_fract_x
_atom_site_fract_y
_atom_site_fract_z
Si Si1 0.256017 0.449625 0.496707
Si Si2 0.844113 0.963436 0.539893
Si Si3 0.514187 0.760410 0.127058
Si Si4 0.915885 0.720435 0.554866
Si Si5 0.421449 0.937578 0.700919
Si Si6 0.911155 0.783832 0.939544
Si Si7 0.310187 0.599023 0.954754
Si Si8 0.000000 0.500000 0.500000
O O1 0.121488 0.374956 0.320867
O O2 0.244183 0.522792 0.165506
O O3 0.486303 0.423648 0.859114
O O4 0.175903 0.470524 0.609857
O O5 0.924792 0.877566 0.859952
O O6 0.786349 0.028081 0.549027
O O7 0.617446 0.942404 0.148136
O O8 0.000000 0.000000 0.500000
O O9 0.688345 0.755443 0.175702
O O10 0.669932 0.760512 0.577641
O O11 0.376190 0.678604 0.059681
O O12 0.403427 0.842425 0.788313
O O13 0.014696 0.762295 0.863424
O O14 0.991166 0.740647 0.359878
O O15 0.500000 0.000000 0.500000
O O16 0.881930 0.408686 0.478431
#
# Coordination Sequence:
#
# PCOD9107617 Si02
#       8
#     2   2   2   2   2   2   2   1
#     4  10  23  41  65  86 126 172 214 259 333 382
#     4  10  22  39  62  95 126 173 210 269 327 390
#     4   8  19  37  61  91 124 168 218 262 323 385
#     4   9  19  37  65  91 125 172 213 265 324 380
#     4  10  20  40  65  88 129 170 215 269 323 387
#     4   9  19  38  62  93 130 167 217 267 318 391
#     4  10  22  43  62  93 124 176 210 274 320 399
#     4  12  24  38  62  94 128 160 222 270 324 380
#
# _framework density 24.900269999999999
#
# number of rings (size 3 to 8) (size 9 to 14) (size 15 to 20)
#    0.800    1.600    0.000    1.600    1.867    2.667 
#    2.400    0.000    0.000    0.000    0.000    0.000 
#    0.000    0.000    0.000    0.000    0.000    0.000 
#
# Total GULP energy -83504.320119 kJ/mol
# GULP energy per Si atom -5566.954675 kJ/mol
# Density = 2.484360 g / cm^3
# Si number density = 24.900270 Si / 1000 Ang^3
#
#
#
# Elastic Constant Matrix: (Units=GPa)
#
#
# Indices 1 2 3 4 5 6 
#
# 1 158.3858 61.5887 53.4107 -24.5214 2.1437 -22.1092
# 2 61.5887 177.1384 38.0744 -4.1419 5.5061 -20.0702
# 3 53.4107 38.0744 66.0199 3.1870 -3.3031 -0.0676
# 4 -24.5214 -4.1419 3.1870 22.5249 -2.8955 1.8579
# 5 2.1437 5.5061 -3.3031 -2.8955 32.0749 1.8343
# 6 -22.1092 -20.0702 -0.0676 1.8579 1.8343 38.4005
#
#
#
# Elastic Compliance Matrix: (Units=1/GPa)
#
#
# Indices 1 2 3 4 5 6 
#
# 1 0.014138 -0.001277 -0.011515 0.016124 -0.000840 0.006712
# 2 -0.001277 0.007172 -0.003179 -0.000090 -0.001658 0.003091
# 3 -0.011515 -0.003179 0.027213 -0.015941 0.003114 -0.007621
# 4 0.016124 -0.000090 -0.015941 0.064046 0.002736 0.005979
# 5 -0.000840 -0.001658 0.003114 0.002736 0.032258 -0.003018
# 6 0.006712 0.003091 -0.007621 0.005979 -0.003018 0.031363
#
#
# Mechanical properties :
#
#
# Convention : Reuss Voigt Hill
#
# Bulk Modulus (GPa) = 60.30434 78.63240 69.46837
# Shear Modulus (GPa) = 23.40186 35.16475 29.28331
#
# Velocity S-wave (km/s) = 3.06898 3.76203 3.43304
# Velocity P-wave (km/s) = 6.06870 7.10760 6.60860
#
# Compressibility (1/GPa) = 0.01658256
#
# Stress axis : x y z
#
# Youngs Moduli (GPa) = 70.73215 139.42709 36.74693
#
# Poissons Ratio (x) = 0.17804 0.42313
# Poissons Ratio (y) = 0.09032 0.11681
# Poissons Ratio (z) = 0.81446 0.44320
#
# Static dielectric constant tensor:
#      x y z
#    x 2.002170 -0.085040 -0.062940 
#    y -0.085040 2.015990 0.019140 
#    z -0.062940 0.019140 1.845270 
# 
# From -- ./inp_files/51111.got.cif
#   From: 2010.05.17/outbox.cif.g08.bks.cpg/sg2_26_cif.got.tgz:51111.got - 2010.06.03 11:33:40.
