data_PCOD9107876
_publ_section_title
;
Structure prediction by ZEFSAII (Michael W. Deem and Ramdas Pophale) SiO2 
 PCOD9107876
Probable space group: P -1
;
_chemical_formula_sum "Si O2"
_cell_formula_units_Z 16
_cell_length_a 8.925247
_cell_length_b 9.969426
_cell_length_c 10.182843
_cell_angle_alpha 94.134419
_cell_angle_beta 122.296201
_cell_angle_gamma 91.075150
_cell_volume 762.135946
_symmetry_space_group_name_H-M "P -1"
_symmetry_group_IT_number 2
_symmetry_cell_setting 'triclinic'
loop_
_space_group_symop_operation_xyz
x,y,z
-x,-y,-z
loop_
_atom_site_type_symbol
_atom_site_label
_atom_site_fract_x
_atom_site_fract_y
_atom_site_fract_z
Si Si1 0.001667 0.145117 0.582286
Si Si2 0.433743 0.010260 0.320038
Si Si3 0.092170 0.832217 0.164893
Si Si4 0.610744 0.759252 0.273383
Si Si5 0.541633 0.640631 0.961637
Si Si6 0.644030 0.403642 0.659235
Si Si7 0.633318 0.281662 0.370569
Si Si8 0.865912 0.617789 0.923657
O O1 0.005302 0.132464 0.742551
O O2 0.821741 0.216069 0.468070
O O3 0.176398 0.235114 0.625407
O O4 0.000000 0.000000 0.500000
O O5 0.229839 0.956861 0.203525
O O6 0.551598 0.904817 0.296586
O O7 0.500000 0.000000 0.500000
O O8 0.481117 0.160812 0.307211
O O9 0.217043 0.711438 0.254362
O O10 0.975476 0.762927 0.987357
O O11 0.545889 0.741247 0.092236
O O12 0.514900 0.648242 0.319265
O O13 0.500000 0.500000 0.000000
O O14 0.398753 0.661293 0.783617
O O15 0.732960 0.633996 0.983610
O O16 0.388891 0.615820 0.512171
O O17 0.739671 0.549469 0.747407
O O18 0.000000 0.500000 0.000000
#
# Coordination Sequence:
#
# PCOD9107876 Si02
#       8
#     2   2   2   2   2   2   2   2
#     4  11  19  35  64  97 133 167 210 269 331 387
#     4  11  18  38  67  96 133 169 213 264 330 396
#     4   9  18  32  62  95 124 166 209 262 329 388
#     4  11  20  37  69  96 130 174 211 269 340 380
#     4  12  26  44  64  93 135 175 219 275 332 377
#     4   9  19  37  65  91 122 170 222 260 321 391
#     4  11  24  41  65 101 131 173 221 265 326 401
#     4  10  20  40  66  88 122 177 219 264 323 388
#
# _framework density 20.993631000000001
#
# number of rings (size 3 to 8) (size 9 to 14) (size 15 to 20)
#    0.000    1.500    7.500    0.000    0.000    1.000 
#    0.000    2.500    0.000    0.000    0.000    0.000 
#    0.000    0.000    0.000    0.000    0.000    0.000 
#
# Total GULP energy -89283.088486 kJ/mol
# GULP energy per Si atom -5580.193030 kJ/mol
# Density = 2.094585 g / cm^3
# Si number density = 20.993631 Si / 1000 Ang^3
#
#
#
# Elastic Constant Matrix: (Units=GPa)
#
#
# Indices 1 2 3 4 5 6 
#
# 1 106.5164 32.0377 54.2711 25.5169 2.4925 -8.3986
# 2 32.0377 85.9658 74.2239 34.0222 -8.1768 6.0797
# 3 54.2711 74.2239 146.6314 31.8169 -10.5200 -0.3730
# 4 25.5169 34.0222 31.8169 47.4821 -1.1093 -0.1576
# 5 2.4925 -8.1768 -10.5200 -1.1093 34.5359 14.0418
# 6 -8.3986 6.0797 -0.3730 -0.1576 14.0418 35.5987
#
#
#
# Elastic Compliance Matrix: (Units=1/GPa)
#
#
# Indices 1 2 3 4 5 6 
#
# 1 0.013027 -0.000639 -0.003935 -0.003993 -0.004393 0.004856
# 2 -0.000639 0.026240 -0.010154 -0.011546 0.005648 -0.007018
# 3 -0.003935 -0.010154 0.013464 0.000413 0.001916 0.000193
# 4 -0.003993 -0.011546 0.000413 0.031160 -0.002138 0.002016
# 5 -0.004393 0.005648 0.001916 -0.002138 0.038034 -0.016993
# 6 0.004856 -0.007018 0.000193 0.002016 -0.016993 0.037149
#
#
# Mechanical properties :
#
#
# Convention : Reuss Voigt Hill
#
# Bulk Modulus (GPa) = 42.95887 73.35320 58.15603
# Shear Modulus (GPa) = 25.47284 35.42876 30.45080
#
# Velocity S-wave (km/s) = 3.48711 4.11249 3.81265
# Velocity P-wave (km/s) = 6.05974 7.58727 6.86612
#
# Compressibility (1/GPa) = 0.02327808
#
# Stress axis : x y z
#
# Youngs Moduli (GPa) = 76.76122 38.10904 74.27135
#
# Poissons Ratio (x) = 0.02434 0.29224
# Poissons Ratio (y) = 0.04902 0.75412
# Poissons Ratio (z) = 0.30204 0.38694
#
# Static dielectric constant tensor:
#      x y z
#    x 1.532620 0.111300 0.182870 
#    y 0.111300 1.599820 -0.080140 
#    z 0.182870 -0.080140 1.702720 
# 
# From -- ./inp_files/379307.got.cif
#   From: 2010.05.17/outbox.cif.g08.bks.cpg/sg2_190_cif.got.tgz:379307.got - 2010.06.03 11:33:40.
