data_PCOD9107477
_publ_section_title
;
Structure prediction by ZEFSAII (Michael W. Deem and Ramdas Pophale) SiO2 
 PCOD9107477
Probable space group: P -1
;
_chemical_formula_sum "Si O2"
_cell_formula_units_Z 16
_cell_length_a 11.958611
_cell_length_b 11.365014
_cell_length_c 11.895719
_cell_angle_alpha 53.348762
_cell_angle_beta 39.503278
_cell_angle_gamma 63.080383
_cell_volume 825.009136
_symmetry_space_group_name_H-M "P -1"
_symmetry_group_IT_number 2
_symmetry_cell_setting 'triclinic'
loop_
_space_group_symop_operation_xyz
x,y,z
-x,-y,-z
loop_
_atom_site_type_symbol
_atom_site_label
_atom_site_fract_x
_atom_site_fract_y
_atom_site_fract_z
Si Si1 0.085871 0.844169 0.001457
Si Si2 0.598447 0.035888 0.756357
Si Si3 0.371667 0.651104 0.318375
Si Si4 0.088364 0.445624 0.780023
Si Si5 0.104760 0.046719 0.280865
Si Si6 0.743107 0.507118 0.147595
Si Si7 0.257061 0.841714 0.106664
Si Si8 0.800964 0.174313 0.324861
O O1 0.196862 0.811221 0.045223
O O2 0.952294 0.707644 0.162771
O O3 0.188525 0.860121 0.795008
O O4 0.000000 0.000000 0.000000
O O5 0.606387 0.197147 0.714513
O O6 0.693881 0.059569 0.549453
O O7 0.702584 0.933676 0.823860
O O8 0.411358 0.964271 0.918676
O O9 0.212035 0.555325 0.550316
O O10 0.555715 0.568148 0.224202
O O11 0.321562 0.700509 0.203823
O O12 0.190069 0.416032 0.834263
O O13 0.898309 0.508363 0.932426
O O14 0.995291 0.171278 0.233050
O O15 0.112429 0.916952 0.256795
O O16 0.000000 0.000000 0.500000
O O17 0.725463 0.336666 0.295613
#
# Coordination Sequence:
#
# PCOD9107477 Si02
#       8
#     2   2   2   2   2   2   2   2
#     4  11  24  41  63  90 127 175 212 247 312 391
#     4  10  22  37  64  96 126 160 204 274 323 359
#     4  11  22  42  64  96 128 160 216 265 321 374
#     4  10  23  40  66  94 126 171 208 263 318 370
#     4   9  18  36  61  90 121 155 206 263 310 362
#     4  10  22  39  66 100 123 160 210 275 321 363
#     4  11  24  40  59  92 130 170 206 254 317 383
#     4  10  20  40  64  94 126 156 217 260 314 380
#
# _framework density 19.393723000000001
#
# number of rings (size 3 to 8) (size 9 to 14) (size 15 to 20)
#    0.000    1.750    2.500    1.875    1.750    5.000 
#    4.500    3.750    0.000    0.000    0.000    0.000 
#    0.000    0.000    0.000    0.000    0.000    0.000 
#
# Total GULP energy -89253.823460 kJ/mol
# GULP energy per Si atom -5578.363966 kJ/mol
# Density = 1.934958 g / cm^3
# Si number density = 19.393723 Si / 1000 Ang^3
#
#
#
# Elastic Constant Matrix: (Units=GPa)
#
#
# Indices 1 2 3 4 5 6 
#
# 1 132.4168 48.6919 69.2652 -0.9244 28.0095 4.7681
# 2 48.6919 53.5332 44.7266 -8.1037 3.4281 -1.9982
# 3 69.2652 44.7266 145.2289 -7.9976 12.4915 1.6024
# 4 -0.9244 -8.1037 -7.9976 20.9583 2.3069 -1.3924
# 5 28.0095 3.4281 12.4915 2.3069 34.2399 -2.7883
# 6 4.7681 -1.9982 1.6024 -1.3924 -2.7883 42.0747
#
#
#
# Elastic Compliance Matrix: (Units=1/GPa)
#
#
# Indices 1 2 3 4 5 6 
#
# 1 0.015933 -0.011859 -0.003226 -0.004147 -0.010642 -0.003088
# 2 -0.011859 0.035133 -0.005299 0.010457 0.007744 0.004073
# 3 -0.003226 -0.005299 0.010217 0.001767 -0.000698 -0.000263
# 4 -0.004147 0.010457 0.001767 0.052597 -0.001636 0.002532
# 5 -0.010642 0.007744 -0.000698 -0.001636 0.037831 0.004053
# 6 -0.003088 0.004073 -0.000263 0.002532 0.004053 0.024673
#
#
# Mechanical properties :
#
#
# Convention : Reuss Voigt Hill
#
# Bulk Modulus (GPa) = 48.74516 72.94960 60.84738
# Shear Modulus (GPa) = 22.32245 30.68759 26.50502
#
# Velocity S-wave (km/s) = 3.39634 3.98219 3.70087
# Velocity P-wave (km/s) = 6.36940 7.67075 7.05017
#
# Compressibility (1/GPa) = 0.02051486
#
# Stress axis : x y z
#
# Youngs Moduli (GPa) = 62.76159 28.46337 97.88015
#
# Poissons Ratio (x) = 0.33754 0.31576
# Poissons Ratio (y) = 0.74427 0.51869
# Poissons Ratio (z) = 0.20247 0.15084
#
# Static dielectric constant tensor:
#      x y z
#    x 1.683180 -0.026930 -0.016650 
#    y -0.026930 1.709330 0.027530 
#    z -0.016650 0.027530 1.749730 
# 
# From -- ./inp_files/425240.got.cif
#   From: 2010.05.17/outbox.cif.g08.bks.cpg/sg2_213_cif.got.tgz:425240.got - 2010.06.03 11:33:40.
