data_PCOD9107473
_publ_section_title
;
Structure prediction by ZEFSAII (Michael W. Deem and Ramdas Pophale) SiO2 
 PCOD9107473
Probable space group: P -1
;
_chemical_formula_sum "Si O2"
_cell_formula_units_Z 16
_cell_length_a 7.878644
_cell_length_b 17.072741
_cell_length_c 13.861559
_cell_angle_alpha 145.978089
_cell_angle_beta 126.545549
_cell_angle_gamma 39.683257
_cell_volume 661.433385
_symmetry_space_group_name_H-M "P -1"
_symmetry_group_IT_number 2
_symmetry_cell_setting 'triclinic'
loop_
_space_group_symop_operation_xyz
x,y,z
-x,-y,-z
loop_
_atom_site_type_symbol
_atom_site_label
_atom_site_fract_x
_atom_site_fract_y
_atom_site_fract_z
Si Si1 0.964695 0.669693 0.749610
Si Si2 0.179942 0.755295 0.085903
Si Si3 0.371465 0.044327 0.210816
Si Si4 0.174496 0.601943 0.323863
Si Si5 0.506515 0.288681 0.546122
Si Si6 0.941550 0.907985 0.675676
Si Si7 0.751893 0.411886 0.879549
Si Si8 0.500339 0.756362 0.809289
O O1 0.904103 0.774576 0.737903
O O2 0.691040 0.714632 0.741446
O O3 0.197491 0.461053 0.613401
O O4 0.052863 0.748897 0.938218
O O5 0.086667 0.689679 0.073420
O O6 0.499113 0.607699 0.026142
O O7 0.097817 0.948853 0.265577
O O8 0.544916 0.109413 0.363078
O O9 0.299831 0.986657 0.221963
O O10 0.468577 0.907962 0.018142
O O11 0.351295 0.671109 0.443432
O O12 0.937953 0.757777 0.469120
O O13 0.121583 0.588021 0.178836
O O14 0.346818 0.417875 0.249900
O O15 0.627964 0.308942 0.704428
O O16 0.213800 0.821895 0.740807
#
# Coordination Sequence:
#
# PCOD9107473 Si02
#       8
#     2   2   2   2   2   2   2   2
#     4  11  22  37  62  89 129 159 204 249 314 361
#     4  10  20  40  64  94 115 168 205 255 298 367
#     4  12  23  37  59  93 127 159 200 253 306 366
#     4  10  22  41  61  88 127 164 200 250 304 365
#     4   9  21  40  62  86 124 163 197 251 306 361
#     4  12  24  36  62  91 130 161 206 247 311 364
#     4   8  20  41  67  84 123 162 210 246 306 360
#     4  12  24  38  59  94 129 161 202 252 308 369
#
# _framework density 24.189889999999998
#
# number of rings (size 3 to 8) (size 9 to 14) (size 15 to 20)
#    0.750    0.750    1.250    4.500    1.750    0.500 
#    0.000    1.250    0.000    0.000    0.000    0.000 
#    0.000    0.000    0.000    0.000    0.000    0.000 
#
# Total GULP energy -89418.863195 kJ/mol
# GULP energy per Si atom -5588.678950 kJ/mol
# Density = 2.413483 g / cm^3
# Si number density = 24.189890 Si / 1000 Ang^3
#
#
#
# Elastic Constant Matrix: (Units=GPa)
#
#
# Indices 1 2 3 4 5 6 
#
# 1 59.8292 -5.6120 -4.4429 2.5211 -7.0792 11.6792
# 2 -5.6120 74.7959 15.5935 10.7235 6.0542 20.7632
# 3 -4.4429 15.5935 113.8394 4.7888 -3.0206 -2.2101
# 4 2.5211 10.7235 4.7888 25.3522 8.1935 5.6706
# 5 -7.0792 6.0542 -3.0206 8.1935 28.8197 -3.2481
# 6 11.6792 20.7632 -2.2101 5.6706 -3.2481 26.0643
#
#
#
# Elastic Compliance Matrix: (Units=1/GPa)
#
#
# Indices 1 2 3 4 5 6 
#
# 1 0.019987 0.004876 0.000071 -0.002453 0.003249 -0.011895
# 2 0.004876 0.020288 -0.002952 -0.002854 -0.004654 -0.018556
# 3 0.000071 -0.002952 0.009438 -0.002310 0.002730 0.003963
# 4 -0.002453 -0.002854 -0.002310 0.048231 -0.014992 -0.009185
# 5 0.003249 -0.004654 0.002730 -0.014992 0.042264 0.011011
# 6 -0.011895 -0.018556 0.003963 -0.009185 0.011011 0.062185
#
#
# Mechanical properties :
#
#
# Convention : Reuss Voigt Hill
#
# Bulk Modulus (GPa) = 18.62176 28.83795 23.72986
# Shear Modulus (GPa) = 23.11547 32.24232 27.67890
#
# Velocity S-wave (km/s) = 3.09461 3.65483 3.38632
# Velocity P-wave (km/s) = 4.52589 5.45507 5.01205
#
# Compressibility (1/GPa) = 0.05370062
#
# Stress axis : x y z
#
# Youngs Moduli (GPa) = 50.03323 49.29024 105.95444
#
# Poissons Ratio (x) = -0.24032 -0.00748
# Poissons Ratio (y) = -0.24395 0.31282
# Poissons Ratio (z) = -0.00353 0.14552
#
# Static dielectric constant tensor:
#      x y z
#    x 1.977740 -0.019040 -0.052980 
#    y -0.019040 1.903140 -0.030400 
#    z -0.052980 -0.030400 1.963030 
# 
# From -- ./inp_files/504474.got.cif
#   From: 2010.05.17/outbox.cif.g08.bks.cpg/sg2_253_cif.got.tgz:504474.got - 2010.06.03 11:33:40.
