data_PCOD9107566
_publ_section_title
;
Structure prediction by ZEFSAII (Michael W. Deem and Ramdas Pophale) SiO2 
 PCOD9107566
Probable space group: P -1
;
_chemical_formula_sum "Si O2"
_cell_formula_units_Z 15
_cell_length_a 19.173959
_cell_length_b 5.325033
_cell_length_c 5.338438
_cell_angle_alpha 84.780352
_cell_angle_beta 87.677761
_cell_angle_gamma 83.691980
_cell_volume 539.261805
_symmetry_space_group_name_H-M "P -1"
_symmetry_group_IT_number 2
_symmetry_cell_setting 'triclinic'
loop_
_space_group_symop_operation_xyz
x,y,z
-x,-y,-z
loop_
_atom_site_type_symbol
_atom_site_label
_atom_site_fract_x
_atom_site_fract_y
_atom_site_fract_z
Si Si1 0.512395 0.278276 0.224592
Si Si2 0.837875 0.053060 0.346237
Si Si3 0.145797 0.686011 0.172193
Si Si4 0.353702 0.688259 0.491622
Si Si5 0.388454 0.059418 0.089979
Si Si6 0.000000 0.000000 0.000000
Si Si7 0.285782 0.212881 0.713280
Si Si8 0.057585 0.300714 0.388612
O O1 0.566265 0.367831 0.411964
O O2 0.435386 0.184448 0.278702
O O3 0.500000 0.500000 0.000000
O O4 0.557163 0.024705 0.131286
O O5 0.794946 0.827871 0.278718
O O6 0.918892 0.921542 0.385257
O O7 0.820777 0.174175 0.611401
O O8 0.823660 0.262871 0.110352
O O9 0.130335 0.409647 0.289138
O O10 0.068241 0.825837 0.132190
O O11 0.309965 0.451906 0.544373
O O12 0.317631 0.938978 0.618303
O O13 0.362165 0.797671 0.205700
O O14 0.322048 0.229972 0.977007
O O15 0.021760 0.229714 0.148420
O O16 0.000000 0.500000 0.500000
#
# Coordination Sequence:
#
# PCOD9107566 Si02
#       8
#     2   2   2   2   2   1   2   2
#     4  10  20  40  65 104 139 178 237 304 370 452
#     4  11  28  46  71 109 147 196 261 307 375 465
#     4  11  24  46  73 106 146 195 239 310 379 449
#     4  11  25  44  71 100 137 194 240 305 377 440
#     4  10  23  41  67  99 142 184 237 306 373 451
#     4  10  22  44  70 114 144 186 246 304 384 466
#     4  11  27  46  66 102 141 189 256 301 369 454
#     4  11  24  46  79 112 154 198 249 323 393 465
#
# _framework density 27.815805000000001
#
# number of rings (size 3 to 8) (size 9 to 14) (size 15 to 20)
#    0.000    1.333    1.333    2.400    5.600    5.867 
#    0.000    2.000    0.000    0.000    0.000    0.000 
#    0.000    0.000    0.000    0.000    0.000    0.000 
#
# Total GULP energy -83772.095068 kJ/mol
# GULP energy per Si atom -5584.806338 kJ/mol
# Density = 2.775249 g / cm^3
# Si number density = 27.815805 Si / 1000 Ang^3
#
#
#
# Elastic Constant Matrix: (Units=GPa)
#
#
# Indices 1 2 3 4 5 6 
#
# 1 72.4189 22.2133 17.9176 -1.4023 23.8855 21.7942
# 2 22.2133 143.8609 50.0816 0.2364 -1.6863 38.8285
# 3 17.9176 50.0816 134.8784 -9.1618 14.4752 17.8056
# 4 -1.4023 0.2364 -9.1618 64.9429 4.9883 -3.6680
# 5 23.8855 -1.6863 14.4752 4.9883 35.4472 -0.1308
# 6 21.7942 38.8285 17.8056 -3.6680 -0.1308 59.4515
#
#
#
# Elastic Compliance Matrix: (Units=1/GPa)
#
#
# Indices 1 2 3 4 5 6 
#
# 1 0.021128 -0.001777 0.000394 0.001270 -0.014685 -0.006656
# 2 -0.001777 0.009630 -0.003107 -0.001015 0.003050 -0.004764
# 3 0.000394 -0.003107 0.009200 0.001612 -0.004400 -0.000781
# 4 0.001270 -0.001015 0.001612 0.015988 -0.003810 0.000693
# 5 -0.014685 0.003050 -0.004400 -0.003810 0.040601 0.004564
# 6 -0.006656 -0.004764 -0.000781 0.000693 0.004564 0.022658
#
#
# Mechanical properties :
#
#
# Convention : Reuss Voigt Hill
#
# Bulk Modulus (GPa) = 32.28094 59.06479 45.67287
# Shear Modulus (GPa) = 36.09788 49.36470 42.73129
#
# Velocity S-wave (km/s) = 3.60633 4.21729 3.92372
# Velocity P-wave (km/s) = 5.38250 6.70779 6.08135
#
# Compressibility (1/GPa) = 0.03097804
#
# Stress axis : x y z
#
# Youngs Moduli (GPa) = 47.33166 103.83828 108.69309
#
# Poissons Ratio (x) = 0.18454 -0.04286
# Poissons Ratio (y) = 0.08412 0.33773
# Poissons Ratio (z) = -0.01866 0.32264
#
# Static dielectric constant tensor:
#      x y z
#    x -0.386110 0.919180 1.588890 
#    y 0.919180 1.863980 -0.550710 
#    z 1.588890 -0.550710 1.128540 
# 
# From -- ./inp_files/120953.got.cif
#   From: 2010.05.17/outbox.cif.g08.bks.cpg/sg2_61_cif.got.tgz:120953.got - 2010.06.03 11:33:40.
