data_PCOD9107327
_publ_section_title
;
Structure prediction by ZEFSAII (Michael W. Deem and Ramdas Pophale) SiO2 
 PCOD9107327
Probable space group: P -1
;
_chemical_formula_sum "Si O2"
_cell_formula_units_Z 14
_cell_length_a 9.445800
_cell_length_b 12.489963
_cell_length_c 15.605587
_cell_angle_alpha 31.070799
_cell_angle_beta 42.562918
_cell_angle_gamma 59.494673
_cell_volume 601.321058
_symmetry_space_group_name_H-M "P -1"
_symmetry_group_IT_number 2
_symmetry_cell_setting 'triclinic'
loop_
_space_group_symop_operation_xyz
x,y,z
-x,-y,-z
loop_
_atom_site_type_symbol
_atom_site_label
_atom_site_fract_x
_atom_site_fract_y
_atom_site_fract_z
Si Si1 0.534258 0.954995 0.114952
Si Si2 0.445998 0.327677 0.990301
Si Si3 0.120243 0.207119 0.367141
Si Si4 0.805429 0.525368 0.149303
Si Si5 0.085655 0.653080 0.273855
Si Si6 0.739217 0.109680 0.366091
Si Si7 0.207914 0.525205 0.624603
O O1 0.426746 0.708645 0.363645
O O2 0.791327 0.094112 0.925229
O O3 0.402399 0.079155 0.146503
O O4 0.500000 0.000000 0.000000
O O5 0.339192 0.425172 0.895791
O O6 0.714121 0.418518 0.805953
O O7 0.334257 0.340326 0.121336
O O8 0.970494 0.354143 0.353428
O O9 0.185160 0.091873 0.499691
O O10 0.000000 0.000000 0.500000
O O11 0.741878 0.260142 0.345906
O O12 0.749022 0.569127 0.240118
O O13 0.061475 0.696639 0.905402
O O14 0.000000 0.500000 0.500000
O O15 0.905051 0.631281 0.296878
O O16 0.500000 0.000000 0.500000
#
# Coordination Sequence:
#
# PCOD9107327 Si02
#       7
#     2   2   2   2   2   2   2
#     4  10  20  40  64  85 114 161 207 250 300 354
#     4  10  22  39  62  89 126 156 204 250 300 368
#     4  12  19  39  61  94 123 165 201 238 309 367
#     4  11  22  40  53  92 128 161 197 251 309 348
#     4  10  23  41  64  92 110 157 215 252 299 362
#     4  11  24  36  57  86 135 167 197 241 294 369
#     4  12  22  37  68  87 127 160 201 257 299 368
#
# _framework density 23.282070999999998
#
# number of rings (size 3 to 8) (size 9 to 14) (size 15 to 20)
#    0.857    0.286    5.714    0.857    4.000    0.571 
#    0.000    2.857    0.000    1.714    0.000    0.000 
#    0.000    0.000    0.000    0.000    0.000    0.000 
#
# Total GULP energy -78133.793461 kJ/mol
# GULP energy per Si atom -5580.985247 kJ/mol
# Density = 2.322908 g / cm^3
# Si number density = 23.282071 Si / 1000 Ang^3
#
#
#
# Elastic Constant Matrix: (Units=GPa)
#
#
# Indices 1 2 3 4 5 6 
#
# 1 85.8033 21.6312 50.0350 -11.3285 -7.8588 30.4261
# 2 21.6312 80.1923 25.7680 11.2806 -11.5965 5.9215
# 3 50.0350 25.7680 116.7035 17.3619 -14.9095 27.0466
# 4 -11.3285 11.2806 17.3619 34.7353 4.6287 -3.5796
# 5 -7.8588 -11.5965 -14.9095 4.6287 31.1045 -7.1483
# 6 30.4261 5.9215 27.0466 -3.5796 -7.1483 54.2200
#
#
#
# Elastic Compliance Matrix: (Units=1/GPa)
#
#
# Indices 1 2 3 4 5 6 
#
# 1 0.022194 -0.004977 -0.009354 0.013391 -0.004317 -0.006930
# 2 -0.004977 0.015561 0.000305 -0.007513 0.006095 0.001249
# 3 -0.009354 0.000305 0.015752 -0.012158 0.006516 -0.002585
# 4 0.013391 -0.007513 -0.012158 0.043282 -0.011523 0.000709
# 5 -0.004317 0.006095 0.006516 -0.011523 0.038828 0.002865
# 6 -0.006930 0.001249 -0.002585 0.000709 0.002865 0.023910
#
#
# Mechanical properties :
#
#
# Convention : Reuss Voigt Hill
#
# Bulk Modulus (GPa) = 39.28663 53.06306 46.17485
# Shear Modulus (GPa) = 25.50188 36.36297 30.93242
#
# Velocity S-wave (km/s) = 3.31319 3.95630 3.64894
# Velocity P-wave (km/s) = 5.61668 6.61140 6.13424
#
# Compressibility (1/GPa) = 0.02545395
#
# Stress axis : x y z
#
# Youngs Moduli (GPa) = 45.05711 64.26506 63.48312
#
# Poissons Ratio (x) = 0.31987 0.59383
# Poissons Ratio (y) = 0.22426 -0.01936
# Poissons Ratio (z) = 0.42147 -0.01960
#
# Static dielectric constant tensor:
#      x y z
#    x 1.910740 -0.050730 -0.011930 
#    y -0.050730 1.959530 -0.047500 
#    z -0.011930 -0.047500 1.924340 
# 
# From -- ./inp_files/503570.got.cif
#   From: 2010.05.17/outbox.cif.g08.bks.cpg/sg2_252_cif.got.tgz:503570.got - 2010.06.03 11:33:40.
