data_PCOD9107459
_publ_section_title
;
Structure prediction by ZEFSAII (Michael W. Deem and Ramdas Pophale) SiO2 
 PCOD9107459
Probable space group: P -1
;
_chemical_formula_sum "Si O2"
_cell_formula_units_Z 15
_cell_length_a 7.157878
_cell_length_b 7.563018
_cell_length_c 14.278577
_cell_angle_alpha 48.600832
_cell_angle_beta 91.668490
_cell_angle_gamma 107.175774
_cell_volume 538.868544
_symmetry_space_group_name_H-M "P -1"
_symmetry_group_IT_number 2
_symmetry_cell_setting 'triclinic'
loop_
_space_group_symop_operation_xyz
x,y,z
-x,-y,-z
loop_
_atom_site_type_symbol
_atom_site_label
_atom_site_fract_x
_atom_site_fract_y
_atom_site_fract_z
Si Si1 0.400368 0.459463 0.115792
Si Si2 0.218860 0.847209 0.036168
Si Si3 0.548168 0.000505 0.638271
Si Si4 0.272532 0.149261 0.763625
Si Si5 0.097192 0.794768 0.569883
Si Si6 0.124856 0.755919 0.283534
Si Si7 0.942022 0.335116 0.171222
Si Si8 0.500000 0.500000 0.500000
O O1 0.385959 0.722757 0.060995
O O2 0.156242 0.304741 0.165067
O O3 0.496756 0.299345 0.238415
O O4 0.500000 0.500000 0.000000
O O5 0.187401 0.846773 0.146491
O O6 0.012824 0.639049 0.059481
O O7 0.259189 0.100598 0.890652
O O8 0.693401 0.095559 0.517835
O O9 0.698489 0.113007 0.689374
O O10 0.430784 0.197889 0.570110
O O11 0.453794 0.389780 0.645541
O O12 0.080015 0.206620 0.707663
O O13 0.233641 0.866341 0.820766
O O14 0.114238 0.715565 0.703667
O O15 0.941877 0.546779 0.604409
O O16 0.000000 0.000000 0.500000
#
# Coordination Sequence:
#
# PCOD9107459 Si02
#       8
#     2   2   2   2   2   2   2   1
#     4  10  20  40  64  93 124 169 212 270 319 375
#     4   9  21  39  70  98 122 165 220 278 306 385
#     4  12  23  43  65  93 132 176 210 268 327 386
#     4  12  21  44  63  97 135 172 210 266 328 387
#     4  11  19  37  67  95 119 164 227 263 297 398
#     4  11  21  39  71  93 121 173 226 254 323 392
#     4   9  21  36  68  93 119 171 216 256 314 382
#     4  12  30  36  62  96 142 166 208 272 334 370
#
# _framework density 27.836100999999999
#
# number of rings (size 3 to 8) (size 9 to 14) (size 15 to 20)
#    0.800    0.533    4.000    2.000    1.867    0.000 
#    0.000    3.333    2.933    0.000    0.000    0.000 
#    0.000    0.000    0.000    0.000    0.000    0.000 
#
# Total GULP energy -83698.366490 kJ/mol
# GULP energy per Si atom -5579.891099 kJ/mol
# Density = 2.777274 g / cm^3
# Si number density = 27.836101 Si / 1000 Ang^3
#
#
#
# Elastic Constant Matrix: (Units=GPa)
#
#
# Indices 1 2 3 4 5 6 
#
# 1 91.0416 20.7990 18.0565 -7.6796 11.3071 -3.9236
# 2 20.7990 81.2816 16.8422 -11.0017 -0.7600 -1.5239
# 3 18.0565 16.8422 219.2463 -10.2266 -31.9135 -2.7654
# 4 -7.6796 -11.0017 -10.2266 43.2262 -11.3097 -4.5624
# 5 11.3071 -0.7600 -31.9135 -11.3097 32.1497 3.3873
# 6 -3.9236 -1.5239 -2.7654 -4.5624 3.3873 48.7734
#
#
#
# Elastic Compliance Matrix: (Units=1/GPa)
#
#
# Indices 1 2 3 4 5 6 
#
# 1 0.012881 -0.003032 -0.001817 -0.000541 -0.006728 0.001255
# 2 -0.003032 0.013641 -0.000298 0.003497 0.002288 0.000334
# 3 -0.001817 -0.000298 0.005985 0.003009 0.007638 -0.000065
# 4 -0.000541 0.003497 0.003009 0.028247 0.012988 0.001977
# 5 -0.006728 0.002288 0.007638 0.012988 0.045887 -0.002009
# 6 0.001255 0.000334 -0.000065 0.001977 -0.002009 0.020935
#
#
# Mechanical properties :
#
#
# Convention : Reuss Voigt Hill
#
# Bulk Modulus (GPa) = 45.01649 55.88499 50.45074
# Shear Modulus (GPa) = 34.41759 47.22133 40.81946
#
# Velocity S-wave (km/s) = 3.52012 4.12321 3.83354
# Velocity P-wave (km/s) = 5.72090 6.54124 6.14478
#
# Compressibility (1/GPa) = 0.02221408
#
# Stress axis : x y z
#
# Youngs Moduli (GPa) = 77.63341 73.30586 167.08706
#
# Poissons Ratio (x) = 0.22228 0.30353
# Poissons Ratio (y) = 0.23541 0.04976
# Poissons Ratio (z) = 0.14103 0.02183
#
# Static dielectric constant tensor:
#      x y z
#    x 2.294540 -0.009350 -0.037950 
#    y -0.009350 2.130920 -0.034320 
#    z -0.037950 -0.034320 2.137780 
# 
# From -- ./inp_files/494259.got.cif
#   From: 2010.05.17/outbox.cif.g08.bks.cpg/sg2_248_cif.got.tgz:494259.got - 2010.06.03 11:33:40.
