data_PCOD9107524
_publ_section_title
;
Structure prediction by ZEFSAII (Michael W. Deem and Ramdas Pophale) SiO2 
 PCOD9107524
Probable space group: P -1
;
_chemical_formula_sum "Si O2"
_cell_formula_units_Z 10
_cell_length_a 14.781587
_cell_length_b 5.094860
_cell_length_c 8.679483
_cell_angle_alpha 116.477426
_cell_angle_beta 50.092675
_cell_angle_gamma 124.971958
_cell_volume 407.682600
_symmetry_space_group_name_H-M "P -1"
_symmetry_group_IT_number 2
_symmetry_cell_setting 'triclinic'
loop_
_space_group_symop_operation_xyz
x,y,z
-x,-y,-z
loop_
_atom_site_type_symbol
_atom_site_label
_atom_site_fract_x
_atom_site_fract_y
_atom_site_fract_z
Si Si1 0.612174 0.734561 0.049559
Si Si2 0.180277 0.562368 0.697425
Si Si3 0.390576 0.595819 0.712421
Si Si4 0.076338 0.991086 0.062736
Si Si5 0.860543 0.743133 0.646670
O O1 0.624719 0.526867 0.126679
O O2 0.575362 0.023963 0.217533
O O3 0.500000 0.500000 0.000000
O O4 0.748538 0.867774 0.838940
O O5 0.271053 0.464948 0.685294
O O6 0.201383 0.539377 0.485702
O O7 0.030042 0.314596 0.812810
O O8 0.186773 0.890842 0.850326
O O9 0.500000 0.500000 0.500000
O O10 0.107384 0.297962 0.220205
O O11 0.000000 0.000000 0.000000
O O12 0.000000 0.000000 0.500000
#
# Coordination Sequence:
#
# PCOD9107524 Si02
#       5
#     2   2   2   2   2
#     4  12  26  49  75 110 152 197 251 312 371 452
#     4  10  22  39  66  97 139 188 242 298 365 432
#     4  12  26  48  76 107 152 199 252 311 374 442
#     4  10  20  40  64  96 140 186 239 301 361 435
#     4  10  22  44  68 107 148 191 246 300 377 439
#
# _framework density 24.528887000000001
#
# number of rings (size 3 to 8) (size 9 to 14) (size 15 to 20)
#    0.000    1.200    2.000    3.600    0.000    0.800 
#    7.200    0.000    0.000    0.000    0.000    0.000 
#    0.000    0.000    0.000    0.000    0.000    0.000 
#
# Total GULP energy -55729.392304 kJ/mol
# GULP energy per Si atom -5572.939230 kJ/mol
# Density = 2.447306 g / cm^3
# Si number density = 24.528887 Si / 1000 Ang^3
#
#
#
# Elastic Constant Matrix: (Units=GPa)
#
#
# Indices 1 2 3 4 5 6 
#
# 1 178.0102 35.9287 85.1680 12.3889 24.9860 6.4077
# 2 35.9287 52.4557 18.8841 12.6783 10.8174 4.4681
# 3 85.1680 18.8841 167.3089 21.4389 20.8265 9.9273
# 4 12.3889 12.6783 21.4389 32.6732 16.2807 0.9879
# 5 24.9860 10.8174 20.8265 16.2807 74.2773 4.5772
# 6 6.4077 4.4681 9.9273 0.9879 4.5772 40.5513
#
#
#
# Elastic Compliance Matrix: (Units=1/GPa)
#
#
# Indices 1 2 3 4 5 6 
#
# 1 0.008457 -0.004557 -0.003851 0.001838 -0.001519 0.000235
# 2 -0.004557 0.024043 0.000770 -0.007880 -0.000341 -0.001887
# 3 -0.003851 0.000770 0.008507 -0.004291 -0.000173 -0.001435
# 4 0.001838 -0.007880 -0.004291 0.039201 -0.006950 0.001458
# 5 -0.001519 -0.000341 -0.000173 -0.006950 0.015674 -0.001280
# 6 0.000235 -0.001887 -0.001435 0.001458 -0.001280 0.025291
#
#
# Mechanical properties :
#
#
# Convention : Reuss Voigt Hill
#
# Bulk Modulus (GPa) = 38.86326 75.30404 57.08365
# Shear Modulus (GPa) = 34.47647 46.68662 40.58155
#
# Velocity S-wave (km/s) = 3.75313 4.36745 4.07189
# Velocity P-wave (km/s) = 5.88724 7.49664 6.74015
#
# Compressibility (1/GPa) = 0.02573124
#
# Stress axis : x y z
#
# Youngs Moduli (GPa) = 118.25002 41.59150 117.55221
#
# Poissons Ratio (x) = 0.18953 0.45269
# Poissons Ratio (y) = 0.53887 -0.09053
# Poissons Ratio (z) = 0.45537 -0.03203
#
# Static dielectric constant tensor:
#      x y z
#    x 2.080960 0.032260 0.041500 
#    y 0.032260 1.956970 -0.038160 
#    z 0.041500 -0.038160 2.034950 
# 
# From -- ./inp_files/20398.got.cif
#   From: 2010.05.17/outbox.cif.g08.bks.cpg/sg2_11_cif.got.tgz:20398.got - 2010.06.03 11:33:40.
