data_PCOD9107674
_publ_section_title
;
Structure prediction by ZEFSAII (Michael W. Deem and Ramdas Pophale) SiO2 
 PCOD9107674
Probable space group: P -1
;
_chemical_formula_sum "Si O2"
_cell_formula_units_Z 16
_cell_length_a 9.030647
_cell_length_b 15.865216
_cell_length_c 11.178027
_cell_angle_alpha 111.600364
_cell_angle_beta 134.776861
_cell_angle_gamma 39.267784
_cell_volume 661.251808
_symmetry_space_group_name_H-M "P -1"
_symmetry_group_IT_number 2
_symmetry_cell_setting 'triclinic'
loop_
_space_group_symop_operation_xyz
x,y,z
-x,-y,-z
loop_
_atom_site_type_symbol
_atom_site_label
_atom_site_fract_x
_atom_site_fract_y
_atom_site_fract_z
Si Si1 0.287679 0.141238 0.576250
Si Si2 0.460999 0.841057 0.885312
Si Si3 0.636507 0.585719 0.803170
Si Si4 0.203438 0.649298 0.781867
Si Si5 0.352298 0.924838 0.619125
Si Si6 0.027978 0.367117 0.724265
Si Si7 0.422664 0.387154 0.815669
Si Si8 0.279046 0.864470 0.304587
O O1 0.030748 0.288970 0.585134
O O2 0.604650 0.097210 0.703878
O O3 0.102863 0.195093 0.372045
O O4 0.338268 0.030755 0.614904
O O5 0.413370 0.751511 0.772910
O O6 0.558401 0.854373 0.822431
O O7 0.743835 0.748930 0.098475
O O8 0.116592 0.995223 0.824433
O O9 0.515525 0.561359 0.825687
O O10 0.694145 0.518791 0.673881
O O11 0.000000 0.500000 0.000000
O O12 0.177136 0.550095 0.719442
O O13 0.297735 0.658902 0.967838
O O14 0.444962 0.831099 0.510014
O O15 0.000000 0.000000 0.500000
O O16 0.224441 0.384281 0.785259
O O17 0.591206 0.273309 0.746648
#
# Coordination Sequence:
#
# PCOD9107674 Si02
#       8
#     2   2   2   2   2   2   2   2
#     4  11  25  42  65 100 130 165 218 268 325 378
#     4  10  21  42  67  90 134 174 207 269 310 382
#     4  10  20  40  65  91 124 170 217 255 320 375
#     4  11  22  42  65  98 132 165 210 277 317 375
#     4  10  22  40  63  91 132 169 210 259 323 378
#     4  10  23  44  67  97 127 170 222 260 317 389
#     4  10  23  41  69  97 127 168 216 259 332 384
#     4  10  23  44  64  96 130 170 216 258 326 389
#
# _framework density 24.196531
#
# number of rings (size 3 to 8) (size 9 to 14) (size 15 to 20)
#    0.000    1.750    2.500    1.875    0.000    9.000 
#    4.500    0.000    0.000    0.000    0.000    0.000 
#    0.000    0.000    0.000    0.000    0.000    0.000 
#
# Total GULP energy -89491.059344 kJ/mol
# GULP energy per Si atom -5593.191209 kJ/mol
# Density = 2.414146 g / cm^3
# Si number density = 24.196531 Si / 1000 Ang^3
#
#
#
# Elastic Constant Matrix: (Units=GPa)
#
#
# Indices 1 2 3 4 5 6 
#
# 1 109.6525 57.7262 34.0430 2.0439 -22.9791 4.2877
# 2 57.7262 132.3087 22.3901 33.0289 -8.2123 -2.9797
# 3 34.0430 22.3901 43.0079 2.1776 -13.4932 8.1453
# 4 2.0439 33.0289 2.1776 38.8863 -1.3679 -13.4054
# 5 -22.9791 -8.2123 -13.4932 -1.3679 29.2555 -6.1549
# 6 4.2877 -2.9797 8.1453 -13.4054 -6.1549 50.2418
#
#
#
# Elastic Compliance Matrix: (Units=1/GPa)
#
#
# Indices 1 2 3 4 5 6 
#
# 1 0.016820 -0.007120 -0.007716 0.006651 0.008428 0.002200
# 2 -0.007120 0.013650 -0.001586 -0.011917 -0.003455 -0.001929
# 3 -0.007716 -0.001586 0.033573 -0.001309 0.008024 -0.004245
# 4 0.006651 -0.011917 -0.001309 0.039206 0.005220 0.010038
# 5 0.008428 -0.003455 0.008024 0.005220 0.044755 0.004650
# 6 0.002200 -0.001929 -0.004245 0.010038 0.004650 0.023538
#
#
# Mechanical properties :
#
#
# Convention : Reuss Voigt Hill
#
# Bulk Modulus (GPa) = 32.05327 57.03195 44.54261
# Shear Modulus (GPa) = 23.27908 35.06404 29.17156
#
# Velocity S-wave (km/s) = 3.10511 3.81088 3.47596
# Velocity P-wave (km/s) = 5.11189 6.55631 5.87863
#
# Compressibility (1/GPa) = 0.03119807
#
# Stress axis : x y z
#
# Youngs Moduli (GPa) = 59.45314 73.25942 29.78623
#
# Poissons Ratio (x) = 0.52163 0.22984
# Poissons Ratio (y) = 0.42333 0.04723
# Poissons Ratio (z) = 0.45876 0.11616
#
# Static dielectric constant tensor:
#      x y z
#    x 1.934190 -0.020990 0.009050 
#    y -0.020990 1.950020 0.001880 
#    z 0.009050 0.001880 1.973790 
# 
# From -- ./inp_files/399335.got.cif
#   From: 2010.05.17/outbox.cif.g08.bks.cpg/sg2_200_cif.got.tgz:399335.got - 2010.06.03 11:33:40.
