data_PCOD9107776
_publ_section_title
;
Structure prediction by ZEFSAII (Michael W. Deem and Ramdas Pophale) SiO2 
 PCOD9107776
Probable space group: P -1
;
_chemical_formula_sum "Si O2"
_cell_formula_units_Z 14
_cell_length_a 22.574668
_cell_length_b 17.683763
_cell_length_c 6.893134
_cell_angle_alpha 134.605294
_cell_angle_beta 53.753663
_cell_angle_gamma 160.516796
_cell_volume 623.760394
_symmetry_space_group_name_H-M "P -1"
_symmetry_group_IT_number 2
_symmetry_cell_setting 'triclinic'
loop_
_space_group_symop_operation_xyz
x,y,z
-x,-y,-z
loop_
_atom_site_type_symbol
_atom_site_label
_atom_site_fract_x
_atom_site_fract_y
_atom_site_fract_z
Si Si1 0.485809 0.724484 0.583630
Si Si2 0.665872 0.669106 0.613699
Si Si3 0.796190 0.983418 0.276360
Si Si4 0.508503 0.166041 0.613670
Si Si5 0.962347 0.164870 0.676406
Si Si6 0.628286 0.248877 0.929444
Si Si7 0.131507 0.775386 0.756455
O O1 0.372645 0.501293 0.550823
O O2 0.656699 0.878752 0.464760
O O3 0.400785 0.649804 0.407659
O O4 0.530641 0.892653 0.913067
O O5 0.500000 0.500000 0.500000
O O6 0.852580 0.934333 0.605798
O O7 0.686094 0.760238 0.941008
O O8 0.906854 0.075414 0.400243
O O9 0.920076 0.217015 0.310573
O O10 0.634941 0.293423 0.773127
O O11 0.411555 0.928540 0.298528
O O12 0.343588 0.020536 0.755953
O O13 0.890520 0.183095 0.934648
O O14 0.181088 0.463082 0.821268
O O15 0.000000 0.500000 0.500000
#
# Coordination Sequence:
#
# PCOD9107776 Si02
#       7
#     2   2   2   2   2   2   2
#     4  11  23  40  67  94 122 168 214 253 320 380
#     4  11  24  42  70  94 124 162 216 272 313 373
#     4  10  23  40  65  94 123 162 215 268 314 371
#     4  10  23  43  65  91 133 171 211 255 313 379
#     4  11  23  41  63  98 128 166 211 263 317 368
#     4  11  24  42  62  93 134 172 204 259 315 385
#     4  10  20  40  65  96 124 166 216 265 311 366
#
# _framework density 22.444517000000001
#
# number of rings (size 3 to 8) (size 9 to 14) (size 15 to 20)
#    0.000    1.429    2.857    1.714    4.000    3.429 
#    2.571    1.429    0.000    0.000    0.000    0.000 
#    0.000    0.000    0.000    0.000    0.000    0.000 
#
# Total GULP energy -78216.548195 kJ/mol
# GULP energy per Si atom -5586.896300 kJ/mol
# Density = 2.239343 g / cm^3
# Si number density = 22.444517 Si / 1000 Ang^3
#
#
#
# Elastic Constant Matrix: (Units=GPa)
#
#
# Indices 1 2 3 4 5 6 
#
# 1 109.9952 28.6826 43.7602 -2.6956 19.2440 -22.4747
# 2 28.6826 45.7923 31.5031 3.6255 12.6314 -4.1946
# 3 43.7602 31.5031 93.7067 -8.9414 29.4197 -5.3899
# 4 -2.6956 3.6255 -8.9414 20.9881 2.3334 -2.2039
# 5 19.2440 12.6314 29.4197 2.3334 41.3066 -9.9589
# 6 -22.4747 -4.1946 -5.3899 -2.2039 -9.9589 33.3177
#
#
#
# Elastic Compliance Matrix: (Units=1/GPa)
#
#
# Indices 1 2 3 4 5 6 
#
# 1 0.013758 -0.005251 -0.003980 0.001840 -0.000131 0.008059
# 2 -0.005251 0.032370 -0.009309 -0.010351 -0.000686 -0.001863
# 3 -0.003980 -0.009309 0.019863 0.010426 -0.010802 -0.003182
# 4 0.001840 -0.010351 0.010426 0.055265 -0.007507 0.003036
# 5 -0.000131 -0.000686 -0.010802 -0.007507 0.034501 0.007894
# 6 0.008059 -0.001863 -0.003182 0.003036 0.007894 0.037261
#
#
# Mechanical properties :
#
#
# Convention : Reuss Voigt Hill
#
# Bulk Modulus (GPa) = 34.58988 50.82067 42.70527
# Shear Modulus (GPa) = 20.85629 28.82572 24.84100
#
# Velocity S-wave (km/s) = 3.05165 3.58762 3.33043
# Velocity P-wave (km/s) = 5.27840 6.31294 5.81871
#
# Compressibility (1/GPa) = 0.02891019
#
# Stress axis : x y z
#
# Youngs Moduli (GPa) = 72.68300 30.89313 50.34492
#
# Poissons Ratio (x) = 0.16223 0.20035
# Poissons Ratio (y) = 0.38169 0.46868
# Poissons Ratio (z) = 0.28924 0.28760
#
# Static dielectric constant tensor:
#      x y z
#    x 1.850120 0.017710 0.008160 
#    y 0.017710 1.864880 -0.010310 
#    z 0.008160 -0.010310 1.844570 
# 
# From -- ./inp_files/60734.got.cif
#   From: 2010.05.17/outbox.cif.g08.bks.cpg/sg2_31_cif.got.tgz:60734.got - 2010.06.03 11:33:40.
