data_PCOD9107789
_publ_section_title
;
Structure prediction by ZEFSAII (Michael W. Deem and Ramdas Pophale) SiO2 
 PCOD9107789
Probable space group: P -1
;
_chemical_formula_sum "Si O2"
_cell_formula_units_Z 14
_cell_length_a 5.246486
_cell_length_b 21.980242
_cell_length_c 5.313302
_cell_angle_alpha 79.109127
_cell_angle_beta 92.190783
_cell_angle_gamma 65.943807
_cell_volume 544.873379
_symmetry_space_group_name_H-M "P -1"
_symmetry_group_IT_number 2
_symmetry_cell_setting 'triclinic'
loop_
_space_group_symop_operation_xyz
x,y,z
-x,-y,-z
loop_
_atom_site_type_symbol
_atom_site_label
_atom_site_fract_x
_atom_site_fract_y
_atom_site_fract_z
Si Si1 0.530269 0.897434 0.504199
Si Si2 0.892649 0.608652 0.389484
Si Si3 0.257245 0.038923 0.156130
Si Si4 0.331155 0.709799 0.177281
Si Si5 0.218892 0.644814 0.740465
Si Si6 0.750321 0.511789 0.781546
Si Si7 0.113058 0.857445 0.258144
O O1 0.667905 0.901911 0.769232
O O2 0.345843 0.856270 0.468538
O O3 0.811629 0.871056 0.360664
O O4 0.305638 0.977508 0.396839
O O5 0.665689 0.669789 0.178982
O O6 0.767781 0.555550 0.505841
O O7 0.948977 0.636326 0.633999
O O8 0.172156 0.562337 0.281526
O O9 0.959916 0.077444 0.979792
O O10 0.500000 0.000000 0.000000
O O11 0.280267 0.681441 0.467820
O O12 0.230282 0.789289 0.153728
O O13 0.195733 0.689062 0.950799
O O14 0.456406 0.566280 0.840259
O O15 0.000000 0.500000 0.000000
#
# Coordination Sequence:
#
# PCOD9107789 Si02
#       7
#     2   2   2   2   2   2   2
#     4  10  23  43  68 100 137 174 231 284 347 408
#     4  10  23  41  64  94 133 170 221 286 344 410
#     4   9  21  42  69 103 133 176 225 288 345 409
#     4  11  27  43  63  97 134 176 235 271 343 416
#     4  11  25  44  66  95 130 181 221 284 342 411
#     4  10  20  40  65  97 127 166 225 282 343 412
#     4  11  25  42  67  98 136 186 226 285 342 418
#
# _framework density 25.694044000000002
#
# number of rings (size 3 to 8) (size 9 to 14) (size 15 to 20)
#    0.000    1.714    1.429    0.857    6.000    8.000 
#    0.000    0.000    0.000    0.000    0.000    0.000 
#    0.000    0.000    0.000    0.000    0.000    0.000 
#
# Total GULP energy -78243.956368 kJ/mol
# GULP energy per Si atom -5588.854026 kJ/mol
# Density = 2.563556 g / cm^3
# Si number density = 25.694044 Si / 1000 Ang^3
#
#
#
# Elastic Constant Matrix: (Units=GPa)
#
#
# Indices 1 2 3 4 5 6 
#
# 1 90.9696 29.8873 24.1710 17.9125 13.0485 -5.1843
# 2 29.8873 148.3249 38.3492 36.9622 10.3425 4.6816
# 3 24.1710 38.3492 110.7592 37.9071 14.8027 3.8701
# 4 17.9125 36.9622 37.9071 44.5143 8.6407 8.3360
# 5 13.0485 10.3425 14.8027 8.6407 46.1620 11.4920
# 6 -5.1843 4.6816 3.8701 8.3360 11.4920 21.1274
#
#
#
# Elastic Compliance Matrix: (Units=1/GPa)
#
#
# Indices 1 2 3 4 5 6 
#
# 1 0.013581 -0.001423 -0.000670 -0.004327 -0.004463 0.007906
# 2 -0.001423 0.008732 -0.000554 -0.006228 -0.000323 0.000450
# 3 -0.000670 -0.000554 0.013260 -0.010632 -0.002750 0.003220
# 4 -0.004327 -0.006228 -0.010632 0.040828 0.002119 -0.014995
# 5 -0.004463 -0.000323 -0.002750 0.002119 0.027550 -0.016342
# 6 0.007906 0.000450 0.003220 -0.014995 -0.016342 0.063388
#
#
# Mechanical properties :
#
#
# Convention : Reuss Voigt Hill
#
# Bulk Modulus (GPa) = 33.02593 59.42985 46.22789
# Shear Modulus (GPa) = 27.36322 39.53715 33.45018
#
# Velocity S-wave (km/s) = 3.26692 3.92697 3.61205
# Velocity P-wave (km/s) = 5.20690 6.61373 5.95203
#
# Compressibility (1/GPa) = 0.03027924
#
# Stress axis : x y z
#
# Youngs Moduli (GPa) = 73.63199 114.51753 75.41277
#
# Poissons Ratio (x) = 0.16301 0.05052
# Poissons Ratio (y) = 0.10481 0.04177
# Poissons Ratio (z) = 0.04932 0.06343
#
# Static dielectric constant tensor:
#      x y z
#    x 2.205080 0.054010 -0.095860 
#    y 0.054010 2.011690 -0.039640 
#    z -0.095860 -0.039640 2.109040 
# 
# From -- ./inp_files/7732.got.cif
#   From: 2010.05.17/outbox.cif.g08.bks.cpg/sg2_4_cif.got.tgz:7732.got - 2010.06.03 11:33:40.
