data_PCOD9107767
_publ_section_title
;
Structure prediction by ZEFSAII (Michael W. Deem and Ramdas Pophale) SiO2 
 PCOD9107767
Probable space group: P -1
;
_chemical_formula_sum "Si O2"
_cell_formula_units_Z 16
_cell_length_a 6.997967
_cell_length_b 20.275608
_cell_length_c 17.973914
_cell_angle_alpha 22.892989
_cell_angle_beta 38.579626
_cell_angle_gamma 39.075170
_cell_volume 601.865874
_symmetry_space_group_name_H-M "P -1"
_symmetry_group_IT_number 2
_symmetry_cell_setting 'triclinic'
loop_
_space_group_symop_operation_xyz
x,y,z
-x,-y,-z
loop_
_atom_site_type_symbol
_atom_site_label
_atom_site_fract_x
_atom_site_fract_y
_atom_site_fract_z
Si Si1 0.512167 0.856652 0.054001
Si Si2 0.149963 0.690522 0.835189
Si Si3 0.261282 0.959267 0.336013
Si Si4 0.291625 0.164641 0.532528
Si Si5 0.189628 0.502480 0.639179
Si Si6 0.014895 0.920469 0.944168
Si Si7 0.226043 0.554595 0.311401
Si Si8 0.067187 0.639536 0.736759
O O1 0.677808 0.663605 0.176718
O O2 0.149812 0.909670 0.134169
O O3 0.720828 0.859250 0.062038
O O4 0.570409 0.003425 0.828583
O O5 0.467414 0.761732 0.668093
O O6 0.075439 0.663041 0.799633
O O7 0.895874 0.854375 0.774289
O O8 0.138278 0.502902 0.068158
O O9 0.519505 0.859306 0.420287
O O10 0.008382 0.842317 0.520183
O O11 0.967192 0.310781 0.474113
O O12 0.203850 0.976524 0.758986
O O13 0.500000 0.500000 0.500000
O O14 0.917830 0.476342 0.693063
O O15 0.199639 0.763111 0.101592
O O16 0.582791 0.445792 0.312342
O O17 0.000000 0.500000 0.500000
#
# Coordination Sequence:
#
# PCOD9107767 Si02
#       8
#     2   2   2   2   2   2   2   2
#     4  10  23  42  59  92 134 166 204 262 329 383
#     4  10  22  40  66  97 127 166 217 273 318 363
#     4  11  22  41  68  98 122 163 225 271 304 377
#     4  11  21  41  66  92 120 168 221 255 313 384
#     4  11  22  40  59  89 134 168 195 259 328 381
#     4  10  22  39  64  87 130 174 200 255 335 386
#     4  11  22  38  64  98 122 162 218 260 316 385
#     4  10  20  40  65  95 132 163 209 277 321 367
#
# _framework density 26.583995999999999
#
# number of rings (size 3 to 8) (size 9 to 14) (size 15 to 20)
#    0.000    1.500    3.750    3.000    0.000    3.500 
#    2.250    1.250    0.000    0.000    0.000    0.000 
#    0.000    0.000    0.000    0.000    0.000    0.000 
#
# Total GULP energy -89404.920936 kJ/mol
# GULP energy per Si atom -5587.807558 kJ/mol
# Density = 2.652349 g / cm^3
# Si number density = 26.583996 Si / 1000 Ang^3
#
#
#
# Elastic Constant Matrix: (Units=GPa)
#
#
# Indices 1 2 3 4 5 6 
#
# 1 71.4892 25.5724 16.3862 -9.2572 6.7857 -5.6868
# 2 25.5724 109.5845 48.0297 -6.8213 1.8083 -0.7136
# 3 16.3862 48.0297 202.5718 -3.8207 5.3772 -19.5668
# 4 -9.2572 -6.8213 -3.8207 46.0113 -6.6233 -2.9331
# 5 6.7857 1.8083 5.3772 -6.6233 49.2008 -6.0207
# 6 -5.6868 -0.7136 -19.5668 -2.9331 -6.0207 35.7855
#
#
#
# Elastic Compliance Matrix: (Units=1/GPa)
#
#
# Indices 1 2 3 4 5 6 
#
# 1 0.015917 -0.003444 -0.000157 0.002626 -0.001410 0.002353
# 2 -0.003444 0.011047 -0.002488 0.000671 0.000236 -0.001593
# 3 -0.000157 -0.002488 0.005849 0.000269 -0.000107 0.003128
# 4 0.002626 0.000671 0.000269 0.023012 0.003046 0.002976
# 5 -0.001410 0.000236 -0.000107 0.003046 0.021369 0.003567
# 6 0.002353 -0.001593 0.003128 0.002976 0.003567 0.030841
#
#
# Mechanical properties :
#
#
# Convention : Reuss Voigt Hill
#
# Bulk Modulus (GPa) = 48.45896 62.62467 55.54182
# Shear Modulus (GPa) = 39.34207 45.77666 42.55937
#
# Velocity S-wave (km/s) = 3.85114 4.15416 4.00551
# Velocity P-wave (km/s) = 6.16792 6.82772 6.50619
#
# Compressibility (1/GPa) = 0.02063602
#
# Stress axis : x y z
#
# Youngs Moduli (GPa) = 62.82624 90.52255 170.96414
#
# Poissons Ratio (x) = 0.31172 0.02681
# Poissons Ratio (y) = 0.21635 0.42538
# Poissons Ratio (z) = 0.00985 0.22523
#
# Static dielectric constant tensor:
#      x y z
#    x 2.186960 0.076150 -0.070070 
#    y 0.076150 2.108010 -0.056490 
#    z -0.070070 -0.056490 2.220720 
# 
# From -- ./inp_files/241021.got.cif
#   From: 2010.05.17/outbox.cif.g08.bks.cpg/sg2_121_cif.got.tgz:241021.got - 2010.06.03 11:33:40.
