data_PCOD9107725
_publ_section_title
;
Structure prediction by ZEFSAII (Michael W. Deem and Ramdas Pophale) SiO2 
 PCOD9107725
Probable space group: P -1
;
_chemical_formula_sum "Si O2"
_cell_formula_units_Z 14
_cell_length_a 10.590858
_cell_length_b 9.709835
_cell_length_c 12.473498
_cell_angle_alpha 131.891957
_cell_angle_beta 39.068733
_cell_angle_gamma 134.897155
_cell_volume 551.700406
_symmetry_space_group_name_H-M "P -1"
_symmetry_group_IT_number 2
_symmetry_cell_setting 'triclinic'
loop_
_space_group_symop_operation_xyz
x,y,z
-x,-y,-z
loop_
_atom_site_type_symbol
_atom_site_label
_atom_site_fract_x
_atom_site_fract_y
_atom_site_fract_z
Si Si1 0.717497 0.894354 0.222064
Si Si2 0.995632 0.675554 0.017364
Si Si3 0.739794 0.423415 0.377645
Si Si4 0.287364 0.160969 0.452119
Si Si5 0.841907 0.745720 0.848002
Si Si6 0.262560 0.598617 0.381609
Si Si7 0.160025 0.043661 0.245750
O O1 0.458285 0.820376 0.360487
O O2 0.892868 0.118099 0.254887
O O3 0.790507 0.737039 0.161349
O O4 0.766803 0.854468 0.046619
O O5 0.068820 0.628099 0.828074
O O6 0.155390 0.866179 0.079075
O O7 0.000000 0.500000 0.000000
O O8 0.521888 0.236464 0.388831
O O9 0.756460 0.633980 0.424157
O O10 0.716356 0.447427 0.530555
O O11 0.086396 0.008481 0.574105
O O12 0.290860 0.078740 0.287715
O O13 0.721058 0.504732 0.798606
O O14 0.770437 0.776945 0.790973
O O15 0.000000 0.500000 0.500000
#
# Coordination Sequence:
#
# PCOD9107725 Si02
#       7
#     2   2   2   2   2   2   2
#     4  10  24  44  67  96 136 178 221 280 333 394
#     4  11  22  38  64  97 133 174 216 273 330 398
#     4  11  22  38  61  96 129 167 221 270 331 390
#     4  10  21  38  64  92 129 174 213 274 327 393
#     4  10  21  42  68  95 133 177 223 273 336 398
#     4  12  25  43  68  99 130 179 227 275 334 400
#     4  10  20  40  65  93 131 175 219 270 334 394
#
# _framework density 25.376090999999999
#
# number of rings (size 3 to 8) (size 9 to 14) (size 15 to 20)
#    0.000    1.429    2.857    3.000    2.000    1.143 
#    0.000    5.714    0.000    0.000    0.000    0.000 
#    0.000    0.000    0.000    0.000    0.000    0.000 
#
# Total GULP energy -78026.418453 kJ/mol
# GULP energy per Si atom -5573.315604 kJ/mol
# Density = 2.531833 g / cm^3
# Si number density = 25.376091 Si / 1000 Ang^3
#
#
#
# Elastic Constant Matrix: (Units=GPa)
#
#
# Indices 1 2 3 4 5 6 
#
# 1 82.0690 33.2540 28.4886 -2.5064 31.8186 16.8906
# 2 33.2540 82.8252 25.6020 9.6753 2.5363 36.3048
# 3 28.4886 25.6020 96.0157 10.9016 23.1976 18.8472
# 4 -2.5064 9.6753 10.9016 48.8233 13.9752 10.7422
# 5 31.8186 2.5363 23.1976 13.9752 50.8121 12.0676
# 6 16.8906 36.3048 18.8472 10.7422 12.0676 43.2965
#
#
#
# Elastic Compliance Matrix: (Units=1/GPa)
#
#
# Indices 1 2 3 4 5 6 
#
# 1 0.022567 -0.010279 -0.001612 0.007359 -0.015630 0.003048
# 2 -0.010279 0.025053 -0.002425 -0.004333 0.011797 -0.018154
# 3 -0.001612 -0.002425 0.012962 -0.000961 -0.004146 -0.001586
# 4 0.007359 -0.004333 -0.000961 0.025402 -0.010413 -0.002219
# 5 -0.015630 0.011797 -0.004146 -0.010413 0.035869 -0.009403
# 6 0.003048 -0.018154 -0.001586 -0.002219 -0.009403 0.040992
#
#
# Mechanical properties :
#
#
# Convention : Reuss Voigt Hill
#
# Bulk Modulus (GPa) = 31.30001 48.39992 39.84996
# Shear Modulus (GPa) = 24.73683 40.15740 32.44711
#
# Velocity S-wave (km/s) = 3.12558 3.98237 3.57970
# Velocity P-wave (km/s) = 5.03854 6.34509 5.72918
#
# Compressibility (1/GPa) = 0.03194887
#
# Stress axis : x y z
#
# Youngs Moduli (GPa) = 44.31247 39.91566 77.14812
#
# Poissons Ratio (x) = 0.41030 0.12440
# Poissons Ratio (y) = 0.45550 0.18707
# Poissons Ratio (z) = 0.07145 0.09679
#
# Static dielectric constant tensor:
#      x y z
#    x 2.166840 -0.289000 -0.176030 
#    y -0.289000 2.456540 0.269750 
#    z -0.176030 0.269750 2.346720 
# 
# From -- ./inp_files/426623.got.cif
#   From: 2010.05.17/outbox.cif.g08.bks.cpg/sg2_214_cif.got.tgz:426623.got - 2010.06.03 11:33:40.
