data_PCOD9107561
_publ_section_title
;
Structure prediction by ZEFSAII (Michael W. Deem and Ramdas Pophale) SiO2 
 PCOD9107561
Probable space group: P -1
;
_chemical_formula_sum "Si O2"
_cell_formula_units_Z 16
_cell_length_a 12.410329
_cell_length_b 6.432616
_cell_length_c 21.547760
_cell_angle_alpha 72.736209
_cell_angle_beta 148.419488
_cell_angle_gamma 121.071969
_cell_volume 731.387836
_symmetry_space_group_name_H-M "P -1"
_symmetry_group_IT_number 2
_symmetry_cell_setting 'triclinic'
loop_
_space_group_symop_operation_xyz
x,y,z
-x,-y,-z
loop_
_atom_site_type_symbol
_atom_site_label
_atom_site_fract_x
_atom_site_fract_y
_atom_site_fract_z
Si Si1 0.374947 0.407755 0.587607
Si Si2 0.245688 0.450837 0.647934
Si Si3 0.123578 0.067131 0.186415
Si Si4 0.182077 0.789749 0.046984
Si Si5 0.461393 0.962210 0.295968
Si Si6 0.962678 0.447978 0.343812
Si Si7 0.745445 0.720440 0.134111
Si Si8 0.599562 0.869949 0.172552
O O1 0.208203 0.305568 0.577407
O O2 0.650150 0.645379 0.713157
O O3 0.400027 0.172199 0.600388
O O4 0.231054 0.497187 0.466210
O O5 0.069420 0.455551 0.612685
O O6 0.397778 0.359858 0.769828
O O7 0.381073 0.735614 0.662177
O O8 0.243186 0.907095 0.238724
O O9 0.937365 0.929899 0.162599
O O10 0.970730 0.079732 0.052924
O O11 0.362767 0.882006 0.185100
O O12 0.336558 0.824704 0.058204
O O13 0.000000 0.500000 0.000000
O O14 0.878011 0.587845 0.242871
O O15 0.786394 0.143725 0.271425
O O16 0.672432 0.851320 0.140234
O O17 0.500000 0.500000 0.000000
#
# Coordination Sequence:
#
# PCOD9107561 Si02
#       8
#     2   2   2   2   2   2   2   2
#     4  11  23  42  66 100 133 173 216 269 333 390
#     4  10  20  40  65 102 136 167 212 270 332 395
#     4  11  26  42  65  94 134 175 221 268 321 390
#     4  12  21  40  67  99 132 168 213 274 337 390
#     4  11  22  40  64  98 134 170 213 269 338 387
#     4  11  24  43  68  95 133 176 219 271 324 387
#     4  11  28  47  68  95 129 178 223 270 320 384
#     4  11  24  43  68  99 132 172 222 269 326 391
#
# _framework density 21.876218000000001
#
# number of rings (size 3 to 8) (size 9 to 14) (size 15 to 20)
#    0.000    1.000    3.750    2.250    3.500    9.500 
#    0.000    1.250    0.000    0.000    0.000    0.000 
#    0.000    0.000    0.000    0.000    0.000    0.000 
#
# Total GULP energy -89306.120136 kJ/mol
# GULP energy per Si atom -5581.632508 kJ/mol
# Density = 2.182643 g / cm^3
# Si number density = 21.876218 Si / 1000 Ang^3
#
#
#
# Elastic Constant Matrix: (Units=GPa)
#
#
# Indices 1 2 3 4 5 6 
#
# 1 102.8281 39.7874 28.0114 0.1109 7.0261 -1.5148
# 2 39.7874 74.3165 32.1600 0.0231 16.7407 -6.3668
# 3 28.0114 32.1600 91.1716 -13.5905 14.6007 3.8861
# 4 0.1109 0.0231 -13.5905 29.9852 -11.9816 7.1320
# 5 7.0261 16.7407 14.6007 -11.9816 19.5638 -8.3747
# 6 -1.5148 -6.3668 3.8861 7.1320 -8.3747 33.4696
#
#
#
# Elastic Compliance Matrix: (Units=1/GPa)
#
#
# Indices 1 2 3 4 5 6 
#
# 1 0.012590 -0.006434 -0.002022 0.000030 0.002608 0.000227
# 2 -0.006434 0.023682 -0.004854 -0.010669 -0.019989 0.002049
# 3 -0.002022 -0.004854 0.015255 0.006201 -0.005002 -0.005359
# 4 0.000030 -0.010669 0.006201 0.050725 0.033322 -0.005219
# 5 0.002608 -0.019989 -0.005002 0.033322 0.097499 0.014192
# 6 0.000227 0.002049 -0.005359 -0.005219 0.014192 0.035563
#
#
# Mechanical properties :
#
#
# Convention : Reuss Voigt Hill
#
# Bulk Modulus (GPa) = 40.14429 52.02597 46.08513
# Shear Modulus (GPa) = 18.50231 27.82755 23.16493
#
# Velocity S-wave (km/s) = 2.91137 3.57044 3.25762
# Velocity P-wave (km/s) = 5.44903 6.38992 5.93814
#
# Compressibility (1/GPa) = 0.02491014
#
# Stress axis : x y z
#
# Youngs Moduli (GPa) = 79.42695 42.22530 65.55042
#
# Poissons Ratio (x) = 0.27167 0.13251
# Poissons Ratio (y) = 0.51102 0.31816
# Poissons Ratio (z) = 0.16057 0.20495
#
# Static dielectric constant tensor:
#      x y z
#    x 1.870950 -0.056240 -0.044100 
#    y -0.056240 1.811460 0.042450 
#    z -0.044100 0.042450 1.906670 
# 
# From -- ./inp_files/77399.got.cif
#   From: 2010.05.17/outbox.cif.g08.bks.cpg/sg2_39_cif.got.tgz:77399.got - 2010.06.03 11:33:40.
