data_PCOD9107027
_publ_section_title
;
Structure prediction by ZEFSAII (Michael W. Deem and Ramdas Pophale) SiO2 
 PCOD9107027
Probable space group: P -1
;
_chemical_formula_sum "Si O2"
_cell_formula_units_Z 16
_cell_length_a 15.403038
_cell_length_b 11.697209
_cell_length_c 5.078717
_cell_angle_alpha 82.486575
_cell_angle_beta 117.895795
_cell_angle_gamma 81.577921
_cell_volume 778.935469
_symmetry_space_group_name_H-M "P -1"
_symmetry_group_IT_number 2
_symmetry_cell_setting 'triclinic'
loop_
_space_group_symop_operation_xyz
x,y,z
-x,-y,-z
loop_
_atom_site_type_symbol
_atom_site_label
_atom_site_fract_x
_atom_site_fract_y
_atom_site_fract_z
Si Si1 0.994931 0.856666 0.713237
Si Si2 0.116881 0.018906 0.988183
Si Si3 0.483110 0.646645 0.107793
Si Si4 0.609716 0.548714 0.818682
Si Si5 0.926160 0.629355 0.873201
Si Si6 0.214347 0.328920 0.827909
Si Si7 0.505567 0.103376 0.777912
Si Si8 0.326666 0.081729 0.213511
O O1 0.947911 0.889037 0.347195
O O2 0.984930 0.728804 0.834618
O O3 0.926738 0.949239 0.792629
O O4 0.101534 0.892636 0.897411
O O5 0.229349 0.035760 0.166208
O O6 0.570494 0.582369 0.457901
O O7 0.391599 0.586304 0.069078
O O8 0.463183 0.785265 0.087706
O O9 0.524402 0.619916 0.879718
O O10 0.711568 0.588555 0.009074
O O11 0.839727 0.632953 0.533660
O O12 0.869893 0.662129 0.063703
O O13 0.000000 0.500000 0.000000
O O14 0.279719 0.193345 0.925906
O O15 0.393091 0.141192 0.487594
O O16 0.591406 0.035151 0.723326
O O17 0.500000 0.000000 0.000000
#
# Coordination Sequence:
#
# PCOD9107027 Si02
#       8
#     2   2   2   2   2   2   2   2
#     4  10  20  40  62  93 118 158 205 259 311 377
#     4  10  21  37  66  88 121 162 208 249 309 380
#     4  10  21  40  61  89 132 163 208 264 303 360
#     4  10  21  39  66  90 117 174 216 246 308 376
#     4  12  25  42  65  94 126 157 205 273 318 373
#     4  12  23  41  69  90 123 167 217 249 315 393
#     4  11  25  38  61  96 137 164 212 270 309 362
#     4  11  23  39  61  96 123 175 209 257 313 377
#
# _framework density 20.540855000000001
#
# number of rings (size 3 to 8) (size 9 to 14) (size 15 to 20)
#    0.000    1.250    3.750    1.875    5.250    0.000 
#    2.250    1.250    0.000    0.000    0.000    0.000 
#    0.000    0.000    0.000    0.000    0.000    0.000 
#
# Total GULP energy -89275.317026 kJ/mol
# GULP energy per Si atom -5579.707314 kJ/mol
# Density = 2.049410 g / cm^3
# Si number density = 20.540855 Si / 1000 Ang^3
#
#
#
# Elastic Constant Matrix: (Units=GPa)
#
#
# Indices 1 2 3 4 5 6 
#
# 1 63.8602 27.3677 8.8586 3.6589 7.0315 16.7639
# 2 27.3677 123.2907 -0.3438 2.0709 11.1896 30.0412
# 3 8.8586 -0.3438 55.5692 1.9782 1.2006 -17.1197
# 4 3.6589 2.0709 1.9782 28.8930 0.2766 -2.4797
# 5 7.0315 11.1896 1.2006 0.2766 33.6997 10.1974
# 6 16.7639 30.0412 -17.1197 -2.4797 10.1974 33.8064
#
#
#
# Elastic Compliance Matrix: (Units=1/GPa)
#
#
# Indices 1 2 3 4 5 6 
#
# 1 0.020860 -0.001444 -0.007260 -0.003167 0.000370 -0.013081
# 2 -0.001444 0.011051 -0.002947 -0.001325 -0.000018 -0.010689
# 3 -0.007260 -0.002947 0.025558 0.001199 -0.004679 0.020661
# 4 -0.003167 -0.001325 0.001199 0.035577 -0.001143 0.006309
# 5 0.000370 -0.000018 -0.004679 -0.001143 0.033642 -0.012769
# 6 -0.013081 -0.010689 0.020661 0.006309 -0.012769 0.060342
#
#
# Mechanical properties :
#
#
# Convention : Reuss Voigt Hill
#
# Bulk Modulus (GPa) = 29.26625 34.94278 32.10452
# Shear Modulus (GPa) = 22.55087 33.06898 27.80992
#
# Velocity S-wave (km/s) = 3.31698 4.01672 3.68351
# Velocity P-wave (km/s) = 5.38039 6.20970 5.80986
#
# Compressibility (1/GPa) = 0.03416905
#
# Stress axis : x y z
#
# Youngs Moduli (GPa) = 47.93956 90.48554 39.12634
#
# Poissons Ratio (x) = 0.13062 0.28404
# Poissons Ratio (y) = 0.06920 0.11530
# Poissons Ratio (z) = 0.34802 0.26666
#
# Static dielectric constant tensor:
#      x y z
#    x 1.924130 -0.169410 0.127450 
#    y -0.169410 2.007250 -0.128660 
#    z 0.127450 -0.128660 1.838110 
# 
# From -- ./inp_files/94834.got.cif
#   From: 2010.05.17/outbox.cif.g08.bks.cpg/sg2_48_cif.got.tgz:94834.got - 2010.06.03 11:33:40.
