data_PCOD9107090
_publ_section_title
;
Structure prediction by ZEFSAII (Michael W. Deem and Ramdas Pophale) SiO2 
 PCOD9107090
Probable space group: P -1
;
_chemical_formula_sum "Si O2"
_cell_formula_units_Z 16
_cell_length_a 6.559605
_cell_length_b 8.867371
_cell_length_c 15.159511
_cell_angle_alpha 76.878389
_cell_angle_beta 65.612057
_cell_angle_gamma 101.100992
_cell_volume 740.269655
_symmetry_space_group_name_H-M "P -1"
_symmetry_group_IT_number 2
_symmetry_cell_setting 'triclinic'
loop_
_space_group_symop_operation_xyz
x,y,z
-x,-y,-z
loop_
_atom_site_type_symbol
_atom_site_label
_atom_site_fract_x
_atom_site_fract_y
_atom_site_fract_z
Si Si1 0.532219 0.090789 0.388792
Si Si2 0.919377 0.770381 0.776502
Si Si3 0.573091 0.180306 0.922455
Si Si4 0.069916 0.542425 0.081684
Si Si5 0.291718 0.356416 0.357426
Si Si6 0.973546 0.111753 0.756612
Si Si7 0.928428 0.129748 0.559309
Si Si8 0.667784 0.683458 0.200255
O O1 0.803032 0.149035 0.305536
O O2 0.450612 0.252444 0.382961
O O3 0.500000 0.000000 0.500000
O O4 0.353693 0.954404 0.376029
O O5 0.889948 0.613480 0.860493
O O6 0.777738 0.713877 0.719057
O O7 0.857212 0.916832 0.814761
O O8 0.782970 0.192991 0.812864
O O9 0.384041 0.231992 0.891016
O O10 0.694193 0.307201 0.961136
O O11 0.500000 0.000000 0.000000
O O12 0.850845 0.586253 0.157924
O O13 0.000000 0.500000 0.000000
O O14 0.434296 0.546998 0.297798
O O15 0.050723 0.300611 0.465287
O O16 0.023028 0.139624 0.640098
O O17 0.202182 0.184118 0.767195
O O18 0.000000 0.000000 0.500000
#
# Coordination Sequence:
#
# PCOD9107090 Si02
#       8
#     2   2   2   2   2   2   2   2
#     4  11  20  35  66 101 132 175 226 281 331 382
#     4  12  22  41  71 103 137 176 235 285 332 413
#     4  11  28  49  69  98 143 182 225 288 355 415
#     4  11  27  45  73 106 129 176 239 289 348 410
#     4  11  21  42  67  97 139 182 228 281 330 405
#     4  11  26  43  68 104 141 181 231 278 349 409
#     4  10  20  40  63 103 138 174 236 278 323 406
#     4  11  26  47  68  99 146 181 223 284 358 408
#
# _framework density 21.613745000000002
#
# number of rings (size 3 to 8) (size 9 to 14) (size 15 to 20)
#    0.000    1.000    6.250    0.750    5.250    3.000 
#    0.000    0.625    0.000    0.000    0.000    0.000 
#    0.000    0.000    0.000    0.000    0.000    0.000 
#
# Total GULP energy -89420.551944 kJ/mol
# GULP energy per Si atom -5588.784496 kJ/mol
# Density = 2.156455 g / cm^3
# Si number density = 21.613745 Si / 1000 Ang^3
#
#
#
# Elastic Constant Matrix: (Units=GPa)
#
#
# Indices 1 2 3 4 5 6 
#
# 1 58.7147 29.5866 14.1056 3.7786 29.2010 13.2047
# 2 29.5866 122.3680 54.5810 -6.8097 33.1398 26.8550
# 3 14.1056 54.5810 86.3226 -7.2159 35.5087 12.9348
# 4 3.7786 -6.8097 -7.2159 43.0585 -2.5787 4.6621
# 5 29.2010 33.1398 35.5087 -2.5787 45.1655 0.9037
# 6 13.2047 26.8550 12.9348 4.6621 0.9037 42.1325
#
#
#
# Elastic Compliance Matrix: (Units=1/GPa)
#
#
# Indices 1 2 3 4 5 6 
#
# 1 0.030635 -0.002268 0.007596 -0.002160 -0.024042 -0.009733
# 2 -0.002268 0.013849 -0.005570 0.001919 -0.004076 -0.006531
# 3 0.007596 -0.005570 0.022289 0.001694 -0.018141 -0.005471
# 4 -0.002160 0.001919 0.001694 0.024417 0.000127 -0.003771
# 5 -0.024042 -0.004076 -0.018141 0.000127 0.054654 0.014516
# 6 -0.009733 -0.006531 -0.005471 -0.003771 0.014516 0.032733
#
#
# Mechanical properties :
#
#
# Convention : Reuss Voigt Hill
#
# Bulk Modulus (GPa) = 15.08585 51.55018 33.31801
# Shear Modulus (GPa) = 24.85604 37.34678 31.10141
#
# Velocity S-wave (km/s) = 3.39486 4.16133 3.79748
# Velocity P-wave (km/s) = 4.72881 6.85502 5.88868
#
# Compressibility (1/GPa) = 0.06628729
#
# Stress axis : x y z
#
# Youngs Moduli (GPa) = 32.64277 72.20778 44.86517
#
# Poissons Ratio (x) = 0.16377 -0.34079
# Poissons Ratio (y) = 0.07403 0.24992
# Poissons Ratio (z) = -0.24795 0.40223
#
# Static dielectric constant tensor:
#      x y z
#    x 1.857320 -0.014360 -0.030300 
#    y -0.014360 1.798180 -0.000430 
#    z -0.030300 -0.000430 1.815410 
# 
# From -- ./inp_files/480416.got.cif
#   From: 2010.05.17/outbox.cif.g08.bks.cpg/sg2_241_cif.got.tgz:480416.got - 2010.06.03 11:33:40.
