data_PCOD9107306
_publ_section_title
;
Structure prediction by ZEFSAII (Michael W. Deem and Ramdas Pophale) SiO2 
 PCOD9107306
Probable space group: P -1
;
_chemical_formula_sum "Si O2"
_cell_formula_units_Z 13
_cell_length_a 6.829297
_cell_length_b 9.318450
_cell_length_c 17.287143
_cell_angle_alpha 146.443595
_cell_angle_beta 70.114414
_cell_angle_gamma 91.807773
_cell_volume 500.204208
_symmetry_space_group_name_H-M "P -1"
_symmetry_group_IT_number 2
_symmetry_cell_setting 'triclinic'
loop_
_space_group_symop_operation_xyz
x,y,z
-x,-y,-z
loop_
_atom_site_type_symbol
_atom_site_label
_atom_site_fract_x
_atom_site_fract_y
_atom_site_fract_z
Si Si1 0.468247 0.380075 0.619181
Si Si2 0.124919 0.270789 0.950463
Si Si3 0.944123 0.823545 0.758178
Si Si4 0.280612 0.942096 0.420491
Si Si5 0.389078 0.853408 0.193315
Si Si6 0.947855 0.572613 0.796339
Si Si7 0.500000 0.500000 0.500000
O O1 0.613386 0.325183 0.653653
O O2 0.192221 0.596798 0.773945
O O3 0.560668 0.464608 0.569272
O O4 0.472835 0.068726 0.457072
O O5 0.394950 0.066992 0.793543
O O6 0.976846 0.102261 0.902673
O O7 0.000000 0.500000 0.000000
O O8 0.154813 0.358395 0.072936
O O9 0.828361 0.743974 0.810511
O O10 0.217600 0.574665 0.593334
O O11 0.786858 0.938238 0.754408
O O12 0.270953 0.892465 0.309557
O O13 0.952579 0.775687 0.388860
O O14 0.500000 0.500000 0.000000
#
# Coordination Sequence:
#
# PCOD9107306 Si02
#       7
#     2   2   2   2   2   2   1
#     4   8  17  34  67  91 129 164 226 264 328 384
#     4  12  24  43  74  94 135 184 220 273 343 397
#     4  11  25  43  69  99 141 167 233 272 340 397
#     4   9  19  39  65  90 133 174 218 276 323 388
#     4  12  26  43  68 103 136 174 227 281 330 402
#     4   9  21  41  65  99 133 176 221 278 331 396
#     4  10  20  40  64 104 122 176 216 276 328 394
#
# _framework density 25.989386
#
# number of rings (size 3 to 8) (size 9 to 14) (size 15 to 20)
#    0.923    0.923    1.538    2.308    2.154    1.231 
#    0.000    3.077    0.000    0.000    0.000    0.000 
#    0.000    0.000    0.000    0.000    0.000    0.000 
#
# Total GULP energy -72461.514297 kJ/mol
# GULP energy per Si atom -5573.962638 kJ/mol
# Density = 2.593023 g / cm^3
# Si number density = 25.989386 Si / 1000 Ang^3
#
#
#
# Elastic Constant Matrix: (Units=GPa)
#
#
# Indices 1 2 3 4 5 6 
#
# 1 100.6387 52.7350 3.8636 -8.9125 -5.3190 -33.8696
# 2 52.7350 244.8775 68.1128 -37.3803 3.1845 -45.3857
# 3 3.8636 68.1128 71.7383 -38.9256 4.1889 -21.2957
# 4 -8.9125 -37.3803 -38.9256 60.5843 3.5746 8.5855
# 5 -5.3190 3.1845 4.1889 3.5746 28.9901 5.5739
# 6 -33.8696 -45.3857 -21.2957 8.5855 5.5739 66.5571
#
#
#
# Elastic Compliance Matrix: (Units=1/GPa)
#
#
# Indices 1 2 3 4 5 6 
#
# 1 0.013592 -0.002815 0.005251 0.002716 0.000501 0.006285
# 2 -0.002815 0.006485 -0.005729 -0.000233 -0.000610 0.001238
# 3 0.005251 -0.005729 0.030174 0.016010 -0.006061 0.006862
# 4 0.002716 -0.000233 0.016010 0.026912 -0.005753 0.003356
# 5 0.000501 -0.000610 -0.006061 -0.005753 0.037097 -0.004465
# 6 0.006285 0.001238 0.006862 0.003356 -0.004465 0.021204
#
#
# Mechanical properties :
#
#
# Convention : Reuss Voigt Hill
#
# Bulk Modulus (GPa) = 22.90143 74.07528 48.48835
# Shear Modulus (GPa) = 31.92726 50.72918 41.32822
#
# Velocity S-wave (km/s) = 3.50876 4.42285 3.99205
# Velocity P-wave (km/s) = 5.02456 7.39230 6.32030
#
# Compressibility (1/GPa) = 0.04366540
#
# Stress axis : x y z
#
# Youngs Moduli (GPa) = 73.57240 154.19742 33.14062
#
# Poissons Ratio (x) = 0.43400 -0.17401
# Poissons Ratio (y) = 0.20707 0.18987
# Poissons Ratio (z) = -0.38630 0.88343
#
# Static dielectric constant tensor:
#      x y z
#    x 2.302570 0.209270 0.127260 
#    y 0.209270 2.203160 0.148600 
#    z 0.127260 0.148600 2.113280 
# 
# From -- ./inp_files/547624.got.cif
#   From: 2010.05.17/outbox.cif.g08.bks.cpg/sg2_274_cif.got.tgz:547624.got - 2010.06.03 11:33:40.
