data_PCOD9107290
_publ_section_title
;
Structure prediction by ZEFSAII (Michael W. Deem and Ramdas Pophale) SiO2 
 PCOD9107290
Probable space group: P -1
;
_chemical_formula_sum "Si O2"
_cell_formula_units_Z 16
_cell_length_a 8.439912
_cell_length_b 16.293822
_cell_length_c 12.708002
_cell_angle_alpha 140.494956
_cell_angle_beta 145.995844
_cell_angle_gamma 47.652735
_cell_volume 618.887474
_symmetry_space_group_name_H-M "P -1"
_symmetry_group_IT_number 2
_symmetry_cell_setting 'triclinic'
loop_
_space_group_symop_operation_xyz
x,y,z
-x,-y,-z
loop_
_atom_site_type_symbol
_atom_site_label
_atom_site_fract_x
_atom_site_fract_y
_atom_site_fract_z
Si Si1 0.123056 0.939028 0.398758
Si Si2 0.803413 0.059659 0.138752
Si Si3 0.082950 0.700629 0.256202
Si Si4 0.794673 0.520167 0.621345
Si Si5 0.588064 0.534671 0.298144
Si Si6 0.692861 0.807384 0.526855
Si Si7 0.325762 0.345815 0.840848
Si Si8 0.581981 0.800570 0.773745
O O1 0.051891 0.790816 0.226438
O O2 0.460566 0.919814 0.549280
O O3 0.985129 0.012336 0.295670
O O4 0.000000 0.000000 0.500000
O O5 0.542129 0.151030 0.133799
O O6 0.699307 0.925487 0.908801
O O7 0.000779 0.139330 0.255168
O O8 0.257439 0.567008 0.184897
O O9 0.314363 0.757412 0.517960
O O10 0.793893 0.706909 0.168367
O O11 0.500000 0.500000 0.500000
O O12 0.802374 0.674633 0.777393
O O13 0.758856 0.482030 0.441954
O O14 0.054081 0.436290 0.734999
O O15 0.678594 0.674768 0.453104
O O16 0.574570 0.434026 0.096353
O O17 0.608767 0.763157 0.318650
#
# Coordination Sequence:
#
# PCOD9107290 Si02
#       8
#     2   2   2   2   2   2   2   2
#     4  11  22  40  69  94 131 180 234 286 345 419
#     4  11  22  41  69  92 138 183 228 291 349 404
#     4  10  20  40  63  99 132 173 233 284 330 419
#     4  11  22  40  70 102 137 186 235 283 350 420
#     4  10  24  40  65 100 140 180 241 280 344 420
#     4  11  24  43  65 100 141 183 229 297 352 415
#     4  12  22  43  70  96 147 183 225 298 350 412
#     4  10  21  39  65  99 130 180 233 274 344 412
#
# _framework density 25.852841999999999
#
# number of rings (size 3 to 8) (size 9 to 14) (size 15 to 20)
#    0.000    1.250    5.000    1.125    3.500    0.500 
#    0.000    5.625    0.000    0.000    0.000    0.000 
#    0.000    0.000    0.000    0.000    0.000    0.000 
#
# Total GULP energy -89643.033842 kJ/mol
# GULP energy per Si atom -5602.689615 kJ/mol
# Density = 2.579400 g / cm^3
# Si number density = 25.852842 Si / 1000 Ang^3
#
#
#
# Elastic Constant Matrix: (Units=GPa)
#
#
# Indices 1 2 3 4 5 6 
#
# 1 92.3375 19.0655 31.0995 -0.3836 18.2290 -5.0321
# 2 19.0655 88.4336 10.3912 -6.5336 -5.8427 -18.0635
# 3 31.0995 10.3912 120.2087 11.3660 5.5039 -6.1592
# 4 -0.3836 -6.5336 11.3660 28.5297 -2.5771 -6.1055
# 5 18.2290 -5.8427 5.5039 -2.5771 46.9566 2.5269
# 6 -5.0321 -18.0635 -6.1592 -6.1055 2.5269 42.8685
#
#
#
# Elastic Compliance Matrix: (Units=1/GPa)
#
#
# Indices 1 2 3 4 5 6 
#
# 1 0.013477 -0.002805 -0.003020 0.000339 -0.005226 0.000322
# 2 -0.002805 0.013758 -0.000758 0.004933 0.002843 0.005894
# 3 -0.003020 -0.000758 0.009566 -0.004019 -0.000271 0.000144
# 4 0.000339 0.004933 -0.004019 0.039535 0.002746 0.007010
# 5 -0.005226 0.002843 -0.000271 0.002746 0.023887 -0.000471
# 6 0.000322 0.005894 0.000144 0.007010 -0.000471 0.026895
#
#
# Mechanical properties :
#
#
# Convention : Reuss Voigt Hill
#
# Bulk Modulus (GPa) = 42.31330 46.89913 44.60622
# Shear Modulus (GPa) = 33.74682 39.69922 36.72302
#
# Velocity S-wave (km/s) = 3.61687 3.92290 3.77299
# Velocity P-wave (km/s) = 5.81763 6.22086 6.02262
#
# Compressibility (1/GPa) = 0.02363323
#
# Stress axis : x y z
#
# Youngs Moduli (GPa) = 74.20116 72.68511 104.54102
#
# Poissons Ratio (x) = 0.20388 0.31576
# Poissons Ratio (y) = 0.20813 0.07927
# Poissons Ratio (z) = 0.22412 0.05511
#
# Static dielectric constant tensor:
#      x y z
#    x 2.073710 -0.018450 0.009160 
#    y -0.018450 2.034330 0.009880 
#    z 0.009160 0.009880 2.091680 
# 
# From -- ./inp_files/494980.got.cif
#   From: 2010.05.17/outbox.cif.g08.bks.cpg/sg2_248_cif.got.tgz:494980.got - 2010.06.03 11:33:40.
