data_PCOD9107751
_publ_section_title
;
Structure prediction by ZEFSAII (Michael W. Deem and Ramdas Pophale) SiO2 
 PCOD9107751
Probable space group: P -1
;
_chemical_formula_sum "Si O2"
_cell_formula_units_Z 10
_cell_length_a 12.462512
_cell_length_b 13.213222
_cell_length_c 9.015638
_cell_angle_alpha 44.096600
_cell_angle_beta 139.348396
_cell_angle_gamma 158.891911
_cell_volume 347.959269
_symmetry_space_group_name_H-M "P -1"
_symmetry_group_IT_number 2
_symmetry_cell_setting 'triclinic'
loop_
_space_group_symop_operation_xyz
x,y,z
-x,-y,-z
loop_
_atom_site_type_symbol
_atom_site_label
_atom_site_fract_x
_atom_site_fract_y
_atom_site_fract_z
Si Si1 0.917206 0.449988 0.161783
Si Si2 0.787809 0.025737 0.124428
Si Si3 0.526621 0.736454 0.458331
Si Si4 0.446481 0.376585 0.914364
Si Si5 0.382299 0.757137 0.577140
O O1 0.185640 0.556156 0.245738
O O2 0.055809 0.512472 0.402112
O O3 0.548561 0.140505 0.074528
O O4 0.959765 0.656017 0.966611
O O5 0.753708 0.935466 0.347793
O O6 0.817830 0.923134 0.138192
O O7 0.486751 0.537916 0.669279
O O8 0.620556 0.884700 0.557047
O O9 0.620886 0.365275 0.171596
O O10 0.500000 0.500000 0.000000
O O11 0.500000 0.000000 0.500000
#
# Coordination Sequence:
#
# PCOD9107751 Si02
#       5
#     2   2   2   2   2
#     4  10  24  39  71  93 128 166 218 259 314 378
#     4  12  22  44  67  95 127 171 215 259 317 379
#     4   9  21  38  65  97 129 168 210 267 315 378
#     4  10  20  40  65  94 133 167 212 264 322 374
#     4   9  18  39  64  92 129 165 214 254 319 373
#
# _framework density 28.738994000000002
#
# number of rings (size 3 to 8) (size 9 to 14) (size 15 to 20)
#    1.200    0.800    2.000    1.800    0.000    0.800 
#    0.000    7.000    0.000    0.000    0.000    0.000 
#    0.000    0.000    0.000    0.000    0.000    0.000 
#
# Total GULP energy -55797.676197 kJ/mol
# GULP energy per Si atom -5579.767620 kJ/mol
# Density = 2.867358 g / cm^3
# Si number density = 28.738994 Si / 1000 Ang^3
#
#
#
# Elastic Constant Matrix: (Units=GPa)
#
#
# Indices 1 2 3 4 5 6 
#
# 1 138.0648 61.3808 67.9809 -11.6613 4.7212 -23.8724
# 2 61.3808 106.7975 35.3164 -14.5690 0.8285 -33.0369
# 3 67.9809 35.3164 186.0409 -33.4412 1.0999 -21.7099
# 4 -11.6613 -14.5690 -33.4412 49.6311 -12.7972 6.8757
# 5 4.7212 0.8285 1.0999 -12.7972 66.5441 -6.5630
# 6 -23.8724 -33.0369 -21.7099 6.8757 -6.5630 48.5875
#
#
#
# Elastic Compliance Matrix: (Units=1/GPa)
#
#
# Indices 1 2 3 4 5 6 
#
# 1 0.011267 -0.005441 -0.003290 -0.001465 -0.000915 0.000450
# 2 -0.005441 0.015039 0.000516 0.002814 0.001480 0.007584
# 3 -0.003290 0.000516 0.007462 0.004476 0.001121 0.001587
# 4 -0.001465 0.002814 0.004476 0.024840 0.004804 0.000328
# 5 -0.000915 0.001480 0.001121 0.004804 0.016233 0.002570
# 6 0.000450 0.007584 0.001587 0.000328 0.002570 0.026969
#
#
# Mechanical properties :
#
#
# Convention : Reuss Voigt Hill
#
# Bulk Modulus (GPa) = 57.67724 84.47326 71.07525
# Shear Modulus (GPa) = 40.31600 50.70088 45.50844
#
# Velocity S-wave (km/s) = 3.74950 4.20478 3.98365
# Velocity P-wave (km/s) = 6.23361 7.28221 6.77822
#
# Compressibility (1/GPa) = 0.01733786
#
# Stress axis : x y z
#
# Youngs Moduli (GPa) = 88.75323 66.49402 134.00590
#
# Poissons Ratio (x) = 0.36182 0.44082
# Poissons Ratio (y) = 0.48295 -0.06910
# Poissons Ratio (z) = 0.29196 -0.03429
#
# Static dielectric constant tensor:
#      x y z
#    x 2.561070 0.040420 -0.248630 
#    y 0.040420 2.004610 -0.105650 
#    z -0.248630 -0.105650 2.110080 
# 
# From -- ./inp_files/57422.got.cif
#   From: 2010.05.17/outbox.cif.g08.bks.cpg/sg2_29_cif.got.tgz:57422.got - 2010.06.03 11:33:40.
