data_PCOD9107665
_publ_section_title
;
Structure prediction by ZEFSAII (Michael W. Deem and Ramdas Pophale) SiO2 
 PCOD9107665
Probable space group: P -1
;
_chemical_formula_sum "Si O2"
_cell_formula_units_Z 14
_cell_length_a 7.681948
_cell_length_b 18.112256
_cell_length_c 7.296296
_cell_angle_alpha 58.289964
_cell_angle_beta 59.670446
_cell_angle_gamma 40.424972
_cell_volume 549.821717
_symmetry_space_group_name_H-M "P -1"
_symmetry_group_IT_number 2
_symmetry_cell_setting 'triclinic'
loop_
_space_group_symop_operation_xyz
x,y,z
-x,-y,-z
loop_
_atom_site_type_symbol
_atom_site_label
_atom_site_fract_x
_atom_site_fract_y
_atom_site_fract_z
Si Si1 0.983312 0.132892 0.015300
Si Si2 0.718274 0.779487 0.520595
Si Si3 0.387095 0.357318 0.003428
Si Si4 0.709683 0.037490 0.234476
Si Si5 0.323201 0.185349 0.906363
Si Si6 0.217440 0.587795 0.929768
Si Si7 0.330660 0.637092 0.446777
O O1 0.406676 0.194901 0.648674
O O2 0.702864 0.266637 0.025911
O O3 0.088562 0.088833 0.805844
O O4 0.214475 0.117665 0.020761
O O5 0.531136 0.903450 0.566302
O O6 0.036969 0.708386 0.413785
O O7 0.720439 0.695996 0.764931
O O8 0.213139 0.492411 0.969485
O O9 0.475083 0.343499 0.760102
O O10 0.545520 0.120315 0.033341
O O11 0.106031 0.940112 0.801188
O O12 0.057952 0.315730 0.941100
O O13 0.253675 0.654888 0.676687
O O14 0.500000 0.500000 0.000000
O O15 0.500000 0.500000 0.500000
#
# Coordination Sequence:
#
# PCOD9107665 Si02
#       7
#     2   2   2   2   2   2   2
#     4  10  21  45  69  93 144 174 225 293 332 399
#     4  11  23  43  65 101 139 173 234 279 333 416
#     4  10  22  42  63  95 134 178 217 281 338 395
#     4  10  24  44  67 102 134 179 233 279 341 405
#     4  12  22  43  70 101 136 181 230 275 343 414
#     4  11  21  39  64  98 134 176 225 272 343 408
#     4  10  20  40  65  90 135 180 220 281 337 398
#
# _framework density 25.462799
#
# number of rings (size 3 to 8) (size 9 to 14) (size 15 to 20)
#    0.000    1.429    4.286    1.286    0.000    3.429 
#    5.143    9.286    0.000    0.000    0.000    0.000 
#    0.000    0.000    0.000    0.000    0.000    0.000 
#
# Total GULP energy -78112.344121 kJ/mol
# GULP energy per Si atom -5579.453152 kJ/mol
# Density = 2.540484 g / cm^3
# Si number density = 25.462799 Si / 1000 Ang^3
#
#
#
# Elastic Constant Matrix: (Units=GPa)
#
#
# Indices 1 2 3 4 5 6 
#
# 1 73.8269 23.3954 37.6565 -0.8896 -9.6671 2.8754
# 2 23.3954 141.8593 27.6184 34.2620 -9.0005 14.6040
# 3 37.6565 27.6184 139.9917 14.8451 -3.5375 16.4092
# 4 -0.8896 34.2620 14.8451 44.4198 0.5098 1.9830
# 5 -9.6671 -9.0005 -3.5375 0.5098 50.6596 1.6664
# 6 2.8754 14.6040 16.4092 1.9830 1.6664 29.3829
#
#
#
# Elastic Compliance Matrix: (Units=1/GPa)
#
#
# Indices 1 2 3 4 5 6 
#
# 1 0.017116 -0.002958 -0.004623 0.004055 0.002312 0.001972
# 2 -0.002958 0.009854 0.000190 -0.007549 0.001416 -0.004285
# 3 -0.004623 0.000190 0.009216 -0.003115 -0.000023 -0.004577
# 4 0.004055 -0.007549 -0.003115 0.029329 -0.001185 0.003182
# 5 0.002312 0.001416 -0.000023 -0.001185 0.020509 -0.002001
# 6 0.001972 -0.004285 -0.004577 0.003182 -0.002001 0.038425
#
#
# Mechanical properties :
#
#
# Convention : Reuss Voigt Hill
#
# Bulk Modulus (GPa) = 46.72259 59.22428 52.97344
# Shear Modulus (GPa) = 34.16134 42.69298 38.42716
#
# Velocity S-wave (km/s) = 3.66678 4.09917 3.88899
# Velocity P-wave (km/s) = 6.02630 6.76121 6.40430
#
# Compressibility (1/GPa) = 0.02140292
#
# Stress axis : x y z
#
# Youngs Moduli (GPa) = 58.42646 101.47864 108.51271
#
# Poissons Ratio (x) = 0.30021 0.50166
# Poissons Ratio (y) = 0.17285 -0.02065
# Poissons Ratio (z) = 0.27011 -0.01931
#
# Static dielectric constant tensor:
#      x y z
#    x 2.151960 -0.014480 -0.053350 
#    y -0.014480 2.022200 -0.028650 
#    z -0.053350 -0.028650 2.130180 
# 
# From -- ./inp_files/221918.got.cif
#   From: 2010.05.17/outbox.cif.g08.bks.cpg/sg2_111_cif.got.tgz:221918.got - 2010.06.03 11:33:40.
