data_PCOD9107958
_publ_section_title
;
Structure prediction by ZEFSAII (Michael W. Deem and Ramdas Pophale) SiO2 
 PCOD9107958
Probable space group: P -1
;
_chemical_formula_sum "Si O2"
_cell_formula_units_Z 16
_cell_length_a 13.730069
_cell_length_b 15.633331
_cell_length_c 9.080707
_cell_angle_alpha 129.972769
_cell_angle_beta 124.940722
_cell_angle_gamma 27.771589
_cell_volume 695.948065
_symmetry_space_group_name_H-M "P -1"
_symmetry_group_IT_number 2
_symmetry_cell_setting 'triclinic'
loop_
_space_group_symop_operation_xyz
x,y,z
-x,-y,-z
loop_
_atom_site_type_symbol
_atom_site_label
_atom_site_fract_x
_atom_site_fract_y
_atom_site_fract_z
Si Si1 0.261952 0.627301 0.529913
Si Si2 0.670073 0.371615 0.746361
Si Si3 0.677636 0.597212 0.100472
Si Si4 0.652818 0.016668 0.918017
Si Si5 0.956880 0.987996 0.114634
Si Si6 0.864564 0.719321 0.979493
Si Si7 0.233151 0.282076 0.506347
Si Si8 0.997705 0.621833 0.320510
O O1 0.483450 0.440107 0.597283
O O2 0.259569 0.627273 0.348903
O O3 0.108116 0.652066 0.482227
O O4 0.189444 0.806689 0.709186
O O5 0.846186 0.178591 0.786955
O O6 0.597292 0.533398 0.961486
O O7 0.644688 0.698250 0.328820
O O8 0.923387 0.407476 0.064269
O O9 0.558634 0.755012 0.043149
O O10 0.689152 0.942871 0.030745
O O11 0.674592 0.885024 0.699931
O O12 0.834155 0.965086 0.975685
O O13 0.000000 0.000000 0.000000
O O14 0.842301 0.607023 0.790231
O O15 0.908692 0.690910 0.156791
O O16 0.000000 0.500000 0.500000
O O17 0.188997 0.257426 0.596644
#
# Coordination Sequence:
#
# PCOD9107958 Si02
#       8
#     2   2   2   2   2   2   2   2
#     4  11  23  42  68  97 126 171 221 259 315 385
#     4  11  23  44  67  94 128 172 214 268 317 376
#     4  11  21  40  68  91 124 162 218 255 317 375
#     4  12  22  42  66  93 124 172 213 253 324 381
#     4  12  25  42  64  96 135 169 212 262 323 383
#     4  10  21  41  67  90 127 162 205 273 312 369
#     4  11  21  40  65  90 126 170 204 259 317 374
#     4  10  20  40  66  92 126 166 208 261 322 364
#
# _framework density 22.990220999999998
#
# number of rings (size 3 to 8) (size 9 to 14) (size 15 to 20)
#    0.000    1.000    6.250    1.500    0.000    0.500 
#    2.250    8.125    0.000    0.000    0.000    0.000 
#    0.000    0.000    0.000    0.000    0.000    0.000 
#
# Total GULP energy -89368.753430 kJ/mol
# GULP energy per Si atom -5585.547089 kJ/mol
# Density = 2.293789 g / cm^3
# Si number density = 22.990221 Si / 1000 Ang^3
#
#
#
# Elastic Constant Matrix: (Units=GPa)
#
#
# Indices 1 2 3 4 5 6 
#
# 1 49.2602 1.4303 24.7331 -11.6357 7.4965 11.1413
# 2 1.4303 117.2326 7.1620 -21.5110 8.9060 10.6730
# 3 24.7331 7.1620 94.4891 -6.9096 10.6248 1.9631
# 4 -11.6357 -21.5110 -6.9096 32.7921 3.0509 -1.4898
# 5 7.4965 8.9060 10.6248 3.0509 18.3094 2.4861
# 6 11.1413 10.6730 1.9631 -1.4898 2.4861 19.2419
#
#
#
# Elastic Compliance Matrix: (Units=1/GPa)
#
#
# Indices 1 2 3 4 5 6 
#
# 1 0.032513 0.005117 -0.006146 0.013883 -0.012049 -0.018405
# 2 0.005117 0.011579 -0.000442 0.009726 -0.008067 -0.007545
# 3 -0.006146 -0.000442 0.012817 0.000870 -0.005292 0.003247
# 4 0.013883 0.009726 0.000870 0.043207 -0.017037 -0.007976
# 5 -0.012049 -0.008067 -0.005292 -0.017037 0.069148 0.001738
# 6 -0.018405 -0.007545 0.003247 -0.007976 0.001738 0.065639
#
#
# Mechanical properties :
#
#
# Convention : Reuss Voigt Hill
#
# Bulk Modulus (GPa) = 18.52963 36.40363 27.46663
# Shear Modulus (GPa) = 19.54395 29.24578 24.39487
#
# Velocity S-wave (km/s) = 2.91881 3.57052 3.26098
# Velocity P-wave (km/s) = 4.40869 5.73296 5.11387
#
# Compressibility (1/GPa) = 0.05396763
#
# Stress axis : x y z
#
# Youngs Moduli (GPa) = 30.75646 86.36320 78.02351
#
# Poissons Ratio (x) = -0.44195 0.47953
# Poissons Ratio (y) = -0.15739 0.03449
# Poissons Ratio (z) = 0.18903 0.03818
#
# Static dielectric constant tensor:
#      x y z
#    x 1.878550 -0.010320 0.005760 
#    y -0.010320 1.894830 -0.045050 
#    z 0.005760 -0.045050 1.895620 
# 
# From -- ./inp_files/315992.got.cif
#   From: 2010.05.17/outbox.cif.g08.bks.cpg/sg2_158_cif.got.tgz:315992.got - 2010.06.03 11:33:40.
