data_PCOD9107283
_publ_section_title
;
Structure prediction by ZEFSAII (Michael W. Deem and Ramdas Pophale) SiO2 
 PCOD9107283
Probable space group: P -1
;
_chemical_formula_sum "Si O2"
_cell_formula_units_Z 16
_cell_length_a 28.271926
_cell_length_b 12.468142
_cell_length_c 9.067586
_cell_angle_alpha 148.172652
_cell_angle_beta 139.293697
_cell_angle_gamma 28.141371
_cell_volume 794.511281
_symmetry_space_group_name_H-M "P -1"
_symmetry_group_IT_number 2
_symmetry_cell_setting 'triclinic'
loop_
_space_group_symop_operation_xyz
x,y,z
-x,-y,-z
loop_
_atom_site_type_symbol
_atom_site_label
_atom_site_fract_x
_atom_site_fract_y
_atom_site_fract_z
Si Si1 0.528148 0.524166 0.262055
Si Si2 0.831702 0.817424 0.503520
Si Si3 0.708640 0.906537 0.053695
Si Si4 0.014651 0.196258 0.326299
Si Si5 0.392886 0.295783 0.534507
Si Si6 0.679117 0.198058 0.833307
Si Si7 0.978228 0.843020 0.355625
Si Si8 0.829065 0.811611 0.960925
O O1 0.581256 0.631531 0.469931
O O2 0.425543 0.716461 0.334983
O O3 0.603315 0.228541 0.177748
O O4 0.500000 0.500000 0.000000
O O5 0.768735 0.794482 0.217276
O O6 0.897208 0.852858 0.606909
O O7 0.913733 0.526633 0.448675
O O8 0.749494 0.084496 0.725455
O O9 0.776061 0.909723 0.106378
O O10 0.684200 0.734874 0.723871
O O11 0.036031 0.121987 0.462226
O O12 0.000000 0.000000 0.000000
O O13 0.500000 0.000000 0.500000
O O14 0.348432 0.540913 0.836984
O O15 0.743358 0.929583 0.780406
O O16 0.878474 0.926326 0.159783
O O17 0.077025 0.516735 0.187165
O O18 0.000000 0.000000 0.500000
#
# Coordination Sequence:
#
# PCOD9107283 Si02
#       8
#     2   2   2   2   2   2   2   2
#     4  10  20  40  63  97 134 164 222 285 326 383
#     4  11  27  46  66  97 143 183 216 276 350 402
#     4  12  23  41  70  98 133 178 223 277 339 401
#     4  11  26  46  67  94 141 180 221 276 342 405
#     4  11  21  40  70  98 128 176 229 280 329 391
#     4  11  22  44  68  95 136 178 223 278 337 398
#     4  11  26  41  66 101 127 164 231 282 325 389
#     4  11  23  41  66  95 129 172 226 275 326 398
#
# _framework density 20.138165999999998
#
# number of rings (size 3 to 8) (size 9 to 14) (size 15 to 20)
#    0.000    1.000    7.500    0.000    5.250    1.500 
#    2.250    0.625    0.000    0.000    0.000    0.000 
#    0.000    0.000    0.000    0.000    0.000    0.000 
#
# Total GULP energy -89260.001392 kJ/mol
# GULP energy per Si atom -5578.750087 kJ/mol
# Density = 2.009233 g / cm^3
# Si number density = 20.138166 Si / 1000 Ang^3
#
#
#
# Elastic Constant Matrix: (Units=GPa)
#
#
# Indices 1 2 3 4 5 6 
#
# 1 125.8374 46.7342 38.1704 10.0268 7.5610 -19.2579
# 2 46.7342 37.0803 47.1991 18.9503 -10.4313 -18.3916
# 3 38.1704 47.1991 42.1576 -18.2379 24.7334 -19.1598
# 4 10.0268 18.9503 -18.2379 9.6502 5.9744 -6.6523
# 5 7.5610 -10.4313 24.7334 5.9744 34.1841 7.2168
# 6 -19.2579 -18.3916 -19.1598 -6.6523 7.2168 37.3151
#
#
#
# Elastic Compliance Matrix: (Units=1/GPa)
#
#
# Indices 1 2 3 4 5 6 
#
# 1 0.012727 -0.008098 -0.004458 -0.005466 -0.001001 -0.000493
# 2 -0.008098 0.014648 0.013003 0.021113 -0.010095 0.015433
# 3 -0.004458 0.013003 0.003039 -0.017556 0.005512 0.001473
# 4 -0.005466 0.021113 -0.017556 0.024599 0.016087 -0.000155
# 5 -0.001001 -0.010095 0.005512 0.016087 0.020383 -0.003736
# 6 -0.000493 0.015433 0.001473 -0.000155 -0.003736 0.035602
#
#
# Mechanical properties :
#
#
# Convention : Reuss Voigt Hill
#
# Bulk Modulus (GPa) = 31.94051 52.14253 42.04152
# Shear Modulus (GPa) = 41.47973 21.09465 31.28719
#
# Velocity S-wave (km/s) = 4.54338 3.24002 3.94588
# Velocity P-wave (km/s) = 6.58925 6.32025 6.45615
#
# Compressibility (1/GPa) = 0.03130820
#
# Stress axis : x y z
#
# Youngs Moduli (GPa) = 78.57413 68.26806 329.01092
#
# Poissons Ratio (x) = 0.55285 1.46676
# Poissons Ratio (y) = 0.63631 -4.27820
# Poissons Ratio (z) = 0.35029 -0.88770
#
# Static dielectric constant tensor:
#      x y z
#    x 1.772210 -0.001590 -0.040660 
#    y -0.001590 1.726650 -0.011810 
#    z -0.040660 -0.011810 1.798620 
# 
# From -- ./inp_files/357121.got.cif
#   From: 2010.05.17/outbox.cif.g08.bks.cpg/sg2_179_cif.got.tgz:357121.got - 2010.06.03 11:33:40.
