data_PCOD9107909
_publ_section_title
;
Structure prediction by ZEFSAII (Michael W. Deem and Ramdas Pophale) SiO2 
 PCOD9107909
Probable space group: P -1
;
_chemical_formula_sum "Si O2"
_cell_formula_units_Z 16
_cell_length_a 26.808018
_cell_length_b 4.987722
_cell_length_c 25.612186
_cell_angle_alpha 96.387673
_cell_angle_beta 10.857290
_cell_angle_gamma 94.535326
_cell_volume 632.678180
_symmetry_space_group_name_H-M "P -1"
_symmetry_group_IT_number 2
_symmetry_cell_setting 'triclinic'
loop_
_space_group_symop_operation_xyz
x,y,z
-x,-y,-z
loop_
_atom_site_type_symbol
_atom_site_label
_atom_site_fract_x
_atom_site_fract_y
_atom_site_fract_z
Si Si1 0.140302 0.741185 0.754399
Si Si2 0.325161 0.344891 0.296954
Si Si3 0.233541 0.976195 0.006212
Si Si4 0.592805 0.714822 0.370094
Si Si5 0.193581 0.199047 0.633360
Si Si6 0.351547 0.504256 0.951252
Si Si7 0.652558 0.751663 0.942648
Si Si8 0.204627 0.185807 0.310493
O O1 0.427043 0.686040 0.486876
O O2 0.116267 0.521751 0.728875
O O3 0.121272 0.042167 0.756268
O O4 0.904534 0.704421 0.036000
O O5 0.349717 0.449260 0.334223
O O6 0.151874 0.242747 0.427096
O O7 0.381852 0.619689 0.216128
O O8 0.565977 0.077132 0.045030
O O9 0.490996 0.849000 0.704380
O O10 0.227724 0.791907 0.060139
O O11 0.304582 0.272988 0.953570
O O12 0.965796 0.936114 0.250385
O O13 0.500000 0.500000 0.500000
O O14 0.500000 0.000000 0.500000
O O15 0.231525 0.386472 0.124892
O O16 0.787547 0.638691 0.747339
O O17 0.000000 0.000000 0.500000
O O18 0.500000 0.000000 0.000000
#
# Coordination Sequence:
#
# PCOD9107909 Si02
#       8
#     2   2   2   2   2   2   2   2
#     4  12  24  45  68 102 138 186 230 267 324 377
#     4   9  18  38  62  89 122 159 201 249 324 386
#     4  12  24  45  64  95 124 165 224 279 340 373
#     4  12  24  42  70 108 148 185 220 271 320 381
#     4  12  26  45  70  94 130 179 228 284 316 385
#     4  10  20  40  66  90 126 160 206 274 334 403
#     4   9  18  38  62  89 122 159 201 249 324 386
#     4  10  21  40  62  90 122 160 202 250 302 408
#
# _framework density 25.289315999999999
#
# number of rings (size 3 to 8) (size 9 to 14) (size 15 to 20)
#    0.750    0.500    1.250    5.625    0.000    0.000 
#    2.250   15.000    0.000    0.000    0.000    0.000 
#    0.000    0.000    0.000    0.000    0.000    0.000 
#
# Total GULP energy -89151.722120 kJ/mol
# GULP energy per Si atom -5571.982633 kJ/mol
# Density = 2.523176 g / cm^3
# Si number density = 25.289316 Si / 1000 Ang^3
#
#
#
# Elastic Constant Matrix: (Units=GPa)
#
#
# Indices 1 2 3 4 5 6 
#
# 1 73.7744 10.4092 -8.5877 -9.3303 -23.1840 -10.2993
# 2 10.4092 119.3627 -0.4838 -14.2625 -4.1256 12.0859
# 3 -8.5877 -0.4838 73.8586 -17.8141 3.8736 4.8706
# 4 -9.3303 -14.2625 -17.8141 28.3019 17.6381 0.5207
# 5 -23.1840 -4.1256 3.8736 17.6381 43.7433 -4.6380
# 6 -10.2993 12.0859 4.8706 0.5207 -4.6380 60.7700
#
#
#
# Elastic Compliance Matrix: (Units=1/GPa)
#
#
# Indices 1 2 3 4 5 6 
#
# 1 0.017417 -0.001622 0.001173 -0.000348 0.009529 0.003911
# 2 -0.001622 0.009636 0.002184 0.008034 -0.003672 -0.002716
# 3 0.001173 0.002184 0.018859 0.018832 -0.008709 -0.002573
# 4 -0.000348 0.008034 0.018832 0.069872 -0.029909 -0.006048
# 5 0.009529 -0.003672 -0.008709 -0.029909 0.041078 0.006435
# 6 0.003911 -0.002716 -0.002573 -0.006048 0.006435 0.018407
#
#
# Mechanical properties :
#
#
# Convention : Reuss Voigt Hill
#
# Bulk Modulus (GPa) = 20.25088 29.96346 25.10717
# Shear Modulus (GPa) = 26.55890 44.27355 35.41623
#
# Velocity S-wave (km/s) = 3.24420 4.18865 3.74631
# Velocity P-wave (km/s) = 4.69661 5.93861 5.35375
#
# Compressibility (1/GPa) = 0.04938056
#
# Stress axis : x y z
#
# Youngs Moduli (GPa) = 57.41604 103.77545 53.02603
#
# Poissons Ratio (x) = 0.16835 -0.06219
# Poissons Ratio (y) = 0.09315 -0.11580
# Poissons Ratio (z) = -0.06734 -0.22664
#
# Static dielectric constant tensor:
#      x y z
#    x 1.886720 -0.120300 -0.153230 
#    y -0.120300 1.932360 -0.023240 
#    z -0.153230 -0.023240 1.998420 
# 
# From -- ./inp_files/621073.got.cif
#   From: 2010.05.17/outbox.cif.g08.bks.cpg/sg2_311_cif.got.tgz:621073.got - 2010.06.03 11:33:40.
