data_PCOD9107907
_publ_section_title
;
Structure prediction by ZEFSAII (Michael W. Deem and Ramdas Pophale) SiO2 
 PCOD9107907
Probable space group: P -1
;
_chemical_formula_sum "Si O2"
_cell_formula_units_Z 16
_cell_length_a 12.385668
_cell_length_b 13.864987
_cell_length_c 8.883171
_cell_angle_alpha 86.661160
_cell_angle_beta 52.038556
_cell_angle_gamma 130.489456
_cell_volume 591.007281
_symmetry_space_group_name_H-M "P -1"
_symmetry_group_IT_number 2
_symmetry_cell_setting 'triclinic'
loop_
_space_group_symop_operation_xyz
x,y,z
-x,-y,-z
loop_
_atom_site_type_symbol
_atom_site_label
_atom_site_fract_x
_atom_site_fract_y
_atom_site_fract_z
Si Si1 0.566832 0.258391 0.620927
Si Si2 0.126908 0.237883 0.233926
Si Si3 0.603857 0.508356 0.263856
Si Si4 0.339347 0.775451 0.030811
Si Si5 0.216194 0.091572 0.680483
Si Si6 0.991516 0.305014 0.870279
Si Si7 0.005002 0.387848 0.371299
Si Si8 0.144209 0.940481 0.234497
O O1 0.412727 0.145232 0.607939
O O2 0.761513 0.469684 0.408453
O O3 0.754161 0.282683 0.503824
O O4 0.337082 0.134078 0.960146
O O5 0.070373 0.317983 0.293029
O O6 0.095280 0.175917 0.433599
O O7 0.394593 0.415164 0.881970
O O8 0.918733 0.050545 0.324447
O O9 0.500000 0.500000 0.500000
O O10 0.401682 0.293457 0.442115
O O11 0.913348 0.666089 0.045491
O O12 0.098483 0.662581 0.364032
O O13 0.284343 0.801603 0.924137
O O14 0.267452 0.618305 0.091243
O O15 0.626421 0.965137 0.855806
O O16 0.000000 0.000000 0.000000
O O17 0.960524 0.194889 0.794591
#
# Coordination Sequence:
#
# PCOD9107907 Si02
#       8
#     2   2   2   2   2   2   2   2
#     4   9  22  41  65  93 130 176 204 253 320 388
#     4  12  25  39  64 102 126 162 217 266 318 370
#     4  11  25  47  68  83 127 176 215 267 319 377
#     4   9  18  37  61  94 137 172 192 249 327 389
#     4  11  24  47  69  86 123 178 221 259 319 377
#     4  10  20  40  66  90 124 177 210 242 324 383
#     4   9  19  37  62  96 136 164 203 257 321 380
#     4  11  22  35  66  98 131 162 207 261 311 382
#
# _framework density 27.072426
#
# number of rings (size 3 to 8) (size 9 to 14) (size 15 to 20)
#    0.000    1.750    2.500    1.875    3.500    0.500 
#    2.250    3.125    0.000    0.000    0.000    0.000 
#    0.000    0.000    0.000    0.000    0.000    0.000 
#
# Total GULP energy -89541.295211 kJ/mol
# GULP energy per Si atom -5596.330951 kJ/mol
# Density = 2.701081 g / cm^3
# Si number density = 27.072426 Si / 1000 Ang^3
#
#
#
# Elastic Constant Matrix: (Units=GPa)
#
#
# Indices 1 2 3 4 5 6 
#
# 1 84.3729 11.6567 -8.4453 -3.3809 -7.1511 16.7834
# 2 11.6567 157.7471 27.7119 -14.8992 -5.1467 4.1302
# 3 -8.4453 27.7119 80.8200 3.2067 23.2058 5.8794
# 4 -3.3809 -14.8992 3.2067 49.7353 -4.5432 -4.3044
# 5 -7.1511 -5.1467 23.2058 -4.5432 32.7224 -2.6140
# 6 16.7834 4.1302 5.8794 -4.3044 -2.6140 44.2890
#
#
#
# Elastic Compliance Matrix: (Units=1/GPa)
#
#
# Indices 1 2 3 4 5 6 
#
# 1 0.013301 -0.001132 0.001854 0.000096 0.001019 -0.005111
# 2 -0.001132 0.007543 -0.004123 0.002914 0.004333 0.000812
# 3 0.001854 -0.004123 0.018518 -0.003951 -0.014244 -0.004001
# 4 0.000096 0.002914 -0.003951 0.022079 0.006566 0.002750
# 5 0.001019 0.004333 -0.014244 0.006566 0.042818 0.004266
# 6 -0.005111 0.000812 -0.004001 0.002750 0.004266 0.025490
#
#
# Mechanical properties :
#
#
# Convention : Reuss Voigt Hill
#
# Bulk Modulus (GPa) = 30.71439 42.75408 36.73423
# Shear Modulus (GPa) = 33.91983 44.81712 39.36848
#
# Velocity S-wave (km/s) = 3.54351 4.07314 3.81752
# Velocity P-wave (km/s) = 5.30206 6.16014 5.74714
#
# Compressibility (1/GPa) = 0.03255803
#
# Stress axis : x y z
#
# Youngs Moduli (GPa) = 75.18164 132.57946 54.00025
#
# Poissons Ratio (x) = 0.15012 -0.10009
# Poissons Ratio (y) = 0.08513 0.22266
# Poissons Ratio (z) = -0.13935 0.54666
#
# Static dielectric constant tensor:
#      x y z
#    x 2.199360 0.008590 -0.040810 
#    y 0.008590 2.037730 0.007560 
#    z -0.040810 0.007560 2.269490 
# 
# From -- ./inp_files/315399.got.cif
#   From: 2010.05.17/outbox.cif.g08.bks.cpg/sg2_158_cif.got.tgz:315399.got - 2010.06.03 11:33:40.
