data_PCOD9107959
_publ_section_title
;
Structure prediction by ZEFSAII (Michael W. Deem and Ramdas Pophale) SiO2 
 PCOD9107959
Probable space group: P -1
;
_chemical_formula_sum "Si O2"
_cell_formula_units_Z 15
_cell_length_a 25.302086
_cell_length_b 11.638866
_cell_length_c 13.250540
_cell_angle_alpha 38.133813
_cell_angle_beta 16.835761
_cell_angle_gamma 33.477732
_cell_volume 621.718462
_symmetry_space_group_name_H-M "P -1"
_symmetry_group_IT_number 2
_symmetry_cell_setting 'triclinic'
loop_
_space_group_symop_operation_xyz
x,y,z
-x,-y,-z
loop_
_atom_site_type_symbol
_atom_site_label
_atom_site_fract_x
_atom_site_fract_y
_atom_site_fract_z
Si Si1 0.578837 0.127432 0.195750
Si Si2 0.358812 0.870052 0.147031
Si Si3 0.721164 0.607681 0.893035
Si Si4 0.163191 0.396226 0.688018
Si Si5 0.979191 0.896465 0.943049
Si Si6 0.264338 0.589126 0.198778
Si Si7 0.500000 0.000000 0.000000
Si Si8 0.045828 0.723930 0.151928
O O1 0.377394 0.338804 0.388591
O O2 0.500000 0.000000 0.500000
O O3 0.664001 0.045169 0.984727
O O4 0.720905 0.202960 0.945485
O O5 0.145379 0.889358 0.564770
O O6 0.526092 0.625654 0.016267
O O7 0.443074 0.983356 0.993030
O O8 0.783243 0.433343 0.814740
O O9 0.823680 0.500983 0.881964
O O10 0.805560 0.773282 0.582091
O O11 0.488204 0.774472 0.202273
O O12 0.116773 0.554032 0.571056
O O13 0.000000 0.500000 0.000000
O O14 0.170666 0.180367 0.783348
O O15 0.069700 0.735930 0.982281
O O16 0.902600 0.113897 0.993053
#
# Coordination Sequence:
#
# PCOD9107959 Si02
#       8
#     2   2   2   2   2   2   1   2
#     4  11  25  44  63  94 127 165 217 270 320 379
#     4  10  21  41  66  88 133 167 213 259 319 387
#     4  10  20  41  62  95 128 170 204 270 315 389
#     4  11  22  41  66  90 124 168 215 259 320 385
#     4  11  21  39  65  98 127 175 213 262 325 381
#     4  10  21  42  65  87 126 173 209 259 324 382
#     4  10  20  40  66  92 126 176 212 252 336 376
#     4  10  22  37  63  94 136 159 216 262 323 378
#
# _framework density 24.126677000000001
#
# number of rings (size 3 to 8) (size 9 to 14) (size 15 to 20)
#    0.000    1.600    2.667    3.200    1.867    0.000 
#    7.200    2.667    0.000    0.000    0.000    0.000 
#    0.000    0.000    0.000    0.000    0.000    0.000 
#
# Total GULP energy -83605.111378 kJ/mol
# GULP energy per Si atom -5573.674092 kJ/mol
# Density = 2.407176 g / cm^3
# Si number density = 24.126677 Si / 1000 Ang^3
#
#
#
# Elastic Constant Matrix: (Units=GPa)
#
#
# Indices 1 2 3 4 5 6 
#
# 1 140.6557 46.8792 43.7074 -23.6973 21.0591 17.5599
# 2 46.8792 42.1042 18.5799 -18.9440 9.8148 2.8366
# 3 43.7074 18.5799 90.5687 -19.0241 24.8556 13.1507
# 4 -23.6973 -18.9440 -19.0241 36.1709 6.9999 -5.6881
# 5 21.0591 9.8148 24.8556 6.9999 46.1503 -11.8245
# 6 17.5599 2.8366 13.1507 -5.6881 -11.8245 50.5178
#
#
#
# Elastic Compliance Matrix: (Units=1/GPa)
#
#
# Indices 1 2 3 4 5 6 
#
# 1 0.012911 -0.011841 -0.001995 0.001261 -0.003511 -0.003984
# 2 -0.011841 0.046699 0.002521 0.019862 -0.008628 0.001054
# 3 -0.001995 0.002521 0.018100 0.011041 -0.012549 -0.005854
# 4 0.001261 0.019862 0.011041 0.047791 -0.018883 -0.003467
# 5 -0.003511 -0.008628 -0.012549 -0.018883 0.037719 0.011674
# 6 -0.003984 0.001054 -0.005854 -0.003467 0.011674 0.024987
#
#
# Mechanical properties :
#
#
# Convention : Reuss Voigt Hill
#
# Bulk Modulus (GPa) = 18.15526 54.62906 36.39216
# Shear Modulus (GPa) = 21.81527 37.51196 29.66361
#
# Velocity S-wave (km/s) = 3.01025 3.94736 3.51022
# Velocity P-wave (km/s) = 4.42984 6.59297 5.61653
#
# Compressibility (1/GPa) = 0.05508047
#
# Stress axis : x y z
#
# Youngs Moduli (GPa) = 77.45043 21.41370 55.24915
#
# Poissons Ratio (x) = 0.25357 0.11021
# Poissons Ratio (y) = 0.91711 -0.13929
# Poissons Ratio (z) = 0.15450 -0.05399
#
# Static dielectric constant tensor:
#      x y z
#    x 1.887820 0.153550 0.138740 
#    y 0.153550 1.350410 -0.463540 
#    z 0.138740 -0.463540 1.608450 
# 
# From -- ./inp_files/220259.got.cif
#   From: 2010.05.17/outbox.cif.g08.bks.cpg/sg2_111_cif.got.tgz:220259.got - 2010.06.03 11:33:40.
