data_PCOD9107683
_publ_section_title
;
Structure prediction by ZEFSAII (Michael W. Deem and Ramdas Pophale) SiO2 
 PCOD9107683
Probable space group: P -1
;
_chemical_formula_sum "Si O2"
_cell_formula_units_Z 16
_cell_length_a 5.332146
_cell_length_b 6.856798
_cell_length_c 24.993316
_cell_angle_alpha 95.412704
_cell_angle_beta 53.074131
_cell_angle_gamma 108.753190
_cell_volume 685.797796
_symmetry_space_group_name_H-M "P -1"
_symmetry_group_IT_number 2
_symmetry_cell_setting 'triclinic'
loop_
_space_group_symop_operation_xyz
x,y,z
-x,-y,-z
loop_
_atom_site_type_symbol
_atom_site_label
_atom_site_fract_x
_atom_site_fract_y
_atom_site_fract_z
Si Si1 0.512568 0.553679 0.291924
Si Si2 0.426518 0.750867 0.648691
Si Si3 0.164668 0.125115 0.263652
Si Si4 0.895035 0.575278 0.959486
Si Si5 0.332781 0.011352 0.878848
Si Si6 0.042060 0.828640 0.365296
Si Si7 0.665450 0.860853 0.508369
Si Si8 0.975278 0.262825 0.858379
O O1 0.563224 0.473548 0.341915
O O2 0.369210 0.329984 0.275642
O O3 0.259771 0.680764 0.325435
O O4 0.836504 0.681279 0.220723
O O5 0.415462 0.754909 0.585780
O O6 0.125578 0.796385 0.719475
O O7 0.732759 0.951445 0.631513
O O8 0.415878 0.070079 0.190673
O O9 0.976806 0.923971 0.319559
O O10 0.032102 0.466626 0.891608
O O11 0.500000 0.500000 0.000000
O O12 0.066195 0.820330 0.937381
O O13 0.000000 0.500000 0.000000
O O14 0.584731 0.160769 0.892915
O O15 0.139033 0.120251 0.867565
O O16 0.768177 0.735616 0.444022
O O17 0.500000 0.000000 0.500000
O O18 0.000000 0.000000 0.500000
#
# Coordination Sequence:
#
# PCOD9107683 Si02
#       8
#     2   2   2   2   2   2   2   2
#     4  11  24  40  65 103 137 181 242 301 354 421
#     4  10  23  38  65  93 138 186 236 301 359 423
#     4  11  22  40  66  97 138 183 237 300 355 414
#     4  12  28  51  78 110 151 187 231 293 351 427
#     4  12  27  46  76 107 145 191 242 290 355 428
#     4  10  21  41  63  93 133 182 237 293 362 422
#     4  10  20  40  65  91 133 186 235 291 365 429
#     4  12  27  47  75 109 145 193 240 290 359 425
#
# _framework density 23.330494000000002
#
# number of rings (size 3 to 8) (size 9 to 14) (size 15 to 20)
#    0.000    1.000    3.750    2.250    3.500    5.500 
#    0.000    0.625    0.000    0.000    0.000    0.000 
#    0.000    0.000    0.000    0.000    0.000    0.000 
#
# Total GULP energy -89435.207762 kJ/mol
# GULP energy per Si atom -5589.700485 kJ/mol
# Density = 2.327739 g / cm^3
# Si number density = 23.330494 Si / 1000 Ang^3
#
#
#
# Elastic Constant Matrix: (Units=GPa)
#
#
# Indices 1 2 3 4 5 6 
#
# 1 108.1043 28.9711 18.5791 -21.2795 8.8348 -11.4453
# 2 28.9711 108.5555 21.0142 -15.9945 11.7832 -9.7904
# 3 18.5791 21.0142 77.8521 2.6182 6.0566 -5.5321
# 4 -21.2795 -15.9945 2.6182 38.0776 -1.4665 1.8842
# 5 8.8348 11.7832 6.0566 -1.4665 29.6177 -0.4287
# 6 -11.4453 -9.7904 -5.5321 1.8842 -0.4287 37.3511
#
#
#
# Elastic Compliance Matrix: (Units=1/GPa)
#
#
# Indices 1 2 3 4 5 6 
#
# 1 0.011595 -0.001331 -0.002258 0.005867 -0.002140 0.002549
# 2 -0.001331 0.011142 -0.002426 0.003880 -0.003320 0.001920
# 3 -0.002258 -0.002426 0.014331 -0.003369 -0.001445 0.000948
# 4 0.005867 0.003880 -0.003369 0.031327 -0.001044 0.000724
# 5 -0.002140 -0.003320 -0.001445 -0.001044 0.035948 -0.001275
# 6 0.002549 0.001920 0.000948 0.000724 -0.001275 0.028147
#
#
# Mechanical properties :
#
#
# Convention : Reuss Voigt Hill
#
# Bulk Modulus (GPa) = 39.93583 47.96007 43.94795
# Shear Modulus (GPa) = 32.70885 36.07246 34.39065
#
# Velocity S-wave (km/s) = 3.74836 3.93638 3.84352
# Velocity P-wave (km/s) = 5.99068 6.42351 6.21087
#
# Compressibility (1/GPa) = 0.02504017
#
# Stress axis : x y z
#
# Youngs Moduli (GPa) = 86.24673 89.75221 69.77639
#
# Poissons Ratio (x) = 0.11943 0.15752
# Poissons Ratio (y) = 0.11476 0.16926
# Poissons Ratio (z) = 0.19470 0.21771
#
# Static dielectric constant tensor:
#      x y z
#    x 1.969230 0.040410 0.014850 
#    y 0.040410 1.847810 0.003450 
#    z 0.014850 0.003450 1.907810 
# 
# From -- ./inp_files/12793.got.cif
#   From: 2010.05.17/outbox.cif.g08.bks.cpg/sg2_7_cif.got.tgz:12793.got - 2010.06.03 11:33:40.
