data_PCOD9107226
_publ_section_title
;
Structure prediction by ZEFSAII (Michael W. Deem and Ramdas Pophale) SiO2 
 PCOD9107226
Probable space group: P -1
;
_chemical_formula_sum "Si O2"
_cell_formula_units_Z 16
_cell_length_a 21.458598
_cell_length_b 10.963012
_cell_length_c 10.043019
_cell_angle_alpha 64.320966
_cell_angle_beta 34.222508
_cell_angle_gamma 38.905464
_cell_volume 670.793784
_symmetry_space_group_name_H-M "P -1"
_symmetry_group_IT_number 2
_symmetry_cell_setting 'triclinic'
loop_
_space_group_symop_operation_xyz
x,y,z
-x,-y,-z
loop_
_atom_site_type_symbol
_atom_site_label
_atom_site_fract_x
_atom_site_fract_y
_atom_site_fract_z
Si Si1 0.639895 0.749470 0.587035
Si Si2 0.870281 0.217644 0.728192
Si Si3 0.913901 0.478451 0.482591
Si Si4 0.631367 0.602482 0.408116
Si Si5 0.724332 0.701934 0.987281
Si Si6 0.680661 0.220622 0.262611
Si Si7 0.191079 0.869044 0.658735
Si Si8 0.469469 0.661327 0.068032
O O1 0.820093 0.583595 0.451112
O O2 0.683400 0.658252 0.402766
O O3 0.515155 0.749337 0.865330
O O4 0.491156 0.024971 0.723352
O O5 0.959888 0.276402 0.533517
O O6 0.842342 0.153380 0.938966
O O7 0.642414 0.472064 0.962862
O O8 0.000000 0.000000 0.500000
O O9 0.756374 0.673626 0.785632
O O10 0.103674 0.379993 0.215025
O O11 0.401586 0.807466 0.680158
O O12 0.693799 0.390182 0.444425
O O13 0.734478 0.545032 0.115135
O O14 0.500000 0.500000 0.500000
O O15 0.746285 0.095543 0.346976
O O16 0.252523 0.883680 0.411021
O O17 0.000000 0.000000 0.000000
O O18 0.500000 0.500000 0.000000
#
# Coordination Sequence:
#
# PCOD9107226 Si02
#       8
#     2   2   2   2   2   2   2   2
#     4  11  24  43  69  96 129 179 230 280 344 392
#     4  11  23  38  70  97 131 174 216 280 342 396
#     4  10  25  43  66 101 131 174 235 279 324 414
#     4  11  23  44  66  96 136 176 224 280 335 409
#     4  11  25  46  68  92 136 186 225 272 339 407
#     4  10  20  40  63  92 135 174 216 272 336 398
#     4  11  24  39  64 103 136 179 220 276 349 405
#     4  11  22  41  63  97 138 163 221 289 330 406
#
# _framework density 23.852338
#
# number of rings (size 3 to 8) (size 9 to 14) (size 15 to 20)
#    0.000    1.250    3.750    2.250    7.000    2.500 
#    2.250    0.000    0.000    0.000    0.000    0.000 
#    0.000    0.000    0.000    0.000    0.000    0.000 
#
# Total GULP energy -89308.426868 kJ/mol
# GULP energy per Si atom -5581.776679 kJ/mol
# Density = 2.379805 g / cm^3
# Si number density = 23.852338 Si / 1000 Ang^3
#
#
#
# Elastic Constant Matrix: (Units=GPa)
#
#
# Indices 1 2 3 4 5 6 
#
# 1 114.8862 11.1823 3.6522 3.9825 7.5154 -9.2229
# 2 11.1823 40.7029 4.3913 -10.0874 -1.6322 2.2236
# 3 3.6522 4.3913 95.0494 -13.9505 5.4409 -5.0504
# 4 3.9825 -10.0874 -13.9505 31.1232 6.6912 -0.5811
# 5 7.5154 -1.6322 5.4409 6.6912 37.0622 -9.6974
# 6 -9.2229 2.2236 -5.0504 -0.5811 -9.6974 32.5839
#
#
#
# Elastic Compliance Matrix: (Units=1/GPa)
#
#
# Indices 1 2 3 4 5 6 
#
# 1 0.009368 -0.003245 -0.000339 -0.002151 -0.000951 0.002499
# 2 -0.003245 0.027957 0.000129 0.009611 -0.000601 -0.002814
# 3 -0.000339 0.000129 0.011575 0.005807 -0.002390 0.001082
# 4 -0.002151 0.009611 0.005807 0.039737 -0.007675 -0.001940
# 5 -0.000951 -0.000601 -0.002390 -0.007675 0.031115 0.008525
# 6 0.002499 -0.002814 0.001082 -0.001940 0.008525 0.034260
#
#
# Mechanical properties :
#
#
# Convention : Reuss Voigt Hill
#
# Bulk Modulus (GPa) = 23.81514 32.12110 27.96812
# Shear Modulus (GPa) = 28.58463 35.58136 32.08300
#
# Velocity S-wave (km/s) = 3.46555 3.86649 3.67149
# Velocity P-wave (km/s) = 5.10092 5.78177 5.45199
#
# Compressibility (1/GPa) = 0.04199010
#
# Stress axis : x y z
#
# Youngs Moduli (GPa) = 106.74319 35.76871 86.39654
#
# Poissons Ratio (x) = 0.11607 0.02925
# Poissons Ratio (y) = 0.34638 -0.01110
# Poissons Ratio (z) = 0.03614 -0.00460
#
# Static dielectric constant tensor:
#      x y z
#    x 2.021460 -0.100850 0.016770 
#    y -0.100850 1.968110 0.057980 
#    z 0.016770 0.057980 2.059740 
# 
# From -- ./inp_files/346079.got.cif
#   From: 2010.05.17/outbox.cif.g08.bks.cpg/sg2_174_cif.got.tgz:346079.got - 2010.06.03 11:33:40.
