data_PCOD9107313
_publ_section_title
;
Structure prediction by ZEFSAII (Michael W. Deem and Ramdas Pophale) SiO2 
 PCOD9107313
Probable space group: P -1
;
_chemical_formula_sum "Si O2"
_cell_formula_units_Z 16
_cell_length_a 11.987301
_cell_length_b 9.901969
_cell_length_c 16.308872
_cell_angle_alpha 48.889521
_cell_angle_beta 136.605573
_cell_angle_gamma 141.764584
_cell_volume 805.780798
_symmetry_space_group_name_H-M "P -1"
_symmetry_group_IT_number 2
_symmetry_cell_setting 'triclinic'
loop_
_space_group_symop_operation_xyz
x,y,z
-x,-y,-z
loop_
_atom_site_type_symbol
_atom_site_label
_atom_site_fract_x
_atom_site_fract_y
_atom_site_fract_z
Si Si1 0.326726 0.412680 0.207560
Si Si2 0.078886 0.470009 0.185042
Si Si3 0.505153 0.305081 0.481271
Si Si4 0.001197 0.982215 0.106493
Si Si5 0.625085 0.243887 0.007378
Si Si6 0.721201 0.119830 0.747484
Si Si7 0.439724 0.252888 0.059496
Si Si8 0.838822 0.778400 0.551560
O O1 0.236735 0.486076 0.199720
O O2 0.440687 0.325514 0.348328
O O3 0.448382 0.621313 0.128903
O O4 0.147305 0.212912 0.138044
O O5 0.182191 0.700131 0.198303
O O6 0.042750 0.288119 0.303720
O O7 0.865237 0.380329 0.067446
O O8 0.590263 0.165246 0.603092
O O9 0.681002 0.560256 0.499909
O O10 0.309008 0.206093 0.473885
O O11 0.097481 0.849067 0.220448
O O12 0.774178 0.877407 0.050129
O O13 0.000000 0.000000 0.000000
O O14 0.591607 0.245315 0.085748
O O15 0.500000 0.000000 0.000000
O O16 0.596597 0.878067 0.822495
O O17 0.500000 0.500000 0.000000
O O18 0.000000 0.000000 0.500000
#
# Coordination Sequence:
#
# PCOD9107313 Si02
#       8
#     2   2   2   2   2   2   2   2
#     4  11  22  40  58  83 127 155 194 242 302 362
#     4  10  21  37  58  89 115 158 199 240 299 350
#     4   9  21  37  59  90 118 163 198 241 304 356
#     4  10  21  40  61  78 113 163 197 235 299 356
#     4  12  23  32  56  89 119 150 191 251 293 343
#     4  10  20  40  64  82 113 156 207 237 289 374
#     4  11  22  37  59  86 114 146 199 252 295 348
#     4   9  19  35  61  86 127 159 195 247 297 359
#
# _framework density 19.856517
#
# number of rings (size 3 to 8) (size 9 to 14) (size 15 to 20)
#    0.000    1.750    0.000    6.375    3.500    0.500 
#    0.000    0.000    0.000    1.500    0.000    0.000 
#    0.000    0.000    0.000    0.000    0.000    0.000 
#
# Total GULP energy -89271.480594 kJ/mol
# GULP energy per Si atom -5579.467537 kJ/mol
# Density = 1.981132 g / cm^3
# Si number density = 19.856517 Si / 1000 Ang^3
#
#
#
# Elastic Constant Matrix: (Units=GPa)
#
#
# Indices 1 2 3 4 5 6 
#
# 1 39.2384 -5.7339 -0.0869 -6.4190 12.4860 7.3075
# 2 -5.7339 78.7393 36.3488 -10.4493 2.6829 -1.8258
# 3 -0.0869 36.3488 127.3152 -11.8016 15.1240 18.8541
# 4 -6.4190 -10.4493 -11.8016 27.9118 0.1913 -5.4496
# 5 12.4860 2.6829 15.1240 0.1913 33.3794 -5.8113
# 6 7.3075 -1.8258 18.8541 -5.4496 -5.8113 28.6310
#
#
#
# Elastic Compliance Matrix: (Units=1/GPa)
#
#
# Indices 1 2 3 4 5 6 
#
# 1 0.035366 0.001904 0.004409 0.008122 -0.017844 -0.013885
# 2 0.001904 0.015884 -0.004910 0.005274 0.001073 0.004982
# 3 0.004409 -0.004910 0.012076 0.002250 -0.008603 -0.010709
# 4 0.008122 0.005274 0.002250 0.041398 -0.004050 0.003839
# 5 -0.017844 0.001073 -0.008603 -0.004050 0.043669 0.018381
# 6 -0.013885 0.004982 -0.010709 0.003839 0.018381 0.050302
#
#
# Mechanical properties :
#
#
# Convention : Reuss Voigt Hill
#
# Bulk Modulus (GPa) = 15.12137 34.03877 24.58007
# Shear Modulus (GPa) = 22.94291 32.30211 27.62251
#
# Velocity S-wave (km/s) = 3.40286 4.03771 3.73380
# Velocity P-wave (km/s) = 4.80324 6.23835 5.56723
#
# Compressibility (1/GPa) = 0.06613157
#
# Stress axis : x y z
#
# Youngs Moduli (GPa) = 28.27603 62.95536 82.81002
#
# Poissons Ratio (x) = -0.11985 -0.36514
# Poissons Ratio (y) = -0.05383 0.40661
# Poissons Ratio (z) = -0.12468 0.30912
#
# Static dielectric constant tensor:
#      x y z
#    x 1.713140 -0.000370 0.022910 
#    y -0.000370 1.703210 -0.000090 
#    z 0.022910 -0.000090 1.749900 
# 
# From -- ./inp_files/345822.got.cif
#   From: 2010.05.17/outbox.cif.g08.bks.cpg/sg2_173_cif.got.tgz:345822.got - 2010.06.03 11:33:40.
