data_PCOD9107106
_publ_section_title
;
Structure prediction by ZEFSAII (Michael W. Deem and Ramdas Pophale) SiO2 
 PCOD9107106
Probable space group: P -1
;
_chemical_formula_sum "Si O2"
_cell_formula_units_Z 14
_cell_length_a 14.893513
_cell_length_b 10.289880
_cell_length_c 18.138039
_cell_angle_alpha 138.297311
_cell_angle_beta 28.153141
_cell_angle_gamma 155.341909
_cell_volume 525.642164
_symmetry_space_group_name_H-M "P -1"
_symmetry_group_IT_number 2
_symmetry_cell_setting 'triclinic'
loop_
_space_group_symop_operation_xyz
x,y,z
-x,-y,-z
loop_
_atom_site_type_symbol
_atom_site_label
_atom_site_fract_x
_atom_site_fract_y
_atom_site_fract_z
Si Si1 0.336426 0.662742 0.838997
Si Si2 0.873571 0.163922 0.365236
Si Si3 0.479174 0.298042 0.128588
Si Si4 0.649274 0.377592 0.601312
Si Si5 0.452689 0.227973 0.420446
Si Si6 0.180772 0.047173 0.080578
Si Si7 0.208614 0.865135 0.834416
O O1 0.500438 0.829567 0.869607
O O2 0.575178 0.858867 0.681478
O O3 0.185439 0.322445 0.806783
O O4 0.000000 0.500000 0.000000
O O5 0.558455 0.844963 0.414048
O O6 0.806895 0.052313 0.451085
O O7 0.154888 0.256254 0.173893
O O8 0.916852 0.428832 0.432737
O O9 0.314715 0.360961 0.305345
O O10 0.326169 0.121068 0.086190
O O11 0.848946 0.633254 0.984538
O O12 0.430110 0.134430 0.726107
O O13 0.500000 0.500000 0.500000
O O14 0.750736 0.336374 0.275930
O O15 0.305850 0.033991 0.914305
#
# Coordination Sequence:
#
# PCOD9107106 Si02
#       7
#     2   2   2   2   2   2   2
#     4  11  21  42  62  86 120 154 197 248 291 354
#     4  10  21  36  64  89 117 163 197 238 301 352
#     4  11  22  37  64  90 117 157 199 246 298 345
#     4  10  20  40  63  85 122 161 199 241 297 352
#     4  11  19  37  67  82 116 160 193 243 300 347
#     4  11  22  38  61  93 119 153 201 243 299 348
#     4  10  22  40  61  89 117 157 201 244 292 353
#
# _framework density 26.63409
#
# number of rings (size 3 to 8) (size 9 to 14) (size 15 to 20)
#    0.000    1.429    7.143    0.429    0.000    1.714 
#    0.000    0.714   15.714    0.000    0.000    0.000 
#    0.000    0.000    0.000    0.000    0.000    0.000 
#
# Total GULP energy -78282.278720 kJ/mol
# GULP energy per Si atom -5591.591337 kJ/mol
# Density = 2.657347 g / cm^3
# Si number density = 26.634090 Si / 1000 Ang^3
#
#
#
# Elastic Constant Matrix: (Units=GPa)
#
#
# Indices 1 2 3 4 5 6 
#
# 1 173.9380 33.4664 65.9025 24.8186 -0.3025 26.9767
# 2 33.4664 73.4759 22.1211 20.3234 -4.3842 13.8735
# 3 65.9025 22.1211 158.4961 25.1375 -23.3950 3.8298
# 4 24.8186 20.3234 25.1375 32.2763 -5.8178 4.4828
# 5 -0.3025 -4.3842 -23.3950 -5.8178 72.4990 13.2045
# 6 26.9767 13.8735 3.8298 4.4828 13.2045 48.3156
#
#
#
# Elastic Compliance Matrix: (Units=1/GPa)
#
#
# Indices 1 2 3 4 5 6 
#
# 1 0.007959 -0.001446 -0.002664 -0.002752 -0.000511 -0.003423
# 2 -0.001446 0.017597 -0.000177 -0.009158 0.000928 -0.003635
# 3 -0.002664 -0.000177 0.008403 -0.004068 0.002248 0.000635
# 4 -0.002752 -0.009158 -0.004068 0.042278 0.001486 0.000160
# 5 -0.000511 0.000928 0.002248 0.001486 0.015518 -0.004538
# 6 -0.003423 -0.003635 0.000635 0.000160 -0.004538 0.024827
#
#
# Mechanical properties :
#
#
# Convention : Reuss Voigt Hill
#
# Bulk Modulus (GPa) = 39.39484 72.09887 55.74685
# Shear Modulus (GPa) = 37.41953 49.57950 43.49952
#
# Velocity S-wave (km/s) = 3.75233 4.31920 4.04570
# Velocity P-wave (km/s) = 5.79625 7.21130 6.54215
#
# Compressibility (1/GPa) = 0.02538404
#
# Stress axis : x y z
#
# Youngs Moduli (GPa) = 125.63836 56.82825 119.00091
#
# Poissons Ratio (x) = 0.08220 0.31702
# Poissons Ratio (y) = 0.18173 0.02110
# Poissons Ratio (z) = 0.33470 0.01008
#
# Static dielectric constant tensor:
#      x y z
#    x 2.142580 -0.041700 -0.052440 
#    y -0.041700 2.101690 0.048000 
#    z -0.052440 0.048000 2.093570 
# 
# From -- ./inp_files/255423.got.cif
#   From: 2010.05.17/outbox.cif.g08.bks.cpg/sg2_128_cif.got.tgz:255423.got - 2010.06.03 11:33:40.
