data_PCOD9107100
_publ_section_title
;
Structure prediction by ZEFSAII (Michael W. Deem and Ramdas Pophale) SiO2 
 PCOD9107100
Probable space group: P -1
;
_chemical_formula_sum "Si O2"
_cell_formula_units_Z 16
_cell_length_a 7.288458
_cell_length_b 17.780704
_cell_length_c 22.176025
_cell_angle_alpha 22.299556
_cell_angle_beta 140.033853
_cell_angle_gamma 138.185809
_cell_volume 692.688552
_symmetry_space_group_name_H-M "P -1"
_symmetry_group_IT_number 2
_symmetry_cell_setting 'triclinic'
loop_
_space_group_symop_operation_xyz
x,y,z
-x,-y,-z
loop_
_atom_site_type_symbol
_atom_site_label
_atom_site_fract_x
_atom_site_fract_y
_atom_site_fract_z
Si Si1 0.137499 0.391765 0.911768
Si Si2 0.668955 0.972245 0.460160
Si Si3 0.745060 0.870044 0.995271
Si Si4 0.100887 0.786223 0.904989
Si Si5 0.605036 0.721584 0.746034
Si Si6 0.740585 0.052101 0.740396
Si Si7 0.206190 0.229498 0.653772
Si Si8 0.188271 0.581096 0.294551
O O1 0.442708 0.502145 0.883599
O O2 0.878412 0.477358 0.748431
O O3 0.116192 0.153418 0.071374
O O4 0.089580 0.384269 0.976368
O O5 0.566751 0.145670 0.349363
O O6 0.491312 0.960066 0.361964
O O7 0.588439 0.785500 0.624729
O O8 0.000000 0.000000 0.500000
O O9 0.907185 0.681274 0.162757
O O10 0.432271 0.771125 0.012243
O O11 0.648152 0.030453 0.802508
O O12 0.000000 0.000000 0.000000
O O13 0.942538 0.759362 0.820992
O O14 0.095522 0.016672 0.752648
O O15 0.983748 0.235346 0.648593
O O16 0.199970 0.397301 0.477700
O O17 0.525523 0.260419 0.739475
#
# Coordination Sequence:
#
# PCOD9107100 Si02
#       8
#     2   2   2   2   2   2   2   2
#     4  10  22  39  64  89 124 167 220 252 321 386
#     4  11  23  41  64  94 128 170 216 266 329 378
#     4  11  23  40  63  95 127 163 215 271 327 382
#     4  11  22  40  64  89 126 169 212 259 325 384
#     4  11  23  43  66  92 133 174 216 267 321 390
#     4  10  22  41  62  87 128 165 216 262 324 389
#     4  10  20  40  63  84 123 169 208 260 322 388
#     4  10  22  39  62  91 124 163 217 265 320 392
#
# _framework density 23.098405
#
# number of rings (size 3 to 8) (size 9 to 14) (size 15 to 20)
#    0.000    1.500    3.750    1.875    3.500    1.500 
#    6.750    3.750    0.000    0.000    0.000    0.000 
#    0.000    0.000    0.000    0.000    0.000    0.000 
#
# Total GULP energy -89095.888444 kJ/mol
# GULP energy per Si atom -5568.493028 kJ/mol
# Density = 2.304583 g / cm^3
# Si number density = 23.098405 Si / 1000 Ang^3
#
#
#
# Elastic Constant Matrix: (Units=GPa)
#
#
# Indices 1 2 3 4 5 6 
#
# 1 47.2827 16.1642 20.3902 6.2727 -10.8038 18.9590
# 2 16.1642 105.0603 31.5678 14.3402 -8.7128 14.9464
# 3 20.3902 31.5678 81.1362 16.5192 -25.6368 6.1985
# 4 6.2727 14.3402 16.5192 35.9325 6.2845 -1.9937
# 5 -10.8038 -8.7128 -25.6368 6.2845 34.0217 2.8849
# 6 18.9590 14.9464 6.1985 -1.9937 2.8849 30.1782
#
#
#
# Elastic Compliance Matrix: (Units=1/GPa)
#
#
# Indices 1 2 3 4 5 6 
#
# 1 0.036050 0.000888 -0.000481 -0.010514 0.015388 -0.025155
# 2 0.000888 0.011936 -0.002534 -0.004611 0.002834 -0.006524
# 3 -0.000481 -0.002534 0.022509 -0.012899 0.019029 -0.005737
# 4 -0.010514 -0.004611 -0.012899 0.042464 -0.023490 0.016589
# 5 0.015388 0.002834 0.019029 -0.023490 0.055535 -0.021840
# 6 -0.025155 -0.006524 -0.005737 0.016589 -0.021840 0.056533
#
#
# Mechanical properties :
#
#
# Convention : Reuss Voigt Hill
#
# Bulk Modulus (GPa) = 15.09648 41.08037 28.08843
# Shear Modulus (GPa) = 19.89158 31.05029 25.47093
#
# Velocity S-wave (km/s) = 2.93775 3.67039 3.32432
# Velocity P-wave (km/s) = 4.24936 5.98214 5.18859
#
# Compressibility (1/GPa) = 0.06624062
#
# Stress axis : x y z
#
# Youngs Moduli (GPa) = 27.73890 83.78162 44.42673
#
# Poissons Ratio (x) = -0.07437 0.02135
# Poissons Ratio (y) = -0.02462 0.11260
# Poissons Ratio (z) = 0.01333 0.21234
#
# Static dielectric constant tensor:
#      x y z
#    x 3.507200 -0.103400 -0.430320 
#    y -0.103400 1.901930 0.001290 
#    z -0.430320 0.001290 1.982710 
# 
# From -- ./inp_files/617600.got.cif
#   From: 2010.05.17/outbox.cif.g08.bks.cpg/sg2_309_cif.got.tgz:617600.got - 2010.06.03 11:33:40.
