data_PCOD9107333
_publ_section_title
;
Structure prediction by ZEFSAII (Michael W. Deem and Ramdas Pophale) SiO2 
 PCOD9107333
Probable space group: P -1
;
_chemical_formula_sum "Si O2"
_cell_formula_units_Z 16
_cell_length_a 11.338261
_cell_length_b 12.537530
_cell_length_c 12.215610
_cell_angle_alpha 145.308887
_cell_angle_beta 104.273625
_cell_angle_gamma 101.393760
_cell_volume 659.006277
_symmetry_space_group_name_H-M "P -1"
_symmetry_group_IT_number 2
_symmetry_cell_setting 'triclinic'
loop_
_space_group_symop_operation_xyz
x,y,z
-x,-y,-z
loop_
_atom_site_type_symbol
_atom_site_label
_atom_site_fract_x
_atom_site_fract_y
_atom_site_fract_z
Si Si1 0.905986 0.807751 0.054256
Si Si2 0.010281 0.612067 0.760390
Si Si3 0.549578 0.819730 0.038345
Si Si4 0.792735 0.056783 0.118248
Si Si5 0.683313 0.781215 0.437263
Si Si6 0.663807 0.160386 0.852963
Si Si7 0.190135 0.904903 0.477045
Si Si8 0.202602 0.505625 0.030433
O O1 0.863942 0.948559 0.099733
O O2 0.789434 0.637257 0.991887
O O3 0.111932 0.026220 0.320122
O O4 0.889769 0.617884 0.805970
O O5 0.152190 0.880720 0.942990
O O6 0.892183 0.347316 0.436279
O O7 0.133508 0.630716 0.885335
O O8 0.451890 0.897403 0.122169
O O9 0.595315 0.857323 0.952553
O O10 0.728171 0.009386 0.312166
O O11 0.429101 0.513911 0.791916
O O12 0.620825 0.907841 0.583452
O O13 0.695216 0.831812 0.353036
O O14 0.657971 0.305260 0.875120
O O15 0.197336 0.703042 0.256417
O O16 0.987464 0.739938 0.277618
#
# Coordination Sequence:
#
# PCOD9107333 Si02
#       8
#     2   2   2   2   2   2   2   2
#     4  10  20  40  64  86 114 150 195 246 288 334
#     4  10  22  44  64  82 112 152 200 247 285 332
#     4  12  23  35  55  88 123 154 189 234 288 347
#     4  11  24  38  62  90 111 149 202 244 284 339
#     4   9  21  37  56  84 120 156 191 232 289 353
#     4  10  22  40  59  84 122 160 187 231 292 346
#     4   9  18  34  56  85 118 155 193 235 284 337
#     4   9  18  36  63  87 113 153 196 233 285 347
#
# _framework density 24.278980000000001
#
# number of rings (size 3 to 8) (size 9 to 14) (size 15 to 20)
#    0.000    2.000    0.000    5.250    0.000    6.500 
#    0.000    5.625    0.000    0.000    0.000    0.000 
#    0.000    0.000    0.000    0.000    0.000    0.000 
#
# Total GULP energy -89552.348060 kJ/mol
# GULP energy per Si atom -5597.021754 kJ/mol
# Density = 2.422372 g / cm^3
# Si number density = 24.278980 Si / 1000 Ang^3
#
#
#
# Elastic Constant Matrix: (Units=GPa)
#
#
# Indices 1 2 3 4 5 6 
#
# 1 94.7993 26.6359 -8.2204 5.6582 -9.8193 9.1206
# 2 26.6359 153.4604 -7.4690 17.1767 -10.4037 7.4744
# 3 -8.2204 -7.4690 55.3040 9.2356 4.1312 -0.9730
# 4 5.6582 17.1767 9.2356 38.2149 3.4070 1.0521
# 5 -9.8193 -10.4037 4.1312 3.4070 15.7810 -0.5121
# 6 9.1206 7.4744 -0.9730 1.0521 -0.5121 25.6979
#
#
#
# Elastic Compliance Matrix: (Units=1/GPa)
#
#
# Indices 1 2 3 4 5 6 
#
# 1 0.012187 -0.001167 0.001438 -0.002130 0.006777 -0.003709
# 2 -0.001167 0.007608 0.001122 -0.003904 0.004790 -0.001501
# 3 0.001438 0.001122 0.019495 -0.005222 -0.002340 0.000069
# 4 -0.002130 -0.003904 -0.005222 0.030300 -0.009064 0.000272
# 5 0.006777 0.004790 -0.002340 -0.009064 0.073245 -0.002056
# 6 -0.003709 -0.001501 0.000069 0.000272 -0.002056 0.040617
#
#
# Mechanical properties :
#
#
# Convention : Reuss Voigt Hill
#
# Bulk Modulus (GPa) = 23.76630 36.16186 29.96408
# Shear Modulus (GPa) = 25.68156 35.44657 30.56407
#
# Velocity S-wave (km/s) = 3.25587 3.82510 3.55190
# Velocity P-wave (km/s) = 4.89329 5.86815 5.40275
#
# Compressibility (1/GPa) = 0.04207639
#
# Stress axis : x y z
#
# Youngs Moduli (GPa) = 82.05425 131.43601 51.29482
#
# Poissons Ratio (x) = 0.15337 -0.07376
# Poissons Ratio (y) = 0.09575 -0.05754
# Poissons Ratio (z) = -0.11800 -0.14744
#
# Static dielectric constant tensor:
#      x y z
#    x 1.944300 0.037640 0.010980 
#    y 0.037640 1.937690 0.019500 
#    z 0.010980 0.019500 1.935070 
# 
# From -- ./inp_files/429091.got.cif
#   From: 2010.05.17/outbox.cif.g08.bks.cpg/sg2_215_cif.got.tgz:429091.got - 2010.06.03 11:33:40.
