data_PCOD9107494
_publ_section_title
;
Structure prediction by ZEFSAII (Michael W. Deem and Ramdas Pophale) SiO2 
 PCOD9107494
Probable space group: P -1
;
_chemical_formula_sum "Si O2"
_cell_formula_units_Z 16
_cell_length_a 12.254548
_cell_length_b 15.289133
_cell_length_c 12.360929
_cell_angle_alpha 109.153744
_cell_angle_beta 58.743830
_cell_angle_gamma 57.935363
_cell_volume 927.955151
_symmetry_space_group_name_H-M "P -1"
_symmetry_group_IT_number 2
_symmetry_cell_setting 'triclinic'
loop_
_space_group_symop_operation_xyz
x,y,z
-x,-y,-z
loop_
_atom_site_type_symbol
_atom_site_label
_atom_site_fract_x
_atom_site_fract_y
_atom_site_fract_z
Si Si1 0.711710 0.869695 0.531840
Si Si2 0.300239 0.211850 0.288975
Si Si3 0.293938 0.271219 0.864258
Si Si4 0.478411 0.365859 0.407233
Si Si5 0.752599 0.362197 0.184701
Si Si6 0.899658 0.416431 0.964320
Si Si7 0.314307 0.967999 0.827096
Si Si8 0.040978 0.406169 0.285517
O O1 0.742170 0.850402 0.638228
O O2 0.964296 0.691092 0.262268
O O3 0.513530 0.907278 0.632178
O O4 0.568821 0.050017 0.637095
O O5 0.094870 0.414660 0.528033
O O6 0.241017 0.245000 0.207211
O O7 0.582559 0.071691 0.121288
O O8 0.296783 0.375577 0.868242
O O9 0.167230 0.341596 0.077389
O O10 0.113134 0.326533 0.898627
O O11 0.625034 0.341495 0.240080
O O12 0.428677 0.456637 0.577335
O O13 0.197475 0.513475 0.570101
O O14 0.629985 0.175397 0.275537
O O15 0.797519 0.388337 0.061413
O O16 0.027413 0.176591 0.028709
#
# Coordination Sequence:
#
# PCOD9107494 Si02
#       8
#     2   2   2   2   2   2   2   2
#     4  10  19  32  48  78  99 124 162 204 253 295
#     4   8  18  30  54  75 102 125 159 213 247 292
#     4  11  20  29  51  72 101 135 154 206 252 295
#     4  10  20  33  49  71 103 131 168 197 240 296
#     4  11  21  32  49  72 103 136 163 198 239 300
#     4  11  20  31  46  72 105 130 162 199 248 297
#     4   9  18  34  49  77  97 126 159 206 253 285
#     4  10  16  35  51  76 101 129 165 201 253 289
#
# _framework density 17.242211999999999
#
# number of rings (size 3 to 8) (size 9 to 14) (size 15 to 20)
#    0.750    1.250    3.750    0.750    1.750    0.500 
#    0.000    0.000    0.000    0.750    0.000    0.875 
#    0.000    0.000    0.000    0.000    0.000    0.000 
#
# Total GULP energy -89113.442743 kJ/mol
# GULP energy per Si atom -5569.590171 kJ/mol
# Density = 1.720297 g / cm^3
# Si number density = 17.242212 Si / 1000 Ang^3
#
#
#
# Elastic Constant Matrix: (Units=GPa)
#
#
# Indices 1 2 3 4 5 6 
#
# 1 14.5742 19.3794 5.2036 2.4455 -2.0249 3.9461
# 2 19.3794 107.9525 16.1294 11.3035 -2.7593 9.6755
# 3 5.2036 16.1294 26.0471 -2.4844 1.0668 14.5732
# 4 2.4455 11.3035 -2.4844 25.2597 5.3269 7.2918
# 5 -2.0249 -2.7593 1.0668 5.3269 16.5467 -6.5335
# 6 3.9461 9.6755 14.5732 7.2918 -6.5335 28.2116
#
#
#
# Elastic Compliance Matrix: (Units=1/GPa)
#
#
# Indices 1 2 3 4 5 6 
#
# 1 0.094551 -0.013956 -0.014293 -0.008784 0.014828 0.004649
# 2 -0.013956 0.013946 -0.010874 -0.009429 0.007062 0.006859
# 3 -0.014293 -0.010874 0.089018 0.043138 -0.047863 -0.062489
# 4 -0.008784 -0.009429 0.043138 0.072704 -0.047648 -0.047647
# 5 0.014828 0.007062 -0.047863 -0.047648 0.104234 0.056683
# 6 0.004649 0.006859 -0.062489 -0.047647 0.056683 0.090166
#
#
# Mechanical properties :
#
#
# Convention : Reuss Voigt Hill
#
# Bulk Modulus (GPa) = 8.38439 25.55541 16.96990
# Shear Modulus (GPa) = 8.58190 21.19435 14.88813
#
# Velocity S-wave (km/s) = 2.23340 3.50982 2.94167
# Velocity P-wave (km/s) = 3.39470 5.59273 4.62616
#
# Compressibility (1/GPa) = 0.11926933
#
# Stress axis : x y z
#
# Youngs Moduli (GPa) = 10.57634 71.70294 11.23368
#
# Poissons Ratio (x) = 1.00068 0.16056
# Poissons Ratio (y) = 0.14760 0.12216
# Poissons Ratio (z) = 0.15117 0.77970
#
# Static dielectric constant tensor:
#      x y z
#    x 1.588290 0.003950 0.018360 
#    y 0.003950 1.625620 0.014070 
#    z 0.018360 0.014070 1.593010 
# 
# From -- ./inp_files/431569.got.cif
#   From: 2010.05.17/outbox.cif.g08.bks.cpg/sg2_216_cif.got.tgz:431569.got - 2010.06.03 11:33:40.
