data_PCOD9107188
_publ_section_title
;
Structure prediction by ZEFSAII (Michael W. Deem and Ramdas Pophale) SiO2 
 PCOD9107188
Probable space group: P -1
;
_chemical_formula_sum "Si O2"
_cell_formula_units_Z 16
_cell_length_a 11.483308
_cell_length_b 17.241841
_cell_length_c 20.078650
_cell_angle_alpha 160.215632
_cell_angle_beta 41.467615
_cell_angle_gamma 146.313419
_cell_volume 734.264559
_symmetry_space_group_name_H-M "P -1"
_symmetry_group_IT_number 2
_symmetry_cell_setting 'triclinic'
loop_
_space_group_symop_operation_xyz
x,y,z
-x,-y,-z
loop_
_atom_site_type_symbol
_atom_site_label
_atom_site_fract_x
_atom_site_fract_y
_atom_site_fract_z
Si Si1 0.802469 0.281059 0.728641
Si Si2 0.808805 0.683749 0.463158
Si Si3 0.686756 0.130323 0.403336
Si Si4 0.945231 0.723225 0.836790
Si Si5 0.643705 0.684016 0.681683
Si Si6 0.087756 0.170168 0.917341
Si Si7 0.832471 0.193266 0.796749
Si Si8 0.642867 0.168085 0.298765
O O1 0.839500 0.192772 0.713166
O O2 0.984883 0.321857 0.634881
O O3 0.564089 0.058554 0.626094
O O4 0.830832 0.575379 0.961680
O O5 0.733316 0.691883 0.576018
O O6 0.599789 0.413796 0.300388
O O7 0.860332 0.962760 0.630034
O O8 0.793909 0.443963 0.634312
O O9 0.700403 0.121955 0.310359
O O10 0.812565 0.006368 0.279527
O O11 0.171983 0.762005 0.774351
O O12 0.848135 0.702559 0.933466
O O13 0.000000 0.000000 0.000000
O O14 0.629938 0.432726 0.522869
O O15 0.830912 0.969824 0.864074
O O16 0.588487 0.087700 0.831500
O O17 0.000000 0.500000 0.000000
#
# Coordination Sequence:
#
# PCOD9107188 Si02
#       8
#     2   2   2   2   2   2   2   2
#     4  11  25  41  63  94 126 172 214 252 319 384
#     4  10  22  42  65  92 124 164 213 262 325 368
#     4  11  24  44  61  91 141 165 205 268 305 378
#     4  12  23  38  66  95 122 169 216 252 315 375
#     4  10  21  40  67  92 125 163 204 273 314 365
#     4  12  24  41  65  95 128 169 213 257 316 377
#     4  10  22  40  64  89 127 166 207 265 319 377
#     4  10  20  40  63  90 130 166 203 263 322 362
#
# _framework density 21.790510999999999
#
# number of rings (size 3 to 8) (size 9 to 14) (size 15 to 20)
#    0.000    1.250    2.500    3.375    0.000    3.000 
#    2.250    0.000    0.000    0.000    0.000    0.000 
#    0.000    0.000    0.000    0.000    0.000    0.000 
#
# Total GULP energy -89461.424858 kJ/mol
# GULP energy per Si atom -5591.339054 kJ/mol
# Density = 2.174091 g / cm^3
# Si number density = 21.790511 Si / 1000 Ang^3
#
#
#
# Elastic Constant Matrix: (Units=GPa)
#
#
# Indices 1 2 3 4 5 6 
#
# 1 65.3751 21.4259 39.6591 15.2233 -5.8907 3.1367
# 2 21.4259 98.0627 35.6557 17.8613 5.6896 24.6676
# 3 39.6591 35.6557 106.2069 32.3825 4.7399 27.5590
# 4 15.2233 17.8613 32.3825 38.1641 2.3075 4.7611
# 5 -5.8907 5.6896 4.7399 2.3075 33.0616 17.3640
# 6 3.1367 24.6676 27.5590 4.7611 17.3640 31.4186
#
#
#
# Elastic Compliance Matrix: (Units=1/GPa)
#
#
# Indices 1 2 3 4 5 6 
#
# 1 0.021662 -0.003342 -0.008667 -0.000725 0.002022 0.007055
# 2 -0.003342 0.014648 0.001346 -0.005185 0.004403 -0.013995
# 3 -0.008667 0.001346 0.021226 -0.013024 0.006950 -0.020678
# 4 -0.000725 -0.005185 -0.013024 0.038697 -0.007280 0.013727
# 5 0.002022 0.004403 0.006950 -0.007280 0.047771 -0.035053
# 6 0.007055 -0.013995 -0.020678 0.013727 -0.035053 0.077543
#
#
# Mechanical properties :
#
#
# Convention : Reuss Voigt Hill
#
# Bulk Modulus (GPa) = 27.61567 51.45847 39.53707
# Shear Modulus (GPa) = 19.61233 32.05580 25.83407
#
# Velocity S-wave (km/s) = 3.00332 3.83964 3.44694
# Velocity P-wave (km/s) = 4.97266 6.58206 5.83313
#
# Compressibility (1/GPa) = 0.03621133
#
# Stress axis : x y z
#
# Youngs Moduli (GPa) = 46.16428 68.27069 47.11096
#
# Poissons Ratio (x) = 0.22814 0.40830
# Poissons Ratio (y) = 0.15427 -0.06342
# Poissons Ratio (z) = 0.40010 -0.09191
#
# Static dielectric constant tensor:
#      x y z
#    x 1.815080 0.001320 -0.007190 
#    y 0.001320 1.794760 0.003150 
#    z -0.007190 0.003150 1.787060 
# 
# From -- ./inp_files/97598.got.cif
#   From: 2010.05.17/outbox.cif.g08.bks.cpg/sg2_49_cif.got.tgz:97598.got - 2010.06.03 11:33:40.
