data_PCOD9107942
_publ_section_title
;
Structure prediction by ZEFSAII (Michael W. Deem and Ramdas Pophale) SiO2 
 PCOD9107942
Probable space group: P -1
;
_chemical_formula_sum "Si O2"
_cell_formula_units_Z 14
_cell_length_a 9.184548
_cell_length_b 11.644076
_cell_length_c 6.811873
_cell_angle_alpha 118.156167
_cell_angle_beta 101.986592
_cell_angle_gamma 111.940901
_cell_volume 526.010221
_symmetry_space_group_name_H-M "P -1"
_symmetry_group_IT_number 2
_symmetry_cell_setting 'triclinic'
loop_
_space_group_symop_operation_xyz
x,y,z
-x,-y,-z
loop_
_atom_site_type_symbol
_atom_site_label
_atom_site_fract_x
_atom_site_fract_y
_atom_site_fract_z
Si Si1 0.829030 0.462188 0.792371
Si Si2 0.228743 0.999200 0.607634
Si Si3 0.369597 0.779666 0.171926
Si Si4 0.685412 0.036568 0.979889
Si Si5 0.672306 0.460241 0.348781
Si Si6 0.303940 0.248594 0.316439
Si Si7 0.876189 0.773092 0.124021
O O1 0.814179 0.472009 0.559639
O O2 0.689430 0.286556 0.680996
O O3 0.787730 0.589409 0.955189
O O4 0.000000 0.500000 0.000000
O O5 0.208973 0.146605 0.719675
O O6 0.430050 0.072734 0.660581
O O7 0.201502 0.936734 0.772214
O O8 0.074064 0.862001 0.330243
O O9 0.346008 0.635862 0.924708
O O10 0.258663 0.826071 0.044225
O O11 0.684742 0.898237 0.753116
O O12 0.500000 0.000000 0.000000
O O13 0.482613 0.354989 0.321487
O O14 0.702121 0.627557 0.447677
O O15 0.138763 0.190790 0.077192
#
# Coordination Sequence:
#
# PCOD9107942 Si02
#       7
#     2   2   2   2   2   2   2
#     4  11  27  42  62  96 135 167 217 275 321 384
#     4   9  18  36  68  96 124 168 215 261 318 388
#     4  11  22  41  71  96 124 178 219 256 334 389
#     4   9  16  32  61  93 126 170 210 256 320 386
#     4  10  20  40  66  91 130 172 213 270 317 385
#     4   9  17  36  63  93 133 170 207 267 324 375
#     4   9  18  38  63  90 136 164 205 271 317 373
#
# _framework density 26.615455000000001
#
# number of rings (size 3 to 8) (size 9 to 14) (size 15 to 20)
#    0.000    2.286    4.286    0.000    2.000    1.143 
#    0.000    2.857    3.143    3.429    0.000    0.000 
#    0.000    0.000    0.000    0.000    0.000    0.000 
#
# Total GULP energy -78298.373195 kJ/mol
# GULP energy per Si atom -5592.740942 kJ/mol
# Density = 2.655488 g / cm^3
# Si number density = 26.615455 Si / 1000 Ang^3
#
#
#
# Elastic Constant Matrix: (Units=GPa)
#
#
# Indices 1 2 3 4 5 6 
#
# 1 75.2859 36.9904 24.8632 -5.4561 -14.0688 -24.9185
# 2 36.9904 140.2017 24.8017 4.3374 -9.8913 -30.3415
# 3 24.8632 24.8017 120.8357 -8.7490 19.2071 -14.1596
# 4 -5.4561 4.3374 -8.7490 37.5690 -14.0885 -5.8087
# 5 -14.0688 -9.8913 19.2071 -14.0885 44.7394 11.4815
# 6 -24.9185 -30.3415 -14.1596 -5.8087 11.4815 36.8907
#
#
#
# Elastic Compliance Matrix: (Units=1/GPa)
#
#
# Indices 1 2 3 4 5 6 
#
# 1 0.020456 -0.002509 -0.003216 0.006556 0.006911 0.009401
# 2 -0.002509 0.009120 -0.000765 -0.000789 -0.000082 0.005414
# 3 -0.003216 -0.000765 0.010522 0.000143 -0.006494 0.003280
# 4 0.006556 -0.000789 0.000143 0.032553 0.010626 0.005653
# 5 0.006911 -0.000082 -0.006494 0.010626 0.032246 -0.006255
# 6 0.009401 0.005414 0.003280 0.005653 -0.006255 0.042006
#
#
# Mechanical properties :
#
#
# Convention : Reuss Voigt Hill
#
# Bulk Modulus (GPa) = 36.87798 56.62598 46.75198
# Shear Modulus (GPa) = 29.59943 40.48435 35.04189
#
# Velocity S-wave (km/s) = 3.33846 3.90434 3.63243
# Velocity P-wave (km/s) = 5.36156 6.45344 5.93267
#
# Compressibility (1/GPa) = 0.02711646
#
# Stress axis : x y z
#
# Youngs Moduli (GPa) = 48.88638 109.64696 95.04228
#
# Poissons Ratio (x) = 0.27509 0.30567
# Poissons Ratio (y) = 0.12265 0.07275
# Poissons Ratio (z) = 0.15723 0.08393
#
# Static dielectric constant tensor:
#      x y z
#    x 2.160050 0.012410 0.020050 
#    y 0.012410 2.075510 -0.018650 
#    z 0.020050 -0.018650 2.075300 
# 
# From -- ./inp_files/259661.got.cif
#   From: 2010.05.17/outbox.cif.g08.bks.cpg/sg2_130_cif.got.tgz:259661.got - 2010.06.03 11:33:40.
