data_PCOD9107780
_publ_section_title
;
Structure prediction by ZEFSAII (Michael W. Deem and Ramdas Pophale) SiO2 
 PCOD9107780
Probable space group: P -1
;
_chemical_formula_sum "Si O2"
_cell_formula_units_Z 14
_cell_length_a 7.965443
_cell_length_b 8.301796
_cell_length_c 19.665666
_cell_angle_alpha 41.891736
_cell_angle_beta 124.346496
_cell_angle_gamma 97.394384
_cell_volume 608.685397
_symmetry_space_group_name_H-M "P -1"
_symmetry_group_IT_number 2
_symmetry_cell_setting 'triclinic'
loop_
_space_group_symop_operation_xyz
x,y,z
-x,-y,-z
loop_
_atom_site_type_symbol
_atom_site_label
_atom_site_fract_x
_atom_site_fract_y
_atom_site_fract_z
Si Si1 0.834806 0.831356 0.373126
Si Si2 0.822100 0.140005 0.731034
Si Si3 0.677182 0.380330 0.012699
Si Si4 0.587577 0.815505 0.459337
Si Si5 0.683208 0.702169 0.102256
Si Si6 0.927454 0.896537 0.583055
Si Si7 0.676599 0.878763 0.894013
O O1 0.701143 0.860948 0.403605
O O2 0.000000 0.500000 0.500000
O O3 0.613515 0.957346 0.230064
O O4 0.993722 0.973976 0.377674
O O5 0.714783 0.475074 0.603661
O O6 0.680623 0.080777 0.658286
O O7 0.769154 0.052052 0.820151
O O8 0.102023 0.940308 0.840395
O O9 0.500000 0.500000 0.000000
O O10 0.484054 0.431969 0.896699
O O11 0.773819 0.587998 0.965910
O O12 0.659614 0.961879 0.488366
O O13 0.918836 0.446483 0.269573
O O14 0.743262 0.784848 0.016819
O O15 0.500000 0.000000 0.000000
O O16 0.000000 0.000000 0.500000
#
# Coordination Sequence:
#
# PCOD9107780 Si02
#       7
#     2   2   2   2   2   2   2
#     4  10  21  35  65  97 127 168 226 274 316 390
#     4  10  20  40  65  96 132 175 218 262 329 400
#     4  10  21  37  65  93 124 166 222 266 315 387
#     4   9  21  38  64  91 132 176 210 263 331 389
#     4  11  23  38  65  98 129 169 219 279 330 384
#     4  10  21  39  61  95 133 167 223 272 323 390
#     4  10  22  39  59  98 127 170 222 266 327 388
#
# _framework density 23.000388999999998
#
# number of rings (size 3 to 8) (size 9 to 14) (size 15 to 20)
#    0.000    2.000    1.429    1.286    8.000    0.000 
#    0.000    2.857    0.000   28.286    0.000    0.000 
#    0.000    0.000    0.000    0.000    0.000    0.000 
#
# Total GULP energy -78007.859060 kJ/mol
# GULP energy per Si atom -5571.989933 kJ/mol
# Density = 2.294804 g / cm^3
# Si number density = 23.000389 Si / 1000 Ang^3
#
#
#
# Elastic Constant Matrix: (Units=GPa)
#
#
# Indices 1 2 3 4 5 6 
#
# 1 109.5628 13.1598 36.2652 12.5831 -7.0831 2.4529
# 2 13.1598 51.0909 -0.3649 3.1412 2.8002 14.2426
# 3 36.2652 -0.3649 108.2435 0.0545 -16.4217 -8.0927
# 4 12.5831 3.1412 0.0545 32.2961 7.3397 6.8705
# 5 -7.0831 2.8002 -16.4217 7.3397 38.0017 -4.4800
# 6 2.4529 14.2426 -8.0927 6.8705 -4.4800 21.3207
#
#
#
# Elastic Compliance Matrix: (Units=1/GPa)
#
#
# Indices 1 2 3 4 5 6 
#
# 1 0.011275 -0.003163 -0.003369 -0.004857 0.001996 0.001522
# 2 -0.003163 0.026134 -0.001344 0.004475 -0.006363 -0.020383
# 3 -0.003369 -0.001344 0.011787 -0.001458 0.005722 0.007431
# 4 -0.004857 0.004475 -0.001458 0.038842 -0.011479 -0.017913
# 5 0.001996 -0.006363 0.005722 -0.011479 0.033850 0.017005
# 6 0.001522 -0.020383 0.007431 -0.017913 0.017005 0.072510
#
#
# Mechanical properties :
#
#
# Convention : Reuss Voigt Hill
#
# Bulk Modulus (GPa) = 29.90062 40.77972 35.34017
# Shear Modulus (GPa) = 22.59384 32.97951 27.78667
#
# Velocity S-wave (km/s) = 3.13761 3.79075 3.47954
# Velocity P-wave (km/s) = 5.11413 6.07686 5.61616
#
# Compressibility (1/GPa) = 0.03344412
#
# Stress axis : x y z
#
# Youngs Moduli (GPa) = 88.69083 38.26431 84.83809
#
# Poissons Ratio (x) = 0.12104 0.28583
# Poissons Ratio (y) = 0.28055 0.11399
# Poissons Ratio (z) = 0.29881 0.05141
#
# Static dielectric constant tensor:
#      x y z
#    x 1.880470 0.074180 -0.000320 
#    y 0.074180 1.871400 -0.010720 
#    z -0.000320 -0.010720 1.919760 
# 
# From -- ./inp_files/338852.got.cif
#   From: 2010.05.17/outbox.cif.g08.bks.cpg/sg2_170_cif.got.tgz:338852.got - 2010.06.03 11:33:40.
