data_PCOD9107193
_publ_section_title
;
Structure prediction by ZEFSAII (Michael W. Deem and Ramdas Pophale) SiO2 
 PCOD9107193
Probable space group: P -1
;
_chemical_formula_sum "Si O2"
_cell_formula_units_Z 14
_cell_length_a 8.963668
_cell_length_b 9.096483
_cell_length_c 19.862233
_cell_angle_alpha 112.307346
_cell_angle_beta 34.126998
_cell_angle_gamma 88.133643
_cell_volume 625.457823
_symmetry_space_group_name_H-M "P -1"
_symmetry_group_IT_number 2
_symmetry_cell_setting 'triclinic'
loop_
_space_group_symop_operation_xyz
x,y,z
-x,-y,-z
loop_
_atom_site_type_symbol
_atom_site_label
_atom_site_fract_x
_atom_site_fract_y
_atom_site_fract_z
Si Si1 0.387042 0.188461 0.150850
Si Si2 0.232239 0.734809 0.270569
Si Si3 0.569867 0.988614 0.758984
Si Si4 0.784859 0.254381 0.328039
Si Si5 0.856691 0.897465 0.308739
Si Si6 0.081883 0.741621 0.053386
Si Si7 0.820731 0.665397 0.503944
O O1 0.498186 0.022869 0.139468
O O2 0.158275 0.199421 0.178195
O O3 0.109224 0.419447 0.332292
O O4 0.707206 0.174225 0.006341
O O5 0.172768 0.726518 0.212154
O O6 0.920611 0.769308 0.433660
O O7 0.233679 0.922893 0.309890
O O8 0.609465 0.512650 0.115057
O O9 0.808022 0.753736 0.596025
O O10 0.202914 0.143043 0.880135
O O11 0.500000 0.500000 0.500000
O O12 0.570932 0.253452 0.347927
O O13 0.840589 0.092189 0.333260
O O14 0.897997 0.794672 0.203964
O O15 0.500000 0.000000 0.500000
#
# Coordination Sequence:
#
# PCOD9107193 Si02
#       7
#     2   2   2   2   2   2   2
#     4  10  23  40  63  90 126 160 202 248 305 360
#     4  11  23  40  61  92 125 161 203 251 301 357
#     4  12  21  40  62  89 123 167 207 241 297 364
#     4  10  20  40  63  91 121 154 202 256 301 352
#     4  12  22  43  67  89 118 158 207 255 303 359
#     4  11  25  42  59  89 129 162 197 253 303 356
#     4  10  21  40  64  92 124 158 204 256 297 353
#
# _framework density 22.383603000000001
#
# number of rings (size 3 to 8) (size 9 to 14) (size 15 to 20)
#    0.000    1.143    4.286    2.143    0.000    0.571 
#    0.000    0.000    0.000    0.000    0.000    0.000 
#    0.000    0.000    0.000    0.000    0.000    0.000 
#
# Total GULP energy -78195.177460 kJ/mol
# GULP energy per Si atom -5585.369819 kJ/mol
# Density = 2.233266 g / cm^3
# Si number density = 22.383603 Si / 1000 Ang^3
#
#
#
# Elastic Constant Matrix: (Units=GPa)
#
#
# Indices 1 2 3 4 5 6 
#
# 1 87.5605 14.5657 16.5408 -17.3052 -5.9280 2.5375
# 2 14.5657 60.0264 -2.9320 -14.1766 -0.8958 10.5665
# 3 16.5408 -2.9320 91.8107 2.0405 -5.9942 1.6814
# 4 -17.3052 -14.1766 2.0405 29.1936 -0.6361 -1.3650
# 5 -5.9280 -0.8958 -5.9942 -0.6361 28.9020 -0.2434
# 6 2.5375 10.5665 1.6814 -1.3650 -0.2434 37.1634
#
#
#
# Elastic Compliance Matrix: (Units=1/GPa)
#
#
# Indices 1 2 3 4 5 6 
#
# 1 0.013853 -0.001632 -0.002558 0.007648 0.002428 -0.000069
# 2 -0.001632 0.020043 0.000883 0.008469 0.000611 -0.005312
# 3 -0.002558 0.000883 0.011556 -0.001886 0.001852 -0.000656
# 4 0.007648 0.008469 -0.001886 0.043025 0.002376 -0.001249
# 5 0.002428 0.000611 0.001852 0.002376 0.035552 -0.000103
# 6 -0.000069 -0.005312 -0.000656 -0.001249 -0.000103 0.028406
#
#
# Mechanical properties :
#
#
# Convention : Reuss Voigt Hill
#
# Bulk Modulus (GPa) = 25.74793 32.86073 29.30433
# Shear Modulus (GPa) = 29.07050 33.13335 31.10193
#
# Velocity S-wave (km/s) = 3.60771 3.85158 3.73164
# Velocity P-wave (km/s) = 5.37421 5.87300 5.62913
#
# Compressibility (1/GPa) = 0.03883807
#
# Stress axis : x y z
#
# Youngs Moduli (GPa) = 72.18511 49.89339 86.53574
#
# Poissons Ratio (x) = 0.08142 0.22137
# Poissons Ratio (y) = 0.11780 -0.07642
# Poissons Ratio (z) = 0.18466 -0.04406
#
# Static dielectric constant tensor:
#      x y z
#    x 1.842430 0.023430 -0.014020 
#    y 0.023430 1.820080 0.042260 
#    z -0.014020 0.042260 1.838780 
# 
# From -- ./inp_files/154069.got.cif
#   From: 2010.05.17/outbox.cif.g08.bks.cpg/sg2_78_cif.got.tgz:154069.got - 2010.06.03 11:33:40.
