data_PCOD9107421
_publ_section_title
;
Structure prediction by ZEFSAII (Michael W. Deem and Ramdas Pophale) SiO2 
 PCOD9107421
Probable space group: P -1
;
_chemical_formula_sum "Si O2"
_cell_formula_units_Z 16
_cell_length_a 20.215997
_cell_length_b 14.252315
_cell_length_c 8.206077
_cell_angle_alpha 42.358032
_cell_angle_beta 139.944139
_cell_angle_gamma 150.159075
_cell_volume 736.046643
_symmetry_space_group_name_H-M "P -1"
_symmetry_group_IT_number 2
_symmetry_cell_setting 'triclinic'
loop_
_space_group_symop_operation_xyz
x,y,z
-x,-y,-z
loop_
_atom_site_type_symbol
_atom_site_label
_atom_site_fract_x
_atom_site_fract_y
_atom_site_fract_z
Si Si1 0.603718 0.059926 0.270580
Si Si2 0.176534 0.559459 0.601713
Si Si3 0.769811 0.688066 0.007219
Si Si4 0.750674 0.971449 0.457572
Si Si5 0.655188 0.606554 0.228932
Si Si6 0.919985 0.380887 0.165262
Si Si7 0.330992 0.702994 0.355047
Si Si8 0.456031 0.346634 0.750189
O O1 0.718361 0.278739 0.272651
O O2 0.692524 0.005533 0.456628
O O3 0.488823 0.915820 0.378868
O O4 0.500000 0.000000 0.000000
O O5 0.257070 0.642358 0.470483
O O6 0.029612 0.505579 0.360399
O O7 0.139965 0.360899 0.813199
O O8 0.785111 0.844863 0.733683
O O9 0.608814 0.470525 0.963078
O O10 0.772413 0.732827 0.145387
O O11 0.620031 0.847067 0.241412
O O12 0.877808 0.178805 0.351805
O O13 0.654535 0.443955 0.479818
O O14 0.658429 0.700881 0.276677
O O15 0.500000 0.500000 0.000000
O O16 0.770668 0.320289 0.941574
O O17 0.000000 0.500000 0.000000
O O18 0.500000 0.500000 0.500000
#
# Coordination Sequence:
#
# PCOD9107421 Si02
#       8
#     2   2   2   2   2   2   2   2
#     4  12  22  37  63  98 124 155 211 265 312 364
#     4  10  23  40  64  87 126 170 204 253 314 371
#     4   9  19  36  59  91 120 155 203 259 312 363
#     4  11  22  39  60  90 126 159 207 257 308 371
#     4   9  17  33  58  91 127 152 195 260 316 363
#     4  10  23  44  61  85 127 172 209 251 310 379
#     4  10  20  40  64  91 125 164 209 254 309 373
#     4   9  17  32  58  89 123 154 195 254 317 356
#
# _framework density 21.737752
#
# number of rings (size 3 to 8) (size 9 to 14) (size 15 to 20)
#    0.000    2.000    1.250    3.375    0.000    2.000 
#   11.250    0.000    2.750    2.250    0.000    0.000 
#    0.000    0.000    0.000    0.000    0.000    0.000 
#
# Total GULP energy -89190.808940 kJ/mol
# GULP energy per Si atom -5574.425559 kJ/mol
# Density = 2.168828 g / cm^3
# Si number density = 21.737752 Si / 1000 Ang^3
#
#
#
# Elastic Constant Matrix: (Units=GPa)
#
#
# Indices 1 2 3 4 5 6 
#
# 1 64.5851 31.2627 25.0513 1.0725 -1.1758 -16.0724
# 2 31.2627 98.0176 53.0505 -6.2956 2.3181 -1.1395
# 3 25.0513 53.0505 119.9086 -3.0600 14.3946 -8.0305
# 4 1.0725 -6.2956 -3.0600 29.5441 1.2883 -5.6672
# 5 -1.1758 2.3181 14.3946 1.2883 31.7211 -4.6685
# 6 -16.0724 -1.1395 -8.0305 -5.6672 -4.6685 33.1484
#
#
#
# Elastic Compliance Matrix: (Units=1/GPa)
#
#
# Indices 1 2 3 4 5 6 
#
# 1 0.021667 -0.006036 -0.001595 -0.000408 0.003506 0.010335
# 2 -0.006036 0.015341 -0.005776 0.002223 0.000697 -0.003320
# 3 -0.001595 -0.005776 0.011915 0.000527 -0.004871 0.001318
# 4 -0.000408 0.002223 0.000527 0.035575 -0.000986 0.005949
# 5 0.003506 0.000697 -0.004871 -0.000986 0.034627 0.005252
# 6 0.010335 -0.003320 0.001318 0.005949 0.005252 0.037141
#
#
# Mechanical properties :
#
#
# Convention : Reuss Voigt Hill
#
# Bulk Modulus (GPa) = 45.23113 55.69339 50.46226
# Shear Modulus (GPa) = 26.25382 30.42583 28.33983
#
# Velocity S-wave (km/s) = 3.47904 3.74528 3.61462
# Velocity P-wave (km/s) = 6.08203 6.66176 6.37849
#
# Compressibility (1/GPa) = 0.02210867
#
# Stress axis : x y z
#
# Youngs Moduli (GPa) = 46.15391 65.18450 83.93019
#
# Poissons Ratio (x) = 0.39347 0.13388
# Poissons Ratio (y) = 0.27860 0.48474
# Poissons Ratio (z) = 0.07362 0.37647
#
# Static dielectric constant tensor:
#      x y z
#    x 1.847700 0.029850 0.007200 
#    y 0.029850 1.803040 0.030690 
#    z 0.007200 0.030690 1.852360 
# 
# From -- ./inp_files/354277.got.cif
#   From: 2010.05.17/outbox.cif.g08.bks.cpg/sg2_178_cif.got.tgz:354277.got - 2010.06.03 11:33:40.
