data_PCOD9107518
_publ_section_title
;
Structure prediction by ZEFSAII (Michael W. Deem and Ramdas Pophale) SiO2 
 PCOD9107518
Probable space group: P -1
;
_chemical_formula_sum "Si O2"
_cell_formula_units_Z 15
_cell_length_a 14.968446
_cell_length_b 15.577643
_cell_length_c 8.847927
_cell_angle_alpha 125.481613
_cell_angle_beta 99.704960
_cell_angle_gamma 35.022838
_cell_volume 727.353481
_symmetry_space_group_name_H-M "P -1"
_symmetry_group_IT_number 2
_symmetry_cell_setting 'triclinic'
loop_
_space_group_symop_operation_xyz
x,y,z
-x,-y,-z
loop_
_atom_site_type_symbol
_atom_site_label
_atom_site_fract_x
_atom_site_fract_y
_atom_site_fract_z
Si Si1 0.599604 0.671298 0.045444
Si Si2 0.500000 0.000000 0.000000
Si Si3 0.248223 0.964419 0.744148
Si Si4 0.379361 0.101556 0.411354
Si Si5 0.922813 0.189237 0.097884
Si Si6 0.044706 0.549195 0.950151
Si Si7 0.517223 0.587107 0.189297
Si Si8 0.664748 0.595681 0.657371
O O1 0.660118 0.557221 0.787512
O O2 0.791011 0.544302 0.020522
O O3 0.549402 0.646889 0.141008
O O4 0.400165 0.954237 0.252114
O O5 0.471467 0.047411 0.226086
O O6 0.352479 0.259531 0.191549
O O7 0.321887 0.816988 0.473748
O O8 0.452533 0.781207 0.707356
O O9 0.089783 0.067695 0.910781
O O10 0.145669 0.179840 0.876004
O O11 0.154854 0.383791 0.665624
O O12 0.500000 0.000000 0.500000
O O13 0.718583 0.375116 0.134804
O O14 0.851147 0.350730 0.366162
O O15 0.000000 0.000000 0.000000
O O16 0.000000 0.500000 0.000000
O O17 0.500000 0.500000 0.000000
#
# Coordination Sequence:
#
# PCOD9107518 Si02
#       8
#     2   1   2   2   2   2   2   2
#     4  10  22  44  63  99 134 174 226 281 333 410
#     4  10  20  40  64  96 132 180 218 272 336 418
#     4  11  25  44  68  99 132 177 226 273 348 406
#     4   9  20  36  66  88 133 176 220 269 341 398
#     4  11  26  47  68  96 135 177 228 287 335 404
#     4  11  22  39  69 100 136 178 226 278 343 414
#     4  11  26  44  72  93 131 176 226 284 341 397
#     4  10  25  42  69  96 138 174 222 276 347 401
#
# _framework density 20.622710999999999
#
# number of rings (size 3 to 8) (size 9 to 14) (size 15 to 20)
#    0.000    1.600    1.333    1.600   14.933    2.667 
#    4.800    3.333    0.000    0.000    0.000    0.000 
#    0.000    0.000    0.000    0.000    0.000    0.000 
#
# Total GULP energy -83530.944434 kJ/mol
# GULP energy per Si atom -5568.729629 kJ/mol
# Density = 2.057577 g / cm^3
# Si number density = 20.622711 Si / 1000 Ang^3
#
#
#
# Elastic Constant Matrix: (Units=GPa)
#
#
# Indices 1 2 3 4 5 6 
#
# 1 77.5933 22.1409 77.2885 5.9802 -5.9397 15.5958
# 2 22.1409 83.7897 63.3317 -4.9061 -12.8127 29.9229
# 3 77.2885 63.3317 205.0648 -16.7465 -22.3598 23.0163
# 4 5.9802 -4.9061 -16.7465 40.8668 5.9998 2.4501
# 5 -5.9397 -12.8127 -22.3598 5.9998 19.4515 -0.4631
# 6 15.5958 29.9229 23.0163 2.4501 -0.4631 28.1365
#
#
#
# Elastic Compliance Matrix: (Units=1/GPa)
#
#
# Indices 1 2 3 4 5 6 
#
# 1 0.023637 0.003820 -0.009579 -0.006476 0.000512 -0.008757
# 2 0.003820 0.025480 -0.005299 0.000163 0.011221 -0.024710
# 3 -0.009579 -0.005299 0.010788 0.004391 0.004674 0.001815
# 4 -0.006476 0.000163 0.004391 0.028221 -0.005592 -0.002725
# 5 0.000512 0.011221 0.004674 -0.005592 0.065711 -0.014472
# 6 -0.008757 -0.024710 0.001815 -0.002725 -0.014472 0.065189
#
#
# Mechanical properties :
#
#
# Convention : Reuss Voigt Hill
#
# Bulk Modulus (GPa) = 26.46162 76.88555 51.67359
# Shear Modulus (GPa) = 19.70547 31.27007 25.48777
#
# Velocity S-wave (km/s) = 3.09451 3.89819 3.51936
# Velocity P-wave (km/s) = 5.06232 7.59105 6.45179
#
# Compressibility (1/GPa) = 0.03779057
#
# Stress axis : x y z
#
# Youngs Moduli (GPa) = 42.30641 39.24633 92.69710
#
# Poissons Ratio (x) = -0.14994 0.88793
# Poissons Ratio (y) = -0.16163 0.49119
# Poissons Ratio (z) = 0.40524 0.20796
#
# Static dielectric constant tensor:
#      x y z
#    x 1.768400 -0.015220 0.013240 
#    y -0.015220 1.773540 0.010030 
#    z 0.013240 0.010030 1.769360 
# 
# From -- ./inp_files/315937.got.cif
#   From: 2010.05.17/outbox.cif.g08.bks.cpg/sg2_158_cif.got.tgz:315937.got - 2010.06.03 11:33:40.
