data_PCOD9107425
_publ_section_title
;
Structure prediction by ZEFSAII (Michael W. Deem and Ramdas Pophale) SiO2 
 PCOD9107425
Probable space group: P -1
;
_chemical_formula_sum "Si O2"
_cell_formula_units_Z 16
_cell_length_a 18.131310
_cell_length_b 9.135178
_cell_length_c 12.231786
_cell_angle_alpha 57.249597
_cell_angle_beta 31.582482
_cell_angle_gamma 49.290280
_cell_volume 803.760967
_symmetry_space_group_name_H-M "P -1"
_symmetry_group_IT_number 2
_symmetry_cell_setting 'triclinic'
loop_
_space_group_symop_operation_xyz
x,y,z
-x,-y,-z
loop_
_atom_site_type_symbol
_atom_site_label
_atom_site_fract_x
_atom_site_fract_y
_atom_site_fract_z
Si Si1 0.890384 0.721325 0.585282
Si Si2 0.663425 0.357367 0.163131
Si Si3 0.161900 0.896802 0.770250
Si Si4 0.683972 0.729828 0.039927
Si Si5 0.851071 0.683748 0.070708
Si Si6 0.583621 0.786891 0.533041
Si Si7 0.634110 0.901364 0.648071
Si Si8 0.944009 0.027438 0.802931
O O1 0.746639 0.795127 0.649815
O O2 0.000000 0.500000 0.500000
O O3 0.986751 0.851832 0.405967
O O4 0.814426 0.743642 0.791244
O O5 0.722849 0.292750 0.237379
O O6 0.641554 0.573584 0.094884
O O7 0.510129 0.331006 0.340682
O O8 0.804406 0.200222 0.975890
O O9 0.259818 0.020246 0.586678
O O10 0.096613 0.891317 0.736246
O O11 0.000000 0.000000 0.000000
O O12 0.526797 0.925658 0.177449
O O13 0.761443 0.654313 0.090977
O O14 0.877001 0.871864 0.924571
O O15 0.747596 0.720727 0.294626
O O16 0.000000 0.500000 0.000000
O O17 0.590777 0.785541 0.656059
O O18 0.500000 0.000000 0.500000
#
# Coordination Sequence:
#
# PCOD9107425 Si02
#       8
#     2   2   2   2   2   2   2   2
#     4  11  25  44  70  92 124 182 230 267 315 381
#     4  11  20  36  65  93 132 167 216 256 332 394
#     4   9  17  31  59  92 120 164 204 253 319 388
#     4  12  25  42  64  99 132 173 223 274 312 386
#     4  12  26  41  67 104 137 161 213 274 335 394
#     4  12  21  42  64  96 131 172 200 264 344 398
#     4  11  23  42  66  91 134 169 217 270 324 383
#     4  10  20  40  64  91 129 175 213 265 327 379
#
# _framework density 19.906414999999999
#
# number of rings (size 3 to 8) (size 9 to 14) (size 15 to 20)
#    0.000    1.000    5.000    1.875    1.750    4.500 
#    0.000    0.625    2.750    0.000    0.000    0.000 
#    0.000    0.000    0.000    0.000    0.000    0.000 
#
# Total GULP energy -89151.844454 kJ/mol
# GULP energy per Si atom -5571.990278 kJ/mol
# Density = 1.986111 g / cm^3
# Si number density = 19.906415 Si / 1000 Ang^3
#
#
#
# Elastic Constant Matrix: (Units=GPa)
#
#
# Indices 1 2 3 4 5 6 
#
# 1 57.9568 36.5488 7.5021 16.2252 -3.7948 7.8327
# 2 36.5488 93.3407 45.8516 10.7598 -6.2125 11.2619
# 3 7.5021 45.8516 81.8023 17.3616 -1.0265 9.1842
# 4 16.2252 10.7598 17.3616 40.1576 -0.1075 -18.0214
# 5 -3.7948 -6.2125 -1.0265 -0.1075 30.5741 -6.0877
# 6 7.8327 11.2619 9.1842 -18.0214 -6.0877 35.9746
#
#
#
# Elastic Compliance Matrix: (Units=1/GPa)
#
#
# Indices 1 2 3 4 5 6 
#
# 1 0.033100 -0.014087 0.011506 -0.022310 -0.001877 -0.017228
# 2 -0.014087 0.021332 -0.012518 0.007005 0.002904 0.003586
# 3 0.011506 -0.012518 0.023484 -0.017743 -0.003179 -0.014008
# 4 -0.022310 0.007005 -0.017743 0.055944 0.005452 0.036142
# 5 -0.001877 0.002904 -0.003179 0.005452 0.034754 0.008923
# 6 -0.017228 0.003586 -0.014008 0.036142 0.008923 0.053617
#
#
# Mechanical properties :
#
#
# Convention : Reuss Voigt Hill
#
# Bulk Modulus (GPa) = 20.95632 45.87831 33.41731
# Shear Modulus (GPa) = 18.63347 30.88777 24.76062
#
# Velocity S-wave (km/s) = 3.06282 3.94337 3.53065
# Velocity P-wave (km/s) = 4.80188 6.62047 5.78311
#
# Compressibility (1/GPa) = 0.04771831
#
# Stress axis : x y z
#
# Youngs Moduli (GPa) = 30.21171 46.87837 42.58152
#
# Poissons Ratio (x) = 0.66040 -0.48996
# Poissons Ratio (y) = 0.42561 0.53302
# Poissons Ratio (z) = -0.34763 0.58681
#
# Static dielectric constant tensor:
#      x y z
#    x 1.743630 0.031120 0.015360 
#    y 0.031120 1.678510 -0.071140 
#    z 0.015360 -0.071140 1.723890 
# 
# From -- ./inp_files/216413.got.cif
#   From: 2010.05.17/outbox.cif.g08.bks.cpg/sg2_109_cif.got.tgz:216413.got - 2010.06.03 11:33:40.
