data_PCOD9107983
_publ_section_title
;
Structure prediction by ZEFSAII (Michael W. Deem and Ramdas Pophale) SiO2 
 PCOD9107983
Probable space group: P -1
;
_chemical_formula_sum "Si O2"
_cell_formula_units_Z 16
_cell_length_a 10.997319
_cell_length_b 18.370672
_cell_length_c 7.763232
_cell_angle_alpha 58.018150
_cell_angle_beta 121.085313
_cell_angle_gamma 149.187072
_cell_volume 674.601564
_symmetry_space_group_name_H-M "P -1"
_symmetry_group_IT_number 2
_symmetry_cell_setting 'triclinic'
loop_
_space_group_symop_operation_xyz
x,y,z
-x,-y,-z
loop_
_atom_site_type_symbol
_atom_site_label
_atom_site_fract_x
_atom_site_fract_y
_atom_site_fract_z
Si Si1 0.417597 0.317876 0.219573
Si Si2 0.135819 0.784302 0.109307
Si Si3 0.402892 0.024058 0.267080
Si Si4 0.465447 0.205917 0.870702
Si Si5 0.912126 0.079059 0.277717
Si Si6 0.344930 0.416752 0.766697
Si Si7 0.091452 0.166241 0.681062
Si Si8 0.752996 0.357574 0.591083
O O1 0.486778 0.418586 0.298374
O O2 0.559568 0.300747 0.385372
O O3 0.135849 0.164920 0.211022
O O4 0.468810 0.398344 0.985307
O O5 0.336990 0.935079 0.167045
O O6 0.217773 0.727891 0.237776
O O7 0.889882 0.671332 0.180982
O O8 0.108350 0.827316 0.864639
O O9 0.150905 0.940889 0.252483
O O10 0.500000 0.000000 0.500000
O O11 0.548055 0.176822 0.110127
O O12 0.277233 0.181296 0.842899
O O13 0.673232 0.353375 0.726842
O O14 0.311225 0.080086 0.766671
O O15 0.995698 0.100320 0.503238
O O16 0.240904 0.326941 0.627416
O O17 0.000000 0.500000 0.500000
#
# Coordination Sequence:
#
# PCOD9107983 Si02
#       8
#     2   2   2   2   2   2   2   2
#     4  10  20  40  66  93 124 172 219 263 322 387
#     4   9  21  39  62  91 129 167 219 263 318 390
#     4  10  24  40  64  96 135 172 208 267 336 387
#     4  11  25  43  64 100 134 169 223 270 321 393
#     4  10  22  40  66  98 124 172 220 269 325 382
#     4   9  20  40  63  92 125 172 219 260 320 390
#     4  11  22  40  65  99 135 167 214 274 324 389
#     4  12  24  40  68  94 129 172 221 268 321 388
#
# _framework density 23.717704999999999
#
# number of rings (size 3 to 8) (size 9 to 14) (size 15 to 20)
#    0.000    1.750    2.500    1.500    3.500    2.500 
#    0.000    0.000    0.000    2.250    0.000    0.000 
#    0.000    0.000    0.000    0.000    0.000    0.000 
#
# Total GULP energy -89279.684209 kJ/mol
# GULP energy per Si atom -5579.980263 kJ/mol
# Density = 2.366372 g / cm^3
# Si number density = 23.717705 Si / 1000 Ang^3
#
#
#
# Elastic Constant Matrix: (Units=GPa)
#
#
# Indices 1 2 3 4 5 6 
#
# 1 74.7955 14.2216 38.2075 -5.1510 24.8962 15.7277
# 2 14.2216 63.8635 4.7762 -6.2733 -1.4625 10.8490
# 3 38.2075 4.7762 125.2986 -0.4899 36.7575 8.3984
# 4 -5.1510 -6.2733 -0.4899 26.4714 -0.4839 -4.9477
# 5 24.8962 -1.4625 36.7575 -0.4839 41.7294 6.6003
# 6 15.7277 10.8490 8.3984 -4.9477 6.6003 42.5137
#
#
#
# Elastic Compliance Matrix: (Units=1/GPa)
#
#
# Indices 1 2 3 4 5 6 
#
# 1 0.019340 -0.003365 -0.003051 0.001977 -0.008286 -0.004177
# 2 -0.003365 0.017371 -0.000450 0.002899 0.003571 -0.003316
# 3 -0.003051 -0.000450 0.011319 -0.000601 -0.008207 0.000212
# 4 0.001977 0.002899 -0.000601 0.039449 -0.000618 0.003334
# 5 -0.008286 0.003571 -0.008207 -0.000618 0.036566 -0.001974
# 6 -0.004177 -0.003316 0.000212 0.003334 -0.001974 0.026566
#
#
# Mechanical properties :
#
#
# Convention : Reuss Voigt Hill
#
# Bulk Modulus (GPa) = 29.15463 42.04091 35.59777
# Shear Modulus (GPa) = 28.44508 35.92637 32.18573
#
# Velocity S-wave (km/s) = 3.46687 3.89620 3.68779
# Velocity P-wave (km/s) = 5.32397 6.16478 5.75974
#
# Compressibility (1/GPa) = 0.03429987
#
# Stress axis : x y z
#
# Youngs Moduli (GPa) = 51.70513 57.56641 88.34383
#
# Poissons Ratio (x) = 0.19369 0.26953
# Poissons Ratio (y) = 0.17397 0.03976
# Poissons Ratio (z) = 0.15775 0.02591
#
# Static dielectric constant tensor:
#      x y z
#    x 2.045150 0.074400 0.036540 
#    y 0.074400 1.968090 -0.025400 
#    z 0.036540 -0.025400 2.003980 
# 
# From -- ./inp_files/282922.got.cif
#   From: 2010.05.17/outbox.cif.g08.bks.cpg/sg2_142_cif.got.tgz:282922.got - 2010.06.03 11:33:40.
