data_PCOD9107697
_publ_section_title
;
Structure prediction by ZEFSAII (Michael W. Deem and Ramdas Pophale) SiO2 
 PCOD9107697
Probable space group: P -1
;
_chemical_formula_sum "Si O2"
_cell_formula_units_Z 10
_cell_length_a 17.491192
_cell_length_b 8.745625
_cell_length_c 8.488245
_cell_angle_alpha 69.133811
_cell_angle_beta 133.265675
_cell_angle_gamma 147.774143
_cell_volume 412.209299
_symmetry_space_group_name_H-M "P -1"
_symmetry_group_IT_number 2
_symmetry_cell_setting 'triclinic'
loop_
_space_group_symop_operation_xyz
x,y,z
-x,-y,-z
loop_
_atom_site_type_symbol
_atom_site_label
_atom_site_fract_x
_atom_site_fract_y
_atom_site_fract_z
Si Si1 0.684354 0.151727 0.109066
Si Si2 0.419007 0.275267 0.107715
Si Si3 0.028257 0.729972 0.968232
Si Si4 0.204903 0.404242 0.100280
Si Si5 0.349696 0.160598 0.563168
O O1 0.750539 0.102162 0.348404
O O2 0.835067 0.505951 0.119141
O O3 0.500000 0.000000 0.000000
O O4 0.594045 0.923300 0.913869
O O5 0.584553 0.571963 0.368569
O O6 0.168212 0.977142 0.922929
O O7 0.500000 0.500000 0.000000
O O8 0.195956 0.972270 0.264422
O O9 0.000000 0.500000 0.000000
O O10 0.796544 0.498768 0.771300
O O11 0.422315 0.612553 0.263266
O O12 0.000000 0.000000 0.000000
#
# Coordination Sequence:
#
# PCOD9107697 Si02
#       5
#     2   2   2   2   2
#     4   9  20  41  64  95 128 167 208 263 315 376
#     4  10  20  40  65  92 129 167 205 264 320 370
#     4  12  24  42  65  96 127 170 215 259 310 380
#     4  11  22  39  64  96 129 160 216 259 310 378
#     4  10  23  42  68  91 132 169 203 263 324 365
#
# _framework density 24.259523000000002
#
# number of rings (size 3 to 8) (size 9 to 14) (size 15 to 20)
#    0.000    1.600    4.000    0.600    0.000    1.600 
#    0.000    0.000    0.000    9.600    0.000    0.000 
#    0.000    0.000    0.000    0.000    0.000    0.000 
#
# Total GULP energy -55698.175192 kJ/mol
# GULP energy per Si atom -5569.817519 kJ/mol
# Density = 2.420431 g / cm^3
# Si number density = 24.259523 Si / 1000 Ang^3
#
#
#
# Elastic Constant Matrix: (Units=GPa)
#
#
# Indices 1 2 3 4 5 6 
#
# 1 185.8693 37.9342 43.6125 6.4850 -0.7569 -0.0080
# 2 37.9342 213.8611 21.1137 -14.5898 4.8353 27.8593
# 3 43.6125 21.1137 70.6840 -11.3058 -1.9301 -7.7484
# 4 6.4850 -14.5898 -11.3058 21.9571 0.1882 1.3360
# 5 -0.7569 4.8353 -1.9301 0.1882 32.4800 2.3836
# 6 -0.0080 27.8593 -7.7484 1.3360 2.3836 64.4274
#
#
#
# Elastic Compliance Matrix: (Units=1/GPa)
#
#
# Indices 1 2 3 4 5 6 
#
# 1 0.006908 -0.001116 -0.004763 -0.005236 0.000073 0.000017
# 2 -0.001116 0.005546 -0.000651 0.003840 -0.000727 -0.002529
# 3 -0.004763 -0.000651 0.019282 0.010752 0.000897 0.002344
# 4 -0.005236 0.003840 0.010752 0.055272 -0.000265 -0.001504
# 5 0.000073 -0.000727 0.000897 -0.000265 0.031006 -0.000719
# 6 0.000017 -0.002529 0.002344 -0.001504 -0.000719 0.016955
#
#
# Mechanical properties :
#
#
# Convention : Reuss Voigt Hill
#
# Bulk Modulus (GPa) = 53.54326 75.08170 64.31248
# Shear Modulus (GPa) = 32.41410 48.28981 40.35196
#
# Velocity S-wave (km/s) = 3.65929 4.46640 4.08284
# Velocity P-wave (km/s) = 6.32241 7.59045 6.98526
#
# Compressibility (1/GPa) = 0.01867649
#
# Stress axis : x y z
#
# Youngs Moduli (GPa) = 144.74958 180.30776 51.86238
#
# Poissons Ratio (x) = 0.20126 0.24701
# Poissons Ratio (y) = 0.16157 0.03376
# Poissons Ratio (z) = 0.68942 0.11735
#
# Static dielectric constant tensor:
#      x y z
#    x 2.234030 -0.092420 0.061460 
#    y -0.092420 2.026540 0.000740 
#    z 0.061460 0.000740 2.002590 
# 
# From -- ./inp_files/144080.got.cif
#   From: 2010.05.17/outbox.cif.g08.bks.cpg/sg2_73_cif.got.tgz:144080.got - 2010.06.03 11:33:40.
