data_PCOD9107004
_publ_section_title
;
Structure prediction by ZEFSAII (Michael W. Deem and Ramdas Pophale) SiO2 
 PCOD9107004
Probable space group: P -1
;
_chemical_formula_sum "Si O2"
_cell_formula_units_Z 16
_cell_length_a 17.336629
_cell_length_b 7.212324
_cell_length_c 9.326043
_cell_angle_alpha 127.343825
_cell_angle_beta 101.866447
_cell_angle_gamma 116.604562
_cell_volume 614.265703
_symmetry_space_group_name_H-M "P -1"
_symmetry_group_IT_number 2
_symmetry_cell_setting 'triclinic'
loop_
_space_group_symop_operation_xyz
x,y,z
-x,-y,-z
loop_
_atom_site_type_symbol
_atom_site_label
_atom_site_fract_x
_atom_site_fract_y
_atom_site_fract_z
Si Si1 0.302953 0.982066 0.909278
Si Si2 0.639400 0.475196 0.621030
Si Si3 0.699301 0.007491 0.661662
Si Si4 0.625212 0.743826 0.228743
Si Si5 0.119345 0.134604 0.155566
Si Si6 0.611496 0.180058 0.913051
Si Si7 0.095657 0.846299 0.290717
Si Si8 0.051681 0.517927 0.676854
O O1 0.294958 0.971266 0.730395
O O2 0.172473 0.650014 0.760164
O O3 0.347083 0.335233 0.143299
O O4 0.385935 0.974859 0.015146
O O5 0.667328 0.731485 0.629561
O O6 0.514010 0.104441 0.349840
O O7 0.748305 0.532442 0.690455
O O8 0.608396 0.822615 0.413816
O O9 0.699889 0.242099 0.865267
O O10 0.804387 0.132517 0.664712
O O11 0.648360 0.516265 0.133455
O O12 0.500000 0.500000 0.000000
O O13 0.096275 0.834681 0.933597
O O14 0.125328 0.121114 0.323563
O O15 0.000000 0.000000 0.000000
O O16 0.045764 0.803694 0.406562
O O17 0.000000 0.500000 0.000000
O O18 0.000000 0.500000 0.500000
#
# Coordination Sequence:
#
# PCOD9107004 Si02
#       8
#     2   2   2   2   2   2   2   2
#     4  10  22  43  65  94 137 168 216 282 324 391
#     4   9  19  39  66  90 129 171 216 267 324 394
#     4  10  21  41  68  94 132 171 215 274 325 390
#     4  12  26  42  64 101 134 167 224 273 323 399
#     4   9  19  38  60  92 125 160 211 271 314 388
#     4  11  23  45  69  92 131 183 213 262 348 392
#     4   9  18  38  67  88 121 172 216 258 329 393
#     4  10  20  40  62  91 127 166 214 271 329 380
#
# _framework density 26.047359
#
# number of rings (size 3 to 8) (size 9 to 14) (size 15 to 20)
#    0.000    2.000    0.000    6.000    0.000    4.000 
#   24.750    1.875    0.000    0.000    0.000    0.000 
#    0.000    0.000    0.000    0.000    0.000    0.000 
#
# Total GULP energy -89395.210183 kJ/mol
# GULP energy per Si atom -5587.200636 kJ/mol
# Density = 2.598807 g / cm^3
# Si number density = 26.047359 Si / 1000 Ang^3
#
#
#
# Elastic Constant Matrix: (Units=GPa)
#
#
# Indices 1 2 3 4 5 6 
#
# 1 122.0135 48.2629 26.2833 2.1391 -6.0865 -4.5351
# 2 48.2629 80.6827 15.1335 -17.2520 -5.5540 20.6293
# 3 26.2833 15.1335 98.3463 -22.0205 -3.3665 0.7664
# 4 2.1391 -17.2520 -22.0205 47.0959 9.8272 0.5478
# 5 -6.0865 -5.5540 -3.3665 9.8272 62.1360 9.1523
# 6 -4.5351 20.6293 0.7664 0.5478 9.1523 36.8309
#
#
#
# Elastic Compliance Matrix: (Units=1/GPa)
#
#
# Indices 1 2 3 4 5 6 
#
# 1 0.013662 -0.010913 -0.003450 -0.006325 0.000004 0.007959
# 2 -0.010913 0.025051 0.001529 0.010154 0.002012 -0.016058
# 3 -0.003450 0.001529 0.012326 0.006570 -0.000344 -0.001550
# 4 -0.006325 0.010154 0.006570 0.029015 -0.003019 -0.006284
# 5 0.000004 0.002012 -0.000344 -0.003019 0.017533 -0.005431
# 6 0.007959 -0.016058 -0.001550 -0.006284 -0.005431 0.038601
#
#
# Mechanical properties :
#
#
# Convention : Reuss Voigt Hill
#
# Bulk Modulus (GPa) = 39.41334 53.37801 46.39568
# Shear Modulus (GPa) = 29.35783 43.30344 36.33063
#
# Velocity S-wave (km/s) = 3.36086 4.08179 3.73874
# Velocity P-wave (km/s) = 5.49771 6.53849 6.04056
#
# Compressibility (1/GPa) = 0.02537212
#
# Stress axis : x y z
#
# Youngs Moduli (GPa) = 73.19316 39.91932 81.12758
#
# Poissons Ratio (x) = 0.43563 0.27990
# Poissons Ratio (y) = 0.79874 -0.12406
# Poissons Ratio (z) = 0.25252 -0.06105
#
# Static dielectric constant tensor:
#      x y z
#    x 2.109550 -0.098790 0.160490 
#    y -0.098790 1.844650 -0.058960 
#    z 0.160490 -0.058960 2.146290 
# 
# From -- ./inp_files/341877.got.cif
#   From: 2010.05.17/outbox.cif.g08.bks.cpg/sg2_171_cif.got.tgz:341877.got - 2010.06.03 11:33:40.
