data_PCOD9107291
_publ_section_title
;
Structure prediction by ZEFSAII (Michael W. Deem and Ramdas Pophale) SiO2 
 PCOD9107291
Probable space group: P -1
;
_chemical_formula_sum "Si O2"
_cell_formula_units_Z 16
_cell_length_a 11.301178
_cell_length_b 12.117617
_cell_length_c 10.593161
_cell_angle_alpha 58.737561
_cell_angle_beta 143.092835
_cell_angle_gamma 130.045992
_cell_volume 666.859981
_symmetry_space_group_name_H-M "P -1"
_symmetry_group_IT_number 2
_symmetry_cell_setting 'triclinic'
loop_
_space_group_symop_operation_xyz
x,y,z
-x,-y,-z
loop_
_atom_site_type_symbol
_atom_site_label
_atom_site_fract_x
_atom_site_fract_y
_atom_site_fract_z
Si Si1 0.280454 0.174387 0.681824
Si Si2 0.859445 0.131341 0.208480
Si Si3 0.786802 0.852900 0.877442
Si Si4 0.590261 0.384008 0.174290
Si Si5 0.843599 0.384198 0.142288
Si Si6 0.004727 0.692118 0.026441
Si Si7 0.513293 0.763278 0.453388
Si Si8 0.668902 0.525579 0.419611
O O1 0.381201 0.180474 0.625287
O O2 0.381945 0.337609 0.727465
O O3 0.024565 0.138355 0.457447
O O4 0.271893 0.037822 0.830713
O O5 0.731591 0.224750 0.083105
O O6 0.988593 0.215564 0.144983
O O7 0.603519 0.777111 0.873538
O O8 0.656093 0.858815 0.635756
O O9 0.883728 0.738321 0.003001
O O10 0.000000 0.000000 0.000000
O O11 0.752120 0.388379 0.199737
O O12 0.691408 0.442989 0.363257
O O13 0.500000 0.500000 0.000000
O O14 0.869781 0.520123 0.000486
O O15 0.096552 0.414038 0.350685
O O16 0.260191 0.738427 0.250859
O O17 0.498752 0.604506 0.560565
#
# Coordination Sequence:
#
# PCOD9107291 Si02
#       8
#     2   2   2   2   2   2   2   2
#     4  10  20  40  63  99 138 178 219 271 344 400
#     4  10  22  38  65  98 138 176 218 283 338 391
#     4  11  25  45  66  98 139 176 220 284 339 399
#     4  11  22  40  65  96 128 177 228 269 335 402
#     4  10  21  41  65  98 130 176 229 275 329 399
#     4  11  22  42  68  97 133 173 231 279 330 399
#     4  10  22  41  69  97 131 180 228 269 338 409
#     4   9  21  38  66  98 133 176 220 283 322 400
#
# _framework density 23.993041999999999
#
# number of rings (size 3 to 8) (size 9 to 14) (size 15 to 20)
#    0.000    1.750    2.500    1.125    0.000    4.000 
#    2.250    0.000    0.000    0.000    0.000    0.000 
#    0.000    0.000    0.000    0.000    0.000    0.000 
#
# Total GULP energy -89397.685369 kJ/mol
# GULP energy per Si atom -5587.355336 kJ/mol
# Density = 2.393843 g / cm^3
# Si number density = 23.993042 Si / 1000 Ang^3
#
#
#
# Elastic Constant Matrix: (Units=GPa)
#
#
# Indices 1 2 3 4 5 6 
#
# 1 98.9468 43.6401 2.0186 -11.1902 -5.8288 21.6783
# 2 43.6401 181.6979 41.4570 -13.5650 -9.1396 25.4776
# 3 2.0186 41.4570 79.8160 7.9192 0.5398 5.5467
# 4 -11.1902 -13.5650 7.9192 47.0983 3.6250 2.6127
# 5 -5.8288 -9.1396 0.5398 3.6250 29.8206 -3.6676
# 6 21.6783 25.4776 5.5467 2.6127 -3.6676 30.9978
#
#
#
# Elastic Compliance Matrix: (Units=1/GPa)
#
#
# Indices 1 2 3 4 5 6 
#
# 1 0.013031 -0.002030 0.000991 0.002729 0.000618 -0.007779
# 2 -0.002030 0.007745 -0.003934 0.002556 0.001207 -0.004315
# 3 0.000991 -0.003934 0.014880 -0.003336 -0.000869 0.000056
# 4 0.002729 0.002556 -0.003336 0.023661 -0.002196 -0.005667
# 5 0.000618 0.001207 -0.000869 -0.002196 0.034679 0.003019
# 6 -0.007779 -0.004315 0.000056 -0.005667 0.003019 0.042072
#
#
# Mechanical properties :
#
#
# Convention : Reuss Voigt Hill
#
# Bulk Modulus (GPa) = 38.89587 59.41022 49.15305
# Shear Modulus (GPa) = 32.34494 39.80634 36.07564
#
# Velocity S-wave (km/s) = 3.67563 4.07760 3.88182
# Velocity P-wave (km/s) = 5.85322 6.85451 6.37356
#
# Compressibility (1/GPa) = 0.02570967
#
# Stress axis : x y z
#
# Youngs Moduli (GPa) = 76.74073 129.10950 67.20505
#
# Poissons Ratio (x) = 0.26212 -0.06657
# Poissons Ratio (y) = 0.15580 0.26436
# Poissons Ratio (z) = -0.07602 0.50786
#
# Static dielectric constant tensor:
#      x y z
#    x 1.907600 -0.031560 -0.006270 
#    y -0.031560 1.986480 0.028160 
#    z -0.006270 0.028160 2.008720 
# 
# From -- ./inp_files/427911.got.cif
#   From: 2010.05.17/outbox.cif.g08.bks.cpg/sg2_214_cif.got.tgz:427911.got - 2010.06.03 11:33:40.
