data_PCOD9107550
_publ_section_title
;
Structure prediction by ZEFSAII (Michael W. Deem and Ramdas Pophale) SiO2 
 PCOD9107550
Probable space group: P -1
;
_chemical_formula_sum "Si O2"
_cell_formula_units_Z 14
_cell_length_a 7.526991
_cell_length_b 9.136282
_cell_length_c 14.964559
_cell_angle_alpha 111.315822
_cell_angle_beta 126.502913
_cell_angle_gamma 102.370673
_cell_volume 630.566751
_symmetry_space_group_name_H-M "P -1"
_symmetry_group_IT_number 2
_symmetry_cell_setting 'triclinic'
loop_
_space_group_symop_operation_xyz
x,y,z
-x,-y,-z
loop_
_atom_site_type_symbol
_atom_site_label
_atom_site_fract_x
_atom_site_fract_y
_atom_site_fract_z
Si Si1 0.981967 0.237402 0.585136
Si Si2 0.650966 0.806883 0.447949
Si Si3 0.778180 0.443531 0.496143
Si Si4 0.522381 0.516447 0.115284
Si Si5 0.217847 0.252653 0.331969
Si Si6 0.731686 0.295545 0.844786
Si Si7 0.022623 0.101994 0.935276
O O1 0.174927 0.253670 0.566763
O O2 0.182805 0.411154 0.748585
O O3 0.756436 0.261142 0.488769
O O4 0.834416 0.034984 0.542923
O O5 0.654434 0.762208 0.541639
O O6 0.370596 0.726327 0.293309
O O7 0.471245 0.368844 0.364952
O O8 0.879594 0.616243 0.635591
O O9 0.000000 0.500000 0.500000
O O10 0.492972 0.690395 0.169634
O O11 0.500000 0.500000 0.000000
O O12 0.297492 0.315041 0.050530
O O13 0.008239 0.045781 0.181790
O O14 0.790229 0.140738 0.857391
O O15 0.000000 0.500000 0.000000
O O16 0.000000 0.000000 0.000000
#
# Coordination Sequence:
#
# PCOD9107550 Si02
#       7
#     2   2   2   2   2   2   2
#     4  10  21  38  65  93 132 165 213 288 327 383
#     4  10  20  40  65 100 122 167 233 274 324 394
#     4  11  24  41  64  95 132 170 211 281 337 391
#     4  10  22  41  65  93 129 175 224 269 332 402
#     4  11  25  42  69  95 131 178 229 266 334 409
#     4   9  21  40  66  89 133 177 213 277 331 391
#     4  11  25  43  63  96 138 175 222 277 333 403
#
# _framework density 22.202248999999998
#
# number of rings (size 3 to 8) (size 9 to 14) (size 15 to 20)
#    0.000    1.714    1.429    1.714    2.000    9.143 
#    2.571    1.429    0.000    0.000    0.000    0.000 
#    0.000    0.000    0.000    0.000    0.000    0.000 
#
# Total GULP energy -78053.301944 kJ/mol
# GULP energy per Si atom -5575.235853 kJ/mol
# Density = 2.215172 g / cm^3
# Si number density = 22.202249 Si / 1000 Ang^3
#
#
#
# Elastic Constant Matrix: (Units=GPa)
#
#
# Indices 1 2 3 4 5 6 
#
# 1 83.0932 35.9863 9.9370 2.3268 -1.4942 -6.9428
# 2 35.9863 114.2577 32.0482 -3.2448 -8.4688 -8.3439
# 3 9.9370 32.0482 108.5936 7.6441 -0.5992 5.4738
# 4 2.3268 -3.2448 7.6441 33.8414 0.9294 -4.2285
# 5 -1.4942 -8.4688 -0.5992 0.9294 27.2076 1.4358
# 6 -6.9428 -8.3439 5.4738 -4.2285 1.4358 38.8361
#
#
#
# Elastic Compliance Matrix: (Units=1/GPa)
#
#
# Indices 1 2 3 4 5 6 
#
# 1 0.014090 -0.004418 0.000022 -0.001197 -0.000637 0.001460
# 2 -0.004418 0.011519 -0.003259 0.002346 0.003070 0.002286
# 3 0.000022 -0.003259 0.010500 -0.002981 -0.000549 -0.002480
# 4 -0.001197 0.002346 -0.002981 0.031063 -0.000680 0.004117
# 5 -0.000637 0.003070 -0.000549 -0.000680 0.037731 -0.000846
# 6 0.001460 0.002286 -0.002480 0.004117 -0.000846 0.027331
#
#
# Mechanical properties :
#
#
# Convention : Reuss Voigt Hill
#
# Bulk Modulus (GPa) = 48.08048 51.32082 49.70065
# Shear Modulus (GPa) = 32.36746 35.17523 33.77134
#
# Velocity S-wave (km/s) = 3.82232 3.98466 3.90433
# Velocity P-wave (km/s) = 6.41739 6.65848 6.53904
#
# Compressibility (1/GPa) = 0.02079846
#
# Stress axis : x y z
#
# Youngs Moduli (GPa) = 70.97421 86.81412 95.23706
#
# Poissons Ratio (x) = 0.38358 -0.00208
# Poissons Ratio (y) = 0.31359 0.31033
# Poissons Ratio (z) = -0.00155 0.28289
#
# Static dielectric constant tensor:
#      x y z
#    x 1.096700 -1.075610 0.184390 
#    y -1.075610 0.430380 0.219490 
#    z 0.184390 0.219490 1.821770 
# 
# From -- ./inp_files/495508.got.cif
#   From: 2010.05.17/outbox.cif.g08.bks.cpg/sg2_248_cif.got.tgz:495508.got - 2010.06.03 11:33:40.
