data_PCOD9107495
_publ_section_title
;
Structure prediction by ZEFSAII (Michael W. Deem and Ramdas Pophale) SiO2 
 PCOD9107495
Probable space group: P -1
;
_chemical_formula_sum "Si O2"
_cell_formula_units_Z 16
_cell_length_a 5.080004
_cell_length_b 8.274755
_cell_length_c 18.323200
_cell_angle_alpha 53.071819
_cell_angle_beta 104.392978
_cell_angle_gamma 88.898634
_cell_volume 582.084531
_symmetry_space_group_name_H-M "P -1"
_symmetry_group_IT_number 2
_symmetry_cell_setting 'triclinic'
loop_
_space_group_symop_operation_xyz
x,y,z
-x,-y,-z
loop_
_atom_site_type_symbol
_atom_site_label
_atom_site_fract_x
_atom_site_fract_y
_atom_site_fract_z
Si Si1 0.805166 0.593663 0.528931
Si Si2 0.783754 0.053637 0.403508
Si Si3 0.831323 0.792640 0.140496
Si Si4 0.001566 0.816889 0.772407
Si Si5 0.707745 0.481599 0.305262
Si Si6 0.312829 0.772822 0.297862
Si Si7 0.073358 0.619405 0.061510
Si Si8 0.461517 0.784314 0.936192
O O1 0.654803 0.409968 0.590794
O O2 0.000000 0.500000 0.500000
O O3 0.998855 0.592616 0.614480
O O4 0.682005 0.839225 0.442720
O O5 0.926928 0.116486 0.322351
O O6 0.581569 0.275460 0.351233
O O7 0.000000 0.000000 0.500000
O O8 0.717489 0.582751 0.199663
O O9 0.001397 0.775524 0.082481
O O10 0.055787 0.781797 0.222947
O O11 0.598244 0.994601 0.086802
O O12 0.907766 0.604385 0.840821
O O13 0.276149 0.807851 0.844204
O O14 0.755457 0.001562 0.734517
O O15 0.569433 0.680737 0.289371
O O16 0.788004 0.691866 0.975155
O O17 0.326418 0.648917 0.021007
#
# Coordination Sequence:
#
# PCOD9107495 Si02
#       8
#     2   2   2   2   2   2   2   2
#     4  10  20  40  64  94 138 172 226 291 348 420
#     4  10  21  42  70  97 138 181 227 289 353 423
#     4  10  23  41  70  97 142 180 230 291 351 418
#     4  11  23  45  69 100 144 184 228 299 352 420
#     4  10  22  41  66  96 135 180 232 281 350 425
#     4  10  23  41  66 102 134 184 234 280 355 422
#     4  12  25  47  70 108 140 191 238 299 348 428
#     4  11  27  44  72 104 145 186 243 289 362 417
#
# _framework density 27.487417000000001
#
# number of rings (size 3 to 8) (size 9 to 14) (size 15 to 20)
#    0.000    1.500    2.500    1.500    5.250    1.000 
#    4.500    1.250    0.000    0.000    0.000    0.000 
#    0.000    0.000    0.000    0.000    0.000    0.000 
#
# Total GULP energy -89576.994422 kJ/mol
# GULP energy per Si atom -5598.562151 kJ/mol
# Density = 2.742485 g / cm^3
# Si number density = 27.487417 Si / 1000 Ang^3
#
#
#
# Elastic Constant Matrix: (Units=GPa)
#
#
# Indices 1 2 3 4 5 6 
#
# 1 66.5317 0.6068 37.4973 0.2783 1.5256 -4.9088
# 2 0.6068 137.2044 67.7732 -35.9993 -2.8530 -2.2328
# 3 37.4973 67.7732 172.3367 7.5578 -2.6195 13.1664
# 4 0.2783 -35.9993 7.5578 53.9638 -8.5498 -9.6407
# 5 1.5256 -2.8530 -2.6195 -8.5498 53.7263 -1.9274
# 6 -4.9088 -2.2328 13.1664 -9.6407 -1.9274 30.9857
#
#
#
# Elastic Compliance Matrix: (Units=1/GPa)
#
#
# Indices 1 2 3 4 5 6 
#
# 1 0.019633 0.005198 -0.007215 0.005985 0.000622 0.008451
# 2 0.005198 0.015157 -0.008391 0.013451 0.002742 0.009837
# 3 -0.007215 -0.008391 0.011794 -0.009180 -0.001475 -0.009707
# 4 0.005985 0.013451 -0.009180 0.032606 0.005871 0.016328
# 5 0.000622 0.002742 -0.001475 0.005871 0.019746 0.003978
# 6 0.008451 0.009837 -0.009707 0.016328 0.003978 0.043773
#
#
# Mechanical properties :
#
#
# Convention : Reuss Voigt Hill
#
# Bulk Modulus (GPa) = 38.80789 65.31416 52.06102
# Shear Modulus (GPa) = 29.05035 45.74820 37.39928
#
# Velocity S-wave (km/s) = 3.25447 4.08405 3.69263
# Velocity P-wave (km/s) = 5.31706 6.78619 6.09604
#
# Compressibility (1/GPa) = 0.02576796
#
# Stress axis : x y z
#
# Youngs Moduli (GPa) = 50.93354 65.97764 84.78841
#
# Poissons Ratio (x) = -0.34293 0.61171
# Poissons Ratio (y) = -0.26474 0.71147
# Poissons Ratio (z) = 0.36747 0.55363
#
# Static dielectric constant tensor:
#      x y z
#    x 2.243720 0.021550 -0.051370 
#    y 0.021550 2.235750 0.005310 
#    z -0.051370 0.005310 2.161100 
# 
# From -- ./inp_files/90359.got.cif
#   From: 2010.05.17/outbox.cif.g08.bks.cpg/sg2_46_cif.got.tgz:90359.got - 2010.06.03 11:33:40.
