data_PCOD9107125
_publ_section_title
;
Structure prediction by ZEFSAII (Michael W. Deem and Ramdas Pophale) SiO2 
 PCOD9107125
Probable space group: P -1
;
_chemical_formula_sum "Si O2"
_cell_formula_units_Z 16
_cell_length_a 20.063642
_cell_length_b 6.086388
_cell_length_c 5.468523
_cell_angle_alpha 88.490988
_cell_angle_beta 87.179590
_cell_angle_gamma 110.126138
_cell_volume 625.585986
_symmetry_space_group_name_H-M "P -1"
_symmetry_group_IT_number 2
_symmetry_cell_setting 'triclinic'
loop_
_space_group_symop_operation_xyz
x,y,z
-x,-y,-z
loop_
_atom_site_type_symbol
_atom_site_label
_atom_site_fract_x
_atom_site_fract_y
_atom_site_fract_z
Si Si1 0.826037 0.094655 0.645347
Si Si2 0.319772 0.764577 0.024217
Si Si3 0.707039 0.649950 0.576602
Si Si4 0.549950 0.936382 0.795612
Si Si5 0.079302 0.174669 0.529308
Si Si6 0.046897 0.525714 0.231353
Si Si7 0.420369 0.641923 0.612499
Si Si8 0.805303 0.458999 0.266352
O O1 0.754190 0.878557 0.708073
O O2 0.873672 0.987449 0.474244
O O3 0.887529 0.231046 0.819666
O O4 0.804972 0.280644 0.487200
O O5 0.368815 0.698741 0.817295
O O6 0.240853 0.711088 0.931849
O O7 0.306723 0.572250 0.241646
O O8 0.372497 0.017364 0.102363
O O9 0.629047 0.608790 0.480244
O O10 0.757255 0.612186 0.352334
O O11 0.497980 0.685722 0.712218
O O12 0.564605 0.144066 0.588001
O O13 0.500000 0.000000 0.000000
O O14 0.086463 0.341012 0.287150
O O15 0.113382 0.356673 0.740554
O O16 0.000000 0.000000 0.500000
O O17 0.000000 0.500000 0.500000
O O18 0.000000 0.500000 0.000000
#
# Coordination Sequence:
#
# PCOD9107125 Si02
#       8
#     2   2   2   2   2   2   2   2
#     4  10  21  41  57  85 116 156 197 246 306 364
#     4   9  16  30  51  77 109 149 193 241 288 351
#     4   9  18  34  52  77 111 151 198 240 297 355
#     4   8  13  23  47  81 112 146 186 232 289 340
#     4  10  20  40  63  87 116 154 199 250 310 369
#     4  11  24  44  66  93 123 156 201 253 309 371
#     4   8  14  26  47  79 113 143 189 240 282 348
#     4   9  20  35  52  78 113 148 196 243 298 357
#
# _framework density 25.576018999999999
#
# number of rings (size 3 to 8) (size 9 to 14) (size 15 to 20)
#    0.000    2.750    1.250    0.000    0.000    1.500 
#   15.750    0.000    0.000    0.750    0.000   78.750 
#    0.000    0.000    0.000    0.000    0.000    0.000 
#
# Total GULP energy -89070.295268 kJ/mol
# GULP energy per Si atom -5566.893454 kJ/mol
# Density = 2.551781 g / cm^3
# Si number density = 25.576019 Si / 1000 Ang^3
#
#
#
# Elastic Constant Matrix: (Units=GPa)
#
#
# Indices 1 2 3 4 5 6 
#
# 1 159.3021 66.8374 41.4393 32.8461 14.3831 58.1007
# 2 66.8374 142.3569 26.2589 42.1219 35.1409 79.7831
# 3 41.4393 26.2589 79.0450 27.0226 18.1491 33.6289
# 4 32.8461 42.1219 27.0226 31.7380 26.9870 28.9605
# 5 14.3831 35.1409 18.1491 26.9870 53.9226 27.9751
# 6 58.1007 79.7831 33.6289 28.9605 27.9751 74.3937
#
#
#
# Elastic Compliance Matrix: (Units=1/GPa)
#
#
# Indices 1 2 3 4 5 6 
#
# 1 0.009959 0.000216 -0.000946 -0.008291 0.004882 -0.006191
# 2 0.000216 0.022552 0.007568 -0.020650 0.004066 -0.021265
# 3 -0.000946 0.007568 0.021374 -0.021467 0.004193 -0.010259
# 4 -0.008291 -0.020650 -0.021467 0.107084 -0.035973 0.010166
# 5 0.004882 0.004066 0.004193 -0.035973 0.036208 -0.009680
# 6 -0.006191 -0.021265 -0.010259 0.010166 -0.009680 0.045403
#
#
# Mechanical properties :
#
#
# Convention : Reuss Voigt Hill
#
# Bulk Modulus (GPa) = 14.80136 72.19724 43.49930
# Shear Modulus (GPa) = 19.88682 48.42208 34.15445
#
# Velocity S-wave (km/s) = 2.79150 4.35588 3.65829
# Velocity P-wave (km/s) = 4.02364 7.32039 5.90668
#
# Compressibility (1/GPa) = 0.06756138
#
# Stress axis : x y z
#
# Youngs Moduli (GPa) = 100.40884 44.34252 46.78675
#
# Poissons Ratio (x) = -0.00958 0.04425
# Poissons Ratio (y) = -0.02169 -0.35409
# Poissons Ratio (z) = 0.09497 -0.33559
#
# Static dielectric constant tensor:
#      x y z
#    x 2.096500 0.065480 -0.020760 
#    y 0.065480 2.118510 0.136920 
#    z -0.020760 0.136920 2.082740 
# 
# From -- ./inp_files/121574.got.cif
#   From: 2010.05.17/outbox.cif.g08.bks.cpg/sg2_61_cif.got.tgz:121574.got - 2010.06.03 11:33:40.
