data_PCOD9107164
_publ_section_title
;
Structure prediction by ZEFSAII (Michael W. Deem and Ramdas Pophale) SiO2 
 PCOD9107164
Probable space group: P -1
;
_chemical_formula_sum "Si O2"
_cell_formula_units_Z 15
_cell_length_a 8.968531
_cell_length_b 8.536895
_cell_length_c 11.957527
_cell_angle_alpha 91.684162
_cell_angle_beta 75.798755
_cell_angle_gamma 138.769598
_cell_volume 567.462768
_symmetry_space_group_name_H-M "P -1"
_symmetry_group_IT_number 2
_symmetry_cell_setting 'triclinic'
loop_
_space_group_symop_operation_xyz
x,y,z
-x,-y,-z
loop_
_atom_site_type_symbol
_atom_site_label
_atom_site_fract_x
_atom_site_fract_y
_atom_site_fract_z
Si Si1 0.595132 0.738738 0.440937
Si Si2 0.322656 0.008653 0.026433
Si Si3 0.867481 0.207800 0.174743
Si Si4 0.329930 0.743772 0.364569
Si Si5 0.996440 0.356466 0.738843
Si Si6 0.589698 0.516356 0.242735
Si Si7 0.500000 0.500000 0.000000
Si Si8 0.094866 0.229402 0.327136
O O1 0.500000 0.500000 0.500000
O O2 0.424163 0.758276 0.469268
O O3 0.639980 0.717962 0.302883
O O4 0.857441 0.999062 0.432515
O O5 0.176841 0.893796 0.165622
O O6 0.142861 0.832008 0.954216
O O7 0.500000 0.000000 0.000000
O O8 0.450744 0.272798 0.987734
O O9 0.984396 0.463455 0.195206
O O10 0.034746 0.210814 0.206952
O O11 0.585424 0.987372 0.263058
O O12 0.195871 0.476964 0.349507
O O13 0.129822 0.710916 0.359191
O O14 0.256625 0.487144 0.716307
O O15 0.304413 0.270102 0.305229
O O16 0.618762 0.556830 0.106463
#
# Coordination Sequence:
#
# PCOD9107164 Si02
#       8
#     2   2   2   2   2   2   1   2
#     4  10  22  44  73  97 126 177 235 292 351 417
#     4  12  24  41  65  95 139 196 242 284 348 410
#     4  10  20  40  63  89 128 185 240 274 335 414
#     4   9  19  39  64  95 125 167 228 278 342 414
#     4  11  24  39  64  95 139 185 232 288 346 420
#     4  11  26  40  60 102 140 178 224 289 347 404
#     4  12  28  42  64 106 150 186 238 290 336 428
#     4   9  20  38  65  90 131 169 218 290 336 407
#
# _framework density 26.433454000000001
#
# number of rings (size 3 to 8) (size 9 to 14) (size 15 to 20)
#    0.000    1.600    1.333    3.600    5.600    2.667 
#    0.000    0.667    0.000    8.000    0.000    0.000 
#    0.000    0.000    0.000    0.000    0.000    0.000 
#
# Total GULP energy -83531.344253 kJ/mol
# GULP energy per Si atom -5568.756284 kJ/mol
# Density = 2.637329 g / cm^3
# Si number density = 26.433454 Si / 1000 Ang^3
#
#
#
# Elastic Constant Matrix: (Units=GPa)
#
#
# Indices 1 2 3 4 5 6 
#
# 1 209.8129 43.3945 45.8364 -10.8952 46.0814 41.3281
# 2 43.3945 110.0199 17.2362 -16.1480 1.7287 -0.9746
# 3 45.8364 17.2362 76.9645 -4.3545 25.2352 8.9818
# 4 -10.8952 -16.1480 -4.3545 36.8278 -7.7382 -5.7015
# 5 46.0814 1.7287 25.2352 -7.7382 30.5501 5.8275
# 6 41.3281 -0.9746 8.9818 -5.7015 5.8275 52.6655
#
#
#
# Elastic Compliance Matrix: (Units=1/GPa)
#
#
# Indices 1 2 3 4 5 6 
#
# 1 0.009886 -0.004229 0.000421 -0.002953 -0.014505 -0.006622
# 2 -0.004229 0.012072 -0.003318 0.006182 0.009287 0.003750
# 3 0.000421 -0.003318 0.018957 -0.002869 -0.016429 -0.002118
# 4 -0.002953 0.006182 -0.002869 0.032292 0.013719 0.004899
# 5 -0.014505 0.009287 -0.016429 0.013719 0.069579 0.008142
# 6 -0.006622 0.003750 -0.002118 0.004899 0.008142 0.024244
#
#
# Mechanical properties :
#
#
# Convention : Reuss Voigt Hill
#
# Bulk Modulus (GPa) = 37.50536 67.74794 52.62665
# Shear Modulus (GPa) = 26.29238 43.36402 34.82820
#
# Velocity S-wave (km/s) = 3.15725 4.05470 3.63379
# Velocity P-wave (km/s) = 5.24503 6.89971 6.12848
#
# Compressibility (1/GPa) = 0.02666286
#
# Stress axis : x y z
#
# Youngs Moduli (GPa) = 101.15657 82.83785 52.75167
#
# Poissons Ratio (x) = 0.35035 -0.02223
# Poissons Ratio (y) = 0.42783 0.17501
# Poissons Ratio (z) = -0.04263 0.27483
#
# Static dielectric constant tensor:
#      x y z
#    x 2.232440 0.111390 -0.076540 
#    y 0.111390 2.034360 -0.034580 
#    z -0.076540 -0.034580 2.202070 
# 
# From -- ./inp_files/494894.got.cif
#   From: 2010.05.17/outbox.cif.g08.bks.cpg/sg2_248_cif.got.tgz:494894.got - 2010.06.03 11:33:40.
