data_PCOD9107073
_publ_section_title
;
Structure prediction by ZEFSAII (Michael W. Deem and Ramdas Pophale) SiO2 
 PCOD9107073
Probable space group: P -1
;
_chemical_formula_sum "Si O2"
_cell_formula_units_Z 14
_cell_length_a 9.163982
_cell_length_b 8.562759
_cell_length_c 10.250467
_cell_angle_alpha 67.011850
_cell_angle_beta 59.879082
_cell_angle_gamma 96.008011
_cell_volume 593.072630
_symmetry_space_group_name_H-M "P -1"
_symmetry_group_IT_number 2
_symmetry_cell_setting 'triclinic'
loop_
_space_group_symop_operation_xyz
x,y,z
-x,-y,-z
loop_
_atom_site_type_symbol
_atom_site_label
_atom_site_fract_x
_atom_site_fract_y
_atom_site_fract_z
Si Si1 0.209294 0.969065 0.144480
Si Si2 0.083557 0.213412 0.845671
Si Si3 0.459042 0.239070 0.557546
Si Si4 0.042283 0.264612 0.133079
Si Si5 0.410828 0.759126 0.240816
Si Si6 0.635674 0.189684 0.257115
Si Si7 0.329394 0.560573 0.077197
O O1 0.088552 0.085259 0.200885
O O2 0.296109 0.889381 0.244817
O O3 0.381173 0.110709 0.938774
O O4 0.077643 0.796115 0.175704
O O5 0.266189 0.247033 0.674701
O O6 0.112843 0.322651 0.932614
O O7 0.000000 0.000000 0.000000
O O8 0.587388 0.331892 0.591439
O O9 0.530129 0.283025 0.365762
O O10 0.446311 0.029152 0.643820
O O11 0.148994 0.409306 0.146359
O O12 0.831671 0.230876 0.222815
O O13 0.333327 0.613352 0.208372
O O14 0.639617 0.266529 0.086560
O O15 0.500000 0.500000 0.000000
#
# Coordination Sequence:
#
# PCOD9107073 Si02
#       7
#     2   2   2   2   2   2   2
#     4  10  18  32  63  88 116 149 214 252 279 351
#     4  10  16  34  62  88 116 156 213 243 291 364
#     4  11  21  39  63  94 125 152 202 264 308 351
#     4  11  20  39  60  92 120 161 210 247 293 372
#     4  11  20  36  60  92 119 162 202 245 304 357
#     4  11  24  39  62  94 126 157 199 264 311 342
#     4  12  24  39  61  92 125 165 206 245 299 374
#
# _framework density 23.605875999999999
#
# number of rings (size 3 to 8) (size 9 to 14) (size 15 to 20)
#    0.000    1.143    7.143    3.000    0.000    0.000 
#    0.000    5.714    0.000    0.000    0.000    0.000 
#    0.000    0.000    0.000    0.000    0.000    0.000 
#
# Total GULP energy -78263.396490 kJ/mol
# GULP energy per Si atom -5590.242606 kJ/mol
# Density = 2.355215 g / cm^3
# Si number density = 23.605876 Si / 1000 Ang^3
#
#
#
# Elastic Constant Matrix: (Units=GPa)
#
#
# Indices 1 2 3 4 5 6 
#
# 1 120.7324 29.6141 14.8107 11.5619 -14.4865 21.3288
# 2 29.6141 85.8177 23.0019 11.3869 2.4267 27.7260
# 3 14.8107 23.0019 64.2485 34.1584 -3.3523 5.7815
# 4 11.5619 11.3869 34.1584 29.3398 -3.2624 10.1621
# 5 -14.4865 2.4267 -3.3523 -3.2624 23.9279 15.0475
# 6 21.3288 27.7260 5.7815 10.1621 15.0475 49.2567
#
#
#
# Elastic Compliance Matrix: (Units=1/GPa)
#
#
# Indices 1 2 3 4 5 6 
#
# 1 0.011626 -0.001409 -0.002393 0.003070 0.012568 -0.008433
# 2 -0.001409 0.016871 -0.009437 0.009286 0.004304 -0.011010
# 3 -0.002393 -0.009437 0.049067 -0.059632 -0.012199 0.016619
# 4 0.003070 0.009286 -0.059632 0.112557 0.027520 -0.031186
# 5 0.012568 0.004304 -0.012199 0.027520 0.072564 -0.034278
# 6 -0.008433 -0.011010 0.016619 -0.031186 -0.034278 0.045106
#
#
# Mechanical properties :
#
#
# Convention : Reuss Voigt Hill
#
# Bulk Modulus (GPa) = 19.57496 45.07247 32.32372
# Shear Modulus (GPa) = 14.23294 34.06301 24.14798
#
# Velocity S-wave (km/s) = 2.45815 3.80279 3.20185
# Velocity P-wave (km/s) = 4.04562 6.19813 5.23373
#
# Compressibility (1/GPa) = 0.05108567
#
# Stress axis : x y z
#
# Youngs Moduli (GPa) = 86.01663 59.27220 20.38020
#
# Poissons Ratio (x) = 0.08349 0.04878
# Poissons Ratio (y) = 0.12116 0.19234
# Poissons Ratio (z) = 0.20586 0.55938
#
# Static dielectric constant tensor:
#      x y z
#    x 1.904610 0.022330 0.002290 
#    y 0.022330 1.997700 0.011050 
#    z 0.002290 0.011050 1.910420 
# 
# From -- ./inp_files/381886.got.cif
#   From: 2010.05.17/outbox.cif.g08.bks.cpg/sg2_191_cif.got.tgz:381886.got - 2010.06.03 11:33:40.
