data_PCOD9107379
_publ_section_title
;
Structure prediction by ZEFSAII (Michael W. Deem and Ramdas Pophale) SiO2 
 PCOD9107379
Probable space group: P -1
;
_chemical_formula_sum "Si O2"
_cell_formula_units_Z 16
_cell_length_a 9.561806
_cell_length_b 13.609872
_cell_length_c 8.280256
_cell_angle_alpha 64.744795
_cell_angle_beta 49.609715
_cell_angle_gamma 87.835228
_cell_volume 696.281459
_symmetry_space_group_name_H-M "P -1"
_symmetry_group_IT_number 2
_symmetry_cell_setting 'triclinic'
loop_
_space_group_symop_operation_xyz
x,y,z
-x,-y,-z
loop_
_atom_site_type_symbol
_atom_site_label
_atom_site_fract_x
_atom_site_fract_y
_atom_site_fract_z
Si Si1 0.584444 0.455298 0.120313
Si Si2 0.596287 0.102938 0.982146
Si Si3 0.719182 0.233120 0.500537
Si Si4 0.322763 0.990092 0.517606
Si Si5 0.941010 0.138683 0.919208
Si Si6 0.054129 0.594360 0.246375
Si Si7 0.675775 0.739249 0.344805
Si Si8 0.868934 0.619108 0.053385
O O1 0.397720 0.373853 0.411664
O O2 0.713445 0.545980 0.091633
O O3 0.500000 0.500000 0.000000
O O4 0.730794 0.394101 0.985128
O O5 0.685338 0.217818 0.727971
O O6 0.782007 0.081661 0.941204
O O7 0.500000 0.000000 0.000000
O O8 0.430288 0.099441 0.241824
O O9 0.721830 0.115270 0.500778
O O10 0.523345 0.244947 0.567483
O O11 0.921898 0.326563 0.227860
O O12 0.500000 0.000000 0.500000
O O13 0.136269 0.938717 0.809404
O O14 0.937750 0.272199 0.829093
O O15 0.172224 0.163079 0.727713
O O16 0.000000 0.500000 0.500000
O O17 0.908746 0.553139 0.228808
O O18 0.788608 0.715300 0.121813
#
# Coordination Sequence:
#
# PCOD9107379 Si02
#       8
#     2   2   2   2   2   2   2   2
#     4  12  25  40  60  95 129 169 224 262 309 383
#     4   9  21  36  67  93 119 166 210 258 319 388
#     4  11  21  40  65  91 123 166 208 255 338 372
#     4   9  17  39  65  89 121 163 205 256 323 382
#     4  10  20  40  64  88 131 164 205 268 313 375
#     4  11  23  40  65  94 124 176 216 255 322 379
#     4  11  23  40  63  94 125 167 215 258 323 377
#     4  11  24  43  63  87 136 174 207 274 312 374
#
# _framework density 22.979212
#
# number of rings (size 3 to 8) (size 9 to 14) (size 15 to 20)
#    0.000    1.500    3.750    2.250    3.500    1.000 
#    0.000    6.250    0.000    0.000    0.000    0.000 
#    0.000    0.000    0.000    0.000    0.000    0.000 
#
# Total GULP energy -89198.171442 kJ/mol
# GULP energy per Si atom -5574.885715 kJ/mol
# Density = 2.292691 g / cm^3
# Si number density = 22.979212 Si / 1000 Ang^3
#
#
#
# Elastic Constant Matrix: (Units=GPa)
#
#
# Indices 1 2 3 4 5 6 
#
# 1 144.9187 18.3772 83.7756 -6.1167 2.8852 23.4730
# 2 18.3772 68.2113 18.1983 -13.1555 0.5908 7.1168
# 3 83.7756 18.1983 185.1753 -15.6331 0.6329 12.2960
# 4 -6.1167 -13.1555 -15.6331 10.9761 -0.2774 -6.5211
# 5 2.8852 0.5908 0.6329 -0.2774 52.2686 -3.6617
# 6 23.4730 7.1168 12.2960 -6.5211 -3.6617 34.4985
#
#
#
# Elastic Compliance Matrix: (Units=1/GPa)
#
#
# Indices 1 2 3 4 5 6 
#
# 1 0.010787 -0.002406 -0.004853 -0.007787 -0.001020 -0.006694
# 2 -0.002406 0.019611 0.001138 0.024927 0.000164 0.001915
# 3 -0.004853 0.001138 0.008333 0.011964 0.000386 0.002400
# 4 -0.007787 0.024927 0.011964 0.148094 0.002481 0.024149
# 5 -0.001020 0.000164 0.000386 0.002481 0.019409 0.003052
# 6 -0.006694 0.001915 0.002400 0.024149 0.003052 0.037179
#
#
# Mechanical properties :
#
#
# Convention : Reuss Voigt Hill
#
# Bulk Modulus (GPa) = 37.75152 71.00084 54.37618
# Shear Modulus (GPa) = 18.90459 38.07891 28.49175
#
# Velocity S-wave (km/s) = 2.87136 4.07517 3.52503
# Velocity P-wave (km/s) = 5.23995 7.28750 6.34684
#
# Compressibility (1/GPa) = 0.02648900
#
# Stress axis : x y z
#
# Youngs Moduli (GPa) = 92.70526 50.99107 119.99827
#
# Poissons Ratio (x) = 0.12269 0.58237
# Poissons Ratio (y) = 0.22306 -0.13655
# Poissons Ratio (z) = 0.44991 -0.05802
#
# Static dielectric constant tensor:
#      x y z
#    x 1.848210 -0.017130 0.046510 
#    y -0.017130 1.953870 0.006910 
#    z 0.046510 0.006910 1.937350 
# 
# From -- ./inp_files/214706.got.cif
#   From: 2010.05.17/outbox.cif.g08.bks.cpg/sg2_108_cif.got.tgz:214706.got - 2010.06.03 11:33:40.
