data_PCOD9107402
_publ_section_title
;
Structure prediction by ZEFSAII (Michael W. Deem and Ramdas Pophale) SiO2 
 PCOD9107402
Probable space group: P -1
;
_chemical_formula_sum "Si O2"
_cell_formula_units_Z 16
_cell_length_a 10.977197
_cell_length_b 14.129302
_cell_length_c 16.874677
_cell_angle_alpha 157.529012
_cell_angle_beta 64.227465
_cell_angle_gamma 103.667099
_cell_volume 789.868771
_symmetry_space_group_name_H-M "P -1"
_symmetry_group_IT_number 2
_symmetry_cell_setting 'triclinic'
loop_
_space_group_symop_operation_xyz
x,y,z
-x,-y,-z
loop_
_atom_site_type_symbol
_atom_site_label
_atom_site_fract_x
_atom_site_fract_y
_atom_site_fract_z
Si Si1 0.065412 0.296379 0.090662
Si Si2 0.345541 0.790050 0.063246
Si Si3 0.664473 0.572081 0.842970
Si Si4 0.070824 0.831651 0.269605
Si Si5 0.853159 0.712330 0.605043
Si Si6 0.163692 0.665673 0.553987
Si Si7 0.882109 0.749761 0.129543
Si Si8 0.555015 0.180939 0.572518
O O1 0.202453 0.375173 0.121120
O O2 0.931954 0.490160 0.338792
O O3 0.013947 0.349897 0.055113
O O4 0.136667 0.962183 0.826072
O O5 0.212131 0.869627 0.227409
O O6 0.266994 0.984934 0.161130
O O7 0.491311 0.827571 0.078808
O O8 0.422654 0.445725 0.766913
O O9 0.724407 0.444598 0.639077
O O10 0.626139 0.354917 0.735065
O O11 0.949772 0.899362 0.284420
O O12 0.122567 0.506433 0.022768
O O13 0.000000 0.000000 0.500000
O O14 0.786460 0.576204 0.581448
O O15 0.995429 0.728547 0.618857
O O16 0.707304 0.953744 0.309350
O O17 0.500000 0.000000 0.500000
#
# Coordination Sequence:
#
# PCOD9107402 Si02
#       8
#     2   2   2   2   2   2   2   2
#     4  11  20  39  64  87 122 162 201 247 310 372
#     4  10  21  39  58  87 122 156 206 252 304 357
#     4   9  22  38  61  88 119 163 204 250 304 363
#     4  11  24  39  60  89 121 154 202 262 301 355
#     4  10  22  37  64  95 121 157 203 259 304 365
#     4  10  20  40  64  90 122 160 205 250 312 364
#     4  11  22  39  62  87 115 163 206 242 306 367
#     4  10  20  42  60  85 124 165 207 248 304 367
#
# _framework density 20.256530000000001
#
# number of rings (size 3 to 8) (size 9 to 14) (size 15 to 20)
#    0.750    1.000    2.500    1.875    3.500    0.500 
#    2.250    8.750    0.000    0.000    0.000    0.000 
#    0.000    0.000    0.000    0.000    0.000    0.000 
#
# Total GULP energy -89113.463603 kJ/mol
# GULP energy per Si atom -5569.591475 kJ/mol
# Density = 2.021043 g / cm^3
# Si number density = 20.256530 Si / 1000 Ang^3
#
#
#
# Elastic Constant Matrix: (Units=GPa)
#
#
# Indices 1 2 3 4 5 6 
#
# 1 54.3911 37.6854 35.7529 -2.8527 -2.7678 -0.6965
# 2 37.6854 110.6038 39.2198 17.4993 3.0941 1.2059
# 3 35.7529 39.2198 86.0920 8.1492 -2.7872 -6.6666
# 4 -2.8527 17.4993 8.1492 37.0491 -5.1422 -1.8502
# 5 -2.7678 3.0941 -2.7872 -5.1422 31.8766 5.8651
# 6 -0.6965 1.2059 -6.6666 -1.8502 5.8651 29.1590
#
#
#
# Elastic Compliance Matrix: (Units=1/GPa)
#
#
# Indices 1 2 3 4 5 6 
#
# 1 0.031850 -0.008895 -0.010034 0.009417 0.004543 -0.001482
# 2 -0.008895 0.014141 -0.002243 -0.007388 -0.003329 -0.001109
# 3 -0.010034 -0.002243 0.017400 -0.003407 -0.000360 0.003688
# 4 0.009417 -0.007388 -0.003407 0.032876 0.006441 0.000542
# 5 0.004543 -0.003329 -0.000360 0.006441 0.034259 -0.006318
# 6 -0.001482 -0.001109 0.003688 0.000542 -0.006318 0.036454
#
#
# Mechanical properties :
#
#
# Convention : Reuss Voigt Hill
#
# Bulk Modulus (GPa) = 47.50798 52.93366 50.22082
# Shear Modulus (GPa) = 23.11184 28.84554 25.97869
#
# Velocity S-wave (km/s) = 3.38147 3.77770 3.58506
# Velocity P-wave (km/s) = 6.22494 6.72432 6.47944
#
# Compressibility (1/GPa) = 0.02104909
#
# Stress axis : x y z
#
# Youngs Moduli (GPa) = 31.39712 70.71429 57.47026
#
# Poissons Ratio (x) = 0.62901 0.57664
# Poissons Ratio (y) = 0.27928 0.12888
# Poissons Ratio (z) = 0.31503 0.15858
#
# Static dielectric constant tensor:
#      x y z
#    x 1.753870 0.001260 -0.004130 
#    y 0.001260 1.735200 0.032290 
#    z -0.004130 0.032290 1.762600 
# 
# From -- ./inp_files/569872.got.cif
#   From: 2010.05.17/outbox.cif.g08.bks.cpg/sg2_285_cif.got.tgz:569872.got - 2010.06.03 11:33:40.
