data_PCOD9107980
_publ_section_title
;
Structure prediction by ZEFSAII (Michael W. Deem and Ramdas Pophale) SiO2 
 PCOD9107980
Probable space group: P -1
;
_chemical_formula_sum "Si O2"
_cell_formula_units_Z 15
_cell_length_a 8.338684
_cell_length_b 11.295666
_cell_length_c 11.313263
_cell_angle_alpha 49.950249
_cell_angle_beta 123.335718
_cell_angle_gamma 131.510484
_cell_volume 596.580691
_symmetry_space_group_name_H-M "P -1"
_symmetry_group_IT_number 2
_symmetry_cell_setting 'triclinic'
loop_
_space_group_symop_operation_xyz
x,y,z
-x,-y,-z
loop_
_atom_site_type_symbol
_atom_site_label
_atom_site_fract_x
_atom_site_fract_y
_atom_site_fract_z
Si Si1 0.500000 0.500000 0.500000
Si Si2 0.668505 0.379147 0.257276
Si Si3 0.892448 0.239679 0.601860
Si Si4 0.974566 0.743594 0.081836
Si Si5 0.737004 0.770939 0.635256
Si Si6 0.099562 0.022118 0.782145
Si Si7 0.558610 0.028311 0.324736
Si Si8 0.415642 0.805292 0.189831
O O1 0.666984 0.621910 0.602157
O O2 0.410029 0.642133 0.363270
O O3 0.842039 0.380810 0.425898
O O4 0.445165 0.319726 0.276650
O O5 0.658319 0.232263 0.257862
O O6 0.752311 0.561880 0.105831
O O7 0.962867 0.255210 0.756428
O O8 0.058121 0.188931 0.635501
O O9 0.653727 0.068001 0.615009
O O10 0.171724 0.741376 0.087595
O O11 0.976815 0.915550 0.919223
O O12 0.978007 0.874318 0.726422
O O13 0.702565 0.932715 0.469662
O O14 0.360544 0.115182 0.844199
O O15 0.470059 0.966059 0.198088
#
# Coordination Sequence:
#
# PCOD9107980 Si02
#       8
#     1   2   2   2   2   2   2   2
#     4  10  24  42  66 102 128 158 220 280 306 382
#     4  11  20  40  71  94 125 163 221 279 311 371
#     4  10  20  40  66  93 122 172 220 262 315 378
#     4  11  26  40  60  96 137 170 213 266 324 376
#     4  10  21  40  67 101 127 165 212 268 331 370
#     4  12  23  42  64  92 135 176 211 256 328 399
#     4   9  18  41  65  93 122 162 216 272 316 378
#     4  10  25  41  63  90 132 174 215 263 322 373
#
# _framework density 25.143287000000001
#
# number of rings (size 3 to 8) (size 9 to 14) (size 15 to 20)
#    0.000    1.600    2.667    2.800    3.733    3.733 
#    0.000    4.000    0.000    0.000    0.000    0.000 
#    0.000    0.000    0.000    0.000    0.000    0.000 
#
# Total GULP energy -83502.144117 kJ/mol
# GULP energy per Si atom -5566.809608 kJ/mol
# Density = 2.508606 g / cm^3
# Si number density = 25.143287 Si / 1000 Ang^3
#
#
#
# Elastic Constant Matrix: (Units=GPa)
#
#
# Indices 1 2 3 4 5 6 
#
# 1 78.7692 32.6678 30.3129 -7.2325 -3.1507 12.4712
# 2 32.6678 57.6666 12.1889 16.1952 -2.1586 10.3483
# 3 30.3129 12.1889 79.4661 -1.4476 1.4715 13.8752
# 4 -7.2325 16.1952 -1.4476 37.9803 7.6273 -10.8976
# 5 -3.1507 -2.1586 1.4715 7.6273 20.6028 0.5154
# 6 12.4712 10.3483 13.8752 -10.8976 0.5154 26.5130
#
#
#
# Elastic Compliance Matrix: (Units=1/GPa)
#
#
# Indices 1 2 3 4 5 6 
#
# 1 0.021854 -0.015201 -0.006443 0.012019 -0.002340 0.004011
# 2 -0.015201 0.036770 0.002926 -0.026491 0.011623 -0.019848
# 3 -0.006443 0.002926 0.015946 -0.004203 -0.000057 -0.008183
# 4 0.012019 -0.026491 -0.004203 0.052144 -0.020660 0.028721
# 5 -0.002340 0.011623 -0.000057 -0.020660 0.057375 -0.013013
# 6 0.004011 -0.019848 -0.008183 0.028721 -0.013013 0.059918
#
#
# Mechanical properties :
#
#
# Convention : Reuss Voigt Hill
#
# Bulk Modulus (GPa) = 26.92841 40.69344 33.81093
# Shear Modulus (GPa) = 17.01716 26.40137 21.70926
#
# Velocity S-wave (km/s) = 2.60437 3.24394 2.94159
# Velocity P-wave (km/s) = 4.44712 5.50006 5.00138
#
# Compressibility (1/GPa) = 0.03713550
#
# Stress axis : x y z
#
# Youngs Moduli (GPa) = 45.75853 27.19577 62.71127
#
# Poissons Ratio (x) = 0.41340 0.40403
# Poissons Ratio (y) = 0.69557 -0.18350
# Poissons Ratio (z) = 0.29481 -0.07958
#
# Static dielectric constant tensor:
#      x y z
#    x 2.016900 -0.009320 -0.021850 
#    y -0.009320 1.985680 0.050320 
#    z -0.021850 0.050320 2.065390 
# 
# From -- ./inp_files/175071.got.cif
#   From: 2010.05.17/outbox.cif.g08.bks.cpg/sg2_88_cif.got.tgz:175071.got - 2010.06.03 11:33:40.
