data_PCOD9107366
_publ_section_title
;
Structure prediction by ZEFSAII (Michael W. Deem and Ramdas Pophale) SiO2 
 PCOD9107366
Probable space group: P -1
;
_chemical_formula_sum "Si O2"
_cell_formula_units_Z 15
_cell_length_a 11.738870
_cell_length_b 11.153411
_cell_length_c 6.673314
_cell_angle_alpha 132.931724
_cell_angle_beta 98.209905
_cell_angle_gamma 88.142383
_cell_volume 630.616426
_symmetry_space_group_name_H-M "P -1"
_symmetry_group_IT_number 2
_symmetry_cell_setting 'triclinic'
loop_
_space_group_symop_operation_xyz
x,y,z
-x,-y,-z
loop_
_atom_site_type_symbol
_atom_site_label
_atom_site_fract_x
_atom_site_fract_y
_atom_site_fract_z
Si Si1 0.220585 0.595058 0.228236
Si Si2 0.391993 0.770859 0.182257
Si Si3 0.939298 0.273341 0.942709
Si Si4 0.154248 0.152606 0.381105
Si Si5 0.354338 0.132589 0.725542
Si Si6 0.189678 0.269649 0.113579
Si Si7 0.000000 0.000000 0.500000
Si Si8 0.204252 0.806678 0.839578
O O1 0.327948 0.630286 0.145646
O O2 0.106283 0.591187 0.055099
O O3 0.214486 0.437804 0.189729
O O4 0.221184 0.742960 0.553032
O O5 0.524842 0.758139 0.149317
O O6 0.383146 0.945451 0.490449
O O7 0.316978 0.783831 0.976518
O O8 0.883996 0.100904 0.640816
O O9 0.898226 0.299382 0.185308
O O10 0.065557 0.196731 0.900561
O O11 0.262758 0.180554 0.589370
O O12 0.165933 0.288554 0.362984
O O13 0.036142 0.124115 0.443725
O O14 0.169958 0.990612 0.066922
O O15 0.293467 0.165318 0.958182
#
# Coordination Sequence:
#
# PCOD9107366 Si02
#       8
#     2   2   2   2   2   2   1   2
#     4  11  24  41  60  88 132 172 202 250 309 377
#     4   9  21  43  68  89 118 165 213 259 317 353
#     4  10  23  38  61  91 122 170 202 254 310 362
#     4  10  22  38  63  95 119 160 205 261 310 358
#     4  10  21  43  67  92 122 157 214 271 300 363
#     4  12  25  38  61  95 129 165 206 250 313 376
#     4  10  20  40  64  88 122 152 208 262 296 360
#     4   9  21  39  62  88 119 163 211 253 306 368
#
# _framework density 23.786251
#
# number of rings (size 3 to 8) (size 9 to 14) (size 15 to 20)
#    0.000    1.867    1.333    2.000    3.733    5.333 
#    0.000    5.333    0.000    0.000    0.000    0.000 
#    0.000    0.000    0.000    0.000    0.000    0.000 
#
# Total GULP energy -83590.474012 kJ/mol
# GULP energy per Si atom -5572.698267 kJ/mol
# Density = 2.373211 g / cm^3
# Si number density = 23.786251 Si / 1000 Ang^3
#
#
#
# Elastic Constant Matrix: (Units=GPa)
#
#
# Indices 1 2 3 4 5 6 
#
# 1 163.7260 29.8159 25.4196 -18.0373 -12.8781 29.0098
# 2 29.8159 101.6859 2.3335 -26.0068 -4.7489 25.2992
# 3 25.4196 2.3335 51.4016 -20.0933 -18.9261 9.9603
# 4 -18.0373 -26.0068 -20.0933 32.7386 7.5090 -9.8209
# 5 -12.8781 -4.7489 -18.9261 7.5090 21.8135 -3.7121
# 6 29.0098 25.2992 9.9603 -9.8209 -3.7121 28.3914
#
#
#
# Elastic Compliance Matrix: (Units=1/GPa)
#
#
# Indices 1 2 3 4 5 6 
#
# 1 0.007814 -0.000374 -0.001699 0.000580 0.001730 -0.006628
# 2 -0.000374 0.016383 0.008551 0.013522 0.004067 -0.012008
# 3 -0.001699 0.008551 0.039797 0.021533 0.026454 -0.008938
# 4 0.000580 0.013522 0.021533 0.053715 0.003277 -0.001188
# 5 0.001730 0.004067 0.026454 0.003277 0.068801 -0.004543
# 6 -0.006628 -0.012008 -0.008938 -0.001188 -0.004543 0.054825
#
#
# Mechanical properties :
#
#
# Convention : Reuss Voigt Hill
#
# Bulk Modulus (GPa) = 12.99538 47.99460 30.49499
# Shear Modulus (GPa) = 19.68285 33.87167 26.77726
#
# Velocity S-wave (km/s) = 2.87973 3.77769 3.35885
# Velocity P-wave (km/s) = 4.06600 6.26492 5.28117
#
# Compressibility (1/GPa) = 0.07695044
#
# Stress axis : x y z
#
# Youngs Moduli (GPa) = 127.97445 61.03724 25.12777
#
# Poissons Ratio (x) = 0.02283 0.04270
# Poissons Ratio (y) = 0.04787 -0.21488
# Poissons Ratio (z) = 0.21747 -0.52196
#
# Static dielectric constant tensor:
#      x y z
#    x 2.420110 0.417420 1.077210 
#    y 0.417420 2.406610 0.882460 
#    z 1.077210 0.882460 4.051900 
# 
# From -- ./inp_files/35523.got.cif
#   From: 2010.05.17/outbox.cif.g08.bks.cpg/sg2_18_cif.got.tgz:35523.got - 2010.06.03 11:33:40.
