data_PCOD9107766
_publ_section_title
;
Structure prediction by ZEFSAII (Michael W. Deem and Ramdas Pophale) SiO2 
 PCOD9107766
Probable space group: P -1
;
_chemical_formula_sum "Si O2"
_cell_formula_units_Z 14
_cell_length_a 8.892352
_cell_length_b 12.236980
_cell_length_c 9.618766
_cell_angle_alpha 145.133702
_cell_angle_beta 98.368052
_cell_angle_gamma 74.124483
_cell_volume 569.564173
_symmetry_space_group_name_H-M "P -1"
_symmetry_group_IT_number 2
_symmetry_cell_setting 'triclinic'
loop_
_space_group_symop_operation_xyz
x,y,z
-x,-y,-z
loop_
_atom_site_type_symbol
_atom_site_label
_atom_site_fract_x
_atom_site_fract_y
_atom_site_fract_z
Si Si1 0.872549 0.012713 0.615760
Si Si2 0.362370 0.199497 0.403433
Si Si3 0.514799 0.262743 0.775043
Si Si4 0.153969 0.900268 0.001494
Si Si5 0.900031 0.551653 0.221161
Si Si6 0.240276 0.457046 0.101676
Si Si7 0.381737 0.669021 0.574343
O O1 0.692852 0.129155 0.674285
O O2 0.896748 0.781572 0.420973
O O3 0.898019 0.130625 0.881131
O O4 0.000000 0.000000 0.500000
O O5 0.440231 0.185666 0.551778
O O6 0.220981 0.407004 0.622124
O O7 0.505534 0.196965 0.317733
O O8 0.275645 0.035035 0.180279
O O9 0.500000 0.500000 0.000000
O O10 0.393761 0.273211 0.899217
O O11 0.244124 0.737439 0.737345
O O12 0.000000 0.000000 0.000000
O O13 0.084126 0.434953 0.136832
O O14 0.828477 0.479049 0.996458
O O15 0.308738 0.605150 0.357269
O O16 0.500000 0.500000 0.500000
#
# Coordination Sequence:
#
# PCOD9107766 Si02
#       7
#     2   2   2   2   2   2   2
#     4  11  24  42  68 102 132 176 232 283 337 402
#     4  10  23  42  70  95 136 181 227 277 344 394
#     4  11  21  37  71  98 131 170 228 287 340 387
#     4  11  26  47  67  98 142 185 222 274 343 414
#     4   9  21  41  66  97 131 171 225 281 341 397
#     4  10  20  40  65  95 131 173 212 277 337 394
#     4  12  24  41  66  96 136 179 227 273 335 411
#
# _framework density 24.580197999999999
#
# number of rings (size 3 to 8) (size 9 to 14) (size 15 to 20)
#    0.000    1.429    1.429    3.857    2.000    6.286 
#    2.571    1.429    0.000    0.000    0.000    0.000 
#    0.000    0.000    0.000    0.000    0.000    0.000 
#
# Total GULP energy -78187.552995 kJ/mol
# GULP energy per Si atom -5584.825214 kJ/mol
# Density = 2.452425 g / cm^3
# Si number density = 24.580198 Si / 1000 Ang^3
#
#
#
# Elastic Constant Matrix: (Units=GPa)
#
#
# Indices 1 2 3 4 5 6 
#
# 1 152.7091 45.4536 24.6277 1.1758 -33.8679 -23.9876
# 2 45.4536 49.0798 27.9562 1.2231 -12.4617 -10.6114
# 3 24.6277 27.9562 105.2770 -4.7812 -26.4595 -6.7383
# 4 1.1758 1.2231 -4.7812 34.9793 -5.0878 -7.6004
# 5 -33.8679 -12.4617 -26.4595 -5.0878 75.9867 7.7893
# 6 -23.9876 -10.6114 -6.7383 -7.6004 7.7893 47.9970
#
#
#
# Elastic Compliance Matrix: (Units=1/GPa)
#
#
# Indices 1 2 3 4 5 6 
#
# 1 0.010079 -0.008439 0.000934 0.001196 0.003209 0.002971
# 2 -0.008439 0.032233 -0.006822 -0.001531 -0.001147 0.001895
# 3 0.000934 -0.006822 0.012152 0.002501 0.003649 0.000469
# 4 0.001196 -0.001531 0.002501 0.030418 0.002678 0.004993
# 5 0.003209 -0.001147 0.003649 0.002678 0.015882 -0.000291
# 6 0.002971 0.001895 0.000469 0.004993 -0.000291 0.023642
#
#
# Mechanical properties :
#
#
# Convention : Reuss Voigt Hill
#
# Bulk Modulus (GPa) = 38.74362 55.90455 47.32409
# Shear Modulus (GPa) = 30.92873 45.72783 38.32828
#
# Velocity S-wave (km/s) = 3.55107 4.31786 3.95310
# Velocity P-wave (km/s) = 5.71050 6.90302 6.33488
#
# Compressibility (1/GPa) = 0.02581070
#
# Stress axis : x y z
#
# Youngs Moduli (GPa) = 99.21850 31.02452 82.28886
#
# Poissons Ratio (x) = 0.26181 -0.07688
# Poissons Ratio (y) = 0.83729 0.56136
# Poissons Ratio (z) = -0.09269 0.21164
#
# Static dielectric constant tensor:
#      x y z
#    x 2.009930 0.079990 -0.040850 
#    y 0.079990 2.009040 0.056740 
#    z -0.040850 0.056740 1.977090 
# 
# From -- ./inp_files/209440.got.cif
#   From: 2010.05.17/outbox.cif.g08.bks.cpg/sg2_105_cif.got.tgz:209440.got - 2010.06.03 11:33:40.
