data_PCOD9107053
_publ_section_title
;
Structure prediction by ZEFSAII (Michael W. Deem and Ramdas Pophale) SiO2 
 PCOD9107053
Probable space group: P -1
;
_chemical_formula_sum "Si O2"
_cell_formula_units_Z 16
_cell_length_a 8.145886
_cell_length_b 11.296743
_cell_length_c 12.815798
_cell_angle_alpha 69.261513
_cell_angle_beta 39.607492
_cell_angle_gamma 55.661336
_cell_volume 613.521501
_symmetry_space_group_name_H-M "P -1"
_symmetry_group_IT_number 2
_symmetry_cell_setting 'triclinic'
loop_
_space_group_symop_operation_xyz
x,y,z
-x,-y,-z
loop_
_atom_site_type_symbol
_atom_site_label
_atom_site_fract_x
_atom_site_fract_y
_atom_site_fract_z
Si Si1 0.558076 0.607880 0.541336
Si Si2 0.016574 0.356973 0.284609
Si Si3 0.780713 0.938565 0.595305
Si Si4 0.642839 0.774630 0.039074
Si Si5 0.010062 0.908275 0.264651
Si Si6 0.367602 0.246589 0.732077
Si Si7 0.246612 0.662808 0.062436
Si Si8 0.216371 0.800517 0.826125
O O1 0.886088 0.477534 0.401993
O O2 0.288441 0.578325 0.654238
O O3 0.493511 0.729609 0.447029
O O4 0.487188 0.678384 0.666398
O O5 0.127957 0.204448 0.337497
O O6 0.257822 0.317332 0.087463
O O7 0.834926 0.913605 0.452956
O O8 0.466920 0.075790 0.736355
O O9 0.000000 0.000000 0.500000
O O10 0.920152 0.794784 0.933927
O O11 0.317880 0.909611 0.137316
O O12 0.566760 0.711168 0.200122
O O13 0.117708 0.757508 0.199425
O O14 0.830310 0.044884 0.235283
O O15 0.024709 0.347194 0.852135
O O16 0.500000 0.500000 0.000000
O O17 0.291411 0.760911 0.922544
#
# Coordination Sequence:
#
# PCOD9107053 Si02
#       8
#     2   2   2   2   2   2   2   2
#     4  10  20  40  62  94 134 167 211 272 325 386
#     4  10  22  34  61 104 132 163 212 267 335 385
#     4  12  21  40  68 102 132 165 217 275 324 391
#     4  10  22  37  70 101 131 164 217 272 332 386
#     4  12  23  42  70  97 132 176 214 267 330 391
#     4  11  23  44  67  92 135 175 215 273 323 384
#     4  11  29  47  63  93 137 176 225 267 322 391
#     4  10  22  45  68  94 130 169 218 275 327 390
#
# _framework density 26.078956999999999
#
# number of rings (size 3 to 8) (size 9 to 14) (size 15 to 20)
#    0.000    1.250    3.750    1.500    7.000    1.000 
#    2.250    0.625    0.000    0.000    0.000    0.000 
#    0.000    0.000    0.000    0.000    0.000    0.000 
#
# Total GULP energy -89421.078740 kJ/mol
# GULP energy per Si atom -5588.817421 kJ/mol
# Density = 2.601960 g / cm^3
# Si number density = 26.078957 Si / 1000 Ang^3
#
#
#
# Elastic Constant Matrix: (Units=GPa)
#
#
# Indices 1 2 3 4 5 6 
#
# 1 61.8539 30.2600 24.6377 -0.4564 13.6138 -7.0076
# 2 30.2600 142.5586 50.1048 28.3908 19.8942 -17.2633
# 3 24.6377 50.1048 164.9979 21.8429 44.2631 -11.2827
# 4 -0.4564 28.3908 21.8429 43.6778 -5.6137 -1.4198
# 5 13.6138 19.8942 44.2631 -5.6137 48.6183 2.9543
# 6 -7.0076 -17.2633 -11.2827 -1.4198 2.9543 29.7400
#
#
#
# Elastic Compliance Matrix: (Units=1/GPa)
#
#
# Indices 1 2 3 4 5 6 
#
# 1 0.019295 -0.003574 -0.001353 0.002955 -0.002510 0.002349
# 2 -0.003574 0.010495 -0.000213 -0.007127 -0.004242 0.005251
# 3 -0.001353 -0.000213 0.009937 -0.005938 -0.009509 0.003989
# 4 0.002955 -0.007127 -0.005938 0.031832 0.011493 -0.005316
# 5 -0.002510 -0.004242 -0.009509 0.011493 0.033565 -0.009447
# 6 0.002349 0.005251 0.003989 -0.005316 -0.009447 0.039424
#
#
# Mechanical properties :
#
#
# Convention : Reuss Voigt Hill
#
# Bulk Modulus (GPa) = 33.95843 64.37951 49.16897
# Shear Modulus (GPa) = 30.36852 42.03441 36.20147
#
# Velocity S-wave (km/s) = 3.41616 4.01910 3.72983
# Velocity P-wave (km/s) = 5.34881 6.80276 6.11912
#
# Compressibility (1/GPa) = 0.02944777
#
# Stress axis : x y z
#
# Youngs Moduli (GPa) = 51.82732 95.28063 100.63348
#
# Poissons Ratio (x) = 0.34051 0.13616
# Poissons Ratio (y) = 0.18522 0.02142
# Poissons Ratio (z) = 0.07013 0.02028
#
# Static dielectric constant tensor:
#      x y z
#    x 2.143700 0.045790 -0.087180 
#    y 0.045790 2.055750 -0.046110 
#    z -0.087180 -0.046110 2.112790 
# 
# From -- ./inp_files/329086.got.cif
#   From: 2010.05.17/outbox.cif.g08.bks.cpg/sg2_165_cif.got.tgz:329086.got - 2010.06.03 11:33:40.
