data_PCOD9107955
_publ_section_title
;
Structure prediction by ZEFSAII (Michael W. Deem and Ramdas Pophale) SiO2 
 PCOD9107955
Probable space group: P -1
;
_chemical_formula_sum "Si O2"
_cell_formula_units_Z 16
_cell_length_a 10.793586
_cell_length_b 12.365363
_cell_length_c 8.304159
_cell_angle_alpha 33.409392
_cell_angle_beta 101.436527
_cell_angle_gamma 89.309653
_cell_volume 564.845304
_symmetry_space_group_name_H-M "P -1"
_symmetry_group_IT_number 2
_symmetry_cell_setting 'triclinic'
loop_
_space_group_symop_operation_xyz
x,y,z
-x,-y,-z
loop_
_atom_site_type_symbol
_atom_site_label
_atom_site_fract_x
_atom_site_fract_y
_atom_site_fract_z
Si Si1 0.679580 0.726296 0.046377
Si Si2 0.327632 0.554578 0.060397
Si Si3 0.130570 0.019330 0.762654
Si Si4 0.596662 0.315925 0.511939
Si Si5 0.146221 0.536029 0.318321
Si Si6 0.881542 0.788557 0.817809
Si Si7 0.854387 0.156612 0.600484
Si Si8 0.413627 0.864625 0.932608
O O1 0.632079 0.526646 0.274288
O O2 0.800775 0.637277 0.316115
O O3 0.736121 0.771447 0.835348
O O4 0.547094 0.903648 0.856250
O O5 0.230050 0.646777 0.772844
O O6 0.360907 0.746240 0.923325
O O7 0.469453 0.378675 0.282800
O O8 0.244883 0.477750 0.265942
O O9 0.280776 0.029019 0.769871
O O10 0.078763 0.135264 0.434524
O O11 0.148907 0.769960 0.076766
O O12 0.007857 0.135910 0.705884
O O13 0.739929 0.150695 0.705106
O O14 0.542343 0.274464 0.721909
O O15 0.997193 0.581255 0.159247
O O16 0.877371 0.964241 0.727654
#
# Coordination Sequence:
#
# PCOD9107955 Si02
#       8
#     2   2   2   2   2   2   2   2
#     4  11  21  36  58  85 111 145 188 233 271 328
#     4  10  16  35  62  77 103 149 199 215 258 332
#     4  10  19  35  59  78 109 151 191 215 269 337
#     4  11  21  35  58  87 110 145 187 232 274 327
#     4  10  16  35  62  77 103 149 199 215 258 332
#     4  11  21  35  58  87 110 145 187 232 274 327
#     4  11  21  36  58  85 111 145 188 233 271 328
#     4  10  19  35  59  78 109 151 191 215 269 337
#
# _framework density 28.326343000000001
#
# number of rings (size 3 to 8) (size 9 to 14) (size 15 to 20)
#    0.000    1.500    7.500    2.250    0.000    1.000 
#    0.000    1.250    0.000    0.000    0.000    0.000 
#    0.000    0.000    0.000    0.000    0.000    0.000 
#
# Total GULP energy -89425.711243 kJ/mol
# GULP energy per Si atom -5589.106953 kJ/mol
# Density = 2.826187 g / cm^3
# Si number density = 28.326343 Si / 1000 Ang^3
#
#
#
# Elastic Constant Matrix: (Units=GPa)
#
#
# Indices 1 2 3 4 5 6 
#
# 1 179.2807 41.0970 50.1877 -8.9964 21.0912 -63.8760
# 2 41.0970 74.8814 46.8798 -11.1091 -3.4804 -26.8506
# 3 50.1877 46.8798 92.2755 -3.4763 2.1083 -16.0779
# 4 -8.9964 -11.1091 -3.4763 47.9326 -16.9379 -8.6768
# 5 21.0912 -3.4804 2.1083 -16.9379 53.7839 -7.6264
# 6 -63.8760 -26.8506 -16.0779 -8.6768 -7.6264 51.6130
#
#
#
# Elastic Compliance Matrix: (Units=1/GPa)
#
#
# Indices 1 2 3 4 5 6 
#
# 1 0.012463 0.003081 -0.005302 0.005440 -0.000467 0.016221
# 2 0.003081 0.027865 -0.012504 0.011877 0.007306 0.017490
# 3 -0.005302 -0.012504 0.018468 -0.004855 -0.002181 -0.008452
# 4 0.005440 0.011877 -0.004855 0.031644 0.011401 0.018404
# 5 -0.000467 0.007306 -0.002181 0.011401 0.024061 0.008015
# 6 0.016221 0.017490 -0.008452 0.018404 0.008015 0.050194
#
#
# Mechanical properties :
#
#
# Convention : Reuss Voigt Hill
#
# Bulk Modulus (GPa) = 34.07678 69.19630 51.63654
# Shear Modulus (GPa) = 24.51839 44.55077 34.53458
#
# Velocity S-wave (km/s) = 2.94525 3.97012 3.49545
# Velocity P-wave (km/s) = 4.86026 6.74515 5.87874
#
# Compressibility (1/GPa) = 0.02934550
#
# Stress axis : x y z
#
# Youngs Moduli (GPa) = 80.23669 35.88714 54.14839
#
# Poissons Ratio (x) = -0.11057 0.28709
# Poissons Ratio (y) = -0.24722 0.67709
# Poissons Ratio (z) = 0.42541 0.44875
#
# Static dielectric constant tensor:
#      x y z
#    x 2.367480 0.046500 0.082390 
#    y 0.046500 2.269480 0.006230 
#    z 0.082390 0.006230 2.211060 
# 
# From -- ./inp_files/262291.got.cif
#   From: 2010.05.17/outbox.cif.g08.bks.cpg/sg2_132_cif.got.tgz:262291.got - 2010.06.03 11:33:40.
