data_PCOD9107122
_publ_section_title
;
Structure prediction by ZEFSAII (Michael W. Deem and Ramdas Pophale) SiO2 
 PCOD9107122
Probable space group: P -1
;
_chemical_formula_sum "Si O2"
_cell_formula_units_Z 14
_cell_length_a 20.582548
_cell_length_b 8.044163
_cell_length_c 16.478476
_cell_angle_alpha 55.711903
_cell_angle_beta 20.413190
_cell_angle_gamma 70.769538
_cell_volume 569.685743
_symmetry_space_group_name_H-M "P -1"
_symmetry_group_IT_number 2
_symmetry_cell_setting 'triclinic'
loop_
_space_group_symop_operation_xyz
x,y,z
-x,-y,-z
loop_
_atom_site_type_symbol
_atom_site_label
_atom_site_fract_x
_atom_site_fract_y
_atom_site_fract_z
Si Si1 0.209987 0.192841 0.402140
Si Si2 0.086120 0.145102 0.733319
Si Si3 0.405185 0.907885 0.246896
Si Si4 0.671604 0.565649 0.205005
Si Si5 0.086485 0.570425 0.144053
Si Si6 0.000941 0.781917 0.516619
Si Si7 0.240254 0.422447 0.651073
O O1 0.259628 0.293216 0.409624
O O2 0.147389 0.301256 0.372906
O O3 0.392067 0.136776 0.191910
O O4 0.935778 0.878612 0.818024
O O5 0.873408 0.162840 0.964722
O O6 0.203997 0.303123 0.636844
O O7 0.966835 0.838022 0.976471
O O8 0.253246 0.672937 0.560995
O O9 0.217292 0.698053 0.449679
O O10 0.698711 0.060490 0.877147
O O11 0.500000 0.500000 0.500000
O O12 0.514721 0.546528 0.321485
O O13 0.748752 0.399778 0.131044
O O14 0.135614 0.481550 0.192420
O O15 0.000000 0.000000 0.500000
#
# Coordination Sequence:
#
# PCOD9107122 Si02
#       7
#     2   2   2   2   2   2   2
#     4  11  23  40  65 100 129 163 222 272 304 382
#     4  10  23  42  56  95 138 170 206 262 335 385
#     4  10  21  39  66  98 118 173 218 262 315 370
#     4  11  20  40  65  97 123 167 224 269 301 383
#     4  10  23  40  64  93 133 172 207 263 331 380
#     4  12  21  40  70  94 124 170 222 267 311 373
#     4  10  20  40  63  86 135 171 206 260 329 376
#
# _framework density 24.574954000000002
#
# number of rings (size 3 to 8) (size 9 to 14) (size 15 to 20)
#    0.000    1.429    5.714    0.429    0.000    1.714 
#    7.714    0.714    0.000    0.000    0.000    0.000 
#    0.000    0.000    0.000    0.000    0.000    0.000 
#
# Total GULP energy -78068.205026 kJ/mol
# GULP energy per Si atom -5576.300359 kJ/mol
# Density = 2.451902 g / cm^3
# Si number density = 24.574954 Si / 1000 Ang^3
#
#
#
# Elastic Constant Matrix: (Units=GPa)
#
#
# Indices 1 2 3 4 5 6 
#
# 1 152.8082 48.0429 44.2705 9.8549 8.1675 -31.6922
# 2 48.0429 94.1445 46.6406 7.0475 22.2758 -31.5556
# 3 44.2705 46.6406 91.1717 15.0850 -7.8505 -14.0350
# 4 9.8549 7.0475 15.0850 40.7858 -5.5686 -0.5686
# 5 8.1675 22.2758 -7.8505 -5.5686 32.5125 3.6773
# 6 -31.6922 -31.5556 -14.0350 -0.5686 3.6773 36.4521
#
#
#
# Elastic Compliance Matrix: (Units=1/GPa)
#
#
# Indices 1 2 3 4 5 6 
#
# 1 0.009484 0.001777 -0.004419 -0.001653 -0.005929 0.008655
# 2 0.001777 0.036593 -0.017117 -0.004623 -0.033833 0.029973
# 3 -0.004419 -0.017117 0.021920 -0.001626 0.019230 -0.012185
# 4 -0.001653 -0.004623 -0.001626 0.027404 0.008620 -0.006507
# 5 -0.005929 -0.033833 0.019230 0.008620 0.065335 -0.033495
# 6 0.008655 0.029973 -0.012185 -0.006507 -0.033495 0.059491
#
#
# Mechanical properties :
#
#
# Convention : Reuss Voigt Hill
#
# Bulk Modulus (GPa) = 35.11375 68.44806 51.78090
# Shear Modulus (GPa) = 18.57096 35.22812 26.89954
#
# Velocity S-wave (km/s) = 2.75196 3.79026 3.31205
# Velocity P-wave (km/s) = 4.94137 6.86061 5.97851
#
# Compressibility (1/GPa) = 0.02847887
#
# Stress axis : x y z
#
# Youngs Moduli (GPa) = 105.43764 27.32778 45.62118
#
# Poissons Ratio (x) = -0.04856 0.20160
# Poissons Ratio (y) = -0.18737 0.78089
# Poissons Ratio (z) = 0.46593 0.46777
#
# Static dielectric constant tensor:
#      x y z
#    x 2.020580 0.015960 0.012140 
#    y 0.015960 1.962650 -0.040820 
#    z 0.012140 -0.040820 2.040160 
# 
# From -- ./inp_files/576989.got.cif
#   From: 2010.05.17/outbox.cif.g08.bks.cpg/sg2_289_cif.got.tgz:576989.got - 2010.06.03 11:33:40.
