data_PCOD9107872
_publ_section_title
;
Structure prediction by ZEFSAII (Michael W. Deem and Ramdas Pophale) SiO2 
 PCOD9107872
Probable space group: P -1
;
_chemical_formula_sum "Si O2"
_cell_formula_units_Z 16
_cell_length_a 11.851401
_cell_length_b 9.098849
_cell_length_c 13.668668
_cell_angle_alpha 88.888671
_cell_angle_beta 30.479130
_cell_angle_gamma 101.519819
_cell_volume 675.997034
_symmetry_space_group_name_H-M "P -1"
_symmetry_group_IT_number 2
_symmetry_cell_setting 'triclinic'
loop_
_space_group_symop_operation_xyz
x,y,z
-x,-y,-z
loop_
_atom_site_type_symbol
_atom_site_label
_atom_site_fract_x
_atom_site_fract_y
_atom_site_fract_z
Si Si1 0.147618 0.746173 0.567627
Si Si2 0.651271 0.961496 0.474006
Si Si3 0.748115 0.143730 0.730547
Si Si4 0.727620 0.465518 0.800541
Si Si5 0.511348 0.405138 0.631748
Si Si6 0.732861 0.673926 0.620343
Si Si7 0.839648 0.696880 0.260911
Si Si8 0.412570 0.853226 0.870760
O O1 0.147779 0.820915 0.460165
O O2 0.399018 0.726114 0.394378
O O3 0.937682 0.563717 0.720272
O O4 0.128267 0.864241 0.663346
O O5 0.732335 0.821103 0.382630
O O6 0.508176 0.911119 0.686471
O O7 0.500000 0.000000 0.500000
O O8 0.677897 0.282824 0.821777
O O9 0.000297 0.175220 0.600875
O O10 0.500805 0.985943 0.890586
O O11 0.798274 0.554507 0.641403
O O12 0.500000 0.500000 0.000000
O O13 0.570857 0.551382 0.660181
O O14 0.699475 0.510031 0.404453
O O15 0.237905 0.319765 0.794928
O O16 0.554168 0.744870 0.796203
O O17 0.121711 0.764656 0.078170
#
# Coordination Sequence:
#
# PCOD9107872 Si02
#       8
#     2   2   2   2   2   2   2   2
#     4  10  20  40  66  87 126 172 206 261 328 373
#     4  11  23  44  66  92 131 170 212 267 327 377
#     4  10  21  42  66  91 128 168 211 266 324 381
#     4  11  23  37  62 103 123 163 222 265 316 386
#     4  11  21  44  69  90 132 173 213 267 321 376
#     4  11  21  43  67  90 130 174 213 263 327 381
#     4  11  26  43  65  99 129 170 222 263 317 388
#     4  11  26  43  65  99 130 173 215 263 327 386
#
# _framework density 23.668744
#
# number of rings (size 3 to 8) (size 9 to 14) (size 15 to 20)
#    0.000    1.250    5.000    1.125    3.500    1.000 
#    2.250    1.250    0.000    0.000    0.000    0.000 
#    0.000    0.000    0.000    0.000    0.000    0.000 
#
# Total GULP energy -89259.234061 kJ/mol
# GULP energy per Si atom -5578.702129 kJ/mol
# Density = 2.361487 g / cm^3
# Si number density = 23.668744 Si / 1000 Ang^3
#
#
#
# Elastic Constant Matrix: (Units=GPa)
#
#
# Indices 1 2 3 4 5 6 
#
# 1 102.7498 50.3386 24.6869 -6.6606 -23.2262 20.7912
# 2 50.3386 106.5504 24.3555 -6.3523 -27.8552 19.9829
# 3 24.6869 24.3555 72.7643 -3.4953 -33.6214 8.9758
# 4 -6.6606 -6.3523 -3.4953 29.1866 3.6261 -9.8990
# 5 -23.2262 -27.8552 -33.6214 3.6261 42.5104 -8.2360
# 6 20.7912 19.9829 8.9758 -9.8990 -8.2360 50.9139
#
#
#
# Elastic Compliance Matrix: (Units=1/GPa)
#
#
# Indices 1 2 3 4 5 6 
#
# 1 0.013667 -0.004895 -0.001462 0.000591 0.002495 -0.002884
# 2 -0.004895 0.013676 0.000112 0.000337 0.005888 -0.002371
# 3 -0.001462 0.000112 0.021886 0.000053 0.016458 -0.000633
# 4 0.000591 0.000337 0.000053 0.036867 -0.001285 0.006577
# 5 0.002495 0.005888 0.016458 -0.001285 0.041929 0.000302
# 6 -0.002884 -0.002371 -0.000633 0.006577 0.000302 0.023188
#
#
# Mechanical properties :
#
#
# Convention : Reuss Voigt Hill
#
# Bulk Modulus (GPa) = 27.21740 53.42517 40.32128
# Shear Modulus (GPa) = 28.41727 36.70108 32.55918
#
# Velocity S-wave (km/s) = 3.46876 3.94206 3.71296
# Velocity P-wave (km/s) = 5.25046 6.58337 5.95433
#
# Compressibility (1/GPa) = 0.03674120
#
# Stress axis : x y z
#
# Youngs Moduli (GPa) = 73.16725 73.12165 45.69056
#
# Poissons Ratio (x) = 0.35789 0.06679
# Poissons Ratio (y) = 0.35812 -0.00512
# Poissons Ratio (z) = 0.10695 -0.00819
#
# Static dielectric constant tensor:
#      x y z
#    x 2.027740 -0.011390 0.089160 
#    y -0.011390 1.933590 -0.105760 
#    z 0.089160 -0.105760 2.004810 
# 
# From -- ./inp_files/218036.got.cif
#   From: 2010.05.17/outbox.cif.g08.bks.cpg/sg2_110_cif.got.tgz:218036.got - 2010.06.03 11:33:40.
