data_PCOD9107285
_publ_section_title
;
Structure prediction by ZEFSAII (Michael W. Deem and Ramdas Pophale) SiO2 
 PCOD9107285
Probable space group: P -1
;
_chemical_formula_sum "Si O2"
_cell_formula_units_Z 14
_cell_length_a 9.637519
_cell_length_b 10.035741
_cell_length_c 15.730952
_cell_angle_alpha 42.285540
_cell_angle_beta 134.256994
_cell_angle_gamma 111.659908
_cell_volume 698.149386
_symmetry_space_group_name_H-M "P -1"
_symmetry_group_IT_number 2
_symmetry_cell_setting 'triclinic'
loop_
_space_group_symop_operation_xyz
x,y,z
-x,-y,-z
loop_
_atom_site_type_symbol
_atom_site_label
_atom_site_fract_x
_atom_site_fract_y
_atom_site_fract_z
Si Si1 0.685730 0.996241 0.015339
Si Si2 0.577230 0.915803 0.816982
Si Si3 0.964531 0.276591 0.592890
Si Si4 0.808189 0.488184 0.045639
Si Si5 0.893663 0.326244 0.983247
Si Si6 0.137336 0.976829 0.650649
Si Si7 0.683809 0.030368 0.624789
O O1 0.886941 0.834931 0.215361
O O2 0.738455 0.211652 0.938527
O O3 0.666109 0.939360 0.936135
O O4 0.500000 0.000000 0.000000
O O5 0.341915 0.007268 0.690376
O O6 0.630239 0.024252 0.704456
O O7 0.641649 0.671720 0.934670
O O8 0.745842 0.237746 0.531399
O O9 0.000000 0.500000 0.500000
O O10 0.046186 0.144010 0.605404
O O11 0.779048 0.480727 0.935232
O O12 0.821454 0.259382 0.188562
O O13 0.014664 0.556267 0.104094
O O14 0.094901 0.156405 0.193332
O O15 0.000000 0.000000 0.500000
O O16 0.500000 0.000000 0.500000
#
# Coordination Sequence:
#
# PCOD9107285 Si02
#       7
#     2   2   2   2   2   2   2
#     4  11  21  44  65  90 136 171 216 273 324 397
#     4  11  24  39  70 102 121 173 227 268 330 390
#     4  11  25  46  65  93 135 183 211 267 343 388
#     4  10  20  40  63  98 121 164 220 267 322 384
#     4   9  20  39  67  91 127 169 214 271 331 377
#     4  12  24  43  62  93 136 168 217 274 324 392
#     4  10  21  44  67  97 135 172 221 275 327 391
#
# _framework density 20.053016
#
# number of rings (size 3 to 8) (size 9 to 14) (size 15 to 20)
#    0.000    1.429    4.286    1.286    2.000    5.143 
#   12.857    0.714    0.000    0.000    0.000    0.000 
#    0.000    0.000    0.000    0.000    0.000    0.000 
#
# Total GULP energy -77985.793352 kJ/mol
# GULP energy per Si atom -5570.413811 kJ/mol
# Density = 2.000737 g / cm^3
# Si number density = 20.053016 Si / 1000 Ang^3
#
#
#
# Elastic Constant Matrix: (Units=GPa)
#
#
# Indices 1 2 3 4 5 6 
#
# 1 124.5551 54.9488 24.2920 7.8229 -11.0114 -9.8386
# 2 54.9488 129.3494 44.3982 4.5044 -5.3688 -5.9629
# 3 24.2920 44.3982 40.8197 21.8600 -1.4584 -12.0161
# 4 7.8229 4.5044 21.8600 44.7772 7.1107 -9.3938
# 5 -11.0114 -5.3688 -1.4584 7.1107 10.9512 8.3676
# 6 -9.8386 -5.9629 -12.0161 -9.3938 8.3676 36.7719
#
#
#
# Elastic Compliance Matrix: (Units=1/GPa)
#
#
# Indices 1 2 3 4 5 6 
#
# 1 0.011109 -0.004081 -0.000127 -0.003872 0.012939 -0.001664
# 2 -0.004081 0.016013 -0.020727 0.009333 -0.003473 -0.002094
# 3 -0.000127 -0.020727 0.066196 -0.030644 0.012675 0.007524
# 4 -0.003872 0.009333 -0.030644 0.046320 -0.042644 0.012001
# 5 0.012939 -0.003473 0.012675 -0.042644 0.163343 -0.041023
# 6 -0.001664 -0.002094 0.007524 0.012001 -0.041023 0.041269
#
#
# Mechanical properties :
#
#
# Convention : Reuss Voigt Hill
#
# Bulk Modulus (GPa) = 23.01556 60.22245 41.61901
# Shear Modulus (GPa) = 12.23686 29.90575 21.07131
#
# Velocity S-wave (km/s) = 2.47295 3.86597 3.24509
# Velocity P-wave (km/s) = 4.43354 7.07280 5.90257
#
# Compressibility (1/GPa) = 0.04344887
#
# Stress axis : x y z
#
# Youngs Moduli (GPa) = 90.01645 62.44819 15.10674
#
# Poissons Ratio (x) = 0.25483 0.00191
# Poissons Ratio (y) = 0.36732 0.31312
# Poissons Ratio (z) = 0.01140 1.29438
#
# Static dielectric constant tensor:
#      x y z
#    x 1.764770 0.037040 -0.026160 
#    y 0.037040 1.764990 -0.019020 
#    z -0.026160 -0.019020 1.758500 
# 
# From -- ./inp_files/243548.got.cif
#   From: 2010.05.17/outbox.cif.g08.bks.cpg/sg2_122_cif.got.tgz:243548.got - 2010.06.03 11:33:40.
