data_PCOD9107835
_publ_section_title
;
Structure prediction by ZEFSAII (Michael W. Deem and Ramdas Pophale) SiO2 
 PCOD9107835
Probable space group: P -1
;
_chemical_formula_sum "Si O2"
_cell_formula_units_Z 15
_cell_length_a 8.748381
_cell_length_b 13.617231
_cell_length_c 5.742754
_cell_angle_alpha 74.600918
_cell_angle_beta 105.843963
_cell_angle_gamma 79.986202
_cell_volume 611.710679
_symmetry_space_group_name_H-M "P -1"
_symmetry_group_IT_number 2
_symmetry_cell_setting 'triclinic'
loop_
_space_group_symop_operation_xyz
x,y,z
-x,-y,-z
loop_
_atom_site_type_symbol
_atom_site_label
_atom_site_fract_x
_atom_site_fract_y
_atom_site_fract_z
Si Si1 0.146158 0.193145 0.538856
Si Si2 0.243419 0.881426 0.089833
Si Si3 0.000000 0.000000 0.500000
Si Si4 0.519707 0.238652 0.099958
Si Si5 0.198120 0.710715 0.505685
Si Si6 0.372527 0.065763 0.094360
Si Si7 0.788424 0.647877 0.864536
Si Si8 0.892410 0.458575 0.676179
O O1 0.246333 0.248622 0.375889
O O2 0.101345 0.091427 0.482490
O O3 0.972996 0.280064 0.442519
O O4 0.240311 0.156481 0.842094
O O5 0.402722 0.796768 0.099783
O O6 0.157556 0.815044 0.261610
O O7 0.128631 0.934317 0.796418
O O8 0.284727 0.976822 0.192738
O O9 0.658594 0.273388 0.280690
O O10 0.478939 0.129770 0.239206
O O11 0.353799 0.331117 0.013077
O O12 0.231049 0.602319 0.447967
O O13 0.500000 0.000000 0.000000
O O14 0.802474 0.549093 0.761094
O O15 0.966265 0.626460 0.071645
O O16 0.000000 0.500000 0.500000
#
# Coordination Sequence:
#
# PCOD9107835 Si02
#       8
#     2   2   1   2   2   2   2   2
#     4  11  22  42  68 101 135 182 229 271 340 408
#     4  10  23  43  65 100 145 177 233 273 338 397
#     4  10  20  40  66 102 134 178 230 282 320 404
#     4  11  25  43  66 104 139 176 226 281 340 403
#     4  12  25  42  73  99 135 179 226 295 336 401
#     4   9  22  42  65  98 143 190 223 270 329 415
#     4  11  26  45  74  99 134 182 224 287 347 415
#     4  11  25  48  75 100 130 176 236 283 350 418
#
# _framework density 24.521398000000001
#
# number of rings (size 3 to 8) (size 9 to 14) (size 15 to 20)
#    0.000    1.333    2.667    1.600    3.733    4.267 
#    0.000    1.333    0.000    0.000    0.000    0.000 
#    0.000    0.000    0.000    0.000    0.000    0.000 
#
# Total GULP energy -83637.656032 kJ/mol
# GULP energy per Si atom -5575.843735 kJ/mol
# Density = 2.446559 g / cm^3
# Si number density = 24.521398 Si / 1000 Ang^3
#
#
#
# Elastic Constant Matrix: (Units=GPa)
#
#
# Indices 1 2 3 4 5 6 
#
# 1 78.5904 29.6198 12.0746 20.1649 8.2320 -11.2613
# 2 29.6198 98.7340 8.8441 27.3406 4.8564 22.8002
# 3 12.0746 8.8441 52.7011 -2.7397 5.0038 5.1398
# 4 20.1649 27.3406 -2.7397 36.7649 5.8109 0.9388
# 5 8.2320 4.8564 5.0038 5.8109 28.3162 12.8966
# 6 -11.2613 22.8002 5.1398 0.9388 12.8966 52.0210
#
#
#
# Elastic Compliance Matrix: (Units=1/GPa)
#
#
# Indices 1 2 3 4 5 6 
#
# 1 0.018703 -0.005290 -0.003907 -0.005803 -0.006507 0.008471
# 2 -0.005290 0.016588 -0.001693 -0.010167 0.005356 -0.009392
# 3 -0.003907 -0.001693 0.020843 0.005413 -0.002635 -0.001608
# 4 -0.005803 -0.010167 0.005413 0.039409 -0.007331 0.003771
# 5 -0.006507 0.005356 -0.002635 -0.007331 0.044855 -0.014484
# 6 0.008471 -0.009392 -0.001608 0.003771 -0.014484 0.028855
#
#
# Mechanical properties :
#
#
# Convention : Reuss Voigt Hill
#
# Bulk Modulus (GPa) = 29.10963 36.78917 32.94940
# Shear Modulus (GPa) = 24.69341 35.38622 30.03982
#
# Velocity S-wave (km/s) = 3.17679 3.80290 3.50386
# Velocity P-wave (km/s) = 5.03517 5.85818 5.46219
#
# Compressibility (1/GPa) = 0.03435289
#
# Stress axis : x y z
#
# Youngs Moduli (GPa) = 53.46853 60.28573 47.97860
#
# Poissons Ratio (x) = 0.31890 0.18747
# Poissons Ratio (y) = 0.28284 0.08122
# Poissons Ratio (z) = 0.20892 0.10205
#
# Static dielectric constant tensor:
#      x y z
#    x 1.963140 -0.035100 -0.035390 
#    y -0.035100 1.960360 0.046120 
#    z -0.035390 0.046120 1.984740 
# 
# From -- ./inp_files/37585.got.cif
#   From: 2010.05.17/outbox.cif.g08.bks.cpg/sg2_19_cif.got.tgz:37585.got - 2010.06.03 11:33:40.
