data_PCOD9107190
_publ_section_title
;
Structure prediction by ZEFSAII (Michael W. Deem and Ramdas Pophale) SiO2 
 PCOD9107190
Probable space group: P -1
;
_chemical_formula_sum "Si O2"
_cell_formula_units_Z 12
_cell_length_a 7.080598
_cell_length_b 5.110615
_cell_length_c 15.143442
_cell_angle_alpha 108.063435
_cell_angle_beta 64.957992
_cell_angle_gamma 99.303158
_cell_volume 471.708540
_symmetry_space_group_name_H-M "P -1"
_symmetry_group_IT_number 2
_symmetry_cell_setting 'triclinic'
loop_
_space_group_symop_operation_xyz
x,y,z
-x,-y,-z
loop_
_atom_site_type_symbol
_atom_site_label
_atom_site_fract_x
_atom_site_fract_y
_atom_site_fract_z
Si Si1 0.358919 0.752952 0.081507
Si Si2 0.317804 0.536993 0.466460
Si Si3 0.140614 0.746855 0.954499
Si Si4 0.047806 0.526799 0.773676
Si Si5 0.755807 0.824514 0.719623
Si Si6 0.121070 0.119871 0.584386
O O1 0.148258 0.614832 0.151542
O O2 0.397959 0.993511 0.171617
O O3 0.500000 0.500000 0.000000
O O4 0.304043 0.856026 0.005993
O O5 0.500000 0.500000 0.500000
O O6 0.342592 0.410373 0.350144
O O7 0.134952 0.340607 0.526314
O O8 0.256146 0.854744 0.513506
O O9 0.187910 0.667393 0.836573
O O10 0.000000 0.500000 0.000000
O O11 0.000000 0.000000 0.000000
O O12 0.931660 0.710484 0.741709
O O13 0.185554 0.300457 0.675736
O O14 0.887513 0.025442 0.648398
#
# Coordination Sequence:
#
# PCOD9107190 Si02
#       6
#     2   2   2   2   2   2
#     4  10  23  41  65 102 138 177 227 289 347 394
#     4  12  27  44  67 102 142 172 219 289 351 396
#     4  10  20  40  63  90 130 172 219 274 325 399
#     4  10  22  41  70  97 130 180 233 271 335 413
#     4  11  23  43  72  96 135 183 235 271 337 419
#     4  11  24  45  71  99 131 182 227 273 335 421
#
# _framework density 25.439437999999999
#
# number of rings (size 3 to 8) (size 9 to 14) (size 15 to 20)
#    0.000    1.333    3.333    1.500    4.667    2.000 
#    3.000    0.000    0.000    0.000    0.000    0.000 
#    0.000    0.000    0.000    0.000    0.000    0.000 
#
# Total GULP energy -66989.027415 kJ/mol
# GULP energy per Si atom -5582.418951 kJ/mol
# Density = 2.538154 g / cm^3
# Si number density = 25.439438 Si / 1000 Ang^3
#
#
#
# Elastic Constant Matrix: (Units=GPa)
#
#
# Indices 1 2 3 4 5 6 
#
# 1 95.0958 30.6424 73.9873 13.5954 29.4872 -7.0107
# 2 30.6424 129.9233 65.6011 19.0028 2.4901 -17.8424
# 3 73.9873 65.6011 280.8692 58.4245 38.9534 -8.9532
# 4 13.5954 19.0028 58.4245 61.9695 7.1378 -9.7826
# 5 29.4872 2.4901 38.9534 7.1378 51.7182 -2.9563
# 6 -7.0107 -17.8424 -8.9532 -9.7826 -2.9563 42.4908
#
#
#
# Elastic Compliance Matrix: (Units=1/GPa)
#
#
# Indices 1 2 3 4 5 6 
#
# 1 0.015349 -0.002100 -0.002770 0.000775 -0.006626 0.000784
# 2 -0.002100 0.009591 -0.001796 -0.000530 0.002353 0.003344
# 3 -0.002770 -0.001796 0.005879 -0.004303 -0.002232 -0.001119
# 4 0.000775 -0.000530 -0.004303 0.020765 0.000176 0.003792
# 5 -0.006626 0.002353 -0.002232 0.000176 0.024725 0.001185
# 6 0.000784 0.003344 -0.001119 0.003792 0.001185 0.025788
#
#
# Mechanical properties :
#
#
# Convention : Reuss Voigt Hill
#
# Bulk Modulus (GPa) = 57.19013 94.03889 75.61451
# Shear Modulus (GPa) = 41.23451 53.61287 47.42369
#
# Velocity S-wave (km/s) = 4.03039 4.59570 4.32230
# Velocity P-wave (km/s) = 6.64744 8.07506 7.39578
#
# Compressibility (1/GPa) = 0.01748554
#
# Stress axis : x y z
#
# Youngs Moduli (GPa) = 65.14982 104.26646 170.10592
#
# Poissons Ratio (x) = 0.21897 0.47122
# Poissons Ratio (y) = 0.13682 0.30558
# Poissons Ratio (z) = 0.18047 0.18730
#
# Static dielectric constant tensor:
#      x y z
#    x 2.075090 0.040110 0.050320 
#    y 0.040110 2.025010 0.002430 
#    z 0.050320 0.002430 2.068670 
# 
# From -- ./inp_files/19696.got.cif
#   From: 2010.05.17/outbox.cif.g08.bks.cpg/sg2_10_cif.got.tgz:19696.got - 2010.06.03 11:33:40.
