data_PCOD9107500
_publ_section_title
;
Structure prediction by ZEFSAII (Michael W. Deem and Ramdas Pophale) SiO2 
 PCOD9107500
Probable space group: P -1
;
_chemical_formula_sum "Si O2"
_cell_formula_units_Z 16
_cell_length_a 10.367144
_cell_length_b 8.562660
_cell_length_c 12.700379
_cell_angle_alpha 110.691455
_cell_angle_beta 58.770099
_cell_angle_gamma 68.084657
_cell_volume 647.930567
_symmetry_space_group_name_H-M "P -1"
_symmetry_group_IT_number 2
_symmetry_cell_setting 'triclinic'
loop_
_space_group_symop_operation_xyz
x,y,z
-x,-y,-z
loop_
_atom_site_type_symbol
_atom_site_label
_atom_site_fract_x
_atom_site_fract_y
_atom_site_fract_z
Si Si1 0.739944 0.381528 0.880234
Si Si2 0.145254 0.554790 0.592188
Si Si3 0.258275 0.059395 0.022775
Si Si4 0.688469 0.579541 0.737483
Si Si5 0.310748 0.638802 0.877273
Si Si6 0.608785 0.709832 0.378427
Si Si7 0.188046 0.224168 0.860683
Si Si8 0.839130 0.072414 0.334329
O O1 0.787018 0.463729 0.781518
O O2 0.943130 0.103546 0.733581
O O3 0.500000 0.500000 0.000000
O O4 0.725702 0.445390 0.023279
O O5 0.180659 0.483522 0.437759
O O6 0.294600 0.338671 0.557766
O O7 0.209750 0.698878 0.612763
O O8 0.905367 0.736635 0.777513
O O9 0.254628 0.156427 0.936804
O O10 0.500821 0.853508 0.901638
O O11 0.199068 0.906334 0.994670
O O12 0.552906 0.516667 0.749677
O O13 0.269611 0.550710 0.776850
O O14 0.654968 0.820768 0.303399
O O15 0.366948 0.845445 0.505242
O O16 0.140275 0.071418 0.806893
O O17 0.000000 0.500000 0.000000
#
# Coordination Sequence:
#
# PCOD9107500 Si02
#       8
#     2   2   2   2   2   2   2   2
#     4  10  20  40  64  95 125 163 209 270 314 367
#     4  12  21  38  66  95 132 160 211 263 323 378
#     4  10  21  40  63  92 125 171 203 262 323 365
#     4   9  21  39  61  97 122 159 212 268 308 371
#     4   9  19  39  63  92 125 160 210 259 311 372
#     4  12  24  39  62  99 130 169 205 257 322 387
#     4  12  25  40  61  89 135 173 206 252 319 393
#     4  12  23  39  62  98 127 164 207 268 320 369
#
# _framework density 24.694002999999999
#
# number of rings (size 3 to 8) (size 9 to 14) (size 15 to 20)
#    0.750    0.500    3.750    3.000    0.000    1.500 
#    2.250    0.000    0.000    6.000    0.000    0.000 
#    0.000    0.000    0.000    0.000    0.000    0.000 
#
# Total GULP energy -89274.865219 kJ/mol
# GULP energy per Si atom -5579.679076 kJ/mol
# Density = 2.463780 g / cm^3
# Si number density = 24.694003 Si / 1000 Ang^3
#
#
#
# Elastic Constant Matrix: (Units=GPa)
#
#
# Indices 1 2 3 4 5 6 
#
# 1 54.0775 27.8073 31.4419 -12.5167 -1.3288 14.7005
# 2 27.8073 184.7276 66.0173 -25.7284 3.4915 -22.3001
# 3 31.4419 66.0173 134.0762 -20.4826 -5.1833 -7.4187
# 4 -12.5167 -25.7284 -20.4826 50.0684 -0.6349 6.4596
# 5 -1.3288 3.4915 -5.1833 -0.6349 41.2925 1.7279
# 6 14.7005 -22.3001 -7.4187 6.4596 1.7279 38.0533
#
#
#
# Elastic Compliance Matrix: (Units=1/GPa)
#
#
# Indices 1 2 3 4 5 6 
#
# 1 0.028556 -0.003676 -0.004872 0.005219 0.001330 -0.015082
# 2 -0.003676 0.007701 -0.002485 0.001324 -0.001282 0.005282
# 3 -0.004872 -0.002485 0.010208 0.001424 0.001268 0.002117
# 4 0.005219 0.001324 0.001424 0.023187 0.000798 -0.004935
# 5 0.001330 -0.001282 0.001268 0.000798 0.024635 -0.002272
# 6 -0.015082 0.005282 0.002117 -0.004935 -0.002272 0.036554
#
#
# Mechanical properties :
#
#
# Convention : Reuss Voigt Hill
#
# Bulk Modulus (GPa) = 40.98605 69.26827 55.12716
# Shear Modulus (GPa) = 31.04795 42.39049 36.71922
#
# Velocity S-wave (km/s) = 3.54970 4.14772 3.86031
# Velocity P-wave (km/s) = 5.78222 7.14490 6.49937
#
# Compressibility (1/GPa) = 0.02439855
#
# Stress axis : x y z
#
# Youngs Moduli (GPa) = 35.01923 129.85182 97.96017
#
# Poissons Ratio (x) = 0.47737 0.47728
# Poissons Ratio (y) = 0.12874 0.24341
# Poissons Ratio (z) = 0.17062 0.32266
#
# Static dielectric constant tensor:
#      x y z
#    x 1.978880 0.051110 -0.020900 
#    y 0.051110 1.954520 -0.018050 
#    z -0.020900 -0.018050 2.078680 
# 
# From -- ./inp_files/529774.got.cif
#   From: 2010.05.17/outbox.cif.g08.bks.cpg/sg2_265_cif.got.tgz:529774.got - 2010.06.03 11:33:40.
