data_PCOD9107270
_publ_section_title
;
Structure prediction by ZEFSAII (Michael W. Deem and Ramdas Pophale) SiO2 
 PCOD9107270
Probable space group: P -1
;
_chemical_formula_sum "Si O2"
_cell_formula_units_Z 16
_cell_length_a 13.872912
_cell_length_b 13.405806
_cell_length_c 8.783485
_cell_angle_alpha 50.258892
_cell_angle_beta 127.223135
_cell_angle_gamma 144.763235
_cell_volume 711.993647
_symmetry_space_group_name_H-M "P -1"
_symmetry_group_IT_number 2
_symmetry_cell_setting 'triclinic'
loop_
_space_group_symop_operation_xyz
x,y,z
-x,-y,-z
loop_
_atom_site_type_symbol
_atom_site_label
_atom_site_fract_x
_atom_site_fract_y
_atom_site_fract_z
Si Si1 0.858362 0.837801 0.198968
Si Si2 0.152244 0.602070 0.429656
Si Si3 0.288949 0.984775 0.145424
Si Si4 0.883715 0.785096 0.603362
Si Si5 0.486151 0.209189 0.397714
Si Si6 0.039131 0.646906 0.784026
Si Si7 0.568639 0.056984 0.177179
Si Si8 0.224236 0.223259 0.161810
O O1 0.794108 0.727375 0.405283
O O2 0.802656 0.741544 0.071955
O O3 0.065239 0.000616 0.236497
O O4 0.800949 0.946905 0.041437
O O5 0.186966 0.774477 0.232947
O O6 0.323263 0.669099 0.597702
O O7 0.000000 0.500000 0.500000
O O8 0.089515 0.462410 0.371926
O O9 0.351410 0.037527 0.326801
O O10 0.464765 0.095186 0.117173
O O11 0.791554 0.714624 0.750348
O O12 0.005202 0.753078 0.737632
O O13 0.000000 0.000000 0.500000
O O14 0.406779 0.290141 0.266571
O O15 0.483139 0.120688 0.630745
O O16 0.230773 0.779512 0.781025
O O17 0.000000 0.500000 0.000000
O O18 0.500000 0.000000 0.000000
#
# Coordination Sequence:
#
# PCOD9107270 Si02
#       8
#     2   2   2   2   2   2   2   2
#     4   9  19  36  64  99 120 164 238 271 325 389
#     4  11  23  39  65  93 139 177 207 284 353 396
#     4  10  21  38  67  96 126 172 231 274 319 416
#     4  10  22  39  67  93 128 179 225 274 326 411
#     4  10  20  40  63  96 127 171 237 266 327 407
#     4  12  26  43  60 101 139 168 221 280 350 396
#     4  11  22  35  62  90 126 174 222 272 320 400
#     4   9  19  34  63  91 127 161 219 290 313 384
#
# _framework density 22.472111999999999
#
# number of rings (size 3 to 8) (size 9 to 14) (size 15 to 20)
#    0.000    1.750    0.000    6.000    8.750    3.000 
#    0.000    0.625    0.000    3.750    0.000    0.000 
#    0.000    0.000    0.000    0.000    0.000    0.000 
#
# Total GULP energy -89260.101419 kJ/mol
# GULP energy per Si atom -5578.756339 kJ/mol
# Density = 2.242096 g / cm^3
# Si number density = 22.472112 Si / 1000 Ang^3
#
#
#
# Elastic Constant Matrix: (Units=GPa)
#
#
# Indices 1 2 3 4 5 6 
#
# 1 157.1027 39.4744 47.6262 -2.6215 0.7570 11.6485
# 2 39.4744 62.6009 11.7389 4.2734 11.2732 10.4504
# 3 47.6262 11.7389 101.0986 16.6515 -16.7781 1.7902
# 4 -2.6215 4.2734 16.6515 26.2546 -7.5409 1.1292
# 5 0.7570 11.2732 -16.7781 -7.5409 46.7864 11.3087
# 6 11.6485 10.4504 1.7902 1.1292 11.3087 37.9961
#
#
#
# Elastic Compliance Matrix: (Units=1/GPa)
#
#
# Indices 1 2 3 4 5 6 
#
# 1 0.009178 -0.005159 -0.004376 0.004789 0.000667 -0.001530
# 2 -0.005159 0.020930 0.000061 -0.005349 -0.005203 -0.002471
# 3 -0.004376 0.000061 0.013925 -0.008183 0.003782 -0.000214
# 4 0.004789 -0.005349 -0.008183 0.046620 0.006499 -0.002931
# 5 0.000667 -0.005203 0.003782 0.006499 0.026737 -0.007103
# 6 -0.001530 -0.002471 -0.000214 -0.002931 -0.007103 0.029678
#
#
# Mechanical properties :
#
#
# Convention : Reuss Voigt Hill
#
# Bulk Modulus (GPa) = 39.86152 57.60901 48.73526
# Shear Modulus (GPa) = 28.67362 37.00494 32.83928
#
# Velocity S-wave (km/s) = 3.57594 4.06236 3.82689
# Velocity P-wave (km/s) = 5.90140 6.90617 6.42346
#
# Compressibility (1/GPa) = 0.02508685
#
# Stress axis : x y z
#
# Youngs Moduli (GPa) = 108.95629 47.77828 71.81432
#
# Poissons Ratio (x) = 0.24646 0.31423
# Poissons Ratio (y) = 0.56205 -0.00439
# Poissons Ratio (z) = 0.47675 -0.00292
#
# Static dielectric constant tensor:
#      x y z
#    x 1.921960 0.007530 -0.024970 
#    y 0.007530 1.849730 0.032100 
#    z -0.024970 0.032100 1.863960 
# 
# From -- ./inp_files/314739.got.cif
#   From: 2010.05.17/outbox.cif.g08.bks.cpg/sg2_158_cif.got.tgz:314739.got - 2010.06.03 11:33:40.
