data_PCOD9107044
_publ_section_title
;
Structure prediction by ZEFSAII (Michael W. Deem and Ramdas Pophale) SiO2 
 PCOD9107044
Probable space group: P -1
;
_chemical_formula_sum "Si O2"
_cell_formula_units_Z 14
_cell_length_a 8.461098
_cell_length_b 9.476665
_cell_length_c 16.869784
_cell_angle_alpha 127.192525
_cell_angle_beta 80.082066
_cell_angle_gamma 133.541444
_cell_volume 707.813541
_symmetry_space_group_name_H-M "P -1"
_symmetry_group_IT_number 2
_symmetry_cell_setting 'triclinic'
loop_
_space_group_symop_operation_xyz
x,y,z
-x,-y,-z
loop_
_atom_site_type_symbol
_atom_site_label
_atom_site_fract_x
_atom_site_fract_y
_atom_site_fract_z
Si Si1 0.921584 0.732167 0.416640
Si Si2 0.799311 0.076357 0.996482
Si Si3 0.443172 0.054062 0.442886
Si Si4 0.888721 0.604585 0.558023
Si Si5 0.660521 0.610384 0.945242
Si Si6 0.615086 0.186567 0.177317
Si Si7 0.633996 0.963079 0.257256
O O1 0.883381 0.671445 0.492692
O O2 0.712569 0.454549 0.293830
O O3 0.000000 0.000000 0.500000
O O4 0.160919 0.842414 0.397181
O O5 0.780099 0.228062 0.109635
O O6 0.071382 0.242087 0.010440
O O7 0.684501 0.812552 0.963109
O O8 0.639887 0.992002 0.904743
O O9 0.618412 0.369404 0.534430
O O10 0.500000 0.000000 0.500000
O O11 0.528076 0.013274 0.346628
O O12 0.000000 0.500000 0.500000
O O13 0.087016 0.850428 0.682740
O O14 0.519513 0.339586 0.820671
O O15 0.500000 0.500000 0.000000
O O16 0.611469 0.042637 0.201481
#
# Coordination Sequence:
#
# PCOD9107044 Si02
#       7
#     2   2   2   2   2   2   2
#     4  12  25  41  62  97 134 166 214 274 323 379
#     4  10  25  44  69  94 131 171 217 271 324 387
#     4  11  20  40  68  89 127 179 213 254 319 393
#     4  10  20  40  62  94 123 165 222 249 311 402
#     4  11  23  45  67 100 126 165 224 272 323 385
#     4  11  22  46  65  95 133 173 218 267 326 391
#     4  11  21  40  70  94 128 172 214 267 320 386
#
# _framework density 19.779219000000001
#
# number of rings (size 3 to 8) (size 9 to 14) (size 15 to 20)
#    0.000    1.143    7.143    0.857    2.000    1.143 
#    5.143    0.000    0.000    0.000    0.000    0.000 
#    0.000    0.000    0.000    0.000    0.000    0.000 
#
# Total GULP energy -78024.400361 kJ/mol
# GULP energy per Si atom -5573.171454 kJ/mol
# Density = 1.973420 g / cm^3
# Si number density = 19.779219 Si / 1000 Ang^3
#
#
#
# Elastic Constant Matrix: (Units=GPa)
#
#
# Indices 1 2 3 4 5 6 
#
# 1 21.9259 8.8456 37.4596 -5.8735 5.1425 -1.4191
# 2 8.8456 109.9167 42.0264 -1.6136 15.2130 -0.7138
# 3 37.4596 42.0264 111.5450 5.2343 17.1156 -16.6901
# 4 -5.8735 -1.6136 5.2343 38.1680 -6.4547 -3.0332
# 5 5.1425 15.2130 17.1156 -6.4547 25.1505 6.9534
# 6 -1.4191 -0.7138 -16.6901 -3.0332 6.9534 32.7828
#
#
#
# Elastic Compliance Matrix: (Units=1/GPa)
#
#
# Indices 1 2 3 4 5 6 
#
# 1 0.154876 0.009466 -0.065008 0.034907 0.023532 -0.027947
# 2 0.009466 0.011626 -0.007671 0.002388 -0.002442 -0.002504
# 3 -0.065008 -0.007671 0.040584 -0.017635 -0.019811 0.020251
# 4 0.034907 0.002388 -0.017635 0.035996 0.014645 -0.007191
# 5 0.023532 -0.002442 -0.019811 0.014645 0.059291 -0.020341
# 6 -0.027947 -0.002504 0.020251 -0.007191 -0.020341 0.043199
#
#
# Mechanical properties :
#
#
# Convention : Reuss Voigt Hill
#
# Bulk Modulus (GPa) = 12.39779 46.67231 29.53505
# Shear Modulus (GPa) = 10.02235 29.55731 19.78983
#
# Velocity S-wave (km/s) = 2.25347 3.86989 3.16656
# Velocity P-wave (km/s) = 3.61283 6.60424 5.32299
#
# Compressibility (1/GPa) = 0.08065953
#
# Stress axis : x y z
#
# Youngs Moduli (GPa) = 6.45676 86.01512 24.64026
#
# Poissons Ratio (x) = -0.81422 1.60182
# Poissons Ratio (y) = -0.06112 0.18902
# Poissons Ratio (z) = 0.41974 0.65983
#
# Static dielectric constant tensor:
#      x y z
#    x 1.551310 0.060120 0.071070 
#    y 0.060120 1.669940 0.018650 
#    z 0.071070 0.018650 1.725460 
# 
# From -- ./inp_files/200415.got.cif
#   From: 2010.05.17/outbox.cif.g08.bks.cpg/sg2_101_cif.got.tgz:200415.got - 2010.06.03 11:33:40.
