data_PCOD9107408
_publ_section_title
;
Structure prediction by ZEFSAII (Michael W. Deem and Ramdas Pophale) SiO2 
 PCOD9107408
Probable space group: P -1
;
_chemical_formula_sum "Si O2"
_cell_formula_units_Z 16
_cell_length_a 8.353275
_cell_length_b 6.964245
_cell_length_c 12.355312
_cell_angle_alpha 94.682922
_cell_angle_beta 88.993293
_cell_angle_gamma 56.113441
_cell_volume 592.951326
_symmetry_space_group_name_H-M "P -1"
_symmetry_group_IT_number 2
_symmetry_cell_setting 'triclinic'
loop_
_space_group_symop_operation_xyz
x,y,z
-x,-y,-z
loop_
_atom_site_type_symbol
_atom_site_label
_atom_site_fract_x
_atom_site_fract_y
_atom_site_fract_z
Si Si1 0.045914 0.969545 0.707902
Si Si2 0.320189 0.877399 0.020320
Si Si3 0.981556 0.552723 0.242459
Si Si4 0.423461 0.279352 0.193067
Si Si5 0.603889 0.153488 0.405996
Si Si6 0.388156 0.760347 0.255476
Si Si7 0.300322 0.327999 0.575769
Si Si8 0.098974 0.703363 0.917758
O O1 0.039983 0.204133 0.738495
O O2 0.827154 0.062310 0.686615
O O3 0.218058 0.821188 0.613111
O O4 0.097383 0.833913 0.814282
O O5 0.392017 0.849023 0.140225
O O6 0.473331 0.828738 0.925978
O O7 0.255896 0.695337 0.992856
O O8 0.113930 0.124633 0.021607
O O9 0.905598 0.512838 0.354877
O O10 0.873423 0.527308 0.140847
O O11 0.204933 0.357528 0.210152
O O12 0.547614 0.122793 0.285113
O O13 0.417572 0.513579 0.223752
O O14 0.401727 0.354256 0.471329
O O15 0.684530 0.912877 0.456477
O O16 0.548985 0.719227 0.333947
#
# Coordination Sequence:
#
# PCOD9107408 Si02
#       8
#     2   2   2   2   2   2   2   2
#     4   9  20  41  63  92 126 158 205 257 304 370
#     4  10  21  38  63  91 127 162 202 254 304 366
#     4  10  23  40  62  91 128 162 206 255 305 367
#     4  11  22  39  63  94 123 159 209 252 302 369
#     4  10  22  41  66  88 124 159 205 261 306 365
#     4  10  22  40  62  90 127 160 203 252 310 365
#     4  10  23  43  62  89 123 165 202 257 314 358
#     4  10  20  40  64  90 125 168 199 251 314 361
#
# _framework density 26.983667000000001
#
# number of rings (size 3 to 8) (size 9 to 14) (size 15 to 20)
#    0.000    2.000    1.250    1.125    3.500    2.000 
#    0.000   10.625    0.000    0.000    0.000    0.000 
#    0.000    0.000    0.000    0.000    0.000    0.000 
#
# Total GULP energy -89666.915950 kJ/mol
# GULP energy per Si atom -5604.182247 kJ/mol
# Density = 2.692225 g / cm^3
# Si number density = 26.983667 Si / 1000 Ang^3
#
#
#
# Elastic Constant Matrix: (Units=GPa)
#
#
# Indices 1 2 3 4 5 6 
#
# 1 123.1750 34.5253 51.7454 20.4646 -43.9166 -24.7145
# 2 34.5253 62.0851 20.0858 17.0142 -18.4365 -2.0309
# 3 51.7454 20.0858 117.8385 30.5810 -47.4541 -19.6011
# 4 20.4646 17.0142 30.5810 41.7671 -9.1775 -8.4699
# 5 -43.9166 -18.4365 -47.4541 -9.1775 61.9593 16.8093
# 6 -24.7145 -2.0309 -19.6011 -8.4699 16.8093 52.7725
#
#
#
# Elastic Compliance Matrix: (Units=1/GPa)
#
#
# Indices 1 2 3 4 5 6 
#
# 1 0.012953 -0.004564 -0.001908 -0.001262 0.005281 0.003298
# 2 -0.004564 0.021238 0.001257 -0.007141 0.003866 -0.003231
# 3 -0.001908 0.001257 0.015103 -0.008519 0.009201 0.000467
# 4 -0.001262 -0.007141 -0.008519 0.033121 -0.005459 0.003025
# 5 0.005281 0.003866 0.009201 -0.005459 0.028317 -0.003857
# 6 0.003298 -0.003231 0.000467 0.003025 -0.003857 0.022256
#
#
# Mechanical properties :
#
#
# Convention : Reuss Voigt Hill
#
# Bulk Modulus (GPa) = 25.73077 57.31241 41.52159
# Shear Modulus (GPa) = 31.97452 44.41593 38.19522
#
# Velocity S-wave (km/s) = 3.44606 4.06153 3.76639
# Velocity P-wave (km/s) = 5.03886 6.57879 5.85963
#
# Compressibility (1/GPa) = 0.03886397
#
# Stress axis : x y z
#
# Youngs Moduli (GPa) = 77.20057 47.08596 66.20999
#
# Poissons Ratio (x) = 0.21492 0.12630
# Poissons Ratio (y) = 0.35238 -0.08321
# Poissons Ratio (z) = 0.14727 -0.05918
#
# Static dielectric constant tensor:
#      x y z
#    x 2.152790 0.010240 -0.040850 
#    y 0.010240 2.149920 0.036230 
#    z -0.040850 0.036230 2.069480 
# 
# From -- ./inp_files/217651.got.cif
#   From: 2010.05.17/outbox.cif.g08.bks.cpg/sg2_109_cif.got.tgz:217651.got - 2010.06.03 11:33:40.
