data_PCOD9107679
_publ_section_title
;
Structure prediction by ZEFSAII (Michael W. Deem and Ramdas Pophale) SiO2 
 PCOD9107679
Probable space group: P -1
;
_chemical_formula_sum "Si O2"
_cell_formula_units_Z 16
_cell_length_a 11.360578
_cell_length_b 8.975008
_cell_length_c 24.827555
_cell_angle_alpha 33.813344
_cell_angle_beta 151.953371
_cell_angle_gamma 138.833991
_cell_volume 660.521786
_symmetry_space_group_name_H-M "P -1"
_symmetry_group_IT_number 2
_symmetry_cell_setting 'triclinic'
loop_
_space_group_symop_operation_xyz
x,y,z
-x,-y,-z
loop_
_atom_site_type_symbol
_atom_site_label
_atom_site_fract_x
_atom_site_fract_y
_atom_site_fract_z
Si Si1 0.758627 0.358024 0.660650
Si Si2 0.528344 0.018230 0.131165
Si Si3 0.756751 0.420856 0.028570
Si Si4 0.231122 0.088657 0.293786
Si Si5 0.290091 0.584673 0.104764
Si Si6 0.355836 0.024409 0.179610
Si Si7 0.015550 0.334712 0.610434
Si Si8 0.135245 0.727883 0.641842
O O1 0.500000 0.500000 0.500000
O O2 0.997842 0.563879 0.684673
O O3 0.783199 0.109090 0.704228
O O4 0.746042 0.239840 0.751089
O O5 0.299748 0.869298 0.051696
O O6 0.754954 0.846804 0.254189
O O7 0.594703 0.311537 0.046451
O O8 0.475751 0.982964 0.182799
O O9 0.994657 0.248163 0.169490
O O10 0.602311 0.370788 0.925341
O O11 0.827824 0.735877 0.970580
O O12 0.392292 0.351462 0.254393
O O13 0.226490 0.865109 0.407835
O O14 0.000000 0.500000 0.000000
O O15 0.582355 0.161345 0.265910
O O16 0.079354 0.539983 0.623699
O O17 0.000000 0.500000 0.500000
O O18 0.000000 0.000000 0.500000
#
# Coordination Sequence:
#
# PCOD9107679 Si02
#       8
#     2   2   2   2   2   2   2   2
#     4  11  23  41  68  96 132 177 225 270 330 400
#     4  11  24  40  62 100 131 168 223 273 336 399
#     4  10  21  43  70  89 127 175 217 272 335 397
#     4   9  21  41  66  96 126 169 224 268 328 398
#     4  10  20  40  65  91 126 169 216 267 328 396
#     4  12  24  43  67  99 138 174 220 277 336 399
#     4  10  22  41  66  95 130 170 222 275 326 398
#     4  11  23  43  69  96 131 182 225 269 334 398
#
# _framework density 24.223272000000001
#
# number of rings (size 3 to 8) (size 9 to 14) (size 15 to 20)
#    0.000    1.500    2.500    2.250    1.750    4.000 
#    9.000    3.125    0.000    0.000    0.000    0.000 
#    0.000    0.000    0.000    0.000    0.000    0.000 
#
# Total GULP energy -89268.141481 kJ/mol
# GULP energy per Si atom -5579.258843 kJ/mol
# Density = 2.416814 g / cm^3
# Si number density = 24.223272 Si / 1000 Ang^3
#
#
#
# Elastic Constant Matrix: (Units=GPa)
#
#
# Indices 1 2 3 4 5 6 
#
# 1 173.5177 27.1735 28.8221 -29.0230 -35.1801 15.3987
# 2 27.1735 34.8768 6.8063 -15.6786 -3.9992 15.2843
# 3 28.8221 6.8063 65.4833 -26.1211 -0.7654 5.5260
# 4 -29.0230 -15.6786 -26.1211 36.1950 7.2569 -3.3381
# 5 -35.1801 -3.9992 -0.7654 7.2569 55.5918 -21.9051
# 6 15.3987 15.2843 5.5260 -3.3381 -21.9051 48.1840
#
#
#
# Elastic Compliance Matrix: (Units=1/GPa)
#
#
# Indices 1 2 3 4 5 6 
#
# 1 0.008198 -0.005460 -0.002552 0.001476 0.005327 0.001929
# 2 -0.005460 0.047794 0.007600 0.022145 -0.009537 -0.017088
# 3 -0.002552 0.007600 0.023483 0.018761 -0.005326 -0.005410
# 4 0.001476 0.022145 0.018761 0.052637 -0.007858 -0.009574
# 5 0.005327 -0.009537 -0.005326 -0.007858 0.027012 0.013669
# 6 0.001929 -0.017088 -0.005410 -0.009574 0.013669 0.031729
#
#
# Mechanical properties :
#
#
# Convention : Reuss Voigt Hill
#
# Bulk Modulus (GPa) = 12.71468 44.38685 28.55076
# Shear Modulus (GPa) = 22.94699 42.06589 32.50644
#
# Velocity S-wave (km/s) = 3.08118 4.17176 3.66724
# Velocity P-wave (km/s) = 4.23304 6.44737 5.45377
#
# Compressibility (1/GPa) = 0.07864925
#
# Stress axis : x y z
#
# Youngs Moduli (GPa) = 121.98170 20.92323 42.58470
#
# Poissons Ratio (x) = 0.11424 0.10869
# Poissons Ratio (y) = 0.66602 -0.32364
# Poissons Ratio (z) = 0.31135 -0.15901
#
# Static dielectric constant tensor:
#      x y z
#    x 1.875760 0.371760 -0.285170 
#    y 0.371760 1.421280 0.710260 
#    z -0.285170 0.710260 1.450650 
# 
# From -- ./inp_files/618201.got.cif
#   From: 2010.05.17/outbox.cif.g08.bks.cpg/sg2_310_cif.got.tgz:618201.got - 2010.06.03 11:33:40.
