data_PCOD9107250
_publ_section_title
;
Structure prediction by ZEFSAII (Michael W. Deem and Ramdas Pophale) SiO2 
 PCOD9107250
Probable space group: P -1
;
_chemical_formula_sum "Si O2"
_cell_formula_units_Z 12
_cell_length_a 7.436273
_cell_length_b 15.752422
_cell_length_c 9.082771
_cell_angle_alpha 142.876907
_cell_angle_beta 113.930108
_cell_angle_gamma 45.134253
_cell_volume 423.409345
_symmetry_space_group_name_H-M "P -1"
_symmetry_group_IT_number 2
_symmetry_cell_setting 'triclinic'
loop_
_space_group_symop_operation_xyz
x,y,z
-x,-y,-z
loop_
_atom_site_type_symbol
_atom_site_label
_atom_site_fract_x
_atom_site_fract_y
_atom_site_fract_z
Si Si1 0.930119 0.680751 0.383449
Si Si2 0.277454 0.221624 0.847757
Si Si3 0.473956 0.868949 0.900875
Si Si4 0.177140 0.758136 0.139412
Si Si5 0.161661 0.835539 0.535274
Si Si6 0.752397 0.444582 0.415057
O O1 0.085501 0.455376 0.119962
O O2 0.111129 0.707295 0.399893
O O3 0.973705 0.706665 0.603743
O O4 0.680586 0.802973 0.350329
O O5 0.524821 0.111712 0.895262
O O6 0.087490 0.193684 0.816497
O O7 0.245650 0.892350 0.776144
O O8 0.708693 0.632752 0.636344
O O9 0.500000 0.000000 0.000000
O O10 0.347141 0.715780 0.284667
O O11 0.255880 0.627333 0.844142
O O12 0.091231 0.950545 0.312749
O O13 0.500000 0.500000 0.500000
#
# Coordination Sequence:
#
# PCOD9107250 Si02
#       6
#     2   2   2   2   2   2
#     4   9  19  37  62  88 124 162 200 251 308 368
#     4   9  19  37  62  90 123 163 201 253 308 368
#     4  11  21  38  64  90 128 159 206 256 305 368
#     4  10  22  39  65  92 124 163 211 249 310 371
#     4  10  20  40  63  95 122 165 204 256 306 371
#     4  11  23  41  63  92 124 165 209 256 307 367
#
# _framework density 28.341366000000001
#
# number of rings (size 3 to 8) (size 9 to 14) (size 15 to 20)
#    0.000    2.000    3.333    0.000    0.000    4.000 
#    0.000    0.000    3.667    2.000    0.000    0.000 
#    0.000    0.000    0.000    0.000    0.000    0.000 
#
# Total GULP energy -66989.973335 kJ/mol
# GULP energy per Si atom -5582.497778 kJ/mol
# Density = 2.827686 g / cm^3
# Si number density = 28.341366 Si / 1000 Ang^3
#
#
#
# Elastic Constant Matrix: (Units=GPa)
#
#
# Indices 1 2 3 4 5 6 
#
# 1 114.1415 46.5617 41.5163 2.1167 8.3730 25.1566
# 2 46.5617 263.1215 59.9863 -40.2505 6.9485 8.1099
# 3 41.5163 59.9863 204.2419 -46.7495 3.9968 21.4824
# 4 2.1167 -40.2505 -46.7495 62.3361 14.2606 19.3240
# 5 8.3730 6.9485 3.9968 14.2606 45.2099 1.2541
# 6 25.1566 8.1099 21.4824 19.3240 1.2541 41.4587
#
#
#
# Elastic Compliance Matrix: (Units=1/GPa)
#
#
# Indices 1 2 3 4 5 6 
#
# 1 0.011207 -0.001506 -0.001234 -0.000146 -0.001529 -0.005752
# 2 -0.001506 0.004802 0.000122 0.004276 -0.001762 -0.002028
# 3 -0.001234 0.000122 0.008136 0.009372 -0.003251 -0.007761
# 4 -0.000146 0.004276 0.009372 0.035307 -0.011994 -0.021698
# 5 -0.001529 -0.001762 -0.003251 -0.011994 0.026529 0.007745
# 6 -0.005752 -0.002028 -0.007761 -0.021698 0.007745 0.041908
#
#
# Mechanical properties :
#
#
# Convention : Reuss Voigt Hill
#
# Bulk Modulus (GPa) = 52.88457 97.51480 75.19969
# Shear Modulus (GPa) = 35.86052 58.69698 47.27875
#
# Velocity S-wave (km/s) = 3.56097 4.55584 4.08878
# Velocity P-wave (km/s) = 5.96722 7.88392 6.99156
#
# Compressibility (1/GPa) = 0.01890911
#
# Stress axis : x y z
#
# Youngs Moduli (GPa) = 89.22934 208.23148 122.90624
#
# Poissons Ratio (x) = 0.31370 0.15167
# Poissons Ratio (y) = 0.13442 -0.01502
# Poissons Ratio (z) = 0.11011 -0.02545
#
# Static dielectric constant tensor:
#      x y z
#    x 2.186880 -0.133480 -0.089080 
#    y -0.133480 2.346570 -0.123490 
#    z -0.089080 -0.123490 2.446450 
# 
# From -- ./inp_files/159759.got.cif
#   From: 2010.05.17/outbox.cif.g08.bks.cpg/sg2_80_cif.got.tgz:159759.got - 2010.06.03 11:33:40.
