data_PCOD9107577
_publ_section_title
;
Structure prediction by ZEFSAII (Michael W. Deem and Ramdas Pophale) SiO2 
 PCOD9107577
Probable space group: P -1
;
_chemical_formula_sum "Si O2"
_cell_formula_units_Z 14
_cell_length_a 9.916692
_cell_length_b 15.259752
_cell_length_c 8.011068
_cell_angle_alpha 118.730383
_cell_angle_beta 46.433493
_cell_angle_gamma 131.181150
_cell_volume 660.300599
_symmetry_space_group_name_H-M "P -1"
_symmetry_group_IT_number 2
_symmetry_cell_setting 'triclinic'
loop_
_space_group_symop_operation_xyz
x,y,z
-x,-y,-z
loop_
_atom_site_type_symbol
_atom_site_label
_atom_site_fract_x
_atom_site_fract_y
_atom_site_fract_z
Si Si1 0.240475 0.125596 0.592093
Si Si2 0.570506 0.723150 0.757186
Si Si3 0.163018 0.039698 0.053324
Si Si4 0.562411 0.031639 0.778009
Si Si5 0.789883 0.301269 0.759676
Si Si6 0.288414 0.429520 0.348935
Si Si7 0.531281 0.663974 0.174784
O O1 0.334696 0.207225 0.427617
O O2 0.309667 0.212780 0.766957
O O3 0.348022 0.047072 0.435998
O O4 0.984321 0.037708 0.737104
O O5 0.711158 0.825516 0.870272
O O6 0.609021 0.616875 0.645943
O O7 0.317920 0.678704 0.964493
O O8 0.346760 0.007642 0.844561
O O9 0.000000 0.000000 0.000000
O O10 0.729619 0.168026 0.720035
O O11 0.500000 0.000000 0.000000
O O12 0.652997 0.324622 0.757582
O O13 0.040284 0.378119 0.566802
O O14 0.411598 0.565825 0.329328
O O15 0.333797 0.376314 0.092801
#
# Coordination Sequence:
#
# PCOD9107577 Si02
#       7
#     2   2   2   2   2   2   2
#     4  12  23  38  62  91 132 157 208 258 310 372
#     4  10  22  37  61  91 121 160 207 255 307 373
#     4  11  23  39  62  94 127 167 207 250 310 377
#     4  11  23  39  62  92 128 165 198 247 321 376
#     4  10  20  40  65  85 120 165 206 251 312 370
#     4  10  21  42  65  82 123 166 210 255 313 354
#     4  10  24  40  60  94 118 162 214 259 300 369
#
# _framework density 21.202463000000002
#
# number of rings (size 3 to 8) (size 9 to 14) (size 15 to 20)
#    0.000    1.429    2.857    4.286    2.000    5.143 
#    0.000    0.714    0.000    0.000    0.000    0.000 
#    0.000    0.000    0.000    0.000    0.000    0.000 
#
# Total GULP energy -78134.776781 kJ/mol
# GULP energy per Si atom -5581.055484 kJ/mol
# Density = 2.115420 g / cm^3
# Si number density = 21.202463 Si / 1000 Ang^3
#
#
#
# Elastic Constant Matrix: (Units=GPa)
#
#
# Indices 1 2 3 4 5 6 
#
# 1 33.5006 7.0865 14.5793 -5.0559 1.1397 -14.8003
# 2 7.0865 106.0122 44.5001 -19.4086 -15.6193 -25.9707
# 3 14.5793 44.5001 101.2408 -37.2593 -16.6152 2.4771
# 4 -5.0559 -19.4086 -37.2593 45.1937 2.8165 8.3350
# 5 1.1397 -15.6193 -16.6152 2.8165 25.1390 -3.7023
# 6 -14.8003 -25.9707 2.4771 8.3350 -3.7023 36.3771
#
#
#
# Elastic Compliance Matrix: (Units=1/GPa)
#
#
# Indices 1 2 3 4 5 6 
#
# 1 0.044334 0.007271 -0.013213 -0.007445 -0.001610 0.025670
# 2 0.007271 0.017641 -0.008994 -0.002738 0.007580 0.017564
# 3 -0.013213 -0.008994 0.023183 0.016443 0.006057 -0.016527
# 4 -0.007445 -0.002738 0.016443 0.036048 0.003401 -0.014016
# 5 -0.001610 0.007580 0.006057 0.003401 0.049450 0.008597
# 6 0.025670 0.017564 -0.016527 -0.014016 0.008597 0.055685
#
#
# Mechanical properties :
#
#
# Convention : Reuss Voigt Hill
#
# Bulk Modulus (GPa) = 18.08742 41.45393 29.77068
# Shear Modulus (GPa) = 18.20558 32.98113 25.59335
#
# Velocity S-wave (km/s) = 2.93346 3.94830 3.47809
# Velocity P-wave (km/s) = 4.47470 6.35448 5.49556
#
# Compressibility (1/GPa) = 0.05528704
#
# Stress axis : x y z
#
# Youngs Moduli (GPa) = 22.55587 56.68769 43.13422
#
# Poissons Ratio (x) = -0.41218 0.56991
# Poissons Ratio (y) = -0.16401 0.38796
# Poissons Ratio (z) = 0.29802 0.50986
#
# Static dielectric constant tensor:
#      x y z
#    x 1.836230 -0.020840 0.106640 
#    y -0.020840 1.733980 -0.009820 
#    z 0.106640 -0.009820 1.840720 
# 
# From -- ./inp_files/202911.got.cif
#   From: 2010.05.17/outbox.cif.g08.bks.cpg/sg2_102_cif.got.tgz:202911.got - 2010.06.03 11:33:40.
