data_PCOD9107745
_publ_section_title
;
Structure prediction by ZEFSAII (Michael W. Deem and Ramdas Pophale) SiO2 
 PCOD9107745
Probable space group: P -1
;
_chemical_formula_sum "Si O2"
_cell_formula_units_Z 16
_cell_length_a 14.661799
_cell_length_b 12.355883
_cell_length_c 10.546013
_cell_angle_alpha 37.565608
_cell_angle_beta 41.670683
_cell_angle_gamma 47.967872
_cell_volume 760.133529
_symmetry_space_group_name_H-M "P -1"
_symmetry_group_IT_number 2
_symmetry_cell_setting 'triclinic'
loop_
_space_group_symop_operation_xyz
x,y,z
-x,-y,-z
loop_
_atom_site_type_symbol
_atom_site_label
_atom_site_fract_x
_atom_site_fract_y
_atom_site_fract_z
Si Si1 0.274386 0.081323 0.031320
Si Si2 0.593617 0.510730 0.269575
Si Si3 0.289663 0.840199 0.660223
Si Si4 0.624861 0.323539 0.011189
Si Si5 0.900693 0.966503 0.514131
Si Si6 0.531636 0.873570 0.832049
Si Si7 0.159626 0.749553 0.357554
Si Si8 0.162408 0.476559 0.822129
O O1 0.213340 0.287866 0.872945
O O2 0.434475 0.017430 0.890252
O O3 0.234238 0.062274 0.238468
O O4 0.202981 0.943704 0.151031
O O5 0.500000 0.500000 0.500000
O O6 0.601730 0.322270 0.365647
O O7 0.747148 0.524907 0.145195
O O8 0.550153 0.684516 0.064475
O O9 0.290810 0.762390 0.872690
O O10 0.152548 0.877074 0.677769
O O11 0.340886 0.031583 0.426500
O O12 0.547445 0.173092 0.168815
O O13 0.500000 0.500000 0.000000
O O14 0.746433 0.350320 0.760178
O O15 0.000000 0.000000 0.500000
O O16 0.990766 0.801168 0.494114
O O17 0.197824 0.634627 0.551348
O O18 0.000000 0.500000 0.000000
#
# Coordination Sequence:
#
# PCOD9107745 Si02
#       8
#     2   2   2   2   2   2   2   2
#     4  10  21  39  64  97 132 169 208 272 338 403
#     4  12  24  40  65 101 138 175 221 276 348 401
#     4  12  25  41  69  93 133 179 221 277 330 398
#     4  11  24  47  67  91 131 180 226 280 328 392
#     4  10  20  40  65  94 130 164 210 266 333 398
#     4  11  24  42  67  99 130 171 229 274 329 399
#     4  10  23  42  64  92 133 173 220 271 329 396
#     4  12  24  38  68 102 137 176 212 274 352 401
#
# _framework density 21.048931
#
# number of rings (size 3 to 8) (size 9 to 14) (size 15 to 20)
#    0.000    1.000    2.500    5.625    3.500    2.000 
#    0.000    0.000    0.000    1.500    0.000    0.000 
#    0.000    0.000    0.000    0.000    0.000    0.000 
#
# Total GULP energy -89200.003444 kJ/mol
# GULP energy per Si atom -5575.000215 kJ/mol
# Density = 2.100102 g / cm^3
# Si number density = 21.048931 Si / 1000 Ang^3
#
#
#
# Elastic Constant Matrix: (Units=GPa)
#
#
# Indices 1 2 3 4 5 6 
#
# 1 76.1467 13.5169 26.7668 2.4890 16.1004 -9.1997
# 2 13.5169 122.7429 24.0132 -0.3485 6.4117 -11.2520
# 3 26.7668 24.0132 53.9245 -1.8221 11.1471 -2.2094
# 4 2.4890 -0.3485 -1.8221 47.4830 0.0780 -1.7443
# 5 16.1004 6.4117 11.1471 0.0780 34.0933 -7.4186
# 6 -9.1997 -11.2520 -2.2094 -1.7443 -7.4186 30.0913
#
#
#
# Elastic Compliance Matrix: (Units=1/GPa)
#
#
# Indices 1 2 3 4 5 6 
#
# 1 0.017245 0.000143 -0.007491 -0.001054 -0.004959 0.003492
# 2 0.000143 0.009217 -0.004092 0.000022 0.000245 0.003251
# 3 -0.007491 -0.004092 0.024934 0.001216 -0.004507 -0.003030
# 4 -0.001054 0.000022 0.001216 0.021201 0.000281 0.001074
# 5 -0.004959 0.000245 -0.004507 0.000281 0.034577 0.006785
# 6 0.003492 0.003251 -0.003030 0.001074 0.006785 0.037028
#
#
# Mechanical properties :
#
#
# Convention : Reuss Voigt Hill
#
# Bulk Modulus (GPa) = 35.06863 42.37867 38.72365
# Shear Modulus (GPa) = 28.31445 34.90134 31.60790
#
# Velocity S-wave (km/s) = 3.67164 4.07640 3.87930
# Velocity P-wave (km/s) = 5.88823 6.50640 6.20502
#
# Compressibility (1/GPa) = 0.02851551
#
# Stress axis : x y z
#
# Youngs Moduli (GPa) = 57.98651 108.49174 40.10639
#
# Poissons Ratio (x) = -0.01547 0.30044
# Poissons Ratio (y) = -0.00827 0.16411
# Poissons Ratio (z) = 0.43438 0.44394
#
# Static dielectric constant tensor:
#      x y z
#    x 1.847080 -0.045360 -0.039930 
#    y -0.045360 1.819670 0.029180 
#    z -0.039930 0.029180 1.822820 
# 
# From -- ./inp_files/306155.got.cif
#   From: 2010.05.17/outbox.cif.g08.bks.cpg/sg2_154_cif.got.tgz:306155.got - 2010.06.03 11:33:40.
