data_PCOD9107467
_publ_section_title
;
Structure prediction by ZEFSAII (Michael W. Deem and Ramdas Pophale) SiO2 
 PCOD9107467
Probable space group: P -1
;
_chemical_formula_sum "Si O2"
_cell_formula_units_Z 14
_cell_length_a 11.238415
_cell_length_b 11.358862
_cell_length_c 20.411312
_cell_angle_alpha 42.925009
_cell_angle_beta 151.217268
_cell_angle_gamma 118.312896
_cell_volume 734.553613
_symmetry_space_group_name_H-M "P -1"
_symmetry_group_IT_number 2
_symmetry_cell_setting 'triclinic'
loop_
_space_group_symop_operation_xyz
x,y,z
-x,-y,-z
loop_
_atom_site_type_symbol
_atom_site_label
_atom_site_fract_x
_atom_site_fract_y
_atom_site_fract_z
Si Si1 0.508538 0.480707 0.614627
Si Si2 0.060421 0.391139 0.259127
Si Si3 0.656098 0.630618 0.282896
Si Si4 0.023183 0.194399 0.447078
Si Si5 0.469094 0.604177 0.060530
Si Si6 0.963027 0.270333 0.818933
Si Si7 0.525331 0.997294 0.142371
O O1 0.454654 0.424274 0.682549
O O2 0.724212 0.296670 0.745587
O O3 0.216371 0.602372 0.382731
O O4 0.666174 0.612036 0.640167
O O5 0.149106 0.239181 0.424527
O O6 0.903088 0.612038 0.126899
O O7 0.837848 0.370323 0.115075
O O8 0.530241 0.593886 0.171429
O O9 0.000000 0.500000 0.500000
O O10 0.567334 0.861524 0.155380
O O11 0.720233 0.397470 0.233338
O O12 0.226476 0.139293 0.630586
O O13 0.000000 0.000000 0.500000
O O14 0.471815 0.800423 0.955521
O O15 0.220035 0.065268 0.000814
#
# Coordination Sequence:
#
# PCOD9107467 Si02
#       7
#     2   2   2   2   2   2   2
#     4   9  21  42  65  94 130 167 211 273 312 384
#     4  10  20  40  64  93 130 163 205 275 322 360
#     4  12  25  42  65  92 129 179 217 255 319 390
#     4  12  22  38  67 100 127 163 212 271 323 372
#     4  12  23  41  62  96 136 165 214 265 313 391
#     4   9  19  40  66  92 126 161 208 272 318 354
#     4  12  23  40  69  95 127 170 218 264 318 376
#
# _framework density 19.059194999999999
#
# number of rings (size 3 to 8) (size 9 to 14) (size 15 to 20)
#    0.857    0.286    4.286    3.429    0.000    1.143 
#    0.000    0.000    0.000    2.571    0.000    0.000 
#    0.000    0.000    0.000    0.000    0.000    0.000 
#
# Total GULP energy -78085.439978 kJ/mol
# GULP energy per Si atom -5577.531427 kJ/mol
# Density = 1.901582 g / cm^3
# Si number density = 19.059195 Si / 1000 Ang^3
#
#
#
# Elastic Constant Matrix: (Units=GPa)
#
#
# Indices 1 2 3 4 5 6 
#
# 1 80.3745 37.3186 34.6729 3.6674 -21.7773 5.7332
# 2 37.3186 111.6453 40.8910 3.8479 -4.8403 -3.0439
# 3 34.6729 40.8910 63.0946 3.8919 -10.1077 3.8185
# 4 3.6674 3.8479 3.8919 40.6330 -9.3202 -4.8124
# 5 -21.7773 -4.8403 -10.1077 -9.3202 32.5788 -0.3862
# 6 5.7332 -3.0439 3.8185 -4.8124 -0.3862 23.1153
#
#
#
# Elastic Compliance Matrix: (Units=1/GPa)
#
#
# Indices 1 2 3 4 5 6 
#
# 1 0.020515 -0.004090 -0.006635 0.001297 0.011370 -0.004071
# 2 -0.004090 0.012762 -0.006698 -0.000453 -0.003002 0.003657
# 3 -0.006635 -0.006698 0.024400 -0.001106 0.001782 -0.003467
# 4 0.001297 -0.000453 -0.001106 0.027212 0.008308 0.005605
# 5 0.011370 -0.003002 0.001782 0.008308 0.040766 -0.001099
# 6 -0.004071 0.003657 -0.003467 0.005605 -0.001099 0.046474
#
#
# Mechanical properties :
#
#
# Convention : Reuss Voigt Hill
#
# Bulk Modulus (GPa) = 43.79998 53.43103 48.61551
# Shear Modulus (GPa) = 23.30076 28.74754 26.02415
#
# Velocity S-wave (km/s) = 3.50029 3.88793 3.69919
# Velocity P-wave (km/s) = 6.27431 6.94621 6.61879
#
# Compressibility (1/GPa) = 0.02283106
#
# Stress axis : x y z
#
# Youngs Moduli (GPa) = 48.74493 78.35551 40.98355
#
# Poissons Ratio (x) = 0.32046 0.27194
# Poissons Ratio (y) = 0.19936 0.27450
# Poissons Ratio (z) = 0.32344 0.52482
#
# Static dielectric constant tensor:
#      x y z
#    x 1.661220 0.020420 -0.003310 
#    y 0.020420 1.689810 -0.024610 
#    z -0.003310 -0.024610 1.655680 
# 
# From -- ./inp_files/594923.got.cif
#   From: 2010.05.17/outbox.cif.g08.bks.cpg/sg2_298_cif.got.tgz:594923.got - 2010.06.03 11:33:40.
