data_PCOD9107137
_publ_section_title
;
Structure prediction by ZEFSAII (Michael W. Deem and Ramdas Pophale) SiO2 
 PCOD9107137
Probable space group: P -1
;
_chemical_formula_sum "Si O2"
_cell_formula_units_Z 16
_cell_length_a 19.044307
_cell_length_b 14.973969
_cell_length_c 14.592978
_cell_angle_alpha 37.346540
_cell_angle_beta 34.331335
_cell_angle_gamma 19.202257
_cell_volume 769.354448
_symmetry_space_group_name_H-M "P -1"
_symmetry_group_IT_number 2
_symmetry_cell_setting 'triclinic'
loop_
_space_group_symop_operation_xyz
x,y,z
-x,-y,-z
loop_
_atom_site_type_symbol
_atom_site_label
_atom_site_fract_x
_atom_site_fract_y
_atom_site_fract_z
Si Si1 0.744055 0.205384 0.014226
Si Si2 0.911404 0.925476 0.683226
Si Si3 0.163465 0.087224 0.501555
Si Si4 0.979161 0.784141 0.239949
Si Si5 0.359466 0.295195 0.725744
Si Si6 0.001549 0.058698 0.232655
Si Si7 0.279072 0.281231 0.200994
Si Si8 0.414061 0.322461 0.841819
O O1 0.854588 0.239817 0.912515
O O2 0.891846 0.016358 0.919889
O O3 0.500000 0.500000 0.000000
O O4 0.766117 0.051253 0.188780
O O5 0.867144 0.990671 0.786835
O O6 0.114210 0.604379 0.712117
O O7 0.678527 0.106542 0.738797
O O8 0.000000 0.000000 0.500000
O O9 0.142787 0.267614 0.330605
O O10 0.098395 0.171443 0.609626
O O11 0.439109 0.784583 0.445611
O O12 0.017952 0.098341 0.608801
O O13 0.127787 0.512182 0.251697
O O14 0.365881 0.265947 0.852760
O O15 0.475512 0.032616 0.773274
O O16 0.744534 0.378397 0.250178
O O17 0.330960 0.332498 0.017425
#
# Coordination Sequence:
#
# PCOD9107137 Si02
#       8
#     2   2   2   2   2   2   2   2
#     4  10  22  36  62  91 118 148 205 248 294 352
#     4  11  23  36  63  91 121 157 205 247 299 347
#     4   9  20  37  64  85 123 156 201 243 300 359
#     4  10  20  40  63  88 116 163 195 246 304 349
#     4   9  22  39  56  92 119 158 200 244 295 356
#     4  10  21  39  60  89 118 156 199 251 293 354
#     4  10  21  38  65  86 121 164 195 244 305 356
#     4  11  21  39  65  86 121 161 202 243 299 353
#
# _framework density 20.796655999999999
#
# number of rings (size 3 to 8) (size 9 to 14) (size 15 to 20)
#    0.750    1.250    1.250    2.250    1.750    3.500 
#    0.000    1.250    0.000    2.250    0.000    0.000 
#    0.000    0.000    0.000    0.000    0.000    0.000 
#
# Total GULP energy -89208.930247 kJ/mol
# GULP energy per Si atom -5575.558140 kJ/mol
# Density = 2.074932 g / cm^3
# Si number density = 20.796656 Si / 1000 Ang^3
#
#
#
# Elastic Constant Matrix: (Units=GPa)
#
#
# Indices 1 2 3 4 5 6 
#
# 1 55.4881 43.9446 3.4771 -7.3731 5.9188 7.5648
# 2 43.9446 111.2946 -3.8147 -9.9088 4.1715 1.7937
# 3 3.4771 -3.8147 52.7473 -3.6417 -0.2569 1.3210
# 4 -7.3731 -9.9088 -3.6417 24.5737 3.6451 1.0920
# 5 5.9188 4.1715 -0.2569 3.6451 7.5257 2.9579
# 6 7.5648 1.7937 1.3210 1.0920 2.9579 35.5218
#
#
#
# Elastic Compliance Matrix: (Units=1/GPa)
#
#
# Indices 1 2 3 4 5 6 
#
# 1 0.030239 -0.010511 -0.002211 0.007672 -0.020020 -0.004396
# 2 -0.010511 0.013442 0.001803 0.002612 -0.000975 0.001494
# 3 -0.002211 0.001803 0.019450 0.002943 0.000154 -0.000447
# 4 0.007672 0.002612 0.002943 0.049096 -0.030840 -0.000816
# 5 -0.020020 -0.000975 0.000154 -0.030840 0.167523 -0.008695
# 6 -0.004396 0.001494 -0.000447 -0.000816 -0.008695 0.029778
#
#
# Mechanical properties :
#
#
# Convention : Reuss Voigt Hill
#
# Bulk Modulus (GPa) = 24.21766 34.08267 29.15016
# Shear Modulus (GPa) = 14.48721 25.25246 19.86984
#
# Velocity S-wave (km/s) = 2.64221 3.48840 3.09436
# Velocity P-wave (km/s) = 4.58024 5.71396 5.17822
#
# Compressibility (1/GPa) = 0.04129218
#
# Stress axis : x y z
#
# Youngs Moduli (GPa) = 33.06961 74.39136 51.41493
#
# Poissons Ratio (x) = 0.78196 0.11369
# Poissons Ratio (y) = 0.34761 -0.09271
# Poissons Ratio (z) = 0.07313 -0.13415
#
# Static dielectric constant tensor:
#      x y z
#    x 1.782050 0.021310 0.005580 
#    y 0.021310 1.769030 -0.022190 
#    z 0.005580 -0.022190 1.776800 
# 
# From -- ./inp_files/538872.got.cif
#   From: 2010.05.17/outbox.cif.g08.bks.cpg/sg2_270_cif.got.tgz:538872.got - 2010.06.03 11:33:40.
