data_PCOD9107437
_publ_section_title
;
Structure prediction by ZEFSAII (Michael W. Deem and Ramdas Pophale) SiO2 
 PCOD9107437
Probable space group: P -1
;
_chemical_formula_sum "Si O2"
_cell_formula_units_Z 15
_cell_length_a 11.644514
_cell_length_b 10.529407
_cell_length_c 10.172119
_cell_angle_alpha 77.406270
_cell_angle_beta 140.783153
_cell_angle_gamma 108.263758
_cell_volume 748.190674
_symmetry_space_group_name_H-M "P -1"
_symmetry_group_IT_number 2
_symmetry_cell_setting 'triclinic'
loop_
_space_group_symop_operation_xyz
x,y,z
-x,-y,-z
loop_
_atom_site_type_symbol
_atom_site_label
_atom_site_fract_x
_atom_site_fract_y
_atom_site_fract_z
Si Si1 0.020027 0.786082 0.988789
Si Si2 0.062727 0.843250 0.729741
Si Si3 0.582849 0.484364 0.720765
Si Si4 0.586947 0.008208 0.717894
Si Si5 0.000000 0.500000 0.000000
Si Si6 0.179212 0.156364 0.731262
Si Si7 0.311905 0.256753 0.092676
Si Si8 0.474756 0.807371 0.152838
O O1 0.957005 0.773580 0.781734
O O2 0.853612 0.793278 0.936470
O O3 0.196844 0.910839 0.120589
O O4 0.092997 0.652531 0.106332
O O5 0.951077 0.803818 0.505614
O O6 0.088983 0.003734 0.730409
O O7 0.265085 0.807992 0.918902
O O8 0.500000 0.500000 0.500000
O O9 0.564671 0.603598 0.776370
O O10 0.511311 0.338012 0.751285
O O11 0.804026 0.505878 0.893255
O O12 0.492358 0.089785 0.719213
O O13 0.500000 0.000000 0.500000
O O14 0.576246 0.859062 0.791083
O O15 0.372635 0.149632 0.833854
O O16 0.218760 0.255446 0.867338
#
# Coordination Sequence:
#
# PCOD9107437 Si02
#       8
#     2   2   2   2   1   2   2   2
#     4  10  21  40  66  89 126 162 215 267 310 378
#     4  10  22  41  65  90 123 173 212 255 325 374
#     4  11  24  41  67  94 129 169 210 263 330 377
#     4  11  22  36  63  97 125 160 214 271 320 361
#     4  10  20  40  64  92 124 160 216 258 310 386
#     4  11  24  40  64  94 130 170 210 261 324 379
#     4  11  24  40  61  98 128 158 218 272 309 378
#     4  11  23  43  64  90 131 173 212 255 320 398
#
# _framework density 20.048365
#
# number of rings (size 3 to 8) (size 9 to 14) (size 15 to 20)
#    0.000    1.333    5.333    1.600    5.600    1.600 
#    0.000    0.667    0.000    0.000    0.000    0.000 
#    0.000    0.000    0.000    0.000    0.000    0.000 
#
# Total GULP energy -83504.481155 kJ/mol
# GULP energy per Si atom -5566.965410 kJ/mol
# Density = 2.000273 g / cm^3
# Si number density = 20.048365 Si / 1000 Ang^3
#
#
#
# Elastic Constant Matrix: (Units=GPa)
#
#
# Indices 1 2 3 4 5 6 
#
# 1 61.8561 -5.4136 2.2170 6.1173 -14.1599 -1.4764
# 2 -5.4136 108.0322 10.0043 18.1579 -4.2760 -27.1029
# 3 2.2170 10.0043 115.7820 18.2725 -25.0500 -9.8094
# 4 6.1173 18.1579 18.2725 18.6869 -9.5604 -6.3463
# 5 -14.1599 -4.2760 -25.0500 -9.5604 21.2256 3.8439
# 6 -1.4764 -27.1029 -9.8094 -6.3463 3.8439 11.8854
#
#
#
# Elastic Compliance Matrix: (Units=1/GPa)
#
#
# Indices 1 2 3 4 5 6 
#
# 1 0.020588 0.003656 0.003959 -0.003412 0.016329 0.007059
# 2 0.003656 0.024574 0.003486 -0.011982 -0.003704 0.054168
# 3 0.003959 0.003486 0.013299 -0.006692 0.013973 0.011323
# 4 -0.003412 -0.011982 -0.006692 0.087939 0.026069 0.005255
# 5 0.016329 -0.003704 0.013973 0.026069 0.087150 -0.009150
# 6 0.007059 0.054168 0.011323 0.005255 -0.009150 0.223646
#
#
# Mechanical properties :
#
#
# Convention : Reuss Voigt Hill
#
# Bulk Modulus (GPa) = 12.39741 33.25396 22.82569
# Shear Modulus (GPa) = 10.82527 28.95041 19.88784
#
# Velocity S-wave (km/s) = 2.32622 3.80416 3.15301
# Velocity P-wave (km/s) = 3.66227 5.99320 4.96642
#
# Compressibility (1/GPa) = 0.08066203
#
# Stress axis : x y z
#
# Youngs Moduli (GPa) = 48.57084 40.69394 75.19563
#
# Poissons Ratio (x) = -0.14877 -0.29772
# Poissons Ratio (y) = -0.17756 -0.26210
# Poissons Ratio (z) = -0.19230 -0.14184
#
# Static dielectric constant tensor:
#      x y z
#    x 1.691020 0.018210 -0.018870 
#    y 0.018210 1.808160 -0.011770 
#    z -0.018870 -0.011770 1.770570 
# 
# From -- ./inp_files/238792.got.cif
#   From: 2010.05.17/outbox.cif.g08.bks.cpg/sg2_120_cif.got.tgz:238792.got - 2010.06.03 11:33:40.
