data_PCOD9107156
_publ_section_title
;
Structure prediction by ZEFSAII (Michael W. Deem and Ramdas Pophale) SiO2 
 PCOD9107156
Probable space group: P -1
;
_chemical_formula_sum "Si O2"
_cell_formula_units_Z 16
_cell_length_a 5.381765
_cell_length_b 24.236922
_cell_length_c 5.096801
_cell_angle_alpha 91.933814
_cell_angle_beta 78.899975
_cell_angle_gamma 113.527217
_cell_volume 597.457990
_symmetry_space_group_name_H-M "P -1"
_symmetry_group_IT_number 2
_symmetry_cell_setting 'triclinic'
loop_
_space_group_symop_operation_xyz
x,y,z
-x,-y,-z
loop_
_atom_site_type_symbol
_atom_site_label
_atom_site_fract_x
_atom_site_fract_y
_atom_site_fract_z
Si Si1 0.350333 0.461129 0.774679
Si Si2 0.822820 0.781400 0.603131
Si Si3 0.245451 0.013105 0.654824
Si Si4 0.891783 0.111454 0.157383
Si Si5 0.796574 0.249222 0.076585
Si Si6 0.205425 0.629284 0.029471
Si Si7 0.449528 0.346069 0.548388
Si Si8 0.479629 0.139685 0.877916
O O1 0.500000 0.500000 0.500000
O O2 0.369844 0.397533 0.697751
O O3 0.023976 0.437393 0.896206
O O4 0.500000 0.500000 0.000000
O O5 0.020654 0.853894 0.570287
O O6 0.505193 0.773859 0.717836
O O7 0.764488 0.723258 0.420657
O O8 0.977445 0.764800 0.812195
O O9 0.388611 0.082998 0.699887
O O10 0.500000 0.000000 0.500000
O O11 0.000000 0.000000 0.500000
O O12 0.133963 0.957452 0.873746
O O13 0.187085 0.145745 0.962983
O O14 0.625797 0.117713 0.085764
O O15 0.892436 0.320080 0.049132
O O16 0.703037 0.208024 0.825293
O O17 0.312884 0.652039 0.300784
O O18 0.436162 0.633806 0.766369
#
# Coordination Sequence:
#
# PCOD9107156 Si02
#       8
#     2   2   2   2   2   2   2   2
#     4  12  28  46  74 108 144 191 244 297 364 442
#     4   9  21  40  69 100 135 176 236 297 361 427
#     4  12  24  36  54  90 132 174 226 288 348 420
#     4  10  20  40  63  89 124 177 228 283 349 424
#     4   9  21  40  69 100 135 176 236 297 361 427
#     4  11  26  46  73 106 145 192 240 304 366 435
#     4  11  26  46  73 106 145 192 240 304 366 435
#     4  10  20  40  63  89 124 177 228 283 349 424
#
# _framework density 26.780127
#
# number of rings (size 3 to 8) (size 9 to 14) (size 15 to 20)
#    0.000    1.500    0.000    3.750    8.750    4.000 
#    2.250    0.000    0.000    0.000    0.000    0.000 
#    0.000    0.000    0.000    0.000    0.000    0.000 
#
# Total GULP energy -89298.481235 kJ/mol
# GULP energy per Si atom -5581.155077 kJ/mol
# Density = 2.671917 g / cm^3
# Si number density = 26.780127 Si / 1000 Ang^3
#
#
#
# Elastic Constant Matrix: (Units=GPa)
#
#
# Indices 1 2 3 4 5 6 
#
# 1 148.9433 51.7261 28.7764 9.0164 16.2468 10.2871
# 2 51.7261 167.9092 55.7448 35.8923 -10.8248 29.6354
# 3 28.7764 55.7448 96.6298 25.2973 13.9490 26.9529
# 4 9.0164 35.8923 25.2973 65.2546 0.4839 -5.6346
# 5 16.2468 -10.8248 13.9490 0.4839 36.8451 9.8501
# 6 10.2871 29.6354 26.9529 -5.6346 9.8501 73.9975
#
#
#
# Elastic Compliance Matrix: (Units=1/GPa)
#
#
# Indices 1 2 3 4 5 6 
#
# 1 0.008243 -0.002994 -0.000544 0.000832 -0.004566 0.000922
# 2 -0.002994 0.010041 -0.003894 -0.003941 0.006699 -0.003379
# 3 -0.000544 -0.003894 0.015690 -0.004135 -0.005822 -0.003620
# 4 0.000832 -0.003941 -0.004135 0.019392 -0.001454 0.004639
# 5 -0.004566 0.006699 -0.005822 -0.001454 0.034587 -0.004642
# 6 0.000922 -0.003379 -0.003620 0.004639 -0.004642 0.017029
#
#
# Mechanical properties :
#
#
# Convention : Reuss Voigt Hill
#
# Bulk Modulus (GPa) = 52.32591 76.21967 64.27279
# Shear Modulus (GPa) = 39.61537 53.70179 46.65858
#
# Velocity S-wave (km/s) = 3.85032 4.48290 4.17860
# Velocity P-wave (km/s) = 6.27281 7.43762 6.87991
#
# Compressibility (1/GPa) = 0.01911099
#
# Stress axis : x y z
#
# Youngs Moduli (GPa) = 121.32030 99.58767 63.73625
#
# Poissons Ratio (x) = 0.29814 0.03464
# Poissons Ratio (y) = 0.36320 0.24820
# Poissons Ratio (z) = 0.06594 0.38780
#
# Static dielectric constant tensor:
#      x y z
#    x 2.166610 0.015740 -0.194590 
#    y 0.015740 2.287340 -0.107840 
#    z -0.194590 -0.107840 2.345040 
# 
# From -- ./inp_files/13427.got.cif
#   From: 2010.05.17/outbox.cif.g08.bks.cpg/sg2_7_cif.got.tgz:13427.got - 2010.06.03 11:33:40.
