data_PCOD9107842
_publ_section_title
;
Structure prediction by ZEFSAII (Michael W. Deem and Ramdas Pophale) SiO2 
 PCOD9107842
Probable space group: P -1
;
_chemical_formula_sum "Si O2"
_cell_formula_units_Z 16
_cell_length_a 17.053366
_cell_length_b 7.754222
_cell_length_c 15.103611
_cell_angle_alpha 120.864477
_cell_angle_beta 155.902017
_cell_angle_gamma 71.970477
_cell_volume 624.015549
_symmetry_space_group_name_H-M "P -1"
_symmetry_group_IT_number 2
_symmetry_cell_setting 'triclinic'
loop_
_space_group_symop_operation_xyz
x,y,z
-x,-y,-z
loop_
_atom_site_type_symbol
_atom_site_label
_atom_site_fract_x
_atom_site_fract_y
_atom_site_fract_z
Si Si1 0.282678 0.199930 0.512295
Si Si2 0.371070 0.718180 0.964316
Si Si3 0.043526 0.208822 0.437114
Si Si4 0.746014 0.964547 0.264678
Si Si5 0.247615 0.342231 0.205519
Si Si6 0.966845 0.449385 0.828367
Si Si7 0.350891 0.693880 0.679575
Si Si8 0.257055 0.959077 0.238756
O O1 0.106875 0.135093 0.391410
O O2 0.302675 0.436795 0.561435
O O3 0.229216 0.031334 0.329926
O O4 0.503258 0.253102 0.805935
O O5 0.234298 0.459816 0.722460
O O6 0.186129 0.795342 0.807875
O O7 0.557730 0.848313 0.118105
O O8 0.060346 0.066350 0.500109
O O9 0.776789 0.220303 0.360452
O O10 0.601975 0.826449 0.997190
O O11 0.500000 0.500000 0.500000
O O12 0.223276 0.122344 0.176406
O O13 0.150268 0.478852 0.197596
O O14 0.124272 0.340813 0.987159
O O15 0.760182 0.278270 0.516022
O O16 0.112029 0.695304 0.999707
O O17 0.500000 0.000000 0.500000
#
# Coordination Sequence:
#
# PCOD9107842 Si02
#       8
#     2   2   2   2   2   2   2   2
#     4  11  22  43  69  95 137 179 222 287 349 410
#     4  10  20  40  66 104 134 172 234 278 344 424
#     4  10  20  40  68 101 134 178 226 286 342 424
#     4  10  21  43  65  97 141 177 220 285 352 406
#     4  11  24  47  71 103 146 178 239 303 350 422
#     4  11  26  48  72 103 141 193 239 295 364 423
#     4  11  22  42  70  93 135 186 224 279 353 421
#     4  12  26  50  76 104 143 195 243 299 362 429
#
# _framework density 25.640385999999999
#
# number of rings (size 3 to 8) (size 9 to 14) (size 15 to 20)
#    0.000    1.250    5.000    1.125    0.000    5.000 
#    2.250    6.250    0.000    0.000    0.000    0.000 
#    0.000    0.000    0.000    0.000    0.000    0.000 
#
# Total GULP energy -89461.016112 kJ/mol
# GULP energy per Si atom -5591.313507 kJ/mol
# Density = 2.558203 g / cm^3
# Si number density = 25.640386 Si / 1000 Ang^3
#
#
#
# Elastic Constant Matrix: (Units=GPa)
#
#
# Indices 1 2 3 4 5 6 
#
# 1 46.6351 40.1092 16.8520 -4.1395 7.3862 21.1685
# 2 40.1092 149.4140 90.4333 -33.4857 -11.8387 -1.7032
# 3 16.8520 90.4333 178.5007 -38.9174 5.0404 10.0726
# 4 -4.1395 -33.4857 -38.9174 64.5412 -1.0371 -3.3591
# 5 7.3862 -11.8387 5.0404 -1.0371 31.9698 -11.0115
# 6 21.1685 -1.7032 10.0726 -3.3591 -11.0115 28.2618
#
#
#
# Elastic Compliance Matrix: (Units=1/GPa)
#
#
# Indices 1 2 3 4 5 6 
#
# 1 -0.379666 0.200856 -0.089745 0.055502 0.338939 0.467121
# 2 0.200856 -0.094823 0.041784 -0.026439 -0.172052 -0.241228
# 3 -0.089745 0.041784 -0.011740 0.015501 0.074679 0.104862
# 4 0.055502 -0.026439 0.015501 0.010491 -0.047422 -0.065919
# 5 0.338939 -0.172052 0.074679 -0.047422 -0.261232 -0.398273
# 6 0.467121 -0.241228 0.104862 -0.065919 -0.398273 -0.529419
#
#
# Mechanical properties :
#
#
# Convention : Reuss Voigt Hill
#
# Bulk Modulus (GPa) = -5.54203 74.37097 34.41447
# Shear Modulus (GPa) = -3.06311 40.09825 18.51757
#
# Velocity S-wave (km/s) = -1.09418 3.95887 2.69030
# Velocity P-wave (km/s) = 1.93970 7.06861 4.80639
#
# Compressibility (1/GPa) = -0.18043941
#
# Stress axis : x y z
#
# Youngs Moduli (GPa) = -2.63389 -10.54598 -85.17657
#
# Poissons Ratio (x) = 2.11823 -7.64416
# Poissons Ratio (y) = 0.52903 3.55899
# Poissons Ratio (z) = -0.23638 0.44065
#
# Static dielectric constant tensor:
#      x y z
#    x 2.210560 0.072290 -0.059350 
#    y 0.072290 2.081730 -0.014160 
#    z -0.059350 -0.014160 2.115130 
# 
# From -- ./inp_files/577455.got.cif
#   From: 2010.05.17/outbox.cif.g08.bks.cpg/sg2_289_cif.got.tgz:577455.got - 2010.06.03 11:33:40.
