data_PCOD9107967
_publ_section_title
;
Structure prediction by ZEFSAII (Michael W. Deem and Ramdas Pophale) SiO2 
 PCOD9107967
Probable space group: P -1
;
_chemical_formula_sum "Si O2"
_cell_formula_units_Z 16
_cell_length_a 8.980453
_cell_length_b 12.600777
_cell_length_c 15.199745
_cell_angle_alpha 120.429011
_cell_angle_beta 72.504249
_cell_angle_gamma 57.216366
_cell_volume 759.591390
_symmetry_space_group_name_H-M "P -1"
_symmetry_group_IT_number 2
_symmetry_cell_setting 'triclinic'
loop_
_space_group_symop_operation_xyz
x,y,z
-x,-y,-z
loop_
_atom_site_type_symbol
_atom_site_label
_atom_site_fract_x
_atom_site_fract_y
_atom_site_fract_z
Si Si1 0.679397 0.671785 0.113767
Si Si2 0.051545 0.945787 0.864977
Si Si3 0.812800 0.316574 0.957246
Si Si4 0.162714 0.749375 0.262542
Si Si5 0.284465 0.483549 0.449069
Si Si6 0.919116 0.899415 0.561410
Si Si7 0.194905 0.306848 0.266803
Si Si8 0.508737 0.148141 0.971969
O O1 0.599093 0.724973 0.047361
O O2 0.414484 0.923213 0.307484
O O3 0.709125 0.518992 0.088740
O O4 0.000000 0.500000 0.000000
O O5 0.384378 0.689500 0.676366
O O6 0.006468 0.109606 0.899530
O O7 0.799958 0.023597 0.903705
O O8 0.000000 0.000000 0.000000
O O9 0.962624 0.217195 0.793246
O O10 0.488049 0.475852 0.081386
O O11 0.054241 0.789007 0.395279
O O12 0.110850 0.933250 0.343230
O O13 0.269726 0.372290 0.342860
O O14 0.094565 0.713440 0.528510
O O15 0.119353 0.543430 0.590709
O O16 0.409523 0.049687 0.139223
O O17 0.259635 0.311230 0.159043
#
# Coordination Sequence:
#
# PCOD9107967 Si02
#       8
#     2   2   2   2   2   2   2   2
#     4  11  25  43  69  90 129 180 220 270 324 397
#     4  12  24  40  71 104 129 173 220 273 327 395
#     4  10  22  38  64  93 127 162 225 261 321 384
#     4   9  19  39  64  93 122 167 202 281 319 379
#     4  11  23  41  67  99 138 174 212 277 329 394
#     4  10  20  40  66  92 131 162 214 267 336 372
#     4  10  24  41  65  92 142 178 212 271 329 397
#     4  11  23  46  66  96 133 174 228 268 329 392
#
# _framework density 21.063956999999998
#
# number of rings (size 3 to 8) (size 9 to 14) (size 15 to 20)
#    0.000    1.500    2.500    3.000    3.500    0.500 
#    2.250    0.625    0.000    0.000    0.000    0.000 
#    0.000    0.000    0.000    0.000    0.000    0.000 
#
# Total GULP energy -89151.920551 kJ/mol
# GULP energy per Si atom -5571.995034 kJ/mol
# Density = 2.101601 g / cm^3
# Si number density = 21.063957 Si / 1000 Ang^3
#
#
#
# Elastic Constant Matrix: (Units=GPa)
#
#
# Indices 1 2 3 4 5 6 
#
# 1 52.8715 15.0893 15.4525 11.9858 -16.7231 -2.6262
# 2 15.0893 83.0065 29.5223 12.5386 -17.2812 1.3871
# 3 15.4525 29.5223 114.9193 -7.7332 -24.1836 -4.6728
# 4 11.9858 12.5386 -7.7332 42.7281 6.5032 -0.9445
# 5 -16.7231 -17.2812 -24.1836 6.5032 35.0012 5.9872
# 6 -2.6262 1.3871 -4.6728 -0.9445 5.9872 22.4800
#
#
#
# Elastic Compliance Matrix: (Units=1/GPa)
#
#
# Indices 1 2 3 4 5 6 
#
# 1 0.025586 0.000047 -0.001344 -0.009485 0.013293 -0.001232
# 2 0.000047 0.015725 -0.003050 -0.006412 0.007534 -0.003875
# 3 -0.001344 -0.003050 0.010872 0.002551 0.004694 0.001148
# 4 -0.009485 -0.006412 0.002551 0.030381 -0.012329 0.004378
# 5 0.013293 0.007534 0.004694 -0.012329 0.046007 -0.010707
# 6 -0.001232 -0.003875 0.001148 0.004378 -0.010707 0.047854
#
#
# Mechanical properties :
#
#
# Convention : Reuss Voigt Hill
#
# Bulk Modulus (GPa) = 22.99294 41.21394 32.10344
# Shear Modulus (GPa) = 25.04841 32.75740 28.90290
#
# Velocity S-wave (km/s) = 3.45216 3.94780 3.70827
# Velocity P-wave (km/s) = 5.17971 6.35522 5.79733
#
# Compressibility (1/GPa) = 0.04349162
#
# Stress axis : x y z
#
# Youngs Moduli (GPa) = 39.08319 63.59282 91.97950
#
# Poissons Ratio (x) = -0.00302 0.12359
# Poissons Ratio (y) = -0.00185 0.28051
# Poissons Ratio (z) = 0.05251 0.19394
#
# Static dielectric constant tensor:
#      x y z
#    x 1.671280 0.169690 -0.032950 
#    y 0.169690 1.729490 -0.069010 
#    z -0.032950 -0.069010 1.812340 
# 
# From -- ./inp_files/500687.got.cif
#   From: 2010.05.17/outbox.cif.g08.bks.cpg/sg2_251_cif.got.tgz:500687.got - 2010.06.03 11:33:40.
