data_PCOD9107595
_publ_section_title
;
Structure prediction by ZEFSAII (Michael W. Deem and Ramdas Pophale) SiO2 
 PCOD9107595
Probable space group: P -1
;
_chemical_formula_sum "Si O2"
_cell_formula_units_Z 14
_cell_length_a 11.225500
_cell_length_b 13.731777
_cell_length_c 6.495966
_cell_angle_alpha 70.259918
_cell_angle_beta 77.816085
_cell_angle_gamma 128.739346
_cell_volume 601.269180
_symmetry_space_group_name_H-M "P -1"
_symmetry_group_IT_number 2
_symmetry_cell_setting 'triclinic'
loop_
_space_group_symop_operation_xyz
x,y,z
-x,-y,-z
loop_
_atom_site_type_symbol
_atom_site_label
_atom_site_fract_x
_atom_site_fract_y
_atom_site_fract_z
Si Si1 0.158325 0.841534 0.759170
Si Si2 0.996747 0.889467 0.455266
Si Si3 0.780036 0.347495 0.157060
Si Si4 0.588481 0.339508 0.880185
Si Si5 0.600494 0.662182 0.672763
Si Si6 0.280178 0.080692 0.862475
Si Si7 0.741635 0.523965 0.296027
O O1 0.255730 0.796377 0.698409
O O2 0.116326 0.884822 0.546052
O O3 0.274729 0.979578 0.785931
O O4 0.951397 0.688328 0.042081
O O5 0.782043 0.715946 0.637471
O O6 0.000000 0.000000 0.500000
O O7 0.090077 0.963057 0.146596
O O8 0.700458 0.383357 0.313143
O O9 0.717597 0.344132 0.956831
O O10 0.000000 0.500000 0.000000
O O11 0.439224 0.185245 0.902858
O O12 0.706786 0.485916 0.575963
O O13 0.478077 0.334465 0.094982
O O14 0.689908 0.801688 0.379995
O O15 0.416381 0.504946 0.729829
#
# Coordination Sequence:
#
# PCOD9107595 Si02
#       7
#     2   2   2   2   2   2   2
#     4  11  24  38  60  99 121 156 208 249 298 366
#     4  12  23  40  65  87 125 164 200 251 308 352
#     4   9  21  41  62  88 127 158 201 248 298 364
#     4  10  20  40  65  87 119 169 196 246 308 353
#     4  10  21  41  64  88 121 165 206 245 298 362
#     4  11  22  38  64  91 119 161 205 249 302 359
#     4   9  22  41  65  89 125 160 201 249 302 360
#
# _framework density 23.284082000000001
#
# number of rings (size 3 to 8) (size 9 to 14) (size 15 to 20)
#    0.000    1.714    2.857    0.429    0.000    8.000 
#    0.000   11.429    0.000    0.000    0.000    0.000 
#    0.000    0.000    0.000    0.000    0.000    0.000 
#
# Total GULP energy -78302.217291 kJ/mol
# GULP energy per Si atom -5593.015521 kJ/mol
# Density = 2.323109 g / cm^3
# Si number density = 23.284082 Si / 1000 Ang^3
#
#
#
# Elastic Constant Matrix: (Units=GPa)
#
#
# Indices 1 2 3 4 5 6 
#
# 1 68.0304 36.6892 27.6990 17.8128 13.0414 16.6036
# 2 36.6892 101.4762 13.2646 16.4766 17.3070 2.5975
# 3 27.6990 13.2646 146.2988 13.5497 6.3704 1.0017
# 4 17.8128 16.4766 13.5497 33.6111 9.0126 -0.3871
# 5 13.0414 17.3070 6.3704 9.0126 35.0354 -0.6915
# 6 16.6036 2.5975 1.0017 -0.3871 -0.6915 34.6599
#
#
#
# Elastic Compliance Matrix: (Units=1/GPa)
#
#
# Indices 1 2 3 4 5 6 
#
# 1 0.025116 -0.006425 -0.003188 -0.007999 -0.003767 -0.011622
# 2 -0.006425 0.013029 0.000375 -0.002167 -0.003516 0.001996
# 3 -0.003188 0.000375 0.007536 -0.001531 0.000050 0.001265
# 4 -0.007999 -0.002167 -0.001531 0.037097 -0.005130 0.004351
# 5 -0.003767 -0.003516 0.000050 -0.005130 0.033045 0.002669
# 6 -0.011622 0.001996 0.001265 0.004351 0.002669 0.034335
#
#
# Mechanical properties :
#
#
# Convention : Reuss Voigt Hill
#
# Bulk Modulus (GPa) = 36.75853 52.34566 44.55209
# Shear Modulus (GPa) = 28.13708 36.53813 32.33761
#
# Velocity S-wave (km/s) = 3.48001 3.96565 3.73074
# Velocity P-wave (km/s) = 5.65408 6.59535 6.14277
#
# Compressibility (1/GPa) = 0.02720457
#
# Stress axis : x y z
#
# Youngs Moduli (GPa) = 39.81570 76.75214 132.69829
#
# Poissons Ratio (x) = 0.49314 0.42307
# Poissons Ratio (y) = 0.25582 -0.04981
# Poissons Ratio (z) = 0.12694 -0.02881
#
# Static dielectric constant tensor:
#      x y z
#    x 1.904270 -0.021580 0.010690 
#    y -0.021580 1.907580 -0.041370 
#    z 0.010690 -0.041370 1.860840 
# 
# From -- ./inp_files/27862.got.cif
#   From: 2010.05.17/outbox.cif.g08.bks.cpg/sg2_14_cif.got.tgz:27862.got - 2010.06.03 11:33:40.
