data_PCOD9107930
_publ_section_title
;
Structure prediction by ZEFSAII (Michael W. Deem and Ramdas Pophale) SiO2 
 PCOD9107930
Probable space group: P -1
;
_chemical_formula_sum "Si O2"
_cell_formula_units_Z 12
_cell_length_a 23.134915
_cell_length_b 8.649887
_cell_length_c 6.609691
_cell_angle_alpha 108.250223
_cell_angle_beta 130.017060
_cell_angle_gamma 34.072471
_cell_volume 487.662097
_symmetry_space_group_name_H-M "P -1"
_symmetry_group_IT_number 2
_symmetry_cell_setting 'triclinic'
loop_
_space_group_symop_operation_xyz
x,y,z
-x,-y,-z
loop_
_atom_site_type_symbol
_atom_site_label
_atom_site_fract_x
_atom_site_fract_y
_atom_site_fract_z
Si Si1 0.294597 0.655241 0.733491
Si Si2 0.530921 0.382029 0.753258
Si Si3 0.689158 0.759028 0.459838
Si Si4 0.376272 0.413434 0.237625
Si Si5 0.255206 0.290370 0.901735
Si Si6 0.019906 0.780066 0.865444
O O1 0.322004 0.416648 0.639740
O O2 0.430586 0.530333 0.993118
O O3 0.266918 0.684763 0.929289
O O4 0.143544 0.992303 0.421354
O O5 0.500000 0.500000 0.500000
O O6 0.397241 0.497735 0.505885
O O7 0.674160 0.002139 0.962944
O O8 0.709270 0.776645 0.281843
O O9 0.535868 0.100720 0.355361
O O10 0.839286 0.541523 0.818269
O O11 0.331108 0.317147 0.161409
O O12 0.086265 0.635866 0.729818
O O13 0.000000 0.000000 0.000000
#
# Coordination Sequence:
#
# PCOD9107930 Si02
#       6
#     2   2   2   2   2   2
#     4   9  20  37  59  89 127 159 196 259 302 350
#     4  10  21  38  62  93 125 160 200 256 315 359
#     4  10  21  40  65  93 120 159 214 251 299 370
#     4  10  20  40  66  91 122 160 211 252 301 370
#     4  11  21  38  69  88 122 168 204 250 310 358
#     4  10  22  39  64  89 124 164 209 250 298 366
#
# _framework density 24.607202000000001
#
# number of rings (size 3 to 8) (size 9 to 14) (size 15 to 20)
#    0.000    2.000    1.667    2.500    0.000    6.667 
#    0.000    8.333    7.333    0.000    0.000    0.000 
#    0.000    0.000    0.000    0.000    0.000    0.000 
#
# Total GULP energy -66935.360981 kJ/mol
# GULP energy per Si atom -5577.946748 kJ/mol
# Density = 2.455120 g / cm^3
# Si number density = 24.607202 Si / 1000 Ang^3
#
#
#
# Elastic Constant Matrix: (Units=GPa)
#
#
# Indices 1 2 3 4 5 6 
#
# 1 93.0839 46.9140 32.7007 -14.3970 -1.1784 -1.9096
# 2 46.9140 94.1441 50.9656 -1.0939 9.5825 -5.4332
# 3 32.7007 50.9656 182.6733 7.9905 3.7596 -2.2467
# 4 -14.3970 -1.0939 7.9905 46.5205 -5.6725 4.9376
# 5 -1.1784 9.5825 3.7596 -5.6725 30.6262 -4.5187
# 6 -1.9096 -5.4332 -2.2467 4.9376 -4.5187 45.9356
#
#
#
# Elastic Compliance Matrix: (Units=1/GPa)
#
#
# Indices 1 2 3 4 5 6 
#
# 1 0.015893 -0.007755 -0.001011 0.005462 0.004101 -0.000490
# 2 -0.007755 0.016734 -0.003055 -0.002270 -0.005400 0.001220
# 3 -0.001011 -0.003055 0.006579 -0.001542 -0.000166 0.000068
# 4 0.005462 -0.002270 -0.001542 0.024276 0.005280 -0.002207
# 5 0.004101 -0.005400 -0.000166 0.005280 0.035864 0.002484
# 6 -0.000490 0.001220 0.000068 -0.002207 0.002484 0.022378
#
#
# Mechanical properties :
#
#
# Convention : Reuss Voigt Hill
#
# Bulk Modulus (GPa) = 64.24772 70.11797 67.18285
# Shear Modulus (GPa) = 33.21047 40.57120 36.89084
#
# Velocity S-wave (km/s) = 3.67771 4.06489 3.87614
# Velocity P-wave (km/s) = 6.64831 7.11251 6.88433
#
# Compressibility (1/GPa) = 0.01556475
#
# Stress axis : x y z
#
# Youngs Moduli (GPa) = 62.91983 59.75834 151.99203
#
# Poissons Ratio (x) = 0.46343 0.15363
# Poissons Ratio (y) = 0.48794 0.46436
# Poissons Ratio (z) = 0.06360 0.18257
#
# Static dielectric constant tensor:
#      x y z
#    x 2.049910 -0.014200 -0.065590 
#    y -0.014200 1.958090 0.054600 
#    z -0.065590 0.054600 2.012970 
# 
# From -- ./inp_files/356483.got.cif
#   From: 2010.05.17/outbox.cif.g08.bks.cpg/sg2_179_cif.got.tgz:356483.got - 2010.06.03 11:33:40.
