data_PCOD9107498
_publ_section_title
;
Structure prediction by ZEFSAII (Michael W. Deem and Ramdas Pophale) SiO2 
 PCOD9107498
Probable space group: P -1
;
_chemical_formula_sum "Si O2"
_cell_formula_units_Z 12
_cell_length_a 9.155878
_cell_length_b 23.288518
_cell_length_c 13.004230
_cell_angle_alpha 22.827849
_cell_angle_beta 32.030500
_cell_angle_gamma 25.598793
_cell_volume 462.528293
_symmetry_space_group_name_H-M "P -1"
_symmetry_group_IT_number 2
_symmetry_cell_setting 'triclinic'
loop_
_space_group_symop_operation_xyz
x,y,z
-x,-y,-z
loop_
_atom_site_type_symbol
_atom_site_label
_atom_site_fract_x
_atom_site_fract_y
_atom_site_fract_z
Si Si1 0.792792 0.164899 0.063050
Si Si2 0.137066 0.605738 0.601473
Si Si3 0.625146 0.815544 0.293752
Si Si4 0.365877 0.735786 0.402285
Si Si5 0.730222 0.721939 0.998163
Si Si6 0.570833 0.092045 0.517608
O O1 0.517203 0.226425 0.037492
O O2 0.658803 0.182350 0.229166
O O3 0.056638 0.948046 0.245784
O O4 0.990400 0.258965 0.785523
O O5 0.500000 0.500000 0.500000
O O6 0.227131 0.619519 0.642239
O O7 0.834101 0.814690 0.410805
O O8 0.996998 0.490445 0.839521
O O9 0.576865 0.691380 0.453534
O O10 0.411306 0.872688 0.431821
O O11 0.500000 0.000000 0.000000
O O12 0.573552 0.730380 0.188729
O O13 0.786423 0.877920 0.715930
#
# Coordination Sequence:
#
# PCOD9107498 Si02
#       6
#     2   2   2   2   2   2
#     4  11  22  38  66  94 123 165 205 259 306 369
#     4  10  23  38  66  94 121 165 208 256 308 366
#     4  10  21  39  66  91 125 169 204 251 311 374
#     4  10  20  40  64  95 121 167 210 248 315 367
#     4  11  21  41  64  92 127 158 207 260 306 363
#     4  12  23  42  65  95 124 162 212 250 316 367
#
# _framework density 25.944358000000001
#
# number of rings (size 3 to 8) (size 9 to 14) (size 15 to 20)
#    0.000    1.333    5.000    3.000    0.000    3.333 
#    0.000    7.500    0.000    5.000    0.000    0.000 
#    0.000    0.000    0.000    0.000    0.000    0.000 
#
# Total GULP energy -67049.790037 kJ/mol
# GULP energy per Si atom -5587.482503 kJ/mol
# Density = 2.588531 g / cm^3
# Si number density = 25.944358 Si / 1000 Ang^3
#
#
#
# Elastic Constant Matrix: (Units=GPa)
#
#
# Indices 1 2 3 4 5 6 
#
# 1 168.0974 45.7321 31.5792 13.1361 -0.9954 56.4460
# 2 45.7321 91.1338 38.7207 -10.3688 -15.6339 30.5894
# 3 31.5792 38.7207 75.4512 18.7801 6.5627 31.4816
# 4 13.1361 -10.3688 18.7801 38.5954 10.6161 8.9752
# 5 -0.9954 -15.6339 6.5627 10.6161 29.5037 -0.2927
# 6 56.4460 30.5894 31.4816 8.9752 -0.2927 50.7879
#
#
#
# Elastic Compliance Matrix: (Units=1/GPa)
#
#
# Indices 1 2 3 4 5 6 
#
# 1 0.009992 -0.003090 0.002472 -0.002779 -0.000952 -0.010291
# 2 -0.003090 0.021975 -0.011753 0.010890 0.010193 -0.004382
# 3 0.002472 -0.011753 0.026006 -0.012319 -0.007592 -0.009655
# 4 -0.002779 0.010890 -0.012319 0.037800 -0.005210 -0.002544
# 5 -0.000952 0.010193 -0.007592 -0.005210 0.042834 0.000793
# 6 -0.010291 -0.004382 -0.009655 -0.002544 0.000793 0.040206
#
#
# Mechanical properties :
#
#
# Convention : Reuss Voigt Hill
#
# Bulk Modulus (GPa) = 30.09153 62.97182 46.53167
# Shear Modulus (GPa) = 23.29556 38.35411 30.82484
#
# Velocity S-wave (km/s) = 2.99976 3.84907 3.45064
# Velocity P-wave (km/s) = 4.86022 6.63915 5.81808
#
# Compressibility (1/GPa) = 0.03323194
#
# Stress axis : x y z
#
# Youngs Moduli (GPa) = 100.07581 45.50549 38.45297
#
# Poissons Ratio (x) = 0.14060 -0.09505
# Poissons Ratio (y) = 0.30921 0.45194
# Poissons Ratio (z) = -0.24737 0.53482
#
# Static dielectric constant tensor:
#      x y z
#    x 2.100520 -0.065200 -0.008520 
#    y -0.065200 2.050120 0.009690 
#    z -0.008520 0.009690 2.166130 
# 
# From -- ./inp_files/231801.got.cif
#   From: 2010.05.17/outbox.cif.g08.bks.cpg/sg2_116_cif.got.tgz:231801.got - 2010.06.03 11:33:40.
