data_PCOD9107821
_publ_section_title
;
Structure prediction by ZEFSAII (Michael W. Deem and Ramdas Pophale) SiO2 
 PCOD9107821
Probable space group: P -1
;
_chemical_formula_sum "Si O2"
_cell_formula_units_Z 14
_cell_length_a 6.087594
_cell_length_b 14.922784
_cell_length_c 11.211091
_cell_angle_alpha 125.405613
_cell_angle_beta 98.520117
_cell_angle_gamma 49.287489
_cell_volume 584.099922
_symmetry_space_group_name_H-M "P -1"
_symmetry_group_IT_number 2
_symmetry_cell_setting 'triclinic'
loop_
_space_group_symop_operation_xyz
x,y,z
-x,-y,-z
loop_
_atom_site_type_symbol
_atom_site_label
_atom_site_fract_x
_atom_site_fract_y
_atom_site_fract_z
Si Si1 0.241125 0.516274 0.073714
Si Si2 0.928619 0.006900 0.635862
Si Si3 0.577937 0.353584 0.437852
Si Si4 0.024816 0.247601 0.576658
Si Si5 0.170463 0.078129 0.113336
Si Si6 0.392166 0.206512 0.357682
Si Si7 0.312279 0.796596 0.018263
O O1 0.014416 0.685669 0.247253
O O2 0.500000 0.500000 0.000000
O O3 0.433128 0.388108 0.097614
O O4 0.000000 0.500000 0.000000
O O5 0.794578 0.929969 0.563784
O O6 0.257969 0.909478 0.653609
O O7 0.000000 0.000000 0.500000
O O8 0.710723 0.163069 0.812957
O O9 0.500000 0.500000 0.500000
O O10 0.679988 0.334326 0.568560
O O11 0.329606 0.344371 0.397109
O O12 0.872857 0.202622 0.272631
O O13 0.171959 0.271881 0.505257
O O14 0.365198 0.117319 0.193088
O O15 0.333942 0.907034 0.035287
O O16 0.002672 0.137895 0.018325
#
# Coordination Sequence:
#
# PCOD9107821 Si02
#       7
#     2   2   2   2   2   2   2
#     4  12  30  52  73 107 153 204 259 311 378 453
#     4  11  23  41  70  99 141 187 251 306 367 443
#     4  10  20  40  66 100 142 182 236 298 377 450
#     4  10  23  43  65  98 137 182 246 300 365 443
#     4  10  22  43  68 108 145 181 248 308 383 452
#     4  10  21  41  70 103 138 191 245 304 370 455
#     4  11  23  47  70 107 148 192 245 319 378 443
#
# _framework density 23.968501
#
# number of rings (size 3 to 8) (size 9 to 14) (size 15 to 20)
#    0.000    1.429    4.286    1.714    6.000    5.714 
#    5.143    0.000    0.000    0.000    0.000    0.000 
#    0.000    0.000    0.000    0.000    0.000    0.000 
#
# Total GULP energy -77959.624065 kJ/mol
# GULP energy per Si atom -5568.544576 kJ/mol
# Density = 2.391395 g / cm^3
# Si number density = 23.968501 Si / 1000 Ang^3
#
#
#
# Elastic Constant Matrix: (Units=GPa)
#
#
# Indices 1 2 3 4 5 6 
#
# 1 131.0355 32.9662 33.4270 6.2530 29.2869 11.5501
# 2 32.9662 77.8862 -3.8265 3.3799 10.7037 4.5716
# 3 33.4270 -3.8265 110.6780 -9.2561 23.8037 -2.5854
# 4 6.2530 3.3799 -9.2561 32.8635 0.0441 6.1805
# 5 29.2869 10.7037 23.8037 0.0441 44.8894 1.3350
# 6 11.5501 4.5716 -2.5854 6.1805 1.3350 35.7910
#
#
#
# Elastic Compliance Matrix: (Units=1/GPa)
#
#
# Indices 1 2 3 4 5 6 
#
# 1 0.010563 -0.003734 -0.002553 -0.001844 -0.004567 -0.002627
# 2 -0.003734 0.014857 0.002093 -0.000143 -0.002203 -0.000435
# 3 -0.002553 0.002093 0.011207 0.003248 -0.004809 0.000984
# 4 -0.001844 -0.000143 0.003248 0.032607 -0.000375 -0.004769
# 5 -0.004567 -0.002203 -0.004809 -0.000375 0.028320 0.000416
# 6 -0.002627 -0.000435 0.000984 -0.004769 0.000416 0.029722
#
#
# Mechanical properties :
#
#
# Convention : Reuss Voigt Hill
#
# Bulk Modulus (GPa) = 35.41059 49.41478 42.41268
# Shear Modulus (GPa) = 34.46445 39.84433 37.15439
#
# Velocity S-wave (km/s) = 3.79609 4.08163 3.94145
# Velocity P-wave (km/s) = 5.83263 6.54784 6.20056
#
# Compressibility (1/GPa) = 0.02824014
#
# Stress axis : x y z
#
# Youngs Moduli (GPa) = 94.67429 67.30775 89.22604
#
# Poissons Ratio (x) = 0.25134 0.22775
# Poissons Ratio (y) = 0.35353 -0.18677
# Poissons Ratio (z) = 0.24166 -0.14089
#
# Static dielectric constant tensor:
#      x y z
#    x 3.166700 0.568890 -0.529750 
#    y 0.568890 2.271780 -0.237950 
#    z -0.529750 -0.237950 2.175720 
# 
# From -- ./inp_files/367167.got.cif
#   From: 2010.05.17/outbox.cif.g08.bks.cpg/sg2_184_cif.got.tgz:367167.got - 2010.06.03 11:33:40.
