data_PCOD9107276
_publ_section_title
;
Structure prediction by ZEFSAII (Michael W. Deem and Ramdas Pophale) SiO2 
 PCOD9107276
Probable space group: P -1
;
_chemical_formula_sum "Si O2"
_cell_formula_units_Z 16
_cell_length_a 28.679753
_cell_length_b 17.221564
_cell_length_c 23.127559
_cell_angle_alpha 21.917356
_cell_angle_beta 11.167938
_cell_angle_gamma 20.241407
_cell_volume 760.968169
_symmetry_space_group_name_H-M "P -1"
_symmetry_group_IT_number 2
_symmetry_cell_setting 'triclinic'
loop_
_space_group_symop_operation_xyz
x,y,z
-x,-y,-z
loop_
_atom_site_type_symbol
_atom_site_label
_atom_site_fract_x
_atom_site_fract_y
_atom_site_fract_z
Si Si1 0.053422 0.239463 0.606507
Si Si2 0.426300 0.958618 0.524954
Si Si3 0.879395 0.884703 0.107587
Si Si4 0.627610 0.513461 0.271923
Si Si5 0.289091 0.752339 0.084109
Si Si6 0.083275 0.194664 0.240020
Si Si7 0.354446 0.418758 0.564085
Si Si8 0.341091 0.024981 0.924052
O O1 0.345525 0.096300 0.370887
O O2 0.000000 0.500000 0.500000
O O3 0.969059 0.214539 0.660735
O O4 0.874163 0.136484 0.930720
O O5 0.644094 0.846988 0.386825
O O6 0.419723 0.765249 0.623169
O O7 0.173530 0.119029 0.757032
O O8 0.556810 0.104505 0.230464
O O9 0.136842 0.719137 0.874912
O O10 0.500000 0.500000 0.500000
O O11 0.432368 0.546445 0.432969
O O12 0.751651 0.700975 0.993925
O O13 0.500000 0.500000 0.000000
O O14 0.230145 0.851861 0.151086
O O15 0.840526 0.406238 0.363469
O O16 0.000000 0.000000 0.500000
O O17 0.259297 0.087564 0.044892
O O18 0.243921 0.254031 0.846332
#
# Coordination Sequence:
#
# PCOD9107276 Si02
#       8
#     2   2   2   2   2   2   2   2
#     4  11  21  38  64  96 134 168 216 277 335 393
#     4   9  21  38  65  95 130 168 221 271 340 396
#     4  10  20  40  63  96 132 175 217 276 332 406
#     4  12  24  43  73  99 132 182 244 274 333 418
#     4  10  21  38  63  93 129 173 219 266 341 406
#     4  12  28  46  66 100 140 173 230 295 352 392
#     4  11  23  44  73  97 129 185 233 277 340 417
#     4  11  23  42  67  95 127 181 229 274 331 413
#
# _framework density 21.025848
#
# number of rings (size 3 to 8) (size 9 to 14) (size 15 to 20)
#    0.000    1.250    5.000    0.375    0.000    4.000 
#    0.000    2.500    0.000    0.000    0.000    0.000 
#    0.000    0.000    0.000    0.000    0.000    0.000 
#
# Total GULP energy -89192.204544 kJ/mol
# GULP energy per Si atom -5574.512784 kJ/mol
# Density = 2.097799 g / cm^3
# Si number density = 21.025848 Si / 1000 Ang^3
#
#
#
# Elastic Constant Matrix: (Units=GPa)
#
#
# Indices 1 2 3 4 5 6 
#
# 1 100.5629 35.2074 27.9071 -7.6313 -19.0286 31.7959
# 2 35.2074 83.2922 36.6030 -18.8819 -9.8733 11.9480
# 3 27.9071 36.6030 71.1932 -11.5380 -7.6330 13.3320
# 4 -7.6313 -18.8819 -11.5380 38.9345 7.4261 -6.7761
# 5 -19.0286 -9.8733 -7.6330 7.4261 35.8185 -1.0786
# 6 31.7959 11.9480 13.3320 -6.7761 -1.0786 40.5402
#
#
#
# Elastic Compliance Matrix: (Units=1/GPa)
#
#
# Indices 1 2 3 4 5 6 
#
# 1 0.016895 -0.004417 -0.001820 -0.002844 0.007610 -0.011623
# 2 -0.004417 0.018053 -0.006828 0.006121 -0.000052 0.001411
# 3 -0.001820 -0.006828 0.019067 0.001371 0.000852 -0.002579
# 4 -0.002844 0.006121 0.001371 0.030443 -0.005695 0.004913
# 5 0.007610 -0.000052 0.000852 -0.005695 0.033119 -0.006304
# 6 -0.011623 0.001411 -0.002579 0.004913 -0.006304 0.034869
#
#
# Mechanical properties :
#
#
# Convention : Reuss Voigt Hill
#
# Bulk Modulus (GPa) = 35.86282 50.49813 43.18048
# Shear Modulus (GPa) = 26.61432 33.41403 30.01418
#
# Velocity S-wave (km/s) = 3.56166 3.99079 3.78231
# Velocity P-wave (km/s) = 5.83159 6.73086 6.29730
#
# Compressibility (1/GPa) = 0.02788403
#
# Stress axis : x y z
#
# Youngs Moduli (GPa) = 59.19080 55.39385 52.44760
#
# Poissons Ratio (x) = 0.24467 0.09546
# Poissons Ratio (y) = 0.26144 0.35810
# Poissons Ratio (z) = 0.10773 0.37822
#
# Static dielectric constant tensor:
#      x y z
#    x 1.827250 0.017010 -0.021460 
#    y 0.017010 1.779040 0.032360 
#    z -0.021460 0.032360 1.823260 
# 
# From -- ./inp_files/614547.got.cif
#   From: 2010.05.17/outbox.cif.g08.bks.cpg/sg2_308_cif.got.tgz:614547.got - 2010.06.03 11:33:40.
