data_PCOD9107582
_publ_section_title
;
Structure prediction by ZEFSAII (Michael W. Deem and Ramdas Pophale) SiO2 
 PCOD9107582
Probable space group: P -1
;
_chemical_formula_sum "Si O2"
_cell_formula_units_Z 12
_cell_length_a 12.571599
_cell_length_b 19.178562
_cell_length_c 9.357502
_cell_angle_alpha 144.214243
_cell_angle_beta 37.655137
_cell_angle_gamma 150.814201
_cell_volume 615.156486
_symmetry_space_group_name_H-M "P -1"
_symmetry_group_IT_number 2
_symmetry_cell_setting 'triclinic'
loop_
_space_group_symop_operation_xyz
x,y,z
-x,-y,-z
loop_
_atom_site_type_symbol
_atom_site_label
_atom_site_fract_x
_atom_site_fract_y
_atom_site_fract_z
Si Si1 0.130103 0.290156 0.303849
Si Si2 0.693580 0.854033 0.307024
Si Si3 0.227059 0.727246 0.501337
Si Si4 0.084569 0.211660 0.550117
Si Si5 0.444277 0.369890 0.663834
Si Si6 0.934990 0.611997 0.902470
O O1 0.307798 0.472287 0.373637
O O2 0.883166 0.225372 0.407781
O O3 0.144210 0.274799 0.431546
O O4 0.202855 0.202561 0.998323
O O5 0.498737 0.841494 0.411679
O O6 0.571320 0.736017 0.374894
O O7 0.895400 0.026174 0.435258
O O8 0.137988 0.555323 0.269855
O O9 0.119504 0.702267 0.731341
O O10 0.307085 0.270092 0.501072
O O11 0.995334 0.285647 0.859404
O O12 0.290516 0.414968 0.953317
#
# Coordination Sequence:
#
# PCOD9107582 Si02
#       6
#     2   2   2   2   2   2
#     4  12  22  41  64  90 122 160 200 248 298 361
#     4  12  22  41  64  90 122 160 200 248 298 361
#     4  11  22  37  66  88 118 160 208 244 290 360
#     4  10  24  39  62  91 128 155 194 251 314 350
#     4  10  20  40  65  86 114 160 210 238 289 353
#     4   9  20  40  59  94 112 158 210 238 295 351
#
# _framework density 19.507232999999999
#
# number of rings (size 3 to 8) (size 9 to 14) (size 15 to 20)
#    1.000    0.333    3.333    4.000    0.000    2.000 
#    0.000    3.333    0.000    0.000    0.000    0.000 
#    0.000    0.000    0.000    0.000    0.000    0.000 
#
# Total GULP energy -67001.665168 kJ/mol
# GULP energy per Si atom -5583.472097 kJ/mol
# Density = 1.946283 g / cm^3
# Si number density = 19.507233 Si / 1000 Ang^3
#
#
#
# Elastic Constant Matrix: (Units=GPa)
#
#
# Indices 1 2 3 4 5 6 
#
# 1 115.2013 23.6006 44.1544 -9.3530 4.1153 16.5133
# 2 23.6006 77.9055 31.7305 17.1546 13.5401 7.7203
# 3 44.1544 31.7305 74.2103 10.4611 21.3356 7.2939
# 4 -9.3530 17.1546 10.4611 10.7949 15.3615 7.7488
# 5 4.1153 13.5401 21.3356 15.3615 41.8890 -11.6593
# 6 16.5133 7.7203 7.2939 7.7488 -11.6593 34.2606
#
#
#
# Elastic Compliance Matrix: (Units=1/GPa)
#
#
# Indices 1 2 3 4 5 6 
#
# 1 0.002286 0.006514 -0.005705 -0.048286 0.023137 0.017440
# 2 0.006514 0.010634 -0.006004 0.036269 -0.019649 -0.019148
# 3 -0.005705 -0.006004 0.023075 0.005912 -0.013275 -0.006665
# 4 -0.048286 0.036269 0.005912 -0.241865 0.108016 0.105304
# 5 0.023137 -0.019649 -0.013275 0.108016 -0.014122 -0.033134
# 6 0.017440 -0.019148 -0.006665 0.105304 -0.033134 -0.008577
#
#
# Mechanical properties :
#
#
# Convention : Reuss Voigt Hill
#
# Bulk Modulus (GPa) = 39.05441 51.80980 45.43211
# Shear Modulus (GPa) = -23.84992 28.57768 2.36388
#
# Velocity S-wave (km/s) = -3.50039 3.83166 1.10201
# Velocity P-wave (km/s) = 1.93053 6.79650 4.99597
#
# Compressibility (1/GPa) = 0.02560530
#
# Stress axis : x y z
#
# Youngs Moduli (GPa) = 437.47787 94.03453 43.33727
#
# Poissons Ratio (x) = -0.61254 0.24722
# Poissons Ratio (y) = -2.84973 0.26021
# Poissons Ratio (z) = 2.49564 0.56461
#
# Static dielectric constant tensor:
#      x y z
#    x 1.692170 0.013940 -0.006180 
#    y 0.013940 1.664020 -0.001740 
#    z -0.006180 -0.001740 1.673580 
# 
# From -- ./inp_files/235790.got.cif
#   From: 2010.05.17/outbox.cif.g08.bks.cpg/sg2_118_cif.got.tgz:235790.got - 2010.06.03 11:33:40.
