data_PCOD9107840
_publ_section_title
;
Structure prediction by ZEFSAII (Michael W. Deem and Ramdas Pophale) SiO2 
 PCOD9107840
Probable space group: P -1
;
_chemical_formula_sum "Si O2"
_cell_formula_units_Z 15
_cell_length_a 13.240884
_cell_length_b 8.560039
_cell_length_c 10.612408
_cell_angle_alpha 74.646530
_cell_angle_beta 34.128804
_cell_angle_gamma 66.188693
_cell_volume 611.740981
_symmetry_space_group_name_H-M "P -1"
_symmetry_group_IT_number 2
_symmetry_cell_setting 'triclinic'
loop_
_space_group_symop_operation_xyz
x,y,z
-x,-y,-z
loop_
_atom_site_type_symbol
_atom_site_label
_atom_site_fract_x
_atom_site_fract_y
_atom_site_fract_z
Si Si1 0.102127 0.340836 0.335604
Si Si2 0.476669 0.974259 0.380976
Si Si3 0.840706 0.372716 0.362460
Si Si4 0.331942 0.432652 0.734087
Si Si5 0.695603 0.182614 0.963406
Si Si6 0.050300 0.997922 0.802131
Si Si7 0.574675 0.550469 0.099842
Si Si8 0.000000 0.000000 0.500000
O O1 0.323968 0.326128 0.094798
O O2 0.000000 0.500000 0.500000
O O3 0.989143 0.387081 0.309171
O O4 0.067236 0.164143 0.441436
O O5 0.591057 0.772131 0.283145
O O6 0.253848 0.019949 0.574351
O O7 0.500000 0.000000 0.500000
O O8 0.559282 0.091414 0.186246
O O9 0.808164 0.507807 0.252866
O O10 0.923734 0.184148 0.254031
O O11 0.641972 0.386037 0.635862
O O12 0.500000 0.500000 0.500000
O O13 0.295026 0.511658 0.894192
O O14 0.601317 0.386087 0.020802
O O15 0.785774 0.099191 0.757678
O O16 0.876700 0.132660 0.881467
O O17 0.000000 0.000000 0.000000
#
# Coordination Sequence:
#
# PCOD9107840 Si02
#       8
#     2   2   2   2   2   2   2   1
#     4  12  27  52  75 105 145 197 256 316 368 435
#     4  12  23  42  70 107 153 191 237 303 375 443
#     4  11  25  45  74 106 146 196 246 298 384 450
#     4  10  20  40  66 103 143 184 227 293 364 445
#     4  12  26  46  72 108 149 194 250 304 369 444
#     4  12  24  42  71 110 150 192 244 305 376 454
#     4  11  24  47  76 103 151 190 239 308 373 447
#     4  12  26  52  74 106 148 194 252 320 362 436
#
# _framework density 24.520181999999998
#
# number of rings (size 3 to 8) (size 9 to 14) (size 15 to 20)
#    0.000    0.533    6.667    3.200    0.000    3.200 
#    0.000    1.333    0.000    0.000    0.000    0.000 
#    0.000    0.000    0.000    0.000    0.000    0.000 
#
# Total GULP energy -83734.821315 kJ/mol
# GULP energy per Si atom -5582.321421 kJ/mol
# Density = 2.446437 g / cm^3
# Si number density = 24.520182 Si / 1000 Ang^3
#
#
#
# Elastic Constant Matrix: (Units=GPa)
#
#
# Indices 1 2 3 4 5 6 
#
# 1 110.2329 41.2723 38.9144 8.3543 -12.3774 4.3896
# 2 41.2723 157.5273 81.3004 -3.0149 1.1768 32.0402
# 3 38.9144 81.3004 176.3129 -14.3889 -3.5854 22.7964
# 4 8.3543 -3.0149 -14.3889 58.1678 18.9906 4.6950
# 5 -12.3774 1.1768 -3.5854 18.9906 35.4346 5.1456
# 6 4.3896 32.0402 22.7964 4.6950 5.1456 42.6341
#
#
#
# Elastic Compliance Matrix: (Units=1/GPa)
#
#
# Indices 1 2 3 4 5 6 
#
# 1 0.011612 -0.002523 -0.001814 -0.004347 0.006080 0.001415
# 2 -0.002523 0.009777 -0.003215 0.000910 -0.001247 -0.005318
# 3 -0.001814 -0.003215 0.007978 0.002469 -0.000775 -0.001842
# 4 -0.004347 0.000910 0.002469 0.023006 -0.013267 -0.002489
# 5 0.006080 -0.001247 -0.000775 -0.013267 0.037762 -0.002371
# 6 0.001415 -0.005318 -0.001842 -0.002489 -0.002371 0.028852
#
#
# Mechanical properties :
#
#
# Convention : Reuss Voigt Hill
#
# Bulk Modulus (GPa) = 70.10278 85.22749 77.66514
# Shear Modulus (GPa) = 36.01138 46.08638 41.04888
#
# Velocity S-wave (km/s) = 3.83644 4.34006 4.09600
# Velocity P-wave (km/s) = 6.94812 7.74263 7.35611
#
# Compressibility (1/GPa) = 0.01426477
#
# Stress axis : x y z
#
# Youngs Moduli (GPa) = 86.11531 102.28383 125.34006
#
# Poissons Ratio (x) = 0.25804 0.22733
# Poissons Ratio (y) = 0.21725 0.40295
# Poissons Ratio (z) = 0.15619 0.32882
#
# Static dielectric constant tensor:
#      x y z
#    x 1.841520 -0.250890 0.161020 
#    y -0.250890 1.598270 0.232130 
#    z 0.161020 0.232130 1.761620 
# 
# From -- ./inp_files/447300.got.cif
#   From: 2010.05.17/outbox.cif.g08.bks.cpg/sg2_224_cif.got.tgz:447300.got - 2010.06.03 11:33:40.
