data_PCOD9107221
_publ_section_title
;
Structure prediction by ZEFSAII (Michael W. Deem and Ramdas Pophale) SiO2 
 PCOD9107221
Probable space group: P -1
;
_chemical_formula_sum "Si O2"
_cell_formula_units_Z 16
_cell_length_a 5.086777
_cell_length_b 21.394605
_cell_length_c 5.524313
_cell_angle_alpha 92.986610
_cell_angle_beta 97.369347
_cell_angle_gamma 87.233072
_cell_volume 594.907560
_symmetry_space_group_name_H-M "P -1"
_symmetry_group_IT_number 2
_symmetry_cell_setting 'triclinic'
loop_
_space_group_symop_operation_xyz
x,y,z
-x,-y,-z
loop_
_atom_site_type_symbol
_atom_site_label
_atom_site_fract_x
_atom_site_fract_y
_atom_site_fract_z
Si Si1 0.736699 0.458059 0.646072
Si Si2 0.098332 0.569786 0.836598
Si Si3 0.848645 0.131291 0.033911
Si Si4 0.267396 0.747973 0.662554
Si Si5 0.137414 0.214159 0.735899
Si Si6 0.277890 0.982565 0.777598
Si Si7 0.215479 0.310608 0.121279
Si Si8 0.398812 0.100335 0.587288
O O1 0.500000 0.500000 0.500000
O O2 0.809529 0.411535 0.421640
O O3 0.980959 0.502339 0.748404
O O4 0.698071 0.431502 0.910367
O O5 0.856292 0.616580 0.897670
O O6 0.720436 0.182123 0.213642
O O7 0.931150 0.063575 0.141181
O O8 0.081715 0.165322 0.932874
O O9 0.619975 0.117549 0.812804
O O10 0.137512 0.756387 0.387890
O O11 0.540729 0.708672 0.684112
O O12 0.053413 0.715596 0.803007
O O13 0.256944 0.167868 0.534402
O O14 0.283977 0.271886 0.877134
O O15 0.438812 0.936870 0.604191
O O16 0.199928 0.048276 0.655120
O O17 0.500000 0.000000 0.000000
#
# Coordination Sequence:
#
# PCOD9107221 Si02
#       8
#     2   2   2   2   2   2   2   2
#     4  10  22  45  73 110 149 199 243 305 365 426
#     4  10  24  43  71 109 149 195 250 301 363 435
#     4  10  21  41  60  93 129 170 227 286 360 426
#     4  11  26  44  70 101 141 187 237 297 360 427
#     4  11  25  41  69  96 131 184 231 293 362 434
#     4   9  20  36  64  91 128 169 224 289 360 438
#     4  11  27  46  68 109 142 189 243 295 356 431
#     4  10  20  40  63  92 129 172 224 290 362 434
#
# _framework density 26.894932000000001
#
# number of rings (size 3 to 8) (size 9 to 14) (size 15 to 20)
#    0.000    1.750    1.250    1.125    7.000    1.500 
#    0.000    8.750    0.000    0.000    0.000    0.000 
#    0.000    0.000    0.000    0.000    0.000    0.000 
#
# Total GULP energy -89518.688565 kJ/mol
# GULP energy per Si atom -5594.918035 kJ/mol
# Density = 2.683372 g / cm^3
# Si number density = 26.894932 Si / 1000 Ang^3
#
#
#
# Elastic Constant Matrix: (Units=GPa)
#
#
# Indices 1 2 3 4 5 6 
#
# 1 68.2096 18.2403 31.5853 -0.2896 4.0555 -20.3142
# 2 18.2403 105.2388 38.6717 17.4700 4.1929 -23.0135
# 3 31.5853 38.6717 163.1314 -4.3357 14.9674 -11.9888
# 4 -0.2896 17.4700 -4.3357 29.9163 -12.3204 4.2313
# 5 4.0555 4.1929 14.9674 -12.3204 40.5060 -11.1170
# 6 -20.3142 -23.0135 -11.9888 4.2313 -11.1170 45.6795
#
#
#
# Elastic Compliance Matrix: (Units=1/GPa)
#
#
# Indices 1 2 3 4 5 6 
#
# 1 0.018330 -0.000360 -0.003037 -0.000622 0.001200 0.007522
# 2 -0.000360 0.013775 -0.002833 -0.010045 -0.001593 0.006579
# 3 -0.003037 -0.002833 0.007516 0.002125 -0.001938 -0.001474
# 4 -0.000622 -0.010045 0.002125 0.045607 0.012556 -0.005948
# 5 0.001200 -0.001593 -0.001938 0.012556 0.030792 0.005553
# 6 0.007522 0.006579 -0.001474 -0.005948 0.005553 0.030067
#
#
# Mechanical properties :
#
#
# Convention : Reuss Voigt Hill
#
# Bulk Modulus (GPa) = 36.81996 57.06381 46.94189
# Shear Modulus (GPa) = 29.83269 39.75919 34.79594
#
# Velocity S-wave (km/s) = 3.33412 3.84906 3.60081
# Velocity P-wave (km/s) = 5.34246 6.40445 5.89741
#
# Compressibility (1/GPa) = 0.02715918
#
# Stress axis : x y z
#
# Youngs Moduli (GPa) = 54.55571 72.59329 133.05486
#
# Poissons Ratio (x) = 0.02616 0.40414
# Poissons Ratio (y) = 0.01966 0.37696
# Poissons Ratio (z) = 0.16571 0.20567
#
# Static dielectric constant tensor:
#      x y z
#    x 2.130670 0.040650 -0.110530 
#    y 0.040650 2.110620 -0.059440 
#    z -0.110530 -0.059440 2.217350 
# 
# From -- ./inp_files/11423.got.cif
#   From: 2010.05.17/outbox.cif.g08.bks.cpg/sg2_6_cif.got.tgz:11423.got - 2010.06.03 11:33:40.
