data_PCOD9107670
_publ_section_title
;
Structure prediction by ZEFSAII (Michael W. Deem and Ramdas Pophale) SiO2 
 PCOD9107670
Probable space group: P -1
;
_chemical_formula_sum "Si O2"
_cell_formula_units_Z 16
_cell_length_a 18.740982
_cell_length_b 6.505048
_cell_length_c 16.441699
_cell_angle_alpha 73.919319
_cell_angle_beta 158.210937
_cell_angle_gamma 107.310884
_cell_volume 710.320828
_symmetry_space_group_name_H-M "P -1"
_symmetry_group_IT_number 2
_symmetry_cell_setting 'triclinic'
loop_
_space_group_symop_operation_xyz
x,y,z
-x,-y,-z
loop_
_atom_site_type_symbol
_atom_site_label
_atom_site_fract_x
_atom_site_fract_y
_atom_site_fract_z
Si Si1 0.273424 0.315463 0.520786
Si Si2 0.862110 0.688881 0.325653
Si Si3 0.195026 0.373550 0.017484
Si Si4 0.650684 0.416187 0.007362
Si Si5 0.594217 0.272839 0.501603
Si Si6 0.005234 0.849047 0.624236
Si Si7 0.144034 0.666315 0.082584
Si Si8 0.855933 0.016919 0.708099
O O1 0.322630 0.516266 0.488568
O O2 0.076695 0.280481 0.369072
O O3 0.262311 0.101885 0.477620
O O4 0.439529 0.330539 0.762754
O O5 0.675488 0.569209 0.095789
O O6 0.857202 0.788311 0.399639
O O7 0.000000 0.500000 0.500000
O O8 0.958358 0.894199 0.353302
O O9 0.365554 0.245358 0.248755
O O10 0.184435 0.567140 0.048998
O O11 0.264217 0.441650 0.994068
O O12 0.988672 0.236855 0.805985
O O13 0.791357 0.228511 0.180294
O O14 0.661421 0.302702 0.662124
O O15 0.702886 0.076199 0.605756
O O16 0.000000 0.500000 0.000000
O O17 0.017414 0.864154 0.920620
#
# Coordination Sequence:
#
# PCOD9107670 Si02
#       8
#     2   2   2   2   2   2   2   2
#     4  11  24  39  63  92 127 161 207 255 306 370
#     4   9  20  40  65  90 125 158 200 247 300 368
#     4  11  25  41  65  92 123 166 210 261 315 371
#     4  10  22  40  61  92 123 158 205 253 303 366
#     4  11  25  43  62  93 125 164 213 262 315 370
#     4  10  20  40  65  91 122 164 197 247 309 360
#     4  12  23  43  64  87 128 164 211 267 315 366
#     4  12  23  40  63  89 123 169 209 263 310 371
#
# _framework density 22.525031999999999
#
# number of rings (size 3 to 8) (size 9 to 14) (size 15 to 20)
#    0.000    1.250    2.500    3.000    0.000    7.000 
#    0.000    5.625    0.000    0.000    0.000    0.000 
#    0.000    0.000    0.000    0.000    0.000    0.000 
#
# Total GULP energy -89360.619574 kJ/mol
# GULP energy per Si atom -5585.038723 kJ/mol
# Density = 2.247376 g / cm^3
# Si number density = 22.525032 Si / 1000 Ang^3
#
#
#
# Elastic Constant Matrix: (Units=GPa)
#
#
# Indices 1 2 3 4 5 6 
#
# 1 57.9736 22.7247 16.6979 8.3378 -10.2931 -3.9031
# 2 22.7247 105.0731 49.5597 10.5600 -9.2158 -13.1177
# 3 16.6979 49.5597 110.5143 16.0822 -14.0832 -3.7447
# 4 8.3378 10.5600 16.0822 35.8376 -5.6212 -4.0329
# 5 -10.2931 -9.2158 -14.0832 -5.6212 33.5230 -0.5362
# 6 -3.9031 -13.1177 -3.7447 -4.0329 -0.5362 24.5283
#
#
#
# Elastic Compliance Matrix: (Units=1/GPa)
#
#
# Indices 1 2 3 4 5 6 
#
# 1 0.019942 -0.003262 -0.000555 -0.002597 0.004574 0.001017
# 2 -0.003262 0.013508 -0.005278 -0.000100 0.000572 0.005895
# 3 -0.000555 -0.005278 0.012340 -0.003567 0.002940 -0.001549
# 4 -0.002597 -0.000100 -0.003567 0.031069 0.002953 0.004162
# 5 0.004574 0.000572 0.002940 0.002953 0.033165 0.002693
# 6 0.001017 0.005895 -0.001549 0.004162 0.002693 0.044591
#
#
# Mechanical properties :
#
#
# Convention : Reuss Voigt Hill
#
# Bulk Modulus (GPa) = 36.23006 50.16952 43.19979
# Shear Modulus (GPa) = 27.47170 31.08301 29.27735
#
# Velocity S-wave (km/s) = 3.49608 3.71877 3.60914
# Velocity P-wave (km/s) = 5.69351 6.38437 6.04881
#
# Compressibility (1/GPa) = 0.02760139
#
# Stress axis : x y z
#
# Youngs Moduli (GPa) = 50.14584 74.02908 81.03470
#
# Poissons Ratio (x) = 0.24148 0.04497
# Poissons Ratio (y) = 0.16358 0.42767
# Poissons Ratio (z) = 0.02783 0.39070
#
# Static dielectric constant tensor:
#      x y z
#    x 1.813960 0.029110 -0.009320 
#    y 0.029110 1.965130 0.032180 
#    z -0.009320 0.032180 1.885820 
# 
# From -- ./inp_files/107778.got.cif
#   From: 2010.05.17/outbox.cif.g08.bks.cpg/sg2_54_cif.got.tgz:107778.got - 2010.06.03 11:33:40.
