data_PCOD9107092
_publ_section_title
;
Structure prediction by ZEFSAII (Michael W. Deem and Ramdas Pophale) SiO2 
 PCOD9107092
Probable space group: P -1
;
_chemical_formula_sum "Si O2"
_cell_formula_units_Z 12
_cell_length_a 4.959214
_cell_length_b 7.155364
_cell_length_c 14.045514
_cell_angle_alpha 78.720869
_cell_angle_beta 102.440873
_cell_angle_gamma 110.257288
_cell_volume 452.597800
_symmetry_space_group_name_H-M "P -1"
_symmetry_group_IT_number 2
_symmetry_cell_setting 'triclinic'
loop_
_space_group_symop_operation_xyz
x,y,z
-x,-y,-z
loop_
_atom_site_type_symbol
_atom_site_label
_atom_site_fract_x
_atom_site_fract_y
_atom_site_fract_z
Si Si1 0.344883 0.395866 0.400093
Si Si2 0.760391 0.180234 0.455105
Si Si3 0.254713 0.023936 0.761689
Si Si4 0.731088 0.385770 0.120598
Si Si5 0.227636 0.779275 0.336296
Si Si6 0.362866 0.654341 0.099501
O O1 0.500000 0.500000 0.500000
O O2 0.114490 0.728682 0.440132
O O3 0.245723 0.565367 0.322789
O O4 0.058601 0.206583 0.419451
O O5 0.411772 0.682493 0.620285
O O6 0.500000 0.000000 0.500000
O O7 0.439713 0.078191 0.671768
O O8 0.476290 0.154251 0.844493
O O9 0.982526 0.107223 0.733676
O O10 0.192405 0.792759 0.803451
O O11 0.505776 0.477668 0.144893
O O12 0.021669 0.569830 0.103623
O O13 0.602377 0.303698 0.015028
#
# Coordination Sequence:
#
# PCOD9107092 Si02
#       6
#     2   2   2   2   2   2
#     4  10  20  40  63  80 117 163 205 247 300 378
#     4  11  22  41  63  89 117 162 215 254 307 373
#     4  12  23  41  62  96 132 162 203 261 328 357
#     4  10  22  42  66  91 127 165 215 254 292 387
#     4  11  23  40  60  90 124 158 203 257 312 375
#     4  10  22  42  65  92 123 172 211 247 311 374
#
# _framework density 26.513608000000001
#
# number of rings (size 3 to 8) (size 9 to 14) (size 15 to 20)
#    0.000    1.333    0.000    8.000    0.000    0.000 
#   18.000    6.667    0.000    0.000    0.000    0.000 
#    0.000    0.000    0.000    0.000    0.000    0.000 
#
# Total GULP energy -67184.077891 kJ/mol
# GULP energy per Si atom -5598.673158 kJ/mol
# Density = 2.645326 g / cm^3
# Si number density = 26.513608 Si / 1000 Ang^3
#
#
#
# Elastic Constant Matrix: (Units=GPa)
#
#
# Indices 1 2 3 4 5 6 
#
# 1 175.3097 19.6149 13.2003 -17.3980 17.8946 4.5664
# 2 19.6149 70.7735 10.7121 -23.6816 8.2939 18.6787
# 3 13.2003 10.7121 85.3477 -11.6885 13.5747 -14.0759
# 4 -17.3980 -23.6816 -11.6885 38.2483 -9.2841 3.2573
# 5 17.8946 8.2939 13.5747 -9.2841 40.0487 -12.5264
# 6 4.5664 18.6787 -14.0759 3.2573 -12.5264 48.1640
#
#
#
# Elastic Compliance Matrix: (Units=1/GPa)
#
#
# Indices 1 2 3 4 5 6 
#
# 1 0.006273 -0.000324 -0.000482 0.002007 -0.002548 -0.001408
# 2 -0.000324 0.022351 -0.002158 0.012954 -0.004270 -0.011255
# 3 -0.000482 -0.002158 0.013309 0.001631 -0.002191 0.004092
# 4 0.002007 0.012954 0.001631 0.036700 0.002305 -0.006620
# 5 -0.002548 -0.004270 -0.002191 0.002305 0.031147 0.009202
# 6 -0.001408 -0.011255 0.004092 -0.006620 0.009202 0.029298
#
#
# Mechanical properties :
#
#
# Convention : Reuss Voigt Hill
#
# Bulk Modulus (GPa) = 27.77349 46.49837 37.13593
# Shear Modulus (GPa) = 31.84565 44.48575 38.16570
#
# Velocity S-wave (km/s) = 3.46946 4.10060 3.79816
# Velocity P-wave (km/s) = 5.15242 6.32420 5.76814
#
# Compressibility (1/GPa) = 0.03600556
#
# Stress axis : x y z
#
# Youngs Moduli (GPa) = 159.42364 44.74001 75.13750
#
# Poissons Ratio (x) = 0.01448 0.03619
# Poissons Ratio (y) = 0.05161 0.16217
# Poissons Ratio (z) = 0.07679 0.09656
#
# Static dielectric constant tensor:
#      x y z
#    x 1.970630 -0.045240 0.017850 
#    y -0.045240 2.275560 0.131460 
#    z 0.017850 0.131460 2.172700 
# 
# From -- ./inp_files/355643.got.cif
#   From: 2010.05.17/outbox.cif.g08.bks.cpg/sg2_178_cif.got.tgz:355643.got - 2010.06.03 11:33:40.
