data_PCOD9107746
_publ_section_title
;
Structure prediction by ZEFSAII (Michael W. Deem and Ramdas Pophale) SiO2 
 PCOD9107746
Probable space group: P -1
;
_chemical_formula_sum "Si O2"
_cell_formula_units_Z 16
_cell_length_a 15.601194
_cell_length_b 7.745528
_cell_length_c 9.119376
_cell_angle_alpha 48.132694
_cell_angle_beta 59.747128
_cell_angle_gamma 85.387417
_cell_volume 650.401374
_symmetry_space_group_name_H-M "P -1"
_symmetry_group_IT_number 2
_symmetry_cell_setting 'triclinic'
loop_
_space_group_symop_operation_xyz
x,y,z
-x,-y,-z
loop_
_atom_site_type_symbol
_atom_site_label
_atom_site_fract_x
_atom_site_fract_y
_atom_site_fract_z
Si Si1 0.214175 0.758611 0.361766
Si Si2 0.000286 0.266872 0.288300
Si Si3 0.502276 0.200309 0.083344
Si Si4 0.289437 0.348459 0.647084
Si Si5 0.318965 0.272802 0.333395
Si Si6 0.955291 0.953629 0.900597
Si Si7 0.415332 0.217582 0.843789
Si Si8 0.870338 0.584605 0.651732
O O1 0.109493 0.720486 0.568421
O O2 0.276206 0.604921 0.473348
O O3 0.297753 0.042995 0.111685
O O4 0.183407 0.634814 0.296109
O O5 0.013993 0.239344 0.118586
O O6 0.100480 0.470219 0.178703
O O7 0.000000 0.000000 0.500000
O O8 0.597032 0.439237 0.938820
O O9 0.541973 0.976120 0.160688
O O10 0.386537 0.116902 0.307901
O O11 0.487897 0.306105 0.875492
O O12 0.301984 0.236624 0.542449
O O13 0.173528 0.162005 0.916541
O O14 0.385255 0.383240 0.657500
O O15 0.206492 0.257688 0.371485
O O16 0.015522 0.229560 0.621758
O O17 0.000000 0.000000 0.000000
#
# Coordination Sequence:
#
# PCOD9107746 Si02
#       8
#     2   2   2   2   2   2   2   2
#     4  11  22  43  66  96 135 172 216 268 328 381
#     4  10  23  36  66  94 125 176 217 250 323 395
#     4  10  23  42  68  95 126 169 222 273 322 389
#     4  11  24  41  67  94 132 167 214 267 328 384
#     4  10  21  42  67  93 130 170 213 273 329 374
#     4  11  21  40  62  96 132 170 207 268 319 383
#     4  11  23  42  69  95 126 170 221 267 330 384
#     4  10  20  40  65  94 130 175 212 264 318 394
#
# _framework density 24.600190999999999
#
# number of rings (size 3 to 8) (size 9 to 14) (size 15 to 20)
#    0.000    1.500    5.000    1.875    5.250    1.500 
#    0.000    0.000    8.250    0.000    0.000    0.000 
#    0.000    0.000    0.000    0.000    0.000    0.000 
#
# Total GULP energy -89506.256644 kJ/mol
# GULP energy per Si atom -5594.141040 kJ/mol
# Density = 2.454420 g / cm^3
# Si number density = 24.600191 Si / 1000 Ang^3
#
#
#
# Elastic Constant Matrix: (Units=GPa)
#
#
# Indices 1 2 3 4 5 6 
#
# 1 176.5787 37.4562 33.6903 26.1506 2.6755 -4.7307
# 2 37.4562 79.4394 18.7396 33.4437 3.1399 6.5400
# 3 33.6903 18.7396 64.0645 26.2661 -12.8382 -10.4671
# 4 26.1506 33.4437 26.2661 45.0577 -5.6406 -12.3493
# 5 2.6755 3.1399 -12.8382 -5.6406 46.2891 1.9527
# 6 -4.7307 6.5400 -10.4671 -12.3493 1.9527 35.6596
#
#
#
# Elastic Compliance Matrix: (Units=1/GPa)
#
#
# Indices 1 2 3 4 5 6 
#
# 1 0.006802 -0.002221 -0.002808 -0.000721 -0.001122 0.000297
# 2 -0.002221 0.022587 -0.000176 -0.018744 -0.003281 -0.010800
# 3 -0.002808 -0.000176 0.022748 -0.010162 0.005138 0.002536
# 4 -0.000721 -0.018744 -0.010162 0.047445 0.003576 0.016594
# 5 -0.001122 -0.003281 0.005138 0.003576 0.023671 0.001903
# 6 0.000297 -0.010800 0.002536 0.016594 0.001903 0.036450
#
#
# Mechanical properties :
#
#
# Convention : Reuss Voigt Hill
#
# Bulk Modulus (GPa) = 23.96548 55.53943 39.75245
# Shear Modulus (GPa) = 27.17072 40.74771 33.95921
#
# Velocity S-wave (km/s) = 3.32700 4.07430 3.71946
# Velocity P-wave (km/s) = 4.95194 6.69022 5.88561
#
# Compressibility (1/GPa) = 0.04172669
#
# Stress axis : x y z
#
# Youngs Moduli (GPa) = 147.01896 44.27288 43.96042
#
# Poissons Ratio (x) = 0.09835 0.12343
# Poissons Ratio (y) = 0.32658 0.00773
# Poissons Ratio (z) = 0.41279 0.00779
#
# Static dielectric constant tensor:
#      x y z
#    x 1.989560 0.022610 0.042640 
#    y 0.022610 2.018780 0.021840 
#    z 0.042640 0.021840 2.013290 
# 
# From -- ./inp_files/294461.got.cif
#   From: 2010.05.17/outbox.cif.g08.bks.cpg/sg2_148_cif.got.tgz:294461.got - 2010.06.03 11:33:40.
