data_PCOD9107970
_publ_section_title
;
Structure prediction by ZEFSAII (Michael W. Deem and Ramdas Pophale) SiO2 
 PCOD9107970
Probable space group: P -1
;
_chemical_formula_sum "Si O2"
_cell_formula_units_Z 16
_cell_length_a 23.407640
_cell_length_b 29.395737
_cell_length_c 9.464259
_cell_angle_alpha 44.254472
_cell_angle_beta 136.012084
_cell_angle_gamma 170.806644
_cell_volume 721.530652
_symmetry_space_group_name_H-M "P -1"
_symmetry_group_IT_number 2
_symmetry_cell_setting 'triclinic'
loop_
_space_group_symop_operation_xyz
x,y,z
-x,-y,-z
loop_
_atom_site_type_symbol
_atom_site_label
_atom_site_fract_x
_atom_site_fract_y
_atom_site_fract_z
Si Si1 0.399478 0.777612 0.079985
Si Si2 0.301560 0.205567 0.185455
Si Si3 0.599748 0.689064 0.538047
Si Si4 0.484534 0.207902 0.465701
Si Si5 0.698793 0.633293 0.910977
Si Si6 0.547877 0.295977 0.890778
Si Si7 0.346639 0.724533 0.662758
Si Si8 0.251980 0.870171 0.315205
O O1 0.509623 0.838531 0.294352
O O2 0.405542 0.716906 0.129917
O O3 0.654404 0.025890 0.900968
O O4 0.000000 0.500000 0.000000
O O5 0.348614 0.254011 0.330201
O O6 0.243850 0.084261 0.340273
O O7 0.630314 0.504390 0.047235
O O8 0.000000 0.000000 0.000000
O O9 0.516049 0.548210 0.678536
O O10 0.372341 0.569224 0.320061
O O11 0.000000 0.000000 0.500000
O O12 0.434047 0.130224 0.405033
O O13 0.861103 0.538455 0.381186
O O14 0.500000 0.500000 0.000000
O O15 0.129773 0.974810 0.913994
O O16 0.760423 0.422905 0.111298
O O17 0.608581 0.968839 0.683161
O O18 0.000000 0.500000 0.500000
O O19 0.500000 0.000000 0.500000
#
# Coordination Sequence:
#
# PCOD9107970 Si02
#       8
#     2   2   2   2   2   2   2   2
#     4  11  21  39  67  97 130 179 224 269 332 405
#     4  11  23  39  61  94 127 164 217 277 328 389
#     4   9  19  38  64  88 119 168 213 263 333 399
#     4  12  24  43  68  97 137 177 222 279 341 394
#     4   9  20  39  66  91 121 171 217 262 339 402
#     4  10  20  40  66  92 132 171 219 275 334 400
#     4  11  23  40  68  99 130 176 228 272 330 402
#     4  11  22  44  69  92 137 180 218 274 339 396
#
# _framework density 22.175080000000001
#
# number of rings (size 3 to 8) (size 9 to 14) (size 15 to 20)
#    0.000    1.500    3.750    2.250    5.250    0.000 
#    0.000    6.875    0.000    0.000    0.000    0.000 
#    0.000    0.000    0.000    0.000    0.000    0.000 
#
# Total GULP energy -89128.835347 kJ/mol
# GULP energy per Si atom -5570.552209 kJ/mol
# Density = 2.212461 g / cm^3
# Si number density = 22.175080 Si / 1000 Ang^3
#
#
#
# Elastic Constant Matrix: (Units=GPa)
#
#
# Indices 1 2 3 4 5 6 
#
# 1 99.3225 3.1090 46.6688 0.6252 5.3916 1.1174
# 2 3.1090 74.4298 17.5998 -6.2802 0.1464 -6.7299
# 3 46.6688 17.5998 209.4730 1.7545 17.1098 -6.6543
# 4 0.6252 -6.2802 1.7545 30.7498 6.1615 4.6559
# 5 5.3916 0.1464 17.1098 6.1615 46.8924 1.7720
# 6 1.1174 -6.7299 -6.6543 4.6559 1.7720 21.4804
#
#
#
# Elastic Compliance Matrix: (Units=1/GPa)
#
#
# Indices 1 2 3 4 5 6 
#
# 1 0.011292 0.000020 -0.002535 0.000198 -0.000347 -0.001380
# 2 0.000020 0.014226 -0.001098 0.002444 -0.000103 0.003595
# 3 -0.002535 -0.001098 0.005635 -0.000406 -0.001775 0.001768
# 4 0.000198 0.002444 -0.000406 0.034881 -0.004217 -0.006583
# 5 -0.000347 -0.000103 -0.001775 -0.004217 0.022625 -0.001517
# 6 -0.001380 0.003595 0.001768 -0.006583 -0.001517 0.049852
#
#
# Mechanical properties :
#
#
# Convention : Reuss Voigt Hill
#
# Bulk Modulus (GPa) = 41.79066 57.55339 49.67203
# Shear Modulus (GPa) = 32.52893 40.88103 36.70498
#
# Velocity S-wave (km/s) = 3.83419 4.29832 4.07287
# Velocity P-wave (km/s) = 6.20387 7.11650 6.67580
#
# Compressibility (1/GPa) = 0.02392879
#
# Stress axis : x y z
#
# Youngs Moduli (GPa) = 88.56134 70.29573 177.45269
#
# Poissons Ratio (x) = -0.00142 0.44975
# Poissons Ratio (y) = -0.00179 0.19477
# Poissons Ratio (z) = 0.22446 0.07716
#
# Static dielectric constant tensor:
#      x y z
#    x 1.612520 -0.075220 -0.000560 
#    y -0.075220 1.779510 -0.067620 
#    z -0.000560 -0.067620 1.862920 
# 
# From -- ./inp_files/355714.got.cif
#   From: 2010.05.17/outbox.cif.g08.bks.cpg/sg2_178_cif.got.tgz:355714.got - 2010.06.03 11:33:40.
