data_PCOD9107578
_publ_section_title
;
Structure prediction by ZEFSAII (Michael W. Deem and Ramdas Pophale) SiO2 
 PCOD9107578
Probable space group: P -1
;
_chemical_formula_sum "Si O2"
_cell_formula_units_Z 16
_cell_length_a 9.351399
_cell_length_b 14.835433
_cell_length_c 16.031627
_cell_angle_alpha 33.371483
_cell_angle_beta 142.174255
_cell_angle_gamma 126.782603
_cell_volume 737.951447
_symmetry_space_group_name_H-M "P -1"
_symmetry_group_IT_number 2
_symmetry_cell_setting 'triclinic'
loop_
_space_group_symop_operation_xyz
x,y,z
-x,-y,-z
loop_
_atom_site_type_symbol
_atom_site_label
_atom_site_fract_x
_atom_site_fract_y
_atom_site_fract_z
Si Si1 0.545136 0.699825 0.608144
Si Si2 0.171197 0.900528 0.387507
Si Si3 0.678322 0.795884 0.291921
Si Si4 0.014679 0.261882 0.105403
Si Si5 0.773770 0.558193 0.290953
Si Si6 0.274281 0.614131 0.769353
Si Si7 0.567754 0.150319 0.033840
Si Si8 0.819468 0.592254 0.659616
O O1 0.332480 0.848712 0.421307
O O2 0.427765 0.537669 0.692469
O O3 0.646383 0.697234 0.564747
O O4 0.770411 0.689214 0.780966
O O5 0.316993 0.786793 0.615374
O O6 0.920159 0.834073 0.329784
O O7 0.116355 0.093695 0.232033
O O8 0.495063 0.800987 0.129353
O O9 0.706649 0.628071 0.488201
O O10 0.604369 0.951129 0.200827
O O11 0.815577 0.211649 0.114621
O O12 0.898485 0.409638 0.876155
O O13 0.808667 0.493006 0.262866
O O14 0.651832 0.751356 0.091167
O O15 0.000000 0.500000 0.500000
O O16 0.067422 0.655049 0.709957
O O17 0.500000 0.500000 0.000000
#
# Coordination Sequence:
#
# PCOD9107578 Si02
#       8
#     2   2   2   2   2   2   2   2
#     4  11  22  37  63  89 129 153 208 255 307 363
#     4   9  20  41  61  85 120 177 201 235 314 382
#     4   9  21  41  63  87 122 163 204 258 303 362
#     4  11  22  37  63  91 122 165 200 251 316 367
#     4  11  22  41  66  88 117 175 212 239 311 394
#     4  10  22  39  62  90 131 162 206 261 303 361
#     4  10  20  40  65  85 120 167 211 238 309 389
#     4  11  21  38  59  93 124 152 201 266 305 338
#
# _framework density 21.681642
#
# number of rings (size 3 to 8) (size 9 to 14) (size 15 to 20)
#    0.000    1.750    1.250    4.500    1.750    0.500 
#    6.750    1.875    0.000    3.000    0.000    0.000 
#    0.000    0.000    0.000    0.000    0.000    0.000 
#
# Total GULP energy -89270.574758 kJ/mol
# GULP energy per Si atom -5579.410922 kJ/mol
# Density = 2.163229 g / cm^3
# Si number density = 21.681642 Si / 1000 Ang^3
#
#
#
# Elastic Constant Matrix: (Units=GPa)
#
#
# Indices 1 2 3 4 5 6 
#
# 1 123.0178 25.9777 27.5790 -8.3225 18.7568 -14.1929
# 2 25.9777 72.3891 32.4169 4.2001 7.0442 0.6264
# 3 27.5790 32.4169 94.5730 -6.9971 9.1182 -12.1642
# 4 -8.3225 4.2001 -6.9971 34.7808 -3.4948 17.3326
# 5 18.7568 7.0442 9.1182 -3.4948 39.0995 -5.6075
# 6 -14.1929 0.6264 -12.1642 17.3326 -5.6075 25.3807
#
#
#
# Elastic Compliance Matrix: (Units=1/GPa)
#
#
# Indices 1 2 3 4 5 6 
#
# 1 0.009987 -0.002818 -0.001052 -0.000023 -0.003407 0.004413
# 2 -0.002818 0.017679 -0.005736 -0.002393 -0.001196 -0.003391
# 3 -0.001052 -0.005736 0.013684 0.000236 -0.000804 0.005773
# 4 -0.000023 -0.002393 0.000236 0.043965 0.000035 -0.029857
# 5 -0.003407 -0.001196 -0.000804 0.000035 0.028182 0.003941
# 6 0.004413 -0.003391 0.005773 -0.029857 0.003941 0.065978
#
#
# Mechanical properties :
#
#
# Convention : Reuss Voigt Hill
#
# Bulk Modulus (GPa) = 45.17144 51.32523 48.24833
# Shear Modulus (GPa) = 24.26410 33.45261 28.85836
#
# Velocity S-wave (km/s) = 3.34894 3.93224 3.65225
# Velocity P-wave (km/s) = 5.98607 6.65885 6.33140
#
# Compressibility (1/GPa) = 0.02213788
#
# Stress axis : x y z
#
# Youngs Moduli (GPa) = 100.13095 56.56512 73.07692
#
# Poissons Ratio (x) = 0.15941 0.07687
# Poissons Ratio (y) = 0.28218 0.41916
# Poissons Ratio (z) = 0.10533 0.32445
#
# Static dielectric constant tensor:
#      x y z
#    x 1.815640 -0.019480 0.050320 
#    y -0.019480 1.819350 0.005650 
#    z 0.050320 0.005650 1.847140 
# 
# From -- ./inp_files/503942.got.cif
#   From: 2010.05.17/outbox.cif.g08.bks.cpg/sg2_252_cif.got.tgz:503942.got - 2010.06.03 11:33:40.
