data_PCOD9107664
_publ_section_title
;
Structure prediction by ZEFSAII (Michael W. Deem and Ramdas Pophale) SiO2 
 PCOD9107664
Probable space group: P -1
;
_chemical_formula_sum "Si O2"
_cell_formula_units_Z 16
_cell_length_a 7.966320
_cell_length_b 8.529983
_cell_length_c 14.994581
_cell_angle_alpha 58.050580
_cell_angle_beta 63.322059
_cell_angle_gamma 56.308747
_cell_volume 701.704797
_symmetry_space_group_name_H-M "P -1"
_symmetry_group_IT_number 2
_symmetry_cell_setting 'triclinic'
loop_
_space_group_symop_operation_xyz
x,y,z
-x,-y,-z
loop_
_atom_site_type_symbol
_atom_site_label
_atom_site_fract_x
_atom_site_fract_y
_atom_site_fract_z
Si Si1 0.243547 0.295192 0.419874
Si Si2 0.243316 0.917492 0.443634
Si Si3 0.731683 0.464354 0.989387
Si Si4 0.563757 0.842640 0.251470
Si Si5 0.126448 0.973980 0.883977
Si Si6 0.200638 0.624698 0.190944
Si Si7 0.437641 0.232829 0.924883
Si Si8 0.746749 0.510055 0.459012
O O1 0.278711 0.429230 0.292958
O O2 0.322586 0.360902 0.471307
O O3 0.993377 0.387625 0.453250
O O4 0.317289 0.058312 0.446717
O O5 0.331053 0.941356 0.317472
O O6 0.317782 0.671955 0.500024
O O7 0.000000 0.000000 0.500000
O O8 0.850688 0.436505 0.875919
O O9 0.500000 0.500000 0.000000
O O10 0.732334 0.636461 0.002660
O O11 0.823502 0.254009 0.085639
O O12 0.657291 0.007656 0.164996
O O13 0.597259 0.733544 0.181549
O O14 0.692966 0.673486 0.343988
O O15 0.991210 0.166459 0.797328
O O16 0.000000 0.000000 0.000000
O O17 0.376416 0.705589 0.118009
O O18 0.500000 0.000000 0.000000
#
# Coordination Sequence:
#
# PCOD9107664 Si02
#       8
#     2   2   2   2   2   2   2   2
#     4  10  21  41  69  95 131 182 224 273 362 402
#     4  10  24  42  66  99 138 172 230 290 333 412
#     4   9  20  38  62  93 132 166 224 273 320 412
#     4  12  23  42  70  95 136 180 220 282 350 392
#     4  10  21  41  65  96 133 173 223 280 326 407
#     4  10  20  40  65  90 132 179 221 276 343 409
#     4  11  24  40  63  98 135 178 223 281 343 400
#     4  10  22  44  64  98 137 171 229 290 337 415
#
# _framework density 22.801608999999999
#
# number of rings (size 3 to 8) (size 9 to 14) (size 15 to 20)
#    0.000    1.750    1.250    3.375    5.250    0.500 
#    2.250    8.125    0.000    0.000    0.000    0.000 
#    0.000    0.000    0.000    0.000    0.000    0.000 
#
# Total GULP energy -89146.843468 kJ/mol
# GULP energy per Si atom -5571.677717 kJ/mol
# Density = 2.274971 g / cm^3
# Si number density = 22.801609 Si / 1000 Ang^3
#
#
#
# Elastic Constant Matrix: (Units=GPa)
#
#
# Indices 1 2 3 4 5 6 
#
# 1 64.5368 42.2051 46.1894 -1.6047 6.2408 22.0196
# 2 42.2051 194.3761 70.2600 -11.5015 15.5290 35.3961
# 3 46.1894 70.2600 120.5797 -6.1007 6.6893 26.4537
# 4 -1.6047 -11.5015 -6.1007 27.2541 16.3409 0.7085
# 5 6.2408 15.5290 6.6893 16.3409 41.9392 2.2997
# 6 22.0196 35.3961 26.4537 0.7085 2.2997 41.3016
#
#
#
# Elastic Compliance Matrix: (Units=1/GPa)
#
#
# Indices 1 2 3 4 5 6 
#
# 1 0.023728 -0.001241 -0.006636 0.000711 -0.001893 -0.007243
# 2 -0.001241 0.007753 -0.002648 0.005134 -0.004037 -0.004150
# 3 -0.006636 -0.002648 0.013078 0.001921 -0.000726 -0.002561
# 4 0.000711 0.005134 0.001921 0.053078 -0.022684 -0.005657
# 5 -0.001893 -0.004037 -0.000726 -0.022684 0.034388 0.003408
# 6 -0.007243 -0.004150 -0.002561 -0.005657 0.003408 0.033179
#
#
# Mechanical properties :
#
#
# Convention : Reuss Voigt Hill
#
# Bulk Modulus (GPa) = 42.53756 77.42239 59.97998
# Shear Modulus (GPa) = 25.76110 36.82151 31.29131
#
# Velocity S-wave (km/s) = 3.36489 4.02290 3.70851
# Velocity P-wave (km/s) = 5.81314 7.45700 6.68578
#
# Compressibility (1/GPa) = 0.02350863
#
# Stress axis : x y z
#
# Youngs Moduli (GPa) = 42.14374 128.97486 76.46583
#
# Poissons Ratio (x) = 0.16008 0.50744
# Poissons Ratio (y) = 0.05231 0.20249
# Poissons Ratio (z) = 0.27967 0.34154
#
# Static dielectric constant tensor:
#      x y z
#    x 1.924890 -0.023510 -0.040610 
#    y -0.023510 1.914780 0.096060 
#    z -0.040610 0.096060 1.897770 
# 
# From -- ./inp_files/492258.got.cif
#   From: 2010.05.17/outbox.cif.g08.bks.cpg/sg2_247_cif.got.tgz:492258.got - 2010.06.03 11:33:40.
