data_PCOD9107898
_publ_section_title
;
Structure prediction by ZEFSAII (Michael W. Deem and Ramdas Pophale) SiO2 
 PCOD9107898
Probable space group: P -1
;
_chemical_formula_sum "Si O2"
_cell_formula_units_Z 16
_cell_length_a 11.829578
_cell_length_b 11.723123
_cell_length_c 12.508064
_cell_angle_alpha 47.879790
_cell_angle_beta 101.847773
_cell_angle_gamma 63.446494
_cell_volume 746.230369
_symmetry_space_group_name_H-M "P -1"
_symmetry_group_IT_number 2
_symmetry_cell_setting 'triclinic'
loop_
_space_group_symop_operation_xyz
x,y,z
-x,-y,-z
loop_
_atom_site_type_symbol
_atom_site_label
_atom_site_fract_x
_atom_site_fract_y
_atom_site_fract_z
Si Si1 0.404065 0.793317 0.061149
Si Si2 0.433488 0.232500 0.694657
Si Si3 0.392886 0.962150 0.547165
Si Si4 0.988095 0.188463 0.988995
Si Si5 0.584042 0.757341 0.930539
Si Si6 0.537009 0.614937 0.609067
Si Si7 0.972581 0.519581 0.109320
Si Si8 0.978011 0.184763 0.735131
O O1 0.431436 0.890051 0.098664
O O2 0.455958 0.575189 0.262363
O O3 0.551102 0.669803 0.071379
O O4 0.183249 0.019946 0.830998
O O5 0.486629 0.296518 0.570729
O O6 0.212344 0.509416 0.512910
O O7 0.456633 0.041614 0.765656
O O8 0.511480 0.778347 0.788265
O O9 0.392276 0.844786 0.522281
O O10 0.500000 0.000000 0.500000
O O11 0.178235 0.238983 0.368608
O O12 0.753471 0.438529 0.798664
O O13 0.067465 0.264624 0.995878
O O14 0.022170 0.141577 0.898300
O O15 0.063256 0.951898 0.208055
O O16 0.799590 0.592864 0.062214
O O17 0.000000 0.500000 0.000000
#
# Coordination Sequence:
#
# PCOD9107898 Si02
#       8
#     2   2   2   2   2   2   2   2
#     4  11  25  40  58  92 132 158 195 247 315 360
#     4  11  21  39  64  90 122 161 210 242 293 364
#     4  12  21  42  65  90 115 155 212 251 296 355
#     4   9  17  34  59  90 118 149 202 251 294 342
#     4  12  26  40  60  93 127 161 196 252 309 359
#     4  10  20  40  66  90 118 161 205 256 292 354
#     4  12  22  37  63  90 119 154 204 256 298 353
#     4   9  20  36  59  85 118 161 196 243 296 354
#
# _framework density 21.441101
#
# number of rings (size 3 to 8) (size 9 to 14) (size 15 to 20)
#    0.000    1.250    3.750    3.000    0.000    4.000 
#    0.000    0.625    0.000    0.000    0.000    0.000 
#    0.000    0.000    0.000    0.000    0.000    0.000 
#
# Total GULP energy -89486.651276 kJ/mol
# GULP energy per Si atom -5592.915705 kJ/mol
# Density = 2.139230 g / cm^3
# Si number density = 21.441101 Si / 1000 Ang^3
#
#
#
# Elastic Constant Matrix: (Units=GPa)
#
#
# Indices 1 2 3 4 5 6 
#
# 1 72.2229 12.2185 13.7901 1.7942 14.8339 -12.6538
# 2 12.2185 66.6528 0.3726 2.3669 5.9801 4.1925
# 3 13.7901 0.3726 50.7132 -9.4343 18.9077 -10.6728
# 4 1.7942 2.3669 -9.4343 41.4658 -8.8094 -0.6036
# 5 14.8339 5.9801 18.9077 -8.8094 27.8451 -4.2122
# 6 -12.6538 4.1925 -10.6728 -0.6036 -4.2122 25.0090
#
#
#
# Elastic Compliance Matrix: (Units=1/GPa)
#
#
# Indices 1 2 3 4 5 6 
#
# 1 0.017464 -0.002899 -0.000619 -0.002280 -0.007820 0.007686
# 2 -0.002899 0.016188 0.000804 -0.001449 -0.003615 -0.004481
# 3 -0.000619 0.000804 0.028674 0.003025 -0.016996 0.009000
# 4 -0.002280 -0.001449 0.003025 0.026787 0.008314 0.002427
# 5 -0.007820 -0.003615 -0.016996 0.008314 0.054850 -0.001165
# 6 0.007686 -0.004481 0.009000 0.002427 -0.001165 0.048329
#
#
# Mechanical properties :
#
#
# Convention : Reuss Voigt Hill
#
# Bulk Modulus (GPa) = 17.57480 26.92790 22.25135
# Shear Modulus (GPa) = 23.07500 29.74448 26.40974
#
# Velocity S-wave (km/s) = 3.28411 3.72864 3.51341
# Velocity P-wave (km/s) = 4.75343 5.57883 5.18259
#
# Compressibility (1/GPa) = 0.05689965
#
# Stress axis : x y z
#
# Youngs Moduli (GPa) = 57.26081 61.77552 34.87429
#
# Poissons Ratio (x) = 0.17908 0.02158
# Poissons Ratio (y) = 0.16599 -0.02806
# Poissons Ratio (z) = 0.03543 -0.04970
#
# Static dielectric constant tensor:
#      x y z
#    x 1.792660 0.000210 0.027610 
#    y 0.000210 1.783940 -0.027240 
#    z 0.027610 -0.027240 1.820500 
# 
# From -- ./inp_files/308019.got.cif
#   From: 2010.05.17/outbox.cif.g08.bks.cpg/sg2_155_cif.got.tgz:308019.got - 2010.06.03 11:33:40.
