data_PCOD9107649
_publ_section_title
;
Structure prediction by ZEFSAII (Michael W. Deem and Ramdas Pophale) SiO2 
 PCOD9107649
Probable space group: P -1
;
_chemical_formula_sum "Si O2"
_cell_formula_units_Z 16
_cell_length_a 8.319077
_cell_length_b 10.358099
_cell_length_c 17.740159
_cell_angle_alpha 46.732743
_cell_angle_beta 136.805235
_cell_angle_gamma 135.960846
_cell_volume 684.280621
_symmetry_space_group_name_H-M "P -1"
_symmetry_group_IT_number 2
_symmetry_cell_setting 'triclinic'
loop_
_space_group_symop_operation_xyz
x,y,z
-x,-y,-z
loop_
_atom_site_type_symbol
_atom_site_label
_atom_site_fract_x
_atom_site_fract_y
_atom_site_fract_z
Si Si1 0.177268 0.832442 0.066335
Si Si2 0.060448 0.153544 0.684312
Si Si3 0.027751 0.248147 0.124692
Si Si4 0.938937 0.895076 0.600015
Si Si5 0.395114 0.766642 0.543112
Si Si6 0.650070 0.747577 0.994936
Si Si7 0.598193 0.541336 0.212152
Si Si8 0.919516 0.410809 0.178478
O O1 0.887393 0.817949 0.988863
O O2 0.142599 0.632675 0.174898
O O3 0.183573 0.796770 0.994219
O O4 0.371189 0.049724 0.070549
O O5 0.325001 0.296800 0.759647
O O6 0.070394 0.066517 0.640163
O O7 0.880854 0.270638 0.574023
O O8 0.939828 0.950983 0.771771
O O9 0.302279 0.428367 0.127721
O O10 0.958524 0.320850 0.149176
O O11 0.633800 0.769840 0.572299
O O12 0.000000 0.000000 0.500000
O O13 0.058579 0.739381 0.695992
O O14 0.360220 0.633503 0.659233
O O15 0.500000 0.000000 0.500000
O O16 0.729332 0.664394 0.131502
O O17 0.371685 0.610652 0.917460
#
# Coordination Sequence:
#
# PCOD9107649 Si02
#       8
#     2   2   2   2   2   2   2   2
#     4  11  24  43  59  96 133 162 215 259 309 378
#     4  10  22  41  65  95 123 168 214 259 305 379
#     4  11  22  39  66  93 131 165 213 256 312 379
#     4  10  23  44  65  94 127 164 209 262 321 368
#     4  10  20  40  65  90 124 164 215 258 299 376
#     4  11  26  40  65  96 128 168 210 261 315 374
#     4  12  21  39  68  93 125 166 213 254 316 366
#     4  11  23  41  65  93 126 174 202 258 322 379
#
# _framework density 23.382221000000001
#
# number of rings (size 3 to 8) (size 9 to 14) (size 15 to 20)
#    0.000    1.250    6.250    1.125    0.000    5.500 
#    0.000    0.625    0.000    0.000    0.000    0.000 
#    0.000    0.000    0.000    0.000    0.000    0.000 
#
# Total GULP energy -89230.749947 kJ/mol
# GULP energy per Si atom -5576.921872 kJ/mol
# Density = 2.332900 g / cm^3
# Si number density = 23.382221 Si / 1000 Ang^3
#
#
#
# Elastic Constant Matrix: (Units=GPa)
#
#
# Indices 1 2 3 4 5 6 
#
# 1 45.7099 10.3753 27.3319 -6.4456 -11.4439 3.6887
# 2 10.3753 111.6198 24.8236 -11.6481 -9.7122 -11.2218
# 3 27.3319 24.8236 148.9261 -33.7644 -9.7293 6.0117
# 4 -6.4456 -11.6481 -33.7644 40.9075 6.2498 0.3573
# 5 -11.4439 -9.7122 -9.7293 6.2498 39.2089 2.6265
# 6 3.6887 -11.2218 6.0117 0.3573 2.6265 26.8461
#
#
#
# Elastic Compliance Matrix: (Units=1/GPa)
#
#
# Indices 1 2 3 4 5 6 
#
# 1 0.026627 -0.001422 -0.004202 -0.000674 0.006750 -0.003964
# 2 -0.001422 0.010070 -0.001195 0.001426 0.001252 0.004531
# 3 -0.004202 -0.001195 0.009277 0.006696 -0.000149 -0.002074
# 4 -0.000674 0.001426 0.006696 0.030741 -0.003020 -0.000924
# 5 0.006750 0.001252 -0.000149 -0.003020 0.028438 -0.003113
# 6 -0.003964 0.004531 -0.002074 -0.000924 -0.003113 0.040469
#
#
# Mechanical properties :
#
#
# Convention : Reuss Voigt Hill
#
# Bulk Modulus (GPa) = 30.92520 47.92414 39.42467
# Shear Modulus (GPa) = 29.40498 37.64082 33.52290
#
# Velocity S-wave (km/s) = 3.55008 4.01659 3.79052
# Velocity P-wave (km/s) = 5.48259 6.48468 6.00458
#
# Compressibility (1/GPa) = 0.03233609
#
# Stress axis : x y z
#
# Youngs Moduli (GPa) = 37.55614 99.30204 107.79179
#
# Poissons Ratio (x) = 0.14122 0.45289
# Poissons Ratio (y) = 0.05341 0.12885
# Poissons Ratio (z) = 0.15779 0.11871
#
# Static dielectric constant tensor:
#      x y z
#    x 1.937180 -0.010920 0.086250 
#    y -0.010920 1.894540 -0.010310 
#    z 0.086250 -0.010310 1.979490 
# 
# From -- ./inp_files/589507.got.cif
#   From: 2010.05.17/outbox.cif.g08.bks.cpg/sg2_295_cif.got.tgz:589507.got - 2010.06.03 11:33:40.
