data_PCOD9107732
_publ_section_title
;
Structure prediction by ZEFSAII (Michael W. Deem and Ramdas Pophale) SiO2 
 PCOD9107732
Probable space group: P -1
;
_chemical_formula_sum "Si O2"
_cell_formula_units_Z 14
_cell_length_a 14.883141
_cell_length_b 13.276591
_cell_length_c 9.691577
_cell_angle_alpha 142.303491
_cell_angle_beta 31.142353
_cell_angle_gamma 140.080968
_cell_volume 580.715165
_symmetry_space_group_name_H-M "P -1"
_symmetry_group_IT_number 2
_symmetry_cell_setting 'triclinic'
loop_
_space_group_symop_operation_xyz
x,y,z
-x,-y,-z
loop_
_atom_site_type_symbol
_atom_site_label
_atom_site_fract_x
_atom_site_fract_y
_atom_site_fract_z
Si Si1 0.928189 0.129296 0.327455
Si Si2 0.130463 0.133230 0.668130
Si Si3 0.413774 0.365484 0.739985
Si Si4 0.157399 0.492475 0.394247
Si Si5 0.774057 0.015843 0.876932
Si Si6 0.422332 0.994096 0.445923
Si Si7 0.815551 0.396523 0.209785
O O1 0.083778 0.296348 0.334897
O O2 0.830457 0.025560 0.475103
O O3 0.764511 0.153973 0.479339
O O4 0.000000 0.000000 0.000000
O O5 0.254280 0.300215 0.762674
O O6 0.911412 0.069467 0.883865
O O7 0.173257 0.120120 0.437892
O O8 0.411515 0.185662 0.626530
O O9 0.620058 0.435282 0.487679
O O10 0.342390 0.491555 0.070619
O O11 0.165493 0.595117 0.637688
O O12 0.000000 0.500000 0.500000
O O13 0.566820 0.943944 0.106638
O O14 0.790116 0.200040 0.987299
O O15 0.500000 0.000000 0.500000
O O16 0.000000 0.500000 0.000000
#
# Coordination Sequence:
#
# PCOD9107732 Si02
#       7
#     2   2   2   2   2   2   2
#     4  11  21  38  64  90 122 165 214 263 316 377
#     4  10  20  40  65  94 126 162 219 273 326 367
#     4  10  23  42  68  91 131 174 219 274 322 387
#     4  12  25  42  67  97 136 177 219 270 331 395
#     4  10  22  38  64  95 129 165 212 277 317 389
#     4  10  21  35  64  95 126 158 216 270 316 377
#     4  11  25  44  63  91 137 179 220 260 336 400
#
# _framework density 24.108207
#
# number of rings (size 3 to 8) (size 9 to 14) (size 15 to 20)
#    0.000    1.429    2.857    3.000    4.000    6.286 
#    0.000    2.857    0.000    0.000    0.000    0.000 
#    0.000    0.000    0.000    0.000    0.000    0.000 
#
# Total GULP energy -78058.077409 kJ/mol
# GULP energy per Si atom -5575.576958 kJ/mol
# Density = 2.405334 g / cm^3
# Si number density = 24.108207 Si / 1000 Ang^3
#
#
#
# Elastic Constant Matrix: (Units=GPa)
#
#
# Indices 1 2 3 4 5 6 
#
# 1 83.0806 0.5533 39.8354 -4.5626 -2.3703 26.8489
# 2 0.5533 54.6489 26.9507 -14.3620 5.7013 17.2671
# 3 39.8354 26.9507 126.6572 -11.2924 1.2724 19.2562
# 4 -4.5626 -14.3620 -11.2924 39.6084 12.7004 -6.4527
# 5 -2.3703 5.7013 1.2724 12.7004 36.9793 -0.8280
# 6 26.8489 17.2671 19.2562 -6.4527 -0.8280 27.4315
#
#
#
# Elastic Compliance Matrix: (Units=1/GPa)
#
#
# Indices 1 2 3 4 5 6 
#
# 1 0.022683 0.010768 -0.005531 0.001210 -0.000988 -0.024842
# 2 0.010768 0.032187 -0.005495 0.009869 -0.008029 -0.024864
# 3 -0.005531 -0.005495 0.010627 0.000679 -0.000071 0.001570
# 4 0.001210 0.009869 0.000679 0.033217 -0.012886 -0.000448
# 5 -0.000988 -0.008029 -0.000071 -0.012886 0.032735 0.004028
# 6 -0.024842 -0.024864 0.001570 -0.000448 0.004028 0.075334
#
#
# Mechanical properties :
#
#
# Convention : Reuss Voigt Hill
#
# Bulk Modulus (GPa) = 15.38890 44.34060 29.86475
# Shear Modulus (GPa) = 21.83805 33.94034 27.88920
#
# Velocity S-wave (km/s) = 3.01297 3.75618 3.40492
# Velocity P-wave (km/s) = 4.30130 6.10280 5.27945
#
# Compressibility (1/GPa) = 0.06498188
#
# Stress axis : x y z
#
# Youngs Moduli (GPa) = 44.08541 31.06864 94.10364
#
# Poissons Ratio (x) = -0.33456 0.52047
# Poissons Ratio (y) = -0.47473 0.51710
# Poissons Ratio (z) = 0.24383 0.17072
#
# Static dielectric constant tensor:
#      x y z
#    x 2.049590 -0.041890 -0.054860 
#    y -0.041890 1.983030 -0.090010 
#    z -0.054860 -0.090010 2.050800 
# 
# From -- ./inp_files/295938.got.cif
#   From: 2010.05.17/outbox.cif.g08.bks.cpg/sg2_148_cif.got.tgz:295938.got - 2010.06.03 11:33:40.
