data_PCOD9107625
_publ_section_title
;
Structure prediction by ZEFSAII (Michael W. Deem and Ramdas Pophale) SiO2 
 PCOD9107625
Probable space group: P -1
;
_chemical_formula_sum "Si O2"
_cell_formula_units_Z 16
_cell_length_a 12.613425
_cell_length_b 12.038785
_cell_length_c 12.043477
_cell_angle_alpha 134.814994
_cell_angle_beta 47.761944
_cell_angle_gamma 147.949811
_cell_volume 674.709048
_symmetry_space_group_name_H-M "P -1"
_symmetry_group_IT_number 2
_symmetry_cell_setting 'triclinic'
loop_
_space_group_symop_operation_xyz
x,y,z
-x,-y,-z
loop_
_atom_site_type_symbol
_atom_site_label
_atom_site_fract_x
_atom_site_fract_y
_atom_site_fract_z
Si Si1 0.597657 0.155155 0.198574
Si Si2 0.378997 0.662873 0.008350
Si Si3 0.954432 0.243359 0.940086
Si Si4 0.210653 0.649327 0.577616
Si Si5 0.804185 0.844003 0.877607
Si Si6 0.955015 0.788687 0.522580
Si Si7 0.264443 0.115750 0.356702
Si Si8 0.819750 0.544295 0.761594
O O1 0.615498 0.170273 0.330698
O O2 0.490076 0.225443 0.278441
O O3 0.459786 0.897112 0.083701
O O4 0.820190 0.292621 0.089745
O O5 0.191734 0.459146 0.923245
O O6 0.289509 0.598169 0.150742
O O7 0.573545 0.699082 0.897633
O O8 0.903342 0.092840 0.977429
O O9 0.864634 0.082435 0.784180
O O10 0.082863 0.421271 0.577589
O O11 0.275869 0.613544 0.392772
O O12 0.053916 0.667385 0.676691
O O13 0.935850 0.852506 0.700626
O O14 0.798653 0.716583 0.891204
O O15 0.778015 0.737688 0.539977
O O16 0.160890 0.991719 0.458589
#
# Coordination Sequence:
#
# PCOD9107625 Si02
#       8
#     2   2   2   2   2   2   2   2
#     4  11  23  40  62  92 125 159 205 251 297 365
#     4  11  22  40  63  90 128 159 205 246 300 365
#     4  10  22  42  61  92 127 160 198 255 298 359
#     4  10  21  40  63  89 124 160 199 256 304 352
#     4   9  21  41  63  90 123 157 208 251 297 362
#     4   9  20  43  60  88 123 157 201 257 294 362
#     4  10  21  40  66  91 120 163 203 245 312 359
#     4  10  20  40  65  89 122 163 200 249 308 358
#
# _framework density 23.713926000000001
#
# number of rings (size 3 to 8) (size 9 to 14) (size 15 to 20)
#    0.000    2.000    1.250    1.500    0.000    2.000 
#   22.500    0.000    0.000    0.000    0.000    0.000 
#    0.000    0.000    0.000    0.000    0.000    0.000 
#
# Total GULP energy -89441.582335 kJ/mol
# GULP energy per Si atom -5590.098896 kJ/mol
# Density = 2.365995 g / cm^3
# Si number density = 23.713926 Si / 1000 Ang^3
#
#
#
# Elastic Constant Matrix: (Units=GPa)
#
#
# Indices 1 2 3 4 5 6 
#
# 1 120.5215 28.1024 18.5577 9.9370 -24.0166 9.9559
# 2 28.1024 54.4992 3.7574 -11.4191 -3.1556 -2.5171
# 3 18.5577 3.7574 62.6197 -11.2049 8.7905 7.1928
# 4 9.9370 -11.4191 -11.2049 31.9312 -3.1113 4.5053
# 5 -24.0166 -3.1556 8.7905 -3.1113 48.8034 6.9942
# 6 9.9559 -2.5171 7.1928 4.5053 6.9942 35.2817
#
#
#
# Elastic Compliance Matrix: (Units=1/GPa)
#
#
# Indices 1 2 3 4 5 6 
#
# 1 0.013291 -0.007841 -0.005407 -0.007640 0.007040 -0.003628
# 2 -0.007841 0.024613 0.003016 0.011738 -0.002396 0.002330
# 3 -0.005407 0.003016 0.020140 0.009697 -0.005104 -0.002591
# 4 -0.007640 0.011738 0.009697 0.041714 -0.001513 -0.004010
# 5 0.007040 -0.002396 -0.005104 -0.001513 0.025479 -0.005975
# 6 -0.003628 0.002330 -0.002591 -0.004010 -0.005975 0.031758
#
#
# Mechanical properties :
#
#
# Convention : Reuss Voigt Hill
#
# Bulk Modulus (GPa) = 26.61035 37.60836 32.10936
# Shear Modulus (GPa) = 26.31793 35.68478 31.00135
#
# Velocity S-wave (km/s) = 3.33499 3.88339 3.61959
# Velocity P-wave (km/s) = 5.10640 6.00010 5.57120
#
# Compressibility (1/GPa) = 0.03757936
#
# Stress axis : x y z
#
# Youngs Moduli (GPa) = 75.24096 40.62958 49.65228
#
# Poissons Ratio (x) = 0.31858 0.26846
# Poissons Ratio (y) = 0.58998 -0.14975
# Poissons Ratio (z) = 0.40682 -0.12254
#
# Static dielectric constant tensor:
#      x y z
#    x 1.945430 -0.022840 0.037440 
#    y -0.022840 1.906590 0.027070 
#    z 0.037440 0.027070 1.919200 
# 
# From -- ./inp_files/424210.got.cif
#   From: 2010.05.17/outbox.cif.g08.bks.cpg/sg2_213_cif.got.tgz:424210.got - 2010.06.03 11:33:40.
