data_PCOD9107235
_publ_section_title
;
Structure prediction by ZEFSAII (Michael W. Deem and Ramdas Pophale) SiO2 
 PCOD9107235
Probable space group: P -1
;
_chemical_formula_sum "Si O2"
_cell_formula_units_Z 16
_cell_length_a 12.046949
_cell_length_b 10.340605
_cell_length_c 14.291061
_cell_angle_alpha 107.795493
_cell_angle_beta 147.031551
_cell_angle_gamma 52.318684
_cell_volume 672.138174
_symmetry_space_group_name_H-M "P -1"
_symmetry_group_IT_number 2
_symmetry_cell_setting 'triclinic'
loop_
_space_group_symop_operation_xyz
x,y,z
-x,-y,-z
loop_
_atom_site_type_symbol
_atom_site_label
_atom_site_fract_x
_atom_site_fract_y
_atom_site_fract_z
Si Si1 0.941307 0.837341 0.249861
Si Si2 0.444886 0.483735 0.609834
Si Si3 0.423829 0.969585 0.792265
Si Si4 0.306490 0.357441 0.228765
Si Si5 0.520612 0.507839 0.149322
Si Si6 0.996317 0.277294 0.280202
Si Si7 0.321745 0.861086 0.399467
Si Si8 0.291949 0.290682 0.643660
O O1 0.138612 0.625922 0.379816
O O2 0.120221 0.867713 0.328565
O O3 0.798380 0.962503 0.269530
O O4 0.703762 0.887625 0.026033
O O5 0.611174 0.523157 0.680446
O O6 0.421714 0.543084 0.712904
O O7 0.613971 0.268873 0.668704
O O8 0.496607 0.812210 0.742227
O O9 0.332660 0.140397 0.703069
O O10 0.387774 0.252630 0.362154
O O11 0.000000 0.500000 0.000000
O O12 0.776274 0.347513 0.226744
O O13 0.495559 0.685847 0.170956
O O14 0.231804 0.572438 0.924501
O O15 0.233524 0.264430 0.491080
O O16 0.162791 0.071941 0.314983
O O17 0.000000 0.500000 0.500000
#
# Coordination Sequence:
#
# PCOD9107235 Si02
#       8
#     2   2   2   2   2   2   2   2
#     4  10  22  37  63  96 130 164 213 260 328 388
#     4  11  24  42  62  93 131 176 204 269 326 389
#     4  11  21  38  65 101 124 168 214 267 323 388
#     4  11  23  40  63  92 133 168 213 263 325 390
#     4  10  23  41  67  93 131 167 220 268 322 381
#     4  10  21  41  65  96 123 172 220 268 321 382
#     4  11  22  40  65  87 135 167 213 264 330 384
#     4  10  20  40  63  93 131 163 210 272 318 370
#
# _framework density 23.804628999999998
#
# number of rings (size 3 to 8) (size 9 to 14) (size 15 to 20)
#    0.000    1.500    1.250    5.250    1.750    1.500 
#    9.000    0.625    0.000    0.000    0.000    0.000 
#    0.000    0.000    0.000    0.000    0.000    0.000 
#
# Total GULP energy -89407.613053 kJ/mol
# GULP energy per Si atom -5587.975816 kJ/mol
# Density = 2.375045 g / cm^3
# Si number density = 23.804629 Si / 1000 Ang^3
#
#
#
# Elastic Constant Matrix: (Units=GPa)
#
#
# Indices 1 2 3 4 5 6 
#
# 1 47.8261 -1.6710 18.2583 -3.9875 -2.8003 0.5602
# 2 -1.6710 119.1784 12.3729 -6.8469 -4.5807 -12.7298
# 3 18.2583 12.3729 123.2276 -5.0006 -9.4350 -8.8597
# 4 -3.9875 -6.8469 -5.0006 32.6712 -2.0913 -4.8622
# 5 -2.8003 -4.5807 -9.4350 -2.0913 29.4743 4.3552
# 6 0.5602 -12.7298 -8.8597 -4.8622 4.3552 26.4941
#
#
#
# Elastic Compliance Matrix: (Units=1/GPa)
#
#
# Indices 1 2 3 4 5 6 
#
# 1 0.022479 0.000737 -0.003267 0.002341 0.001523 -0.001035
# 2 0.000737 0.009125 -0.000527 0.002651 0.000836 0.004542
# 3 -0.003267 -0.000527 0.009077 0.001431 0.002208 0.002751
# 4 0.002341 0.002651 0.001431 0.032913 0.002340 0.007358
# 5 0.001523 0.000836 0.002208 0.002340 0.035716 -0.004333
# 6 -0.001035 0.004542 0.002751 0.007358 -0.004333 0.042931
#
#
# Mechanical properties :
#
#
# Convention : Reuss Voigt Hill
#
# Bulk Modulus (GPa) = 28.93030 38.68360 33.80695
# Shear Modulus (GPa) = 29.43280 35.14603 32.28942
#
# Velocity S-wave (km/s) = 3.52011 3.84661 3.68698
# Velocity P-wave (km/s) = 5.35735 6.00119 5.68839
#
# Compressibility (1/GPa) = 0.03456584
#
# Stress axis : x y z
#
# Youngs Moduli (GPa) = 44.48647 109.58395 110.16825
#
# Poissons Ratio (x) = -0.08076 0.35996
# Poissons Ratio (y) = -0.03278 0.05809
# Poissons Ratio (z) = 0.14535 0.05778
#
# Static dielectric constant tensor:
#      x y z
#    x 1.969380 -0.007920 0.013400 
#    y -0.007920 1.904670 0.033800 
#    z 0.013400 0.033800 1.944170 
# 
# From -- ./inp_files/532640.got.cif
#   From: 2010.05.17/outbox.cif.g08.bks.cpg/sg2_267_cif.got.tgz:532640.got - 2010.06.03 11:33:40.
