data_PCOD9107468
_publ_section_title
;
Structure prediction by ZEFSAII (Michael W. Deem and Ramdas Pophale) SiO2 
 PCOD9107468
Probable space group: P -1
;
_chemical_formula_sum "Si O2"
_cell_formula_units_Z 15
_cell_length_a 16.372429
_cell_length_b 6.774278
_cell_length_c 9.710606
_cell_angle_alpha 111.204845
_cell_angle_beta 59.320462
_cell_angle_gamma 138.478547
_cell_volume 613.635956
_symmetry_space_group_name_H-M "P -1"
_symmetry_group_IT_number 2
_symmetry_cell_setting 'triclinic'
loop_
_space_group_symop_operation_xyz
x,y,z
-x,-y,-z
loop_
_atom_site_type_symbol
_atom_site_label
_atom_site_fract_x
_atom_site_fract_y
_atom_site_fract_z
Si Si1 0.219333 0.813846 0.652925
Si Si2 0.679342 0.601796 0.967305
Si Si3 0.137835 0.397105 0.072626
Si Si4 0.607957 0.950424 0.998500
Si Si5 0.523264 0.849046 0.336386
Si Si6 0.929503 0.177747 0.423872
Si Si7 0.000000 0.500000 0.000000
Si Si8 0.760816 0.622073 0.604710
O O1 0.197918 0.944229 0.582467
O O2 0.228012 0.593747 0.522906
O O3 0.093199 0.617727 0.813858
O O4 0.351512 0.076580 0.691038
O O5 0.785464 0.710813 0.022990
O O6 0.525714 0.284829 0.036251
O O7 0.745934 0.598165 0.774713
O O8 0.659514 0.809401 0.982926
O O9 0.023741 0.214677 0.239778
O O10 0.081848 0.424126 0.991272
O O11 0.263533 0.740758 0.098400
O O12 0.562344 0.997458 0.189444
O O13 0.383411 0.511305 0.352693
O O14 0.500000 0.000000 0.500000
O O15 0.000000 0.500000 0.500000
O O16 0.880843 0.953049 0.531250
#
# Coordination Sequence:
#
# PCOD9107468 Si02
#       8
#     2   2   2   2   2   2   1   2
#     4  10  21  42  63  91 129 173 215 268 328 385
#     4  10  22  38  65  99 122 168 217 269 331 381
#     4  11  22  39  62  90 126 174 209 263 321 384
#     4  10  20  40  64  93 132 159 218 276 318 385
#     4   9  19  40  68  90 128 173 211 269 329 382
#     4  11  24  39  61  94 129 173 219 263 328 389
#     4  10  22  40  62  90 134 172 212 266 316 394
#     4  10  22  41  65  95 129 169 217 275 323 389
#
# _framework density 24.444462000000001
#
# number of rings (size 3 to 8) (size 9 to 14) (size 15 to 20)
#    0.000    1.867    1.333    2.000    0.000    4.800 
#    2.400   10.000    0.000    0.000    0.000    0.000 
#    0.000    0.000    0.000    0.000    0.000    0.000 
#
# Total GULP energy -83580.710781 kJ/mol
# GULP energy per Si atom -5572.047385 kJ/mol
# Density = 2.438883 g / cm^3
# Si number density = 24.444462 Si / 1000 Ang^3
#
#
#
# Elastic Constant Matrix: (Units=GPa)
#
#
# Indices 1 2 3 4 5 6 
#
# 1 167.5405 21.9541 27.2574 -0.2547 -3.0023 -3.9974
# 2 21.9541 76.9115 22.7825 -25.8607 0.9476 -2.4480
# 3 27.2574 22.7825 82.9814 -8.4164 -6.3801 -12.0491
# 4 -0.2547 -25.8607 -8.4164 33.4657 -4.6040 2.7973
# 5 -3.0023 0.9476 -6.3801 -4.6040 27.3763 2.5900
# 6 -3.9974 -2.4480 -12.0491 2.7973 2.5900 22.4797
#
#
#
# Elastic Compliance Matrix: (Units=1/GPa)
#
#
# Indices 1 2 3 4 5 6 
#
# 1 0.006518 -0.001987 -0.001756 -0.001944 0.000025 0.000241
# 2 -0.001987 0.019334 -0.003415 0.014358 0.000918 -0.001971
# 3 -0.001756 -0.003415 0.014874 0.000916 0.002899 0.006840
# 4 -0.001944 0.014358 0.000916 0.042532 0.007072 -0.004399
# 5 0.000025 0.000918 0.002899 0.007072 0.038712 -0.003682
# 6 0.000241 -0.001971 0.006840 -0.004399 -0.003682 0.048951
#
#
# Mechanical properties :
#
#
# Convention : Reuss Voigt Hill
#
# Bulk Modulus (GPa) = 37.86245 52.38013 45.12129
# Shear Modulus (GPa) = 25.76784 33.69364 29.73074
#
# Velocity S-wave (km/s) = 3.25027 3.71668 3.49127
# Velocity P-wave (km/s) = 5.44137 6.31609 5.89497
#
# Compressibility (1/GPa) = 0.02641139
#
# Stress axis : x y z
#
# Youngs Moduli (GPa) = 153.42310 51.72196 67.23035
#
# Poissons Ratio (x) = 0.10275 0.11805
# Poissons Ratio (y) = 0.30480 0.22959
# Poissons Ratio (z) = 0.26939 0.17663
#
# Static dielectric constant tensor:
#      x y z
#    x 2.059300 0.010270 -0.040900 
#    y 0.010270 1.993500 0.046760 
#    z -0.040900 0.046760 1.913050 
# 
# From -- ./inp_files/409589.got.cif
#   From: 2010.05.17/outbox.cif.g08.bks.cpg/sg2_205_cif.got.tgz:409589.got - 2010.06.03 11:33:40.
