data_PCOD9107196
_publ_section_title
;
Structure prediction by ZEFSAII (Michael W. Deem and Ramdas Pophale) SiO2 
 PCOD9107196
Probable space group: P -1
;
_chemical_formula_sum "Si O2"
_cell_formula_units_Z 16
_cell_length_a 17.303253
_cell_length_b 14.122670
_cell_length_c 6.986081
_cell_angle_alpha 83.103805
_cell_angle_beta 84.937228
_cell_angle_gamma 22.303516
_cell_volume 642.024851
_symmetry_space_group_name_H-M "P -1"
_symmetry_group_IT_number 2
_symmetry_cell_setting 'triclinic'
loop_
_space_group_symop_operation_xyz
x,y,z
-x,-y,-z
loop_
_atom_site_type_symbol
_atom_site_label
_atom_site_fract_x
_atom_site_fract_y
_atom_site_fract_z
Si Si1 0.886689 0.415346 0.443984
Si Si2 0.350534 0.996749 0.904910
Si Si3 0.959382 0.937485 0.962769
Si Si4 0.365173 0.433498 0.783626
Si Si5 0.732299 0.084002 0.317909
Si Si6 0.990110 0.529780 0.726824
Si Si7 0.639470 0.810569 0.694635
Si Si8 0.541678 0.436297 0.778061
O O1 0.719826 0.530188 0.382541
O O2 0.921433 0.464475 0.278973
O O3 0.805894 0.550665 0.628381
O O4 0.108049 0.119904 0.502278
O O5 0.353960 0.916051 0.749247
O O6 0.506403 0.904535 0.849625
O O7 0.129224 0.296481 0.865944
O O8 0.435176 0.841113 0.101627
O O9 0.864465 0.984150 0.144630
O O10 0.171557 0.651819 0.917166
O O11 0.783611 0.145046 0.788587
O O12 0.000000 0.000000 0.000000
O O13 0.417704 0.484121 0.733499
O O14 0.554373 0.360124 0.341623
O O15 0.000000 0.500000 0.500000
O O16 0.756702 0.768656 0.761323
O O17 0.500000 0.000000 0.500000
O O18 0.500000 0.500000 0.000000
#
# Coordination Sequence:
#
# PCOD9107196 Si02
#       8
#     2   2   2   2   2   2   2   2
#     4  11  24  42  62  97 133 156 207 271 313 355
#     4  12  21  39  71  91 118 172 218 243 308 381
#     4  11  20  42  68  90 122 169 214 250 304 379
#     4  12  25  40  63  98 131 158 204 272 315 353
#     4  11  20  41  69  90 122 170 217 248 300 385
#     4  10  20  41  61  91 127 157 214 258 294 381
#     4  11  20  41  69  88 120 173 211 248 308 380
#     4  10  20  40  63  91 124 161 212 252 296 380
#
# _framework density 24.921153
#
# number of rings (size 3 to 8) (size 9 to 14) (size 15 to 20)
#    0.000    1.000   10.000    0.750    0.000    1.000 
#    4.500    1.250    0.000    0.000    0.000    0.000 
#    0.000    0.000    0.000    0.000    0.000    0.000 
#
# Total GULP energy -89610.413389 kJ/mol
# GULP energy per Si atom -5600.650837 kJ/mol
# Density = 2.486443 g / cm^3
# Si number density = 24.921153 Si / 1000 Ang^3
#
#
#
# Elastic Constant Matrix: (Units=GPa)
#
#
# Indices 1 2 3 4 5 6 
#
# 1 140.4011 31.5027 15.0496 -7.4340 28.2301 -1.8896
# 2 31.5027 112.6187 36.4239 -27.2639 -1.9637 10.0300
# 3 15.0496 36.4239 66.6240 -19.5776 14.2505 9.6718
# 4 -7.4340 -27.2639 -19.5776 54.2232 -9.3302 -8.8719
# 5 28.2301 -1.9637 14.2505 -9.3302 42.4741 -2.2120
# 6 -1.8896 10.0300 9.6718 -8.8719 -2.2120 40.7139
#
#
#
# Elastic Compliance Matrix: (Units=1/GPa)
#
#
# Indices 1 2 3 4 5 6 
#
# 1 0.009041 -0.003201 0.000719 -0.001184 -0.006636 0.000419
# 2 -0.003201 0.013095 -0.006189 0.004829 0.005842 -0.000535
# 3 0.000719 -0.006189 0.021109 0.002803 -0.007399 -0.003248
# 4 -0.001184 0.004829 0.002803 0.023202 0.005345 0.003436
# 5 -0.006636 0.005842 -0.007399 0.005345 0.032033 0.002916
# 6 0.000419 -0.000535 -0.003248 0.003436 0.002916 0.026391
#
#
# Mechanical properties :
#
#
# Convention : Reuss Voigt Hill
#
# Bulk Modulus (GPa) = 38.60785 53.95515 46.28150
# Shear Modulus (GPa) = 33.14571 43.26009 38.20290
#
# Velocity S-wave (km/s) = 3.65090 4.17091 3.91954
# Velocity P-wave (km/s) = 5.77042 6.70020 6.25262
#
# Compressibility (1/GPa) = 0.02590147
#
# Stress axis : x y z
#
# Youngs Moduli (GPa) = 110.60759 76.36386 47.37327
#
# Poissons Ratio (x) = 0.24445 -0.03404
# Poissons Ratio (y) = 0.35406 0.29321
# Poissons Ratio (z) = -0.07948 0.47264
#
# Static dielectric constant tensor:
#      x y z
#    x 1.936130 0.025470 0.008460 
#    y 0.025470 2.049330 0.051310 
#    z 0.008460 0.051310 2.021660 
# 
# From -- ./inp_files/307347.got.cif
#   From: 2010.05.17/outbox.cif.g08.bks.cpg/sg2_154_cif.got.tgz:307347.got - 2010.06.03 11:33:40.
