data_PCOD9107159
_publ_section_title
;
Structure prediction by ZEFSAII (Michael W. Deem and Ramdas Pophale) SiO2 
 PCOD9107159
Probable space group: P -1
;
_chemical_formula_sum "Si O2"
_cell_formula_units_Z 16
_cell_length_a 9.848434
_cell_length_b 7.884321
_cell_length_c 14.032177
_cell_angle_alpha 102.000626
_cell_angle_beta 57.998506
_cell_angle_gamma 58.549791
_cell_volume 585.455128
_symmetry_space_group_name_H-M "P -1"
_symmetry_group_IT_number 2
_symmetry_cell_setting 'triclinic'
loop_
_space_group_symop_operation_xyz
x,y,z
-x,-y,-z
loop_
_atom_site_type_symbol
_atom_site_label
_atom_site_fract_x
_atom_site_fract_y
_atom_site_fract_z
Si Si1 0.507401 0.849340 0.898562
Si Si2 0.932275 0.582637 0.211135
Si Si3 0.288675 0.530789 0.062991
Si Si4 0.012309 0.044243 0.125682
Si Si5 0.268727 0.099280 0.340940
Si Si6 0.583744 0.593996 0.259747
Si Si7 0.802975 0.543049 0.452135
Si Si8 0.699469 0.152732 0.408293
O O1 0.695174 0.550726 0.839006
O O2 0.609366 0.856265 0.767748
O O3 0.500000 0.000000 0.000000
O O4 0.234593 0.990720 0.012435
O O5 0.752483 0.626246 0.215055
O O6 0.927014 0.471817 0.295130
O O7 0.192255 0.420036 0.050361
O O8 0.827238 0.859195 0.312351
O O9 0.146423 0.750387 0.055149
O O10 0.500000 0.500000 0.000000
O O11 0.780236 0.276267 0.170087
O O12 0.885752 0.138401 0.290520
O O13 0.250273 0.219256 0.460211
O O14 0.994472 0.300162 0.425140
O O15 0.410418 0.798257 0.260265
O O16 0.394284 0.742103 0.437806
O O17 0.543116 0.664377 0.545902
#
# Coordination Sequence:
#
# PCOD9107159 Si02
#       8
#     2   2   2   2   2   2   2   2
#     4  11  23  42  65  89 117 162 211 247 295 360
#     4  10  16  34  63  89 115 157 208 243 293 362
#     4   9  19  37  60  88 115 157 207 243 294 360
#     4  10  23  36  63  86 124 162 202 242 299 368
#     4  11  22  36  63  93 125 150 205 260 296 344
#     4  11  20  36  60  95 121 157 201 252 299 356
#     4  10  19  35  62  93 118 156 200 250 303 351
#     4  10  19  37  61  93 120 161 199 245 305 363
#
# _framework density 27.329166000000001
#
# number of rings (size 3 to 8) (size 9 to 14) (size 15 to 20)
#    0.000    1.750    3.750    1.875    1.750    0.500 
#    0.000    1.250    8.250    0.000    0.000    0.000 
#    0.000    0.000    0.000    0.000    0.000    0.000 
#
# Total GULP energy -89104.198006 kJ/mol
# GULP energy per Si atom -5569.012375 kJ/mol
# Density = 2.726696 g / cm^3
# Si number density = 27.329166 Si / 1000 Ang^3
#
#
#
# Elastic Constant Matrix: (Units=GPa)
#
#
# Indices 1 2 3 4 5 6 
#
# 1 74.2302 1.2588 38.9980 -20.0970 -23.2243 15.6943
# 2 1.2588 217.5972 34.5076 2.7514 -4.5582 -2.7950
# 3 38.9980 34.5076 99.9306 -22.1892 -25.4538 -6.7981
# 4 -20.0970 2.7514 -22.1892 54.5488 9.4325 -5.7878
# 5 -23.2243 -4.5582 -25.4538 9.4325 43.3690 -7.8573
# 6 15.6943 -2.7950 -6.7981 -5.7878 -7.8573 39.3922
#
#
#
# Elastic Compliance Matrix: (Units=1/GPa)
#
#
# Indices 1 2 3 4 5 6 
#
# 1 0.021489 0.000992 -0.007279 0.003137 0.005161 -0.008257
# 2 0.000992 0.004970 -0.002419 -0.000888 -0.000290 -0.000648
# 3 -0.007279 -0.002419 0.016605 0.003927 0.006077 0.007383
# 4 0.003137 -0.000888 0.003927 0.021447 -0.000329 0.002450
# 5 0.005161 -0.000290 0.006077 -0.000329 0.030330 0.004973
# 6 -0.008257 -0.000648 0.007383 0.002450 0.004973 0.031256
#
#
# Mechanical properties :
#
#
# Convention : Reuss Voigt Hill
#
# Bulk Modulus (GPa) = 38.98126 60.14298 49.56212
# Shear Modulus (GPa) = 32.88185 48.59492 40.73838
#
# Velocity S-wave (km/s) = 3.47245 4.22137 3.86509
# Velocity P-wave (km/s) = 5.51106 6.76865 6.17197
#
# Compressibility (1/GPa) = 0.02565335
#
# Stress axis : x y z
#
# Youngs Moduli (GPa) = 46.53563 201.19543 60.22256
#
# Poissons Ratio (x) = -0.19967 0.43837
# Poissons Ratio (y) = -0.04618 0.14566
# Poissons Ratio (z) = 0.33874 0.48663
#
# Static dielectric constant tensor:
#      x y z
#    x 2.139400 -0.042610 0.029760 
#    y -0.042610 2.146680 -0.080000 
#    z 0.029760 -0.080000 1.998360 
# 
# From -- ./inp_files/515519.got.cif
#   From: 2010.05.17/outbox.cif.g08.bks.cpg/sg2_258_cif.got.tgz:515519.got - 2010.06.03 11:33:40.
