data_PCOD9107200
_publ_section_title
;
Structure prediction by ZEFSAII (Michael W. Deem and Ramdas Pophale) SiO2 
 PCOD9107200
Probable space group: P -1
;
_chemical_formula_sum "Si O2"
_cell_formula_units_Z 15
_cell_length_a 6.733605
_cell_length_b 10.389184
_cell_length_c 12.398019
_cell_angle_alpha 90.634866
_cell_angle_beta 61.790494
_cell_angle_gamma 105.986484
_cell_volume 727.451075
_symmetry_space_group_name_H-M "P -1"
_symmetry_group_IT_number 2
_symmetry_cell_setting 'triclinic'
loop_
_space_group_symop_operation_xyz
x,y,z
-x,-y,-z
loop_
_atom_site_type_symbol
_atom_site_label
_atom_site_fract_x
_atom_site_fract_y
_atom_site_fract_z
Si Si1 0.911489 0.349589 0.169891
Si Si2 0.132070 0.232159 0.931638
Si Si3 0.500000 0.000000 0.500000
Si Si4 0.822715 0.587921 0.523601
Si Si5 0.447654 0.097902 0.282789
Si Si6 0.275340 0.416651 0.699486
Si Si7 0.031148 0.190470 0.330031
Si Si8 0.331203 0.023977 0.952810
O O1 0.647218 0.243808 0.228775
O O2 0.874651 0.489097 0.215960
O O3 0.044932 0.293455 0.228877
O O4 0.043868 0.337993 0.025167
O O5 0.238541 0.295004 0.791726
O O6 0.302583 0.172088 0.958856
O O7 0.912064 0.097068 0.969284
O O8 0.609845 0.950768 0.581489
O O9 0.235156 0.906479 0.603055
O O10 0.553759 0.500955 0.622353
O O11 0.811365 0.622859 0.400590
O O12 0.000000 0.500000 0.500000
O O13 0.909865 0.720133 0.575921
O O14 0.220010 0.109263 0.277194
O O15 0.564806 0.998641 0.190016
O O16 0.500000 0.000000 0.000000
#
# Coordination Sequence:
#
# PCOD9107200 Si02
#       8
#     2   2   1   2   2   2   2   2
#     4  10  20  40  63  91 127 163 204 260 317 375
#     4  10  23  40  65  92 126 163 210 264 312 376
#     4  10  24  36  62  92 120 168 218 258 312 370
#     4  11  24  41  62  92 132 168 207 261 318 372
#     4  10  21  38  61  89 123 165 206 260 316 374
#     4  11  23  41  65  95 126 169 211 259 318 379
#     4  11  21  40  62  89 129 166 213 260 316 375
#     4  10  22  42  61  90 125 163 208 261 318 370
#
# _framework density 20.619944
#
# number of rings (size 3 to 8) (size 9 to 14) (size 15 to 20)
#    0.000    1.600    2.667    1.600    0.000    5.333 
#    0.000    0.667    0.000    0.000    0.000    0.000 
#    0.000    0.000    0.000    0.000    0.000    0.000 
#
# Total GULP energy -83540.316564 kJ/mol
# GULP energy per Si atom -5569.354438 kJ/mol
# Density = 2.057301 g / cm^3
# Si number density = 20.619944 Si / 1000 Ang^3
#
#
#
# Elastic Constant Matrix: (Units=GPa)
#
#
# Indices 1 2 3 4 5 6 
#
# 1 108.6913 13.8981 30.8848 -17.8821 11.5971 -15.0597
# 2 13.8981 35.1311 34.6537 1.5412 -2.4504 -14.1394
# 3 30.8848 34.6537 95.7855 -12.7602 15.3881 -14.7072
# 4 -17.8821 1.5412 -12.7602 19.0769 -8.5117 12.2003
# 5 11.5971 -2.4504 15.3881 -8.5117 26.1193 0.6853
# 6 -15.0597 -14.1394 -14.7072 12.2003 0.6853 26.1388
#
#
#
# Elastic Compliance Matrix: (Units=1/GPa)
#
#
# Indices 1 2 3 4 5 6 
#
# 1 0.011908 -0.006306 0.000033 0.012299 -0.001832 -0.002224
# 2 -0.006306 0.088946 -0.031158 -0.069439 0.005319 0.059221
# 3 0.000033 -0.031158 0.024157 0.023614 -0.009107 -0.014026
# 4 0.012299 -0.069439 0.023614 0.155202 0.027060 -0.090340
# 5 -0.001832 0.005319 -0.009107 0.027060 0.054237 -0.017354
# 6 -0.002224 0.059221 -0.014026 -0.090340 -0.017354 0.103740
#
#
# Mechanical properties :
#
#
# Convention : Reuss Voigt Hill
#
# Bulk Modulus (GPa) = 19.94052 44.27566 32.10809
# Shear Modulus (GPa) = 9.43807 24.94509 17.19158
#
# Velocity S-wave (km/s) = 2.14175 3.48193 2.89058
# Velocity P-wave (km/s) = 3.97588 6.13873 5.17163
#
# Compressibility (1/GPa) = 0.05014913
#
# Stress axis : x y z
#
# Youngs Moduli (GPa) = 83.97687 11.24271 41.39599
#
# Poissons Ratio (x) = 0.07090 -0.00137
# Poissons Ratio (y) = 0.52957 1.28982
# Poissons Ratio (z) = -0.00278 0.35030
#
# Static dielectric constant tensor:
#      x y z
#    x 1.747480 -0.027360 -0.026290 
#    y -0.027360 1.734790 0.052990 
#    z -0.026290 0.052990 1.767410 
# 
# From -- ./inp_files/65676.got.cif
#   From: 2010.05.17/outbox.cif.g08.bks.cpg/sg2_33_cif.got.tgz:65676.got - 2010.06.03 11:33:40.
