data_PCOD9107999
_publ_section_title
;
Structure prediction by ZEFSAII (Michael W. Deem and Ramdas Pophale) SiO2 
 PCOD9107999
Probable space group: P -1
;
_chemical_formula_sum "Si O2"
_cell_formula_units_Z 16
_cell_length_a 10.517279
_cell_length_b 22.634902
_cell_length_c 8.180748
_cell_angle_alpha 134.124047
_cell_angle_beta 58.395466
_cell_angle_gamma 150.499466
_cell_volume 669.675607
_symmetry_space_group_name_H-M "P -1"
_symmetry_group_IT_number 2
_symmetry_cell_setting 'triclinic'
loop_
_space_group_symop_operation_xyz
x,y,z
-x,-y,-z
loop_
_atom_site_type_symbol
_atom_site_label
_atom_site_fract_x
_atom_site_fract_y
_atom_site_fract_z
Si Si1 0.241578 0.175297 0.374949
Si Si2 0.404980 0.547683 0.498496
Si Si3 0.144834 0.796626 0.808107
Si Si4 0.494540 0.326247 0.984105
Si Si5 0.940201 0.080151 0.054883
Si Si6 0.879784 0.123931 0.686546
Si Si7 0.365628 0.797793 0.406629
Si Si8 0.162488 0.381028 0.756942
O O1 0.512073 0.347650 0.492035
O O2 0.058270 0.115998 0.224601
O O3 0.085832 0.140958 0.568928
O O4 0.251639 0.081925 0.176802
O O5 0.382567 0.588127 0.759230
O O6 0.652615 0.596672 0.430749
O O7 0.145264 0.376144 0.312314
O O8 0.327728 0.807093 0.638627
O O9 0.168797 0.878054 0.808925
O O10 0.194652 0.868336 0.077701
O O11 0.184511 0.189869 0.972933
O O12 0.627753 0.452311 0.014400
O O13 0.568212 0.267382 0.780179
O O14 0.032886 0.264786 0.757054
O O15 0.607580 0.961796 0.487300
O O16 0.088335 0.691773 0.301927
#
# Coordination Sequence:
#
# PCOD9107999 Si02
#       8
#     2   2   2   2   2   2   2   2
#     4   9  20  38  64  93 124 148 210 261 296 352
#     4  10  21  39  65  97 120 155 202 262 311 353
#     4  12  24  41  65  86 132 169 199 243 315 381
#     4  11  20  39  66  95 120 153 216 256 304 355
#     4  10  20  40  66  94 122 157 204 261 304 359
#     4  11  25  42  59  94 128 165 204 248 309 374
#     4  12  24  42  63  89 123 170 208 252 302 365
#     4  11  22  40  68  95 118 157 215 261 303 350
#
# _framework density 23.892164000000001
#
# number of rings (size 3 to 8) (size 9 to 14) (size 15 to 20)
#    0.000    1.250    3.750    3.750    0.000    2.500 
#    0.000    0.625    0.000    0.000    0.000    0.000 
#    0.000    0.000    0.000    0.000    0.000    0.000 
#
# Total GULP energy -89448.113095 kJ/mol
# GULP energy per Si atom -5590.507068 kJ/mol
# Density = 2.383778 g / cm^3
# Si number density = 23.892164 Si / 1000 Ang^3
#
#
#
# Elastic Constant Matrix: (Units=GPa)
#
#
# Indices 1 2 3 4 5 6 
#
# 1 35.1336 19.7728 38.6690 7.4852 -15.4706 1.8806
# 2 19.7728 116.2609 32.2896 26.0648 -8.0637 3.6810
# 3 38.6690 32.2896 141.3974 6.7645 -33.8797 -5.5187
# 4 7.4852 26.0648 6.7645 50.2974 -6.0334 -6.1302
# 5 -15.4706 -8.0637 -33.8797 -6.0334 36.6309 -1.6407
# 6 1.8806 3.6810 -5.5187 -6.1302 -1.6407 22.7783
#
#
#
# Elastic Compliance Matrix: (Units=1/GPa)
#
#
# Indices 1 2 3 4 5 6 
#
# 1 0.046136 -0.003591 -0.009739 -0.003343 0.008874 -0.005849
# 2 -0.003591 0.010950 -0.001843 -0.005551 -0.001884 -0.003549
# 3 -0.009739 -0.001843 0.011960 0.002278 0.007148 0.005128
# 4 -0.003343 -0.005551 0.002278 0.024462 0.003887 0.008588
# 5 0.008874 -0.001884 0.007148 0.003887 0.038112 0.005095
# 6 -0.005849 -0.003549 0.005128 0.008588 0.005095 0.048878
#
#
# Mechanical properties :
#
#
# Convention : Reuss Voigt Hill
#
# Bulk Modulus (GPa) = 25.83969 52.69494 39.26732
# Shear Modulus (GPa) = 22.34678 35.41203 28.87941
#
# Velocity S-wave (km/s) = 3.06162 3.85406 3.48047
# Velocity P-wave (km/s) = 4.83080 6.47366 5.71160
#
# Compressibility (1/GPa) = 0.03870015
#
# Stress axis : x y z
#
# Youngs Moduli (GPa) = 21.67501 91.32369 83.60949
#
# Poissons Ratio (x) = 0.32798 0.81428
# Poissons Ratio (y) = 0.07784 0.15407
# Poissons Ratio (z) = 0.21109 0.16829
#
# Static dielectric constant tensor:
#      x y z
#    x 1.942790 -0.025410 0.062050 
#    y -0.025410 1.939160 -0.005010 
#    z 0.062050 -0.005010 1.918560 
# 
# From -- ./inp_files/285013.got.cif
#   From: 2010.05.17/outbox.cif.g08.bks.cpg/sg2_143_cif.got.tgz:285013.got - 2010.06.03 11:33:40.
