data_PCOD9107051
_publ_section_title
;
Structure prediction by ZEFSAII (Michael W. Deem and Ramdas Pophale) SiO2 
 PCOD9107051
Probable space group: P -1
;
_chemical_formula_sum "Si O2"
_cell_formula_units_Z 13
_cell_length_a 11.133861
_cell_length_b 14.048222
_cell_length_c 11.017814
_cell_angle_alpha 28.762295
_cell_angle_beta 39.305099
_cell_angle_gamma 44.761049
_cell_volume 522.411936
_symmetry_space_group_name_H-M "P -1"
_symmetry_group_IT_number 2
_symmetry_cell_setting 'triclinic'
loop_
_space_group_symop_operation_xyz
x,y,z
-x,-y,-z
loop_
_atom_site_type_symbol
_atom_site_label
_atom_site_fract_x
_atom_site_fract_y
_atom_site_fract_z
Si Si1 0.653742 0.104289 0.529420
Si Si2 0.038168 0.269081 0.814871
Si Si3 0.022216 0.884717 0.412960
Si Si4 0.834190 0.646744 0.638064
Si Si5 0.557212 0.210854 0.820189
Si Si6 0.500000 0.000000 0.500000
Si Si7 0.408108 0.427338 0.465780
O O1 0.867203 0.001241 0.490435
O O2 0.592238 0.056066 0.495407
O O3 0.593763 0.332266 0.355344
O O4 0.521425 0.988057 0.852101
O O5 0.048785 0.270636 0.660198
O O6 0.224226 0.366330 0.608729
O O7 0.860074 0.412736 0.846501
O O8 0.043952 0.049025 0.107463
O O9 0.233472 0.824928 0.361906
O O10 0.938301 0.697647 0.624365
O O11 0.633179 0.778892 0.644552
O O12 0.415781 0.332536 0.701250
O O13 0.585527 0.341427 0.772326
#
# Coordination Sequence:
#
# PCOD9107051 Si02
#       7
#     2   2   2   2   2   1   2
#     4  11  24  42  64  98 127 168 210 265 319 378
#     4  11  21  39  64  93 124 169 216 252 318 377
#     4  11  23  39  66  95 125 166 209 263 318 377
#     4  10  21  38  63  92 128 167 208 261 315 376
#     4  11  24  45  66  89 133 169 218 260 312 375
#     4  10  20  40  62  94 132 156 208 258 318 376
#     4  11  23  44  66  93 125 176 211 264 314 374
#
# _framework density 24.884575000000002
#
# number of rings (size 3 to 8) (size 9 to 14) (size 15 to 20)
#    0.000    1.231    4.615    0.923    0.000    4.308 
#    0.000    5.385    0.000    0.000    0.000    0.000 
#    0.000    0.000    0.000    0.000    0.000    0.000 
#
# Total GULP energy -72499.428615 kJ/mol
# GULP energy per Si atom -5576.879124 kJ/mol
# Density = 2.482794 g / cm^3
# Si number density = 24.884575 Si / 1000 Ang^3
#
#
#
# Elastic Constant Matrix: (Units=GPa)
#
#
# Indices 1 2 3 4 5 6 
#
# 1 105.0567 31.8479 3.2917 4.8750 -8.0649 -9.2685
# 2 31.8479 160.8524 -6.4239 -6.0951 -13.8374 1.6336
# 3 3.2917 -6.4239 22.1672 -2.5547 -7.1587 -0.1797
# 4 4.8750 -6.0951 -2.5547 39.0496 -0.9078 -4.3748
# 5 -8.0649 -13.8374 -7.1587 -0.9078 19.7629 -7.2886
# 6 -9.2685 1.6336 -0.1797 -4.3748 -7.2886 47.9322
#
#
#
# Elastic Compliance Matrix: (Units=1/GPa)
#
#
# Indices 1 2 3 4 5 6 
#
# 1 0.010696 -0.001945 -0.001173 -0.001352 0.003450 0.002531
# 2 -0.001945 0.007407 0.004724 0.001917 0.006390 0.000536
# 3 -0.001173 0.004724 0.055270 0.005527 0.024602 0.004065
# 4 -0.001352 0.001917 0.005527 0.026884 0.005106 0.002924
# 5 0.003450 0.006390 0.024602 0.005106 0.069921 0.011640
# 6 0.002531 0.000536 0.004065 0.002924 0.011640 0.023386
#
#
# Mechanical properties :
#
#
# Convention : Reuss Voigt Hill
#
# Bulk Modulus (GPa) = 13.05722 38.38975 25.72349
# Shear Modulus (GPa) = 23.16100 38.63965 30.90033
#
# Velocity S-wave (km/s) = 3.05411 3.94478 3.52766
# Velocity P-wave (km/s) = 4.20658 6.01739 5.19154
#
# Compressibility (1/GPa) = 0.07658600
#
# Stress axis : x y z
#
# Youngs Moduli (GPa) = 93.49430 134.99903 18.09301
#
# Poissons Ratio (x) = 0.26254 0.02122
# Poissons Ratio (y) = 0.18182 -0.08547
# Poissons Ratio (z) = 0.10967 -0.63776
#
# Static dielectric constant tensor:
#      x y z
#    x 1.908250 -0.011260 -0.012540 
#    y -0.011260 1.990580 0.026770 
#    z -0.012540 0.026770 1.974250 
# 
# From -- ./inp_files/195011.got.cif
#   From: 2010.05.17/outbox.cif.g08.bks.cpg/sg2_98_cif.got.tgz:195011.got - 2010.06.03 11:33:40.
