data_PCOD9107762
_publ_section_title
;
Structure prediction by ZEFSAII (Michael W. Deem and Ramdas Pophale) SiO2 
 PCOD9107762
Probable space group: P -1
;
_chemical_formula_sum "Si O2"
_cell_formula_units_Z 14
_cell_length_a 5.297258
_cell_length_b 22.842278
_cell_length_c 5.262468
_cell_angle_alpha 66.532244
_cell_angle_beta 91.825815
_cell_angle_gamma 72.479197
_cell_volume 548.552372
_symmetry_space_group_name_H-M "P -1"
_symmetry_group_IT_number 2
_symmetry_cell_setting 'triclinic'
loop_
_space_group_symop_operation_xyz
x,y,z
-x,-y,-z
loop_
_atom_site_type_symbol
_atom_site_label
_atom_site_fract_x
_atom_site_fract_y
_atom_site_fract_z
Si Si1 0.432807 0.145263 0.764282
Si Si2 0.128603 0.891376 0.782570
Si Si3 0.944404 0.600936 0.478817
Si Si4 0.308246 0.987495 0.295288
Si Si5 0.636193 0.539824 0.257976
Si Si6 0.164184 0.642153 0.892592
Si Si7 0.852972 0.209231 0.426959
O O1 0.513363 0.066779 0.806267
O O2 0.119307 0.184308 0.652597
O O3 0.608065 0.185802 0.557025
O O4 0.568617 0.137350 0.057015
O O5 0.133278 0.943178 0.471791
O O6 0.053060 0.831159 0.763765
O O7 0.917921 0.939458 0.890944
O O8 0.092146 0.520861 0.697310
O O9 0.954110 0.640134 0.669514
O O10 0.681072 0.597776 0.336393
O O11 0.075048 0.628759 0.197048
O O12 0.500000 0.000000 0.500000
O O13 0.500000 0.500000 0.500000
O O14 0.438628 0.578576 0.962732
O O15 0.222470 0.711443 0.753014
#
# Coordination Sequence:
#
# PCOD9107762 Si02
#       7
#     2   2   2   2   2   2   2
#     4  11  25  43  66  95 129 179 224 275 348 405
#     4  10  23  41  65  93 132 170 220 284 339 410
#     4  10  23  42  69 100 133 176 229 285 343 407
#     4  10  20  40  65  95 128 164 227 280 340 403
#     4   9  21  42  69 100 135 174 226 287 343 403
#     4  11  25  42  67  98 137 180 230 279 346 413
#     4  11  27  43  63  97 134 177 226 277 337 421
#
# _framework density 25.521722
#
# number of rings (size 3 to 8) (size 9 to 14) (size 15 to 20)
#    0.000    1.714    1.429    0.857    6.000    9.143 
#    0.000    0.000    0.000    0.000    0.000    0.000 
#    0.000    0.000    0.000    0.000    0.000    0.000 
#
# Total GULP energy -78237.055999 kJ/mol
# GULP energy per Si atom -5588.361143 kJ/mol
# Density = 2.546363 g / cm^3
# Si number density = 25.521722 Si / 1000 Ang^3
#
#
#
# Elastic Constant Matrix: (Units=GPa)
#
#
# Indices 1 2 3 4 5 6 
#
# 1 94.2891 15.5988 24.5762 -2.7511 -1.6318 17.2999
# 2 15.5988 111.7778 41.3167 -18.0215 -7.2440 33.2622
# 3 24.5762 41.3167 92.9049 2.3967 6.4910 8.6770
# 4 -2.7511 -18.0215 2.3967 39.5906 5.5972 0.7669
# 5 -1.6318 -7.2440 6.4910 5.5972 41.5495 5.4743
# 6 17.2999 33.2622 8.6770 0.7669 5.4743 35.4743
#
#
#
# Elastic Compliance Matrix: (Units=1/GPa)
#
#
# Indices 1 2 3 4 5 6 
#
# 1 0.012815 0.002614 -0.004014 0.002146 0.002368 -0.008131
# 2 0.002614 0.018585 -0.007916 0.008651 0.005765 -0.017842
# 3 -0.004014 -0.007916 0.015150 -0.004335 -0.004165 0.006411
# 4 0.002146 0.008651 -0.004335 0.029862 -0.000613 -0.008649
# 5 0.002368 0.005765 -0.004165 -0.000613 0.027180 -0.009723
# 6 -0.008131 -0.017842 0.006411 -0.008649 -0.009723 0.049003
#
#
# Mechanical properties :
#
#
# Convention : Reuss Voigt Hill
#
# Bulk Modulus (GPa) = 35.81884 51.32835 43.57359
# Shear Modulus (GPa) = 27.69558 37.82155 32.75857
#
# Velocity S-wave (km/s) = 3.29778 3.85377 3.58656
# Velocity P-wave (km/s) = 5.34467 6.32118 5.85333
#
# Compressibility (1/GPa) = 0.02791827
#
# Stress axis : x y z
#
# Youngs Moduli (GPa) = 78.03446 53.80586 66.00565
#
# Poissons Ratio (x) = -0.14067 0.26495
# Poissons Ratio (y) = -0.20402 0.52253
# Poissons Ratio (z) = 0.31323 0.42595
#
# Static dielectric constant tensor:
#      x y z
#    x 2.141090 -0.072610 -0.070890 
#    y -0.072610 2.049010 0.063310 
#    z -0.070890 0.063310 2.056550 
# 
# From -- ./inp_files/8206.got.cif
#   From: 2010.05.17/outbox.cif.g08.bks.cpg/sg2_5_cif.got.tgz:8206.got - 2010.06.03 11:33:40.
