data_PCOD9107956
_publ_section_title
;
Structure prediction by ZEFSAII (Michael W. Deem and Ramdas Pophale) SiO2 
 PCOD9107956
Probable space group: P -1
;
_chemical_formula_sum "Si O2"
_cell_formula_units_Z 16
_cell_length_a 15.338831
_cell_length_b 9.331327
_cell_length_c 13.201097
_cell_angle_alpha 79.350351
_cell_angle_beta 36.532619
_cell_angle_gamma 54.412295
_cell_volume 742.387635
_symmetry_space_group_name_H-M "P -1"
_symmetry_group_IT_number 2
_symmetry_cell_setting 'triclinic'
loop_
_space_group_symop_operation_xyz
x,y,z
-x,-y,-z
loop_
_atom_site_type_symbol
_atom_site_label
_atom_site_fract_x
_atom_site_fract_y
_atom_site_fract_z
Si Si1 0.049374 0.898552 0.278820
Si Si2 0.053532 0.853009 0.059923
Si Si3 0.437303 0.377971 0.969319
Si Si4 0.397607 0.935819 0.553683
Si Si5 0.500187 0.559074 0.605565
Si Si6 0.407750 0.930890 0.310789
Si Si7 0.194564 0.694004 0.458206
Si Si8 0.238155 0.365859 0.341310
O O1 0.042757 0.949956 0.161067
O O2 0.241320 0.639248 0.132095
O O3 0.826096 0.976064 0.497361
O O4 0.031266 0.052019 0.347986
O O5 0.300335 0.627562 0.840021
O O6 0.866588 0.869465 0.234287
O O7 0.000000 0.000000 0.000000
O O8 0.405533 0.304032 0.108607
O O9 0.437264 0.262321 0.890879
O O10 0.645255 0.328238 0.759745
O O11 0.456999 0.760379 0.596947
O O12 0.474741 0.858983 0.375167
O O13 0.500000 0.000000 0.500000
O O14 0.500000 0.500000 0.500000
O O15 0.698552 0.391472 0.518348
O O16 0.353681 0.140204 0.312909
O O17 0.189021 0.536343 0.440343
O O18 0.000000 0.500000 0.500000
#
# Coordination Sequence:
#
# PCOD9107956 Si02
#       8
#     2   2   2   2   2   2   2   2
#     4  10  20  40  66  92 125 162 216 266 317 377
#     4   9  18  34  60  89 124 165 209 256 317 377
#     4  11  22  44  66  91 122 170 218 269 316 378
#     4  10  21  38  62  94 132 167 208 268 324 390
#     4  11  20  38  66  95 127 167 213 264 321 386
#     4  10  22  43  66  90 129 170 215 265 324 385
#     4  11  24  41  66  98 129 166 216 269 320 385
#     4  12  25  45  64  92 132 173 215 269 327 383
#
# _framework density 21.552083
#
# number of rings (size 3 to 8) (size 9 to 14) (size 15 to 20)
#    0.000    1.500    2.500    4.500    0.000    0.500 
#    4.500    1.875    0.000    0.000    0.000    0.000 
#    0.000    0.000    0.000    0.000    0.000    0.000 
#
# Total GULP energy -89278.166671 kJ/mol
# GULP energy per Si atom -5579.885417 kJ/mol
# Density = 2.150303 g / cm^3
# Si number density = 21.552083 Si / 1000 Ang^3
#
#
#
# Elastic Constant Matrix: (Units=GPa)
#
#
# Indices 1 2 3 4 5 6 
#
# 1 100.5595 44.3765 41.9779 12.7773 18.8044 13.8330
# 2 44.3765 135.7643 44.5000 4.0084 13.7292 6.9544
# 3 41.9779 44.5000 97.1218 15.5908 28.1279 11.6692
# 4 12.7773 4.0084 15.5908 34.6850 -0.1434 8.5013
# 5 18.8044 13.7292 28.1279 -0.1434 30.2474 1.1008
# 6 13.8330 6.9544 11.6692 8.5013 1.1008 47.5783
#
#
#
# Elastic Compliance Matrix: (Units=1/GPa)
#
#
# Indices 1 2 3 4 5 6 
#
# 1 0.013949 -0.003057 -0.002397 -0.003155 -0.004985 -0.002342
# 2 -0.003057 0.009369 -0.003501 0.001603 0.000908 0.000070
# 3 -0.002397 -0.003501 0.018193 -0.006513 -0.013805 -0.001770
# 4 -0.003155 0.001603 -0.006513 0.033728 0.007593 -0.003922
# 5 -0.004985 0.000908 -0.013805 0.007593 0.048541 0.002223
# 6 -0.002342 0.000070 -0.001770 -0.003922 0.002223 0.022772
#
#
# Mechanical properties :
#
#
# Convention : Reuss Voigt Hill
#
# Bulk Modulus (GPa) = 42.36744 66.12825 54.24785
# Shear Modulus (GPa) = 29.01442 36.00824 32.51133
#
# Velocity S-wave (km/s) = 3.67310 4.09192 3.88816
# Velocity P-wave (km/s) = 6.13920 7.28524 6.73663
#
# Compressibility (1/GPa) = 0.02360303
#
# Stress axis : x y z
#
# Youngs Moduli (GPa) = 71.68968 106.72996 54.96690
#
# Poissons Ratio (x) = 0.32622 0.13176
# Poissons Ratio (y) = 0.21912 0.19242
# Poissons Ratio (z) = 0.17184 0.37362
#
# Static dielectric constant tensor:
#      x y z
#    x 1.848490 -0.026240 -0.014130 
#    y -0.026240 1.852160 0.033180 
#    z -0.014130 0.033180 1.819970 
# 
# From -- ./inp_files/349415.got.cif
#   From: 2010.05.17/outbox.cif.g08.bks.cpg/sg2_175_cif.got.tgz:349415.got - 2010.06.03 11:33:40.
