data_PCOD9107594
_publ_section_title
;
Structure prediction by ZEFSAII (Michael W. Deem and Ramdas Pophale) SiO2 
 PCOD9107594
Probable space group: P -1
;
_chemical_formula_sum "Si O2"
_cell_formula_units_Z 16
_cell_length_a 9.410396
_cell_length_b 18.995835
_cell_length_c 11.221881
_cell_angle_alpha 23.397949
_cell_angle_beta 84.705110
_cell_angle_gamma 78.309022
_cell_volume 757.110935
_symmetry_space_group_name_H-M "P -1"
_symmetry_group_IT_number 2
_symmetry_cell_setting 'triclinic'
loop_
_space_group_symop_operation_xyz
x,y,z
-x,-y,-z
loop_
_atom_site_type_symbol
_atom_site_label
_atom_site_fract_x
_atom_site_fract_y
_atom_site_fract_z
Si Si1 0.684989 0.397506 0.008892
Si Si2 0.989656 0.408557 0.272505
Si Si3 0.998918 0.252764 0.114385
Si Si4 0.534868 0.429771 0.742364
Si Si5 0.704450 0.294365 0.523589
Si Si6 0.514284 0.748042 0.602688
Si Si7 0.249117 0.059932 0.763608
Si Si8 0.187674 0.913481 0.756625
O O1 0.855354 0.276720 0.176555
O O2 0.574892 0.273490 0.238510
O O3 0.640993 0.494209 0.731895
O O4 0.644385 0.554268 0.869537
O O5 0.856564 0.317310 0.426552
O O6 0.143075 0.247704 0.537114
O O7 0.000000 0.500000 0.000000
O O8 0.961673 0.562389 0.140724
O O9 0.923717 0.212791 0.059484
O O10 0.135810 0.073638 0.412685
O O11 0.500000 0.500000 0.500000
O O12 0.379796 0.518199 0.687120
O O13 0.640558 0.216555 0.057237
O O14 0.602209 0.251670 0.493367
O O15 0.728554 0.120140 0.879183
O O16 0.594923 0.905123 0.340446
O O17 0.165189 0.023727 0.709051
#
# Coordination Sequence:
#
# PCOD9107594 Si02
#       8
#     2   2   2   2   2   2   2   2
#     4   9  19  36  65  96 127 171 222 276 327 390
#     4  12  24  41  71  99 129 173 231 276 333 402
#     4  10  20  41  63  95 130 177 219 278 329 388
#     4  10  20  40  65  86 132 182 212 265 338 392
#     4  11  25  42  67  98 139 175 218 284 340 397
#     4  10  21  37  64 101 130 168 222 277 339 391
#     4  12  23  41  66 101 135 176 221 277 344 401
#     4  10  22  38  66  91 133 176 219 272 332 390
#
# _framework density 21.132967000000001
#
# number of rings (size 3 to 8) (size 9 to 14) (size 15 to 20)
#    0.000    1.500    3.750    1.500    3.500    0.000 
#    0.000    7.500    0.000    0.000    0.000    0.000 
#    0.000    0.000    0.000    0.000    0.000    0.000 
#
# Total GULP energy -89070.653457 kJ/mol
# GULP energy per Si atom -5566.915841 kJ/mol
# Density = 2.108487 g / cm^3
# Si number density = 21.132967 Si / 1000 Ang^3
#
#
#
# Elastic Constant Matrix: (Units=GPa)
#
#
# Indices 1 2 3 4 5 6 
#
# 1 114.8576 20.5530 59.3872 7.4636 -5.5156 1.1856
# 2 20.5530 56.5704 11.6599 2.3765 -3.2583 19.5087
# 3 59.3872 11.6599 86.5869 -0.3259 -8.8544 -3.1724
# 4 7.4636 2.3765 -0.3259 33.5569 -3.5859 0.9631
# 5 -5.5156 -3.2583 -8.8544 -3.5859 32.6261 -15.4078
# 6 1.1856 19.5087 -3.1724 0.9631 -15.4078 37.7802
#
#
#
# Elastic Compliance Matrix: (Units=1/GPa)
#
#
# Indices 1 2 3 4 5 6 
#
# 1 0.014361 -0.003246 -0.009490 -0.003139 -0.000714 0.000217
# 2 -0.003246 0.024172 -0.002186 -0.001215 -0.005920 -0.014947
# 3 -0.009490 -0.002186 0.019215 0.002970 0.006340 0.005550
# 4 -0.003139 -0.001215 0.002970 0.031038 0.004524 0.002029
# 5 -0.000714 -0.005920 0.006340 0.004524 0.041872 0.020573
# 6 0.000217 -0.014947 0.005550 0.002029 0.020573 0.042985
#
#
# Mechanical properties :
#
#
# Convention : Reuss Voigt Hill
#
# Bulk Modulus (GPa) = 35.83725 49.02389 42.43057
# Shear Modulus (GPa) = 23.49751 31.88695 27.69223
#
# Velocity S-wave (km/s) = 3.33812 3.88863 3.62385
# Velocity P-wave (km/s) = 5.64377 6.58864 6.13442
#
# Compressibility (1/GPa) = 0.02790393
#
# Stress axis : x y z
#
# Youngs Moduli (GPa) = 69.63088 41.37088 52.04242
#
# Poissons Ratio (x) = 0.13429 0.49387
# Poissons Ratio (y) = 0.22602 0.11378
# Poissons Ratio (z) = 0.66078 0.09045
#
# Static dielectric constant tensor:
#      x y z
#    x 1.805210 0.017750 0.024300 
#    y 0.017750 1.846350 -0.015540 
#    z 0.024300 -0.015540 1.795410 
# 
# From -- ./inp_files/405206.got.cif
#   From: 2010.05.17/outbox.cif.g08.bks.cpg/sg2_203_cif.got.tgz:405206.got - 2010.06.03 11:33:40.
