data_PCOD9107661
_publ_section_title
;
Structure prediction by ZEFSAII (Michael W. Deem and Ramdas Pophale) SiO2 
 PCOD9107661
Probable space group: P -1
;
_chemical_formula_sum "Si O2"
_cell_formula_units_Z 16
_cell_length_a 15.718851
_cell_length_b 12.370980
_cell_length_c 13.037969
_cell_angle_alpha 136.304934
_cell_angle_beta 154.146684
_cell_angle_gamma 52.446925
_cell_volume 756.591659
_symmetry_space_group_name_H-M "P -1"
_symmetry_group_IT_number 2
_symmetry_cell_setting 'triclinic'
loop_
_space_group_symop_operation_xyz
x,y,z
-x,-y,-z
loop_
_atom_site_type_symbol
_atom_site_label
_atom_site_fract_x
_atom_site_fract_y
_atom_site_fract_z
Si Si1 0.422114 0.936725 0.534963
Si Si2 0.706250 0.445963 0.575931
Si Si3 0.451838 0.565631 0.822417
Si Si4 0.763872 0.178312 0.126244
Si Si5 0.807608 0.794106 0.304216
Si Si6 0.504240 0.232950 0.707144
Si Si7 0.893001 0.666293 0.086918
Si Si8 0.229715 0.864042 0.477859
O O1 0.474046 0.821649 0.423125
O O2 0.261771 0.861024 0.388946
O O3 0.368476 0.092799 0.524337
O O4 0.617065 0.012976 0.861707
O O5 0.588065 0.477177 0.369247
O O6 0.651211 0.265902 0.431190
O O7 0.936620 0.447762 0.792464
O O8 0.718629 0.568877 0.766561
O O9 0.308200 0.687534 0.787583
O O10 0.436735 0.403191 0.756012
O O11 0.667707 0.664594 0.127506
O O12 0.985317 0.165086 0.385258
O O13 0.711711 0.231894 0.991403
O O14 0.839949 0.729786 0.182023
O O15 0.713161 0.955651 0.303941
O O16 0.009232 0.805053 0.238452
#
# Coordination Sequence:
#
# PCOD9107661 Si02
#       8
#     2   2   2   2   2   2   2   2
#     4   9  20  44  64  89 126 164 210 263 311 363
#     4   9  22  41  60  93 127 166 204 263 306 371
#     4  12  23  40  68  93 126 172 208 253 323 371
#     4  10  21  43  61  92 133 155 214 265 298 374
#     4  12  23  38  65  97 126 171 209 247 326 379
#     4   9  22  41  67  91 124 168 213 260 313 371
#     4   9  21  41  58  92 130 156 210 256 308 373
#     4  10  20  40  65  90 130 160 209 259 310 379
#
# _framework density 21.147469999999998
#
# number of rings (size 3 to 8) (size 9 to 14) (size 15 to 20)
#    1.500    0.500    2.500    0.750    1.750    2.500 
#    4.500    0.625    0.000    0.000    0.000    0.000 
#    0.000    0.000    0.000    0.000    0.000    0.000 
#
# Total GULP energy -89186.629117 kJ/mol
# GULP energy per Si atom -5574.164320 kJ/mol
# Density = 2.109934 g / cm^3
# Si number density = 21.147470 Si / 1000 Ang^3
#
#
#
# Elastic Constant Matrix: (Units=GPa)
#
#
# Indices 1 2 3 4 5 6 
#
# 1 40.7995 10.7650 -5.4436 -5.2495 -5.0168 5.8820
# 2 10.7650 70.0441 15.4462 5.1591 -1.9513 10.3950
# 3 -5.4436 15.4462 62.2621 -4.3037 -14.2587 -3.9938
# 4 -5.2495 5.1591 -4.3037 15.7307 -0.9981 2.0104
# 5 -5.0168 -1.9513 -14.2587 -0.9981 34.9317 8.4547
# 6 5.8820 10.3950 -3.9938 2.0104 8.4547 17.5001
#
#
#
# Elastic Compliance Matrix: (Units=1/GPa)
#
#
# Indices 1 2 3 4 5 6 
#
# 1 0.032297 -0.005489 0.006992 0.016865 0.010859 -0.013183
# 2 -0.005489 0.018544 -0.006338 -0.008450 -0.000279 -0.009511
# 3 0.006992 -0.006338 0.021193 0.010759 0.009506 0.000423
# 4 0.016865 -0.008450 0.010759 0.077271 0.011620 -0.012685
# 5 0.010859 -0.000279 0.009506 0.011620 0.039662 -0.021811
# 6 -0.013183 -0.009511 0.000423 -0.012685 -0.021811 0.079314
#
#
# Mechanical properties :
#
#
# Convention : Reuss Voigt Hill
#
# Bulk Modulus (GPa) = 16.03498 23.84901 19.94199
# Shear Modulus (GPa) = 16.73695 23.78836 20.26266
#
# Velocity S-wave (km/s) = 2.81631 3.35756 3.09877
# Velocity P-wave (km/s) = 4.26314 5.13156 4.71738
#
# Compressibility (1/GPa) = 0.06236367
#
# Stress axis : x y z
#
# Youngs Moduli (GPa) = 30.96263 53.92525 47.18601
#
# Poissons Ratio (x) = 0.29599 -0.32994
# Poissons Ratio (y) = 0.16995 0.29909
# Poissons Ratio (z) = -0.21650 0.34180
#
# Static dielectric constant tensor:
#      x y z
#    x 1.759180 -0.004090 -0.005610 
#    y -0.004090 1.766040 0.013510 
#    z -0.005610 0.013510 1.765420 
# 
# From -- ./inp_files/451882.got.cif
#   From: 2010.05.17/outbox.cif.g08.bks.cpg/sg2_226_cif.got.tgz:451882.got - 2010.06.03 11:33:40.
