data_PCOD9107547
_publ_section_title
;
Structure prediction by ZEFSAII (Michael W. Deem and Ramdas Pophale) SiO2 
 PCOD9107547
Probable space group: P -1
;
_chemical_formula_sum "Si O2"
_cell_formula_units_Z 16
_cell_length_a 12.300790
_cell_length_b 18.702290
_cell_length_c 8.949629
_cell_angle_alpha 76.868402
_cell_angle_beta 40.740712
_cell_angle_gamma 46.262402
_cell_volume 754.684028
_symmetry_space_group_name_H-M "P -1"
_symmetry_group_IT_number 2
_symmetry_cell_setting 'triclinic'
loop_
_space_group_symop_operation_xyz
x,y,z
-x,-y,-z
loop_
_atom_site_type_symbol
_atom_site_label
_atom_site_fract_x
_atom_site_fract_y
_atom_site_fract_z
Si Si1 0.232605 0.333991 0.125566
Si Si2 0.064767 0.430425 0.815004
Si Si3 0.886024 0.969791 0.220222
Si Si4 0.624402 0.475282 0.722924
Si Si5 0.742241 0.773053 0.142785
Si Si6 0.827507 0.268081 0.422264
Si Si7 0.852696 0.120912 0.679304
Si Si8 0.656320 0.290526 0.268133
O O1 0.135771 0.453731 0.146825
O O2 0.945115 0.394603 0.444297
O O3 0.324324 0.259777 0.909639
O O4 0.508569 0.231830 0.991883
O O5 0.046549 0.351434 0.911866
O O6 0.401673 0.324700 0.476929
O O7 0.000000 0.500000 0.000000
O O8 0.013952 0.920018 0.277282
O O9 0.543654 0.099689 0.534010
O O10 0.029964 0.850271 0.040248
O O11 0.000000 0.000000 0.000000
O O12 0.652767 0.392630 0.633518
O O13 0.435133 0.603029 0.771628
O O14 0.500000 0.500000 0.000000
O O15 0.898278 0.786827 0.902972
O O16 0.899047 0.176255 0.502833
O O17 0.657076 0.300588 0.440290
O O18 0.000000 0.000000 0.500000
#
# Coordination Sequence:
#
# PCOD9107547 Si02
#       8
#     2   2   2   2   2   2   2   2
#     4   9  20  40  67  96 127 173 223 260 327 389
#     4   9  17  35  65  89 127 165 215 264 315 382
#     4  12  24  42  66  93 138 170 223 268 325 387
#     4  10  22  44  65  99 139 168 214 278 329 378
#     4  10  20  40  64  99 128 176 212 273 322 381
#     4  11  24  41  68  96 128 173 223 265 331 384
#     4  12  24  44  68  95 127 172 222 269 322 399
#     4  11  22  40  63  95 133 177 213 267 322 392
#
# _framework density 21.200927
#
# number of rings (size 3 to 8) (size 9 to 14) (size 15 to 20)
#    0.000    1.500    2.500    4.125    0.000    2.000 
#    4.500    6.875    0.000    0.000    0.000    0.000 
#    0.000    0.000    0.000    0.000    0.000    0.000 
#
# Total GULP energy -89455.880282 kJ/mol
# GULP energy per Si atom -5590.992518 kJ/mol
# Density = 2.115267 g / cm^3
# Si number density = 21.200927 Si / 1000 Ang^3
#
#
#
# Elastic Constant Matrix: (Units=GPa)
#
#
# Indices 1 2 3 4 5 6 
#
# 1 54.0216 38.7455 24.6392 -3.5783 5.1530 -4.4513
# 2 38.7455 170.7951 61.1742 -7.2255 5.2970 2.2583
# 3 24.6392 61.1742 134.3118 10.0058 12.8925 10.8975
# 4 -3.5783 -7.2255 10.0058 42.4428 -3.0652 1.4416
# 5 5.1530 5.2970 12.8925 -3.0652 31.0215 -0.5835
# 6 -4.4513 2.2583 10.8975 1.4416 -0.5835 29.9200
#
#
#
# Elastic Compliance Matrix: (Units=1/GPa)
#
#
# Indices 1 2 3 4 5 6 
#
# 1 0.023483 -0.004310 -0.002669 0.001586 -0.001811 0.004679
# 2 -0.004310 0.007972 -0.003031 0.001772 0.000785 -0.000209
# 3 -0.002669 -0.003031 0.010223 -0.003288 -0.003684 -0.003805
# 4 0.001586 0.001772 -0.003288 0.025003 0.003274 0.000159
# 5 -0.001811 0.000785 -0.003684 0.003274 0.034286 0.001524
# 6 0.004679 -0.000209 -0.003805 0.000159 0.001524 0.035542
#
#
# Mechanical properties :
#
#
# Convention : Reuss Voigt Hill
#
# Bulk Modulus (GPa) = 46.17141 67.58290 56.87715
# Shear Modulus (GPa) = 30.53522 36.31485 33.42503
#
# Velocity S-wave (km/s) = 3.79922 4.14320 3.97493
# Velocity P-wave (km/s) = 6.40864 7.40504 6.92479
#
# Compressibility (1/GPa) = 0.02165843
#
# Stress axis : x y z
#
# Youngs Moduli (GPa) = 42.58428 125.44680 97.82326
#
# Poissons Ratio (x) = 0.54066 0.26107
# Poissons Ratio (y) = 0.18353 0.29646
# Poissons Ratio (z) = 0.11365 0.38017
#
# Static dielectric constant tensor:
#      x y z
#    x 1.766220 0.019750 -0.039810 
#    y 0.019750 1.750820 0.009750 
#    z -0.039810 0.009750 1.763010 
# 
# From -- ./inp_files/177778.got.cif
#   From: 2010.05.17/outbox.cif.g08.bks.cpg/sg2_89_cif.got.tgz:177778.got - 2010.06.03 11:33:40.
