data_PCOD9107139
_publ_section_title
;
Structure prediction by ZEFSAII (Michael W. Deem and Ramdas Pophale) SiO2 
 PCOD9107139
Probable space group: P -1
;
_chemical_formula_sum "Si O2"
_cell_formula_units_Z 16
_cell_length_a 12.545361
_cell_length_b 11.981372
_cell_length_c 12.345840
_cell_angle_alpha 37.531955
_cell_angle_beta 98.021250
_cell_angle_gamma 70.187666
_cell_volume 746.366385
_symmetry_space_group_name_H-M "P -1"
_symmetry_group_IT_number 2
_symmetry_cell_setting 'triclinic'
loop_
_space_group_symop_operation_xyz
x,y,z
-x,-y,-z
loop_
_atom_site_type_symbol
_atom_site_label
_atom_site_fract_x
_atom_site_fract_y
_atom_site_fract_z
Si Si1 0.712099 0.415938 0.320720
Si Si2 0.831457 0.621283 0.412990
Si Si3 0.339939 0.956128 0.126929
Si Si4 0.712516 0.376683 0.595686
Si Si5 0.275271 0.944365 0.555110
Si Si6 0.601006 0.036029 0.242862
Si Si7 0.062994 0.720751 0.688920
Si Si8 0.350341 0.112186 0.241575
O O1 0.713738 0.329783 0.504620
O O2 0.871471 0.334678 0.381364
O O3 0.710085 0.265212 0.343676
O O4 0.546841 0.734617 0.035100
O O5 0.828841 0.405125 0.599077
O O6 0.000000 0.500000 0.500000
O O7 0.755745 0.799571 0.374901
O O8 0.714071 0.830086 0.136045
O O9 0.533254 0.677958 0.367119
O O10 0.263996 0.851110 0.170400
O O11 0.297770 0.076788 0.149710
O O12 0.336875 0.008507 0.425470
O O13 0.087848 0.215379 0.353103
O O14 0.368072 0.844105 0.758360
O O15 0.530207 0.957228 0.363346
O O16 0.224159 0.440252 0.984584
O O17 0.000000 0.000000 0.500000
#
# Coordination Sequence:
#
# PCOD9107139 Si02
#       8
#     2   2   2   2   2   2   2   2
#     4  10  20  40  63  88 123 163 213 260 307 384
#     4  12  26  42  66  97 136 171 207 272 338 383
#     4  11  23  42  72  96 123 170 226 273 314 386
#     4  11  22  43  71  97 124 167 228 273 312 388
#     4  11  22  38  61  95 122 163 204 261 324 375
#     4  11  23  39  60  90 130 165 207 255 326 389
#     4   9  21  37  60  87 120 161 212 258 315 375
#     4  11  21  40  63  90 125 164 214 266 313 380
#
# _framework density 21.437193000000001
#
# number of rings (size 3 to 8) (size 9 to 14) (size 15 to 20)
#    0.000    1.250    3.750    3.000    3.500    0.500 
#    0.000    0.000    0.000    0.000    0.000    0.000 
#    0.000    0.000    0.000    0.000    0.000    0.000 
#
# Total GULP energy -89234.128160 kJ/mol
# GULP energy per Si atom -5577.133010 kJ/mol
# Density = 2.138840 g / cm^3
# Si number density = 21.437193 Si / 1000 Ang^3
#
#
#
# Elastic Constant Matrix: (Units=GPa)
#
#
# Indices 1 2 3 4 5 6 
#
# 1 113.2322 34.8754 7.7229 -19.0471 2.1113 -20.8124
# 2 34.8754 113.9693 19.1241 -8.1028 8.9327 -4.4198
# 3 7.7229 19.1241 18.6874 -10.6322 3.1340 -9.4856
# 4 -19.0471 -8.1028 -10.6322 28.0728 -3.3826 1.9306
# 5 2.1113 8.9327 3.1340 -3.3826 28.2949 -5.4801
# 6 -20.8124 -4.4198 -9.4856 1.9306 -5.4801 42.0498
#
#
#
# Elastic Compliance Matrix: (Units=1/GPa)
#
#
# Indices 1 2 3 4 5 6 
#
# 1 0.012728 -0.004504 0.008756 0.010396 0.002220 0.007614
# 2 -0.004504 0.012515 -0.015920 -0.005563 -0.003426 -0.004696
# 3 0.008756 -0.015920 0.099134 0.037563 0.002458 0.023619
# 4 0.010396 -0.005563 0.037563 0.055198 0.005594 0.011229
# 5 0.002220 -0.003426 0.002458 0.005594 0.037810 0.005964
# 6 0.007614 -0.004696 0.023619 0.011229 0.005964 0.032646
#
#
# Mechanical properties :
#
#
# Convention : Reuss Voigt Hill
#
# Bulk Modulus (GPa) = 9.89699 41.03706 25.46703
# Shear Modulus (GPa) = 16.28424 31.96128 24.12276
#
# Velocity S-wave (km/s) = 2.75912 3.86544 3.35815
# Velocity P-wave (km/s) = 3.84410 6.25353 5.19056
#
# Compressibility (1/GPa) = 0.10104084
#
# Stress axis : x y z
#
# Youngs Moduli (GPa) = 78.56626 79.90559 10.08739
#
# Poissons Ratio (x) = 0.35987 -0.08833
# Poissons Ratio (y) = 0.35384 0.16059
# Poissons Ratio (z) = -0.68793 1.27211
#
# Static dielectric constant tensor:
#      x y z
#    x 1.890800 0.027780 0.002030 
#    y 0.027780 1.786870 -0.016890 
#    z 0.002030 -0.016890 1.758180 
# 
# From -- ./inp_files/258139.got.cif
#   From: 2010.05.17/outbox.cif.g08.bks.cpg/sg2_130_cif.got.tgz:258139.got - 2010.06.03 11:33:40.
