data_PCOD9107623
_publ_section_title
;
Structure prediction by ZEFSAII (Michael W. Deem and Ramdas Pophale) SiO2 
 PCOD9107623
Probable space group: P -1
;
_chemical_formula_sum "Si O2"
_cell_formula_units_Z 10
_cell_length_a 10.585446
_cell_length_b 9.133794
_cell_length_c 10.997393
_cell_angle_alpha 39.360830
_cell_angle_beta 121.108671
_cell_angle_gamma 94.382407
_cell_volume 464.062701
_symmetry_space_group_name_H-M "P -1"
_symmetry_group_IT_number 2
_symmetry_cell_setting 'triclinic'
loop_
_space_group_symop_operation_xyz
x,y,z
-x,-y,-z
loop_
_atom_site_type_symbol
_atom_site_label
_atom_site_fract_x
_atom_site_fract_y
_atom_site_fract_z
Si Si1 0.635285 0.207176 0.181524
Si Si2 0.782490 0.206215 0.732161
Si Si3 0.526835 0.807001 0.332061
Si Si4 0.751645 0.489530 0.883647
Si Si5 0.167518 0.108388 0.275163
O O1 0.222970 0.008095 0.506100
O O2 0.539403 0.070495 0.165388
O O3 0.500000 0.500000 0.000000
O O4 0.727813 0.276972 0.080383
O O5 0.672191 0.545806 0.483256
O O6 0.673820 0.121962 0.817697
O O7 0.763777 0.142566 0.624434
O O8 0.000000 0.000000 0.000000
O O9 0.600319 0.665991 0.592846
O O10 0.750832 0.714211 0.827019
O O11 0.948337 0.317880 0.026462
#
# Coordination Sequence:
#
# PCOD9107623 Si02
#       5
#     2   2   2   2   2
#     4  11  22  39  62  93 122 157 204 258 300 354
#     4  11  21  41  65  87 125 166 198 247 307 361
#     4  10  23  41  65  91 120 162 206 245 305 365
#     4  10  20  40  65  89 122 156 205 257 299 354
#     4  10  21  38  64  92 118 163 204 246 306 359
#
# _framework density 21.548814
#
# number of rings (size 3 to 8) (size 9 to 14) (size 15 to 20)
#    0.000    1.600    2.000    3.000    0.000    3.200 
#    3.600   12.000    0.000    0.000    0.000    0.000 
#    0.000    0.000    0.000    0.000    0.000    0.000 
#
# Total GULP energy -55881.836975 kJ/mol
# GULP energy per Si atom -5588.183698 kJ/mol
# Density = 2.149977 g / cm^3
# Si number density = 21.548814 Si / 1000 Ang^3
#
#
#
# Elastic Constant Matrix: (Units=GPa)
#
#
# Indices 1 2 3 4 5 6 
#
# 1 99.2496 52.2909 44.9011 -11.2252 4.0629 26.5261
# 2 52.2909 138.4773 20.8764 -42.0159 4.2482 9.2607
# 3 44.9011 20.8764 65.5639 -11.5434 12.9084 16.9208
# 4 -11.2252 -42.0159 -11.5434 36.3466 2.9302 -0.9197
# 5 4.0629 4.2482 12.9084 2.9302 49.7256 -6.6120
# 6 26.5261 9.2607 16.9208 -0.9197 -6.6120 34.7517
#
#
#
# Elastic Compliance Matrix: (Units=1/GPa)
#
#
# Indices 1 2 3 4 5 6 
#
# 1 0.020236 -0.007284 -0.010610 -0.005828 0.000961 -0.008310
# 2 -0.007284 0.014219 0.003727 0.015572 -0.002520 -0.000112
# 3 -0.010610 0.003727 0.026410 0.009873 -0.007817 -0.006980
# 4 -0.005828 0.015572 0.009873 0.047283 -0.006809 -0.004553
# 5 0.000961 -0.002520 -0.007817 -0.006809 0.023752 0.008083
# 6 -0.008310 -0.000112 -0.006980 -0.004553 0.008083 0.039965
#
#
# Mechanical properties :
#
#
# Convention : Reuss Voigt Hill
#
# Bulk Modulus (GPa) = 30.73808 59.93638 45.33723
# Shear Modulus (GPa) = 23.69194 36.51295 30.10244
#
# Velocity S-wave (km/s) = 3.31940 4.12081 3.74162
# Velocity P-wave (km/s) = 5.38392 7.10747 6.30486
#
# Compressibility (1/GPa) = 0.03253294
#
# Stress axis : x y z
#
# Youngs Moduli (GPa) = 49.41806 70.32642 37.86392
#
# Poissons Ratio (x) = 0.51223 0.40172
# Poissons Ratio (y) = 0.35994 -0.14112
# Poissons Ratio (z) = 0.52430 -0.26211
#
# Static dielectric constant tensor:
#      x y z
#    x 1.789440 0.007100 0.005210 
#    y 0.007100 1.860480 0.010410 
#    z 0.005210 0.010410 1.804280 
# 
# From -- ./inp_files/380906.got.cif
#   From: 2010.05.17/outbox.cif.g08.bks.cpg/sg2_191_cif.got.tgz:380906.got - 2010.06.03 11:33:40.
