data_PCOD9107864
_publ_section_title
;
Structure prediction by ZEFSAII (Michael W. Deem and Ramdas Pophale) SiO2 
 PCOD9107864
Probable space group: P -1
;
_chemical_formula_sum "Si O2"
_cell_formula_units_Z 14
_cell_length_a 7.512469
_cell_length_b 8.737666
_cell_length_c 16.472847
_cell_angle_alpha 67.609078
_cell_angle_beta 70.751178
_cell_angle_gamma 128.238588
_cell_volume 492.767847
_symmetry_space_group_name_H-M "P -1"
_symmetry_group_IT_number 2
_symmetry_cell_setting 'triclinic'
loop_
_space_group_symop_operation_xyz
x,y,z
-x,-y,-z
loop_
_atom_site_type_symbol
_atom_site_label
_atom_site_fract_x
_atom_site_fract_y
_atom_site_fract_z
Si Si1 0.183333 0.528255 0.166462
Si Si2 0.973953 0.209032 0.855814
Si Si3 0.259299 0.990342 0.248526
Si Si4 0.258990 0.259568 0.510008
Si Si5 0.827232 0.630593 0.958268
Si Si6 0.918207 0.210226 0.441800
Si Si7 0.000000 0.500000 0.500000
Si Si8 0.000000 0.000000 0.000000
O O1 0.092870 0.652352 0.144811
O O2 0.064591 0.387764 0.300610
O O3 0.000669 0.294357 0.167679
O O4 0.627167 0.847101 0.023992
O O5 0.969960 0.177994 0.767385
O O6 0.255741 0.328799 0.844187
O O7 0.189604 0.764890 0.348871
O O8 0.119756 0.021663 0.327045
O O9 0.646971 0.334204 0.087055
O O10 0.500000 0.500000 0.500000
O O11 0.220807 0.382641 0.427941
O O12 0.297672 0.119220 0.482432
O O13 0.500000 0.500000 0.000000
O O14 0.045556 0.897476 0.935410
O O15 0.743642 0.222524 0.520511
#
# Coordination Sequence:
#
# PCOD9107864 Si02
#       8
#     2   2   2   2   2   2   1   1
#     4  10  20  41  66  91 134 169 214 268 333 396
#     4  10  22  38  65  98 127 168 211 270 337 395
#     4  10  20  42  64  91 132 167 214 272 327 388
#     4  10  23  41  62  96 128 171 227 273 320 394
#     4  11  22  42  65 101 133 172 213 276 340 398
#     4  10  21  40  65  90 124 175 215 271 328 386
#     4  10  20  40  66  86 126 178 220 256 328 378
#     4  12  24  40  66 102 130 176 216 266 348 402
#
# _framework density 28.410943
#
# number of rings (size 3 to 8) (size 9 to 14) (size 15 to 20)
#    0.000    1.714    4.286    0.857    0.000    1.714 
#    5.143    5.714    0.000    0.000    0.000    0.000 
#    0.000    0.000    0.000    0.000    0.000    0.000 
#
# Total GULP energy -77975.844685 kJ/mol
# GULP energy per Si atom -5569.703192 kJ/mol
# Density = 2.834628 g / cm^3
# Si number density = 28.410943 Si / 1000 Ang^3
#
#
#
# Elastic Constant Matrix: (Units=GPa)
#
#
# Indices 1 2 3 4 5 6 
#
# 1 86.0120 40.0015 58.4253 -0.9423 28.4858 9.3676
# 2 40.0015 227.3539 68.5062 43.8901 7.2812 5.9701
# 3 58.4253 68.5062 200.0667 45.3608 44.6728 12.6293
# 4 -0.9423 43.8901 45.3608 66.7243 -0.6135 -1.1233
# 5 28.4858 7.2812 44.6728 -0.6135 56.0227 12.3342
# 6 9.3676 5.9701 12.6293 -1.1233 12.3342 32.2888
#
#
#
# Elastic Compliance Matrix: (Units=1/GPa)
#
#
# Indices 1 2 3 4 5 6 
#
# 1 0.017388 -0.002539 -0.004084 0.004630 -0.005005 -0.000905
# 2 -0.002539 0.005664 -0.000678 -0.003300 0.001195 -0.000617
# 3 -0.004084 -0.000678 0.008811 -0.005655 -0.004815 -0.000494
# 4 0.004630 -0.003300 -0.005655 0.021112 0.002541 0.001242
# 5 -0.005005 0.001195 -0.004815 0.002541 0.025550 -0.006557
# 6 -0.000905 -0.000617 -0.000494 0.001242 -0.006557 0.034088
#
#
# Mechanical properties :
#
#
# Convention : Reuss Voigt Hill
#
# Bulk Modulus (GPa) = 57.92604 94.14428 76.03516
# Shear Modulus (GPa) = 37.60304 54.10712 45.85508
#
# Velocity S-wave (km/s) = 3.64200 4.36873 4.02181
# Velocity P-wave (km/s) = 6.17401 7.65874 6.95610
#
# Compressibility (1/GPa) = 0.01726339
#
# Stress axis : x y z
#
# Youngs Moduli (GPa) = 57.51244 176.54187 113.49115
#
# Poissons Ratio (x) = 0.44817 0.46345
# Poissons Ratio (y) = 0.14600 0.07692
# Poissons Ratio (z) = 0.23485 0.11966
#
# Static dielectric constant tensor:
#      x y z
#    x 3.336090 0.332460 -0.011420 
#    y 0.332460 2.423880 0.107740 
#    z -0.011420 0.107740 2.466010 
# 
# From -- ./inp_files/492505.got.cif
#   From: 2010.05.17/outbox.cif.g08.bks.cpg/sg2_247_cif.got.tgz:492505.got - 2010.06.03 11:33:40.
