data_PCOD9107085
_publ_section_title
;
Structure prediction by ZEFSAII (Michael W. Deem and Ramdas Pophale) SiO2 
 PCOD9107085
Probable space group: P -1
;
_chemical_formula_sum "Si O2"
_cell_formula_units_Z 16
_cell_length_a 5.213204
_cell_length_b 14.958040
_cell_length_c 12.229749
_cell_angle_alpha 120.342580
_cell_angle_beta 49.519943
_cell_angle_gamma 100.709921
_cell_volume 611.180459
_symmetry_space_group_name_H-M "P -1"
_symmetry_group_IT_number 2
_symmetry_cell_setting 'triclinic'
loop_
_space_group_symop_operation_xyz
x,y,z
-x,-y,-z
loop_
_atom_site_type_symbol
_atom_site_label
_atom_site_fract_x
_atom_site_fract_y
_atom_site_fract_z
Si Si1 0.237606 0.669603 0.327383
Si Si2 0.283002 0.596239 0.509404
Si Si3 0.041238 0.464224 0.232059
Si Si4 0.084820 0.978545 0.696382
Si Si5 0.527039 0.798259 0.614325
Si Si6 0.611067 0.133670 0.654195
Si Si7 0.344055 0.861332 0.933783
Si Si8 0.670913 0.774512 0.004384
O O1 0.162378 0.652772 0.464751
O O2 0.501812 0.745841 0.288190
O O3 0.262980 0.552455 0.202021
O O4 0.890174 0.745938 0.426113
O O5 0.645504 0.512590 0.334697
O O6 0.023124 0.549349 0.627946
O O7 0.377824 0.692750 0.613131
O O8 0.216453 0.348654 0.069910
O O9 0.317303 0.067137 0.680353
O O10 0.296120 0.880123 0.647807
O O11 0.078189 0.933008 0.546843
O O12 0.773808 0.033701 0.895353
O O13 0.547336 0.855827 0.760276
O O14 0.629087 0.158943 0.793609
O O15 0.554634 0.781534 0.915281
O O16 0.992289 0.828932 0.971012
#
# Coordination Sequence:
#
# PCOD9107085 Si02
#       8
#     2   2   2   2   2   2   2   2
#     4  11  23  38  68  99 132 179 228 275 337 415
#     4  10  20  40  63 100 135 168 222 280 345 409
#     4  10  22  38  67  96 135 176 219 282 347 397
#     4  10  23  45  70  96 134 184 225 286 341 401
#     4  11  22  40  69 103 135 172 227 288 344 405
#     4  10  24  45  67  95 137 183 235 271 333 413
#     4  11  25  44  70 106 138 176 230 289 348 403
#     4  11  25  45  70 101 142 184 226 282 338 410
#
# _framework density 26.178847000000001
#
# number of rings (size 3 to 8) (size 9 to 14) (size 15 to 20)
#    0.000    1.500    2.500    1.500    1.750    6.500 
#    0.000    4.375    0.000    0.000    0.000    0.000 
#    0.000    0.000    0.000    0.000    0.000    0.000 
#
# Total GULP energy -89469.491245 kJ/mol
# GULP energy per Si atom -5591.843203 kJ/mol
# Density = 2.611926 g / cm^3
# Si number density = 26.178847 Si / 1000 Ang^3
#
#
#
# Elastic Constant Matrix: (Units=GPa)
#
#
# Indices 1 2 3 4 5 6 
#
# 1 42.7794 25.6080 18.8927 -8.0760 -1.8826 -22.3473
# 2 25.6080 117.1329 23.0657 4.1633 -10.1667 11.4429
# 3 18.8927 23.0657 160.6830 2.7497 0.7620 -3.1733
# 4 -8.0760 4.1633 2.7497 46.0088 -9.1417 -3.7949
# 5 -1.8826 -10.1667 0.7620 -9.1417 28.6883 4.6424
# 6 -22.3473 11.4429 -3.1733 -3.7949 4.6424 36.8889
#
#
#
# Elastic Compliance Matrix: (Units=1/GPa)
#
#
# Indices 1 2 3 4 5 6 
#
# 1 0.062662 -0.018296 -0.004090 0.015735 -0.004609 0.045483
# 2 -0.018296 0.014867 -0.000257 -0.004891 0.005248 -0.016881
# 3 -0.004090 -0.000257 0.006731 -0.001386 -0.000676 -0.001876
# 4 0.015735 -0.004891 -0.001386 0.027271 0.005924 0.012990
# 5 -0.004609 0.005248 -0.000676 0.005924 0.039756 -0.008872
# 6 0.045483 -0.016881 -0.001876 0.012990 -0.008872 0.062190
#
#
# Mechanical properties :
#
#
# Convention : Reuss Voigt Hill
#
# Bulk Modulus (GPa) = 25.66013 50.63645 38.14829
# Shear Modulus (GPa) = 18.39891 39.18577 28.79234
#
# Velocity S-wave (km/s) = 2.65394 3.87311 3.31997
# Velocity P-wave (km/s) = 4.38342 6.27581 5.41295
#
# Compressibility (1/GPa) = 0.03897096
#
# Stress axis : x y z
#
# Youngs Moduli (GPa) = 15.95873 67.26514 148.56234
#
# Poissons Ratio (x) = 1.23072 0.60767
# Poissons Ratio (y) = 0.29199 0.03824
# Poissons Ratio (z) = 0.06528 0.01731
#
# Static dielectric constant tensor:
#      x y z
#    x 2.077190 0.082520 -0.013340 
#    y 0.082520 2.113290 -0.045990 
#    z -0.013340 -0.045990 2.098490 
# 
# From -- ./inp_files/127515.got.cif
#   From: 2010.05.17/outbox.cif.g08.bks.cpg/sg2_64_cif.got.tgz:127515.got - 2010.06.03 11:33:40.
