data_PCOD9107969
_publ_section_title
;
Structure prediction by ZEFSAII (Michael W. Deem and Ramdas Pophale) SiO2 
 PCOD9107969
Probable space group: P -1
;
_chemical_formula_sum "Si O2"
_cell_formula_units_Z 15
_cell_length_a 6.794442
_cell_length_b 10.784678
_cell_length_c 13.212971
_cell_angle_alpha 103.246483
_cell_angle_beta 140.345668
_cell_angle_gamma 82.928972
_cell_volume 599.197282
_symmetry_space_group_name_H-M "P -1"
_symmetry_group_IT_number 2
_symmetry_cell_setting 'triclinic'
loop_
_space_group_symop_operation_xyz
x,y,z
-x,-y,-z
loop_
_atom_site_type_symbol
_atom_site_label
_atom_site_fract_x
_atom_site_fract_y
_atom_site_fract_z
Si Si1 0.951409 0.041735 0.102485
Si Si2 0.000000 0.000000 0.500000
Si Si3 0.869816 0.350298 0.428815
Si Si4 0.830450 0.404432 0.218576
Si Si5 0.412542 0.272388 0.413744
Si Si6 0.508761 0.341841 0.873397
Si Si7 0.476169 0.194839 0.645753
Si Si8 0.241875 0.101185 0.819832
O O1 0.182723 0.157713 0.255713
O O2 0.953768 0.925036 0.161280
O O3 0.602124 0.083694 0.978289
O O4 0.000000 0.000000 0.000000
O O5 0.638668 0.944872 0.383695
O O6 0.891917 0.992967 0.337889
O O7 0.705299 0.318786 0.249105
O O8 0.653603 0.318327 0.432137
O O9 0.000000 0.500000 0.500000
O O10 0.144541 0.259710 0.532921
O O11 0.668426 0.534167 0.195335
O O12 0.195125 0.387759 0.370289
O O13 0.748718 0.370659 0.064419
O O14 0.555943 0.221874 0.565329
O O15 0.652756 0.279337 0.819933
O O16 0.252128 0.239950 0.800840
#
# Coordination Sequence:
#
# PCOD9107969 Si02
#       8
#     2   1   2   2   2   2   2   2
#     4  11  24  40  65  99 125 173 219 261 313 389
#     4  10  20  40  66  92 132 170 200 264 322 378
#     4  11  24  44  66  91 125 173 219 273 318 380
#     4  10  22  42  67  92 130 167 218 264 327 378
#     4  11  24  42  68  95 126 172 226 263 318 391
#     4  10  20  42  66  93 134 170 204 269 328 378
#     4  10  22  42  65  93 131 169 213 262 326 376
#     4  10  22  42  68  90 135 167 211 265 324 371
#
# _framework density 25.033491000000001
#
# number of rings (size 3 to 8) (size 9 to 14) (size 15 to 20)
#    0.000    1.600    4.000    0.000    3.733    2.133 
#    0.000   12.000    0.000    0.000    0.000    0.000 
#    0.000    0.000    0.000    0.000    0.000    0.000 
#
# Total GULP energy -83628.238575 kJ/mol
# GULP energy per Si atom -5575.215905 kJ/mol
# Density = 2.497651 g / cm^3
# Si number density = 25.033491 Si / 1000 Ang^3
#
#
#
# Elastic Constant Matrix: (Units=GPa)
#
#
# Indices 1 2 3 4 5 6 
#
# 1 149.6682 10.1137 31.1374 -5.6635 -38.7737 36.3408
# 2 10.1137 27.3395 11.0748 -9.8125 -13.7974 3.1019
# 3 31.1374 11.0748 121.0755 -0.2275 -49.3733 13.6534
# 4 -5.6635 -9.8125 -0.2275 39.5403 8.3251 -8.4863
# 5 -38.7737 -13.7974 -49.3733 8.3251 47.7474 -14.7538
# 6 36.3408 3.1019 13.6534 -8.4863 -14.7538 36.0834
#
#
#
# Elastic Compliance Matrix: (Units=1/GPa)
#
#
# Indices 1 2 3 4 5 6 
#
# 1 0.010279 -0.000363 0.001342 -0.001943 0.007419 -0.008253
# 2 -0.000363 0.046094 0.001024 0.009336 0.013625 0.003782
# 3 0.001342 0.001024 0.014869 -0.003243 0.017063 -0.000852
# 4 -0.001943 0.009336 -0.003243 0.029974 -0.005204 0.007304
# 5 0.007419 0.013625 0.017063 -0.005204 0.050835 0.004463
# 6 -0.008253 0.003782 -0.000852 0.007304 0.004463 0.039565
#
#
# Mechanical properties :
#
#
# Convention : Reuss Voigt Hill
#
# Bulk Modulus (GPa) = 13.28949 44.74833 29.01891
# Shear Modulus (GPa) = 23.50821 41.05803 32.28312
#
# Velocity S-wave (km/s) = 3.06775 4.05424 3.59499
# Velocity P-wave (km/s) = 4.22709 6.31110 5.37114
#
# Compressibility (1/GPa) = 0.07524741
#
# Stress axis : x y z
#
# Youngs Moduli (GPa) = 97.28592 21.69474 67.25612
#
# Poissons Ratio (x) = 0.00788 -0.09026
# Poissons Ratio (y) = 0.03534 -0.06889
# Poissons Ratio (z) = -0.13055 -0.02222
#
# Static dielectric constant tensor:
#      x y z
#    x 1.991920 -0.040230 -0.011080 
#    y -0.040230 2.107790 0.015880 
#    z -0.011080 0.015880 2.056780 
# 
# From -- ./inp_files/364909.got.cif
#   From: 2010.05.17/outbox.cif.g08.bks.cpg/sg2_183_cif.got.tgz:364909.got - 2010.06.03 11:33:40.
