data_PCOD9107953
_publ_section_title
;
Structure prediction by ZEFSAII (Michael W. Deem and Ramdas Pophale) SiO2 
 PCOD9107953
Probable space group: P -1
;
_chemical_formula_sum "Si O2"
_cell_formula_units_Z 16
_cell_length_a 11.107385
_cell_length_b 10.820256
_cell_length_c 9.541828
_cell_angle_alpha 125.426232
_cell_angle_beta 97.596405
_cell_angle_gamma 58.108474
_cell_volume 767.896511
_symmetry_space_group_name_H-M "P -1"
_symmetry_group_IT_number 2
_symmetry_cell_setting 'triclinic'
loop_
_space_group_symop_operation_xyz
x,y,z
-x,-y,-z
loop_
_atom_site_type_symbol
_atom_site_label
_atom_site_fract_x
_atom_site_fract_y
_atom_site_fract_z
Si Si1 0.567673 0.680737 0.679835
Si Si2 0.128435 0.110437 0.848335
Si Si3 0.930453 0.677277 0.504535
Si Si4 0.720080 0.306152 0.338235
Si Si5 0.360944 0.214275 0.963914
Si Si6 0.926395 0.418895 0.841651
Si Si7 0.578551 0.916109 0.605546
Si Si8 0.024768 0.808576 0.846600
O O1 0.692479 0.466591 0.541110
O O2 0.430157 0.676069 0.703911
O O3 0.600439 0.786504 0.868056
O O4 0.545663 0.780408 0.593227
O O5 0.001465 0.218248 0.785966
O O6 0.183651 0.899728 0.723614
O O7 0.265208 0.129367 0.863567
O O8 0.056825 0.213223 0.052691
O O9 0.754855 0.791825 0.534417
O O10 0.000000 0.500000 0.500000
O O11 0.015160 0.610272 0.326827
O O12 0.960843 0.804770 0.685507
O O13 0.800879 0.325143 0.230343
O O14 0.246197 0.432401 0.064851
O O15 0.506146 0.094261 0.814087
O O16 0.000000 0.500000 0.000000
O O17 0.500000 0.000000 0.500000
O O18 0.000000 0.000000 0.000000
#
# Coordination Sequence:
#
# PCOD9107953 Si02
#       8
#     2   2   2   2   2   2   2   2
#     4  11  23  39  65  91 127 169 219 259 321 392
#     4  10  20  40  66  92 124 168 216 274 328 377
#     4  12  24  41  67  99 127 170 226 271 320 389
#     4  10  22  39  63  90 128 170 213 256 323 386
#     4  11  22  39  66  96 123 166 221 266 318 388
#     4  10  21  38  64  95 132 162 209 277 333 377
#     4  12  25  40  69 101 135 165 214 282 336 376
#     4  10  22  38  61  90 123 164 216 260 313 379
#
# _framework density 20.836141999999999
#
# number of rings (size 3 to 8) (size 9 to 14) (size 15 to 20)
#    0.000    1.250    1.250    6.375    3.500    1.000 
#    0.000    5.625    0.000    3.750    0.000    0.000 
#    0.000    0.000    0.000    0.000    0.000    0.000 
#
# Total GULP energy -89181.509073 kJ/mol
# GULP energy per Si atom -5573.844317 kJ/mol
# Density = 2.078872 g / cm^3
# Si number density = 20.836142 Si / 1000 Ang^3
#
#
#
# Elastic Constant Matrix: (Units=GPa)
#
#
# Indices 1 2 3 4 5 6 
#
# 1 57.7577 17.5436 15.5864 10.3968 -5.5452 -23.4615
# 2 17.5436 122.3690 66.9183 16.0765 -6.1995 -15.7050
# 3 15.5864 66.9183 126.8681 11.7035 -6.4529 -5.1112
# 4 10.3968 16.0765 11.7035 39.8502 -6.9868 -2.9150
# 5 -5.5452 -6.1995 -6.4529 -6.9868 34.2508 10.9833
# 6 -23.4615 -15.7050 -5.1112 -2.9150 10.9833 20.4225
#
#
#
# Elastic Compliance Matrix: (Units=1/GPa)
#
#
# Indices 1 2 3 4 5 6 
#
# 1 0.038868 0.004228 -0.004721 -0.008812 -0.012335 0.052098
# 2 0.004228 0.013633 -0.006916 -0.004141 -0.003831 0.015080
# 3 -0.004721 -0.006916 0.011858 0.000432 0.003358 -0.009519
# 4 -0.008812 -0.004141 0.000432 0.029393 0.008203 -0.013415
# 5 -0.012335 -0.003831 0.003358 0.008203 0.040670 -0.036978
# 6 0.052098 0.015080 -0.009519 -0.013415 -0.036978 0.136002
#
#
# Mechanical properties :
#
#
# Convention : Reuss Voigt Hill
#
# Bulk Modulus (GPa) = 20.18519 56.34348 38.26434
# Shear Modulus (GPa) = 16.56980 32.70114 24.63547
#
# Velocity S-wave (km/s) = 2.82306 3.96592 3.44225
# Velocity P-wave (km/s) = 4.50942 6.93334 5.84834
#
# Compressibility (1/GPa) = 0.04954126
#
# Stress axis : x y z
#
# Youngs Moduli (GPa) = 25.72838 73.35146 84.33465
#
# Poissons Ratio (x) = -0.31016 0.39815
# Poissons Ratio (y) = -0.10879 0.58324
# Poissons Ratio (z) = 0.12147 0.50728
#
# Static dielectric constant tensor:
#      x y z
#    x 1.774480 0.000260 -0.001320 
#    y 0.000260 1.822350 0.014170 
#    z -0.001320 0.014170 1.719300 
# 
# From -- ./inp_files/260121.got.cif
#   From: 2010.05.17/outbox.cif.g08.bks.cpg/sg2_131_cif.got.tgz:260121.got - 2010.06.03 11:33:40.
