data_PCOD9107644
_publ_section_title
;
Structure prediction by ZEFSAII (Michael W. Deem and Ramdas Pophale) SiO2 
 PCOD9107644
Probable space group: P -1
;
_chemical_formula_sum "Si O2"
_cell_formula_units_Z 16
_cell_length_a 8.798861
_cell_length_b 9.855113
_cell_length_c 11.920839
_cell_angle_alpha 125.144399
_cell_angle_beta 114.764973
_cell_angle_gamma 63.810816
_cell_volume 739.099073
_symmetry_space_group_name_H-M "P -1"
_symmetry_group_IT_number 2
_symmetry_cell_setting 'triclinic'
loop_
_space_group_symop_operation_xyz
x,y,z
-x,-y,-z
loop_
_atom_site_type_symbol
_atom_site_label
_atom_site_fract_x
_atom_site_fract_y
_atom_site_fract_z
Si Si1 0.542200 0.079146 0.721284
Si Si2 0.302515 0.325123 0.122048
Si Si3 0.637494 0.182519 0.562168
Si Si4 0.844253 0.911452 0.895535
Si Si5 0.335162 0.423214 0.922754
Si Si6 0.614709 0.432403 0.346111
Si Si7 0.842913 0.369581 0.605684
Si Si8 0.918603 0.428652 0.266719
O O1 0.641191 0.108501 0.652804
O O2 0.391514 0.248881 0.785084
O O3 0.453999 0.926941 0.597126
O O4 0.679627 0.035826 0.843294
O O5 0.225832 0.165803 0.052581
O O6 0.498857 0.302929 0.217800
O O7 0.193921 0.486679 0.239175
O O8 0.299340 0.377661 0.016709
O O9 0.511564 0.376594 0.619912
O O10 0.820104 0.199157 0.577415
O O11 0.922276 0.742482 0.761789
O O12 0.000000 0.000000 0.000000
O O13 0.172686 0.553342 0.874817
O O14 0.500000 0.500000 0.000000
O O15 0.694254 0.410468 0.484138
O O16 0.773870 0.413247 0.301996
O O17 0.013036 0.401294 0.615739
#
# Coordination Sequence:
#
# PCOD9107644 Si02
#       8
#     2   2   2   2   2   2   2   2
#     4  11  23  40  65  88 129 165 205 253 309 375
#     4  10  22  39  67  90 121 170 211 246 306 376
#     4  10  20  40  65  90 121 167 207 248 316 371
#     4  11  25  42  58  93 132 165 200 255 318 361
#     4  12  22  42  66  93 123 161 219 255 293 373
#     4  11  19  40  68  93 120 159 215 258 300 372
#     4  10  21  37  63  96 124 154 208 263 314 362
#     4  11  23  40  65  95 120 163 207 261 311 355
#
# _framework density 21.647977000000001
#
# number of rings (size 3 to 8) (size 9 to 14) (size 15 to 20)
#    0.000    1.250    2.500    5.625    0.000    3.500 
#    2.250    0.625    0.000    0.000    0.000    0.000 
#    0.000    0.000    0.000    0.000    0.000    0.000 
#
# Total GULP energy -89382.374958 kJ/mol
# GULP energy per Si atom -5586.398435 kJ/mol
# Density = 2.159871 g / cm^3
# Si number density = 21.647977 Si / 1000 Ang^3
#
#
#
# Elastic Constant Matrix: (Units=GPa)
#
#
# Indices 1 2 3 4 5 6 
#
# 1 107.1212 21.1450 9.7362 4.2430 4.2776 40.4832
# 2 21.1450 49.7463 6.8605 0.6560 6.5842 25.1650
# 3 9.7362 6.8605 52.8301 -9.5072 3.3500 22.8610
# 4 4.2430 0.6560 -9.5072 32.7115 4.7949 3.4231
# 5 4.2776 6.5842 3.3500 4.7949 28.1751 5.2029
# 6 40.4832 25.1650 22.8610 3.4231 5.2029 50.0384
#
#
#
# Elastic Compliance Matrix: (Units=1/GPa)
#
#
# Indices 1 2 3 4 5 6 
#
# 1 0.013788 0.000116 0.002978 0.000424 -0.000224 -0.012580
# 2 0.000116 0.028031 0.003953 0.002894 -0.004629 -0.015714
# 3 0.002978 0.003953 0.027247 0.009705 -0.003093 -0.017188
# 4 0.000424 0.002894 0.009705 0.035048 -0.006388 -0.007966
# 5 -0.000224 -0.004629 -0.003093 -0.006388 0.037987 0.000409
# 6 -0.012580 -0.015714 -0.017188 -0.007966 0.000409 0.046420
#
#
# Mechanical properties :
#
#
# Convention : Reuss Voigt Hill
#
# Bulk Modulus (GPa) = 12.02505 31.68677 21.85591
# Shear Modulus (GPa) = 24.73451 33.64873 29.19162
#
# Velocity S-wave (km/s) = 3.38387 3.94681 3.67613
# Velocity P-wave (km/s) = 4.56446 5.95305 5.30439
#
# Compressibility (1/GPa) = 0.08315971
#
# Stress axis : x y z
#
# Youngs Moduli (GPa) = 72.52749 35.67476 36.70164
#
# Poissons Ratio (x) = -0.00415 -0.10930
# Poissons Ratio (y) = -0.00844 -0.14507
# Poissons Ratio (z) = -0.21598 -0.14101
#
# Static dielectric constant tensor:
#      x y z
#    x 1.843180 0.037410 0.003780 
#    y 0.037410 1.784420 0.023380 
#    z 0.003780 0.023380 1.780480 
# 
# From -- ./inp_files/242868.got.cif
#   From: 2010.05.17/outbox.cif.g08.bks.cpg/sg2_122_cif.got.tgz:242868.got - 2010.06.03 11:33:40.
