data_PCOD9107272
_publ_section_title
;
Structure prediction by ZEFSAII (Michael W. Deem and Ramdas Pophale) SiO2 
 PCOD9107272
Probable space group: P -1
;
_chemical_formula_sum "Si O2"
_cell_formula_units_Z 16
_cell_length_a 11.712332
_cell_length_b 11.574265
_cell_length_c 9.495209
_cell_angle_alpha 126.980144
_cell_angle_beta 123.307564
_cell_angle_gamma 50.578072
_cell_volume 764.631634
_symmetry_space_group_name_H-M "P -1"
_symmetry_group_IT_number 2
_symmetry_cell_setting 'triclinic'
loop_
_space_group_symop_operation_xyz
x,y,z
-x,-y,-z
loop_
_atom_site_type_symbol
_atom_site_label
_atom_site_fract_x
_atom_site_fract_y
_atom_site_fract_z
Si Si1 0.258311 0.219577 0.336539
Si Si2 0.795672 0.663981 0.309255
Si Si3 0.392433 0.486308 0.299432
Si Si4 0.176604 0.931696 0.034497
Si Si5 0.435725 0.989505 0.720914
Si Si6 0.914574 0.508010 0.800605
Si Si7 0.627364 0.120627 0.129693
Si Si8 0.340302 0.585159 0.035160
O O1 0.197693 0.331496 0.514673
O O2 0.162966 0.319704 0.209000
O O3 0.231227 0.061792 0.222403
O O4 0.441859 0.156870 0.397969
O O5 0.670696 0.844261 0.308534
O O6 0.745655 0.527089 0.126691
O O7 0.956762 0.617836 0.308329
O O8 0.500000 0.500000 0.500000
O O9 0.230429 0.520920 0.281562
O O10 0.488912 0.302330 0.173097
O O11 0.364361 0.596736 0.225368
O O12 0.229518 0.898866 0.882260
O O13 0.255274 0.761009 0.040136
O O14 0.000000 0.000000 0.000000
O O15 0.341446 0.939609 0.732486
O O16 0.555445 0.021288 0.922739
O O17 0.000000 0.500000 0.000000
O O18 0.500000 0.500000 0.000000
#
# Coordination Sequence:
#
# PCOD9107272 Si02
#       8
#     2   2   2   2   2   2   2   2
#     4  11  25  43  69 104 136 182 234 289 336 418
#     4  12  25  42  73 107 139 176 240 297 342 401
#     4  12  26  44  70 103 135 183 233 286 346 421
#     4  11  25  41  67  97 142 182 223 279 361 414
#     4  10  20  40  71  96 131 173 235 281 340 401
#     4  12  25  46  72 103 138 182 236 289 347 405
#     4  10  20  40  63  96 129 178 225 278 336 408
#     4  12  24  44  69  99 143 189 222 280 356 420
#
# _framework density 20.925111000000001
#
# number of rings (size 3 to 8) (size 9 to 14) (size 15 to 20)
#    0.000    0.750    5.000    2.250    5.250    2.000 
#    0.000    0.000    0.000    3.000    0.000    0.000 
#    0.000    0.000    0.000    0.000    0.000    0.000 
#
# Total GULP energy -89417.876325 kJ/mol
# GULP energy per Si atom -5588.617270 kJ/mol
# Density = 2.087748 g / cm^3
# Si number density = 20.925111 Si / 1000 Ang^3
#
#
#
# Elastic Constant Matrix: (Units=GPa)
#
#
# Indices 1 2 3 4 5 6 
#
# 1 185.2012 52.0649 62.1152 -15.2876 -21.9047 -18.1861
# 2 52.0649 138.8309 32.2874 -25.9605 -12.7364 0.3059
# 3 62.1152 32.2874 90.7701 -11.9771 -15.9356 -1.7036
# 4 -15.2876 -25.9605 -11.9771 23.2358 -3.0966 -11.2193
# 5 -21.9047 -12.7364 -15.9356 -3.0966 29.9277 -2.1485
# 6 -18.1861 0.3059 -1.7036 -11.2193 -2.1485 40.5591
#
#
#
# Elastic Compliance Matrix: (Units=1/GPa)
#
#
# Indices 1 2 3 4 5 6 
#
# 1 0.008529 -0.000699 -0.003775 0.006292 0.004994 0.005676
# 2 -0.000699 0.010616 -0.000478 0.013639 0.005425 0.003647
# 3 -0.003775 -0.000478 0.015716 0.006420 0.006143 0.001072
# 4 0.006292 0.013639 0.006420 0.081966 0.024243 0.026945
# 5 0.004994 0.005425 0.006143 0.024243 0.045990 0.011599
# 6 0.005676 0.003647 0.001072 0.026945 0.011599 0.035286
#
#
# Mechanical properties :
#
#
# Convention : Reuss Voigt Hill
#
# Bulk Modulus (GPa) = 40.06540 78.63747 59.35143
# Shear Modulus (GPa) = 23.11342 36.63350 29.87346
#
# Velocity S-wave (km/s) = 3.32713 4.18867 3.78251
# Velocity P-wave (km/s) = 5.82652 7.81379 6.89215
#
# Compressibility (1/GPa) = 0.02495919
#
# Stress axis : x y z
#
# Youngs Moduli (GPa) = 117.24189 94.19552 63.63092
#
# Poissons Ratio (x) = 0.06581 0.24019
# Poissons Ratio (y) = 0.08192 0.03039
# Poissons Ratio (z) = 0.44256 0.04498
#
# Static dielectric constant tensor:
#      x y z
#    x 1.783540 0.032920 0.000390 
#    y 0.032920 1.641160 -0.072290 
#    z 0.000390 -0.072290 1.712820 
# 
# From -- ./inp_files/260296.got.cif
#   From: 2010.05.17/outbox.cif.g08.bks.cpg/sg2_131_cif.got.tgz:260296.got - 2010.06.03 11:33:40.
