data_PCOD9107913
_publ_section_title
;
Structure prediction by ZEFSAII (Michael W. Deem and Ramdas Pophale) SiO2 
 PCOD9107913
Probable space group: P -1
;
_chemical_formula_sum "Si O2"
_cell_formula_units_Z 14
_cell_length_a 9.314327
_cell_length_b 6.101654
_cell_length_c 18.517127
_cell_angle_alpha 119.270498
_cell_angle_beta 134.770779
_cell_angle_gamma 78.687946
_cell_volume 632.791346
_symmetry_space_group_name_H-M "P -1"
_symmetry_group_IT_number 2
_symmetry_cell_setting 'triclinic'
loop_
_space_group_symop_operation_xyz
x,y,z
-x,-y,-z
loop_
_atom_site_type_symbol
_atom_site_label
_atom_site_fract_x
_atom_site_fract_y
_atom_site_fract_z
Si Si1 0.275342 0.461451 0.448827
Si Si2 0.950376 0.754858 0.366061
Si Si3 0.345831 0.988324 0.772064
Si Si4 0.330890 0.684120 0.168021
Si Si5 0.667789 0.590594 0.371299
Si Si6 0.855467 0.199144 0.189648
Si Si7 0.939133 0.889730 0.039968
O O1 0.500000 0.500000 0.500000
O O2 0.291661 0.396681 0.527945
O O3 0.092472 0.243145 0.311802
O O4 0.184514 0.719438 0.447472
O O5 0.860627 0.724576 0.410355
O O6 0.831275 0.491839 0.238039
O O7 0.869730 0.974774 0.332833
O O8 0.377401 0.710916 0.714963
O O9 0.307626 0.980264 0.842909
O O10 0.528435 0.196112 0.831458
O O11 0.476926 0.699224 0.291982
O O12 0.148902 0.831446 0.137765
O O13 0.224553 0.384794 0.067604
O O14 0.853791 0.085536 0.091566
O O15 0.000000 0.000000 0.000000
#
# Coordination Sequence:
#
# PCOD9107913 Si02
#       7
#     2   2   2   2   2   2   2
#     4  10  22  38  62  92 130 163 201 254 302 374
#     4   8  20  38  60  93 123 163 204 246 302 369
#     4  10  20  40  66  90 128 161 209 255 300 368
#     4  10  24  40  66  97 113 170 210 248 314 372
#     4  10  20  41  63  89 131 161 203 253 304 366
#     4   9  23  41  61  93 123 162 205 258 309 357
#     4  11  24  44  66  88 129 162 203 262 314 367
#
# _framework density 22.124196999999999
#
# number of rings (size 3 to 8) (size 9 to 14) (size 15 to 20)
#    0.857    1.429    0.000    1.286    4.000    4.571 
#    2.571   11.429    0.000    0.000    0.000    0.000 
#    0.000    0.000    0.000    0.000    0.000    0.000 
#
# Total GULP energy -78190.112725 kJ/mol
# GULP energy per Si atom -5585.008052 kJ/mol
# Density = 2.207384 g / cm^3
# Si number density = 22.124197 Si / 1000 Ang^3
#
#
#
# Elastic Constant Matrix: (Units=GPa)
#
#
# Indices 1 2 3 4 5 6 
#
# 1 80.0235 20.4808 29.3189 8.7577 -4.0039 17.6925
# 2 20.4808 71.8303 25.5437 -5.1351 5.0132 14.0002
# 3 29.3189 25.5437 44.6503 -2.4101 -2.1096 -3.8454
# 4 8.7577 -5.1351 -2.4101 26.2092 -3.4071 13.5444
# 5 -4.0039 5.0132 -2.1096 -3.4071 52.7266 -6.9480
# 6 17.6925 14.0002 -3.8454 13.5444 -6.9480 35.0847
#
#
#
# Elastic Compliance Matrix: (Units=1/GPa)
#
#
# Indices 1 2 3 4 5 6 
#
# 1 0.020784 0.002295 -0.016196 -0.001508 -0.001072 -0.012803
# 2 0.002295 0.023361 -0.015978 0.010673 -0.004262 -0.017195
# 3 -0.016196 -0.015978 0.044048 -0.004434 0.004665 0.022006
# 4 -0.001508 0.010673 -0.004434 0.052929 -0.001134 -0.024642
# 5 -0.001072 -0.004262 0.004665 -0.001134 0.020355 0.007222
# 6 -0.012803 -0.017195 0.022006 -0.024642 0.007222 0.055175
#
#
# Mechanical properties :
#
#
# Convention : Reuss Voigt Hill
#
# Bulk Modulus (GPa) = 35.16519 38.57677 36.87098
# Shear Modulus (GPa) = 17.48943 30.88148 24.18546
#
# Velocity S-wave (km/s) = 2.81465 3.74013 3.30990
# Velocity P-wave (km/s) = 5.14704 6.01047 5.59543
#
# Compressibility (1/GPa) = 0.02843721
#
# Stress axis : x y z
#
# Youngs Moduli (GPa) = 48.11283 42.80636 22.70256
#
# Poissons Ratio (x) = -0.09826 0.36768
# Poissons Ratio (y) = -0.11044 0.36274
# Poissons Ratio (z) = 0.77922 0.68396
#
# Static dielectric constant tensor:
#      x y z
#    x 1.770260 -0.009350 0.035950 
#    y -0.009350 1.840330 0.033460 
#    z 0.035950 0.033460 1.848980 
# 
# From -- ./inp_files/548433.got.cif
#   From: 2010.05.17/outbox.cif.g08.bks.cpg/sg2_275_cif.got.tgz:548433.got - 2010.06.03 11:33:40.
