data_PCOD9107593
_publ_section_title
;
Structure prediction by ZEFSAII (Michael W. Deem and Ramdas Pophale) SiO2 
 PCOD9107593
Probable space group: P -1
;
_chemical_formula_sum "Si O2"
_cell_formula_units_Z 16
_cell_length_a 8.737596
_cell_length_b 11.557843
_cell_length_c 9.622706
_cell_angle_alpha 83.243374
_cell_angle_beta 45.520717
_cell_angle_gamma 88.955031
_cell_volume 685.718166
_symmetry_space_group_name_H-M "P -1"
_symmetry_group_IT_number 2
_symmetry_cell_setting 'triclinic'
loop_
_space_group_symop_operation_xyz
x,y,z
-x,-y,-z
loop_
_atom_site_type_symbol
_atom_site_label
_atom_site_fract_x
_atom_site_fract_y
_atom_site_fract_z
Si Si1 0.581611 0.612551 0.345493
Si Si2 0.451198 0.938109 0.891847
Si Si3 0.958898 0.921463 0.263907
Si Si4 0.395580 0.145883 0.733461
Si Si5 0.943371 0.370340 0.991677
Si Si6 0.042202 0.194000 0.178209
Si Si7 0.520318 0.453978 0.147597
Si Si8 0.793066 0.757891 0.639615
O O1 0.500000 0.500000 0.500000
O O2 0.473169 0.733304 0.411314
O O3 0.556612 0.563832 0.212074
O O4 0.831111 0.647998 0.223055
O O5 0.593782 0.832007 0.796865
O O6 0.513819 0.035451 0.720824
O O7 0.194499 0.905555 0.051686
O O8 0.500000 0.000000 0.000000
O O9 0.773191 0.893984 0.273031
O O10 0.923989 0.836480 0.430253
O O11 0.959181 0.059355 0.277228
O O12 0.261656 0.180153 0.951251
O O13 0.729462 0.381652 0.040080
O O14 0.915264 0.272531 0.143107
O O15 0.000000 0.500000 0.000000
O O16 0.083194 0.254574 0.292235
O O17 0.311220 0.366924 0.330076
O O18 0.500000 0.500000 0.000000
#
# Coordination Sequence:
#
# PCOD9107593 Si02
#       8
#     2   2   2   2   2   2   2   2
#     4  10  21  42  63  90 128 164 215 265 313 374
#     4  11  23  40  65  93 130 172 210 256 333 380
#     4  11  24  41  62  97 133 165 212 267 319 379
#     4  10  21  40  63  89 130 172 206 263 325 381
#     4   9  20  39  64  85 119 171 206 249 319 376
#     4  10  20  40  65  86 131 168 206 260 320 383
#     4  11  24  42  67  92 125 167 214 264 319 382
#     4  12  24  41  66  98 129 167 218 267 318 386
#
# _framework density 23.333200999999999
#
# number of rings (size 3 to 8) (size 9 to 14) (size 15 to 20)
#    0.000    1.500    2.500    4.875    5.250    0.500 
#    4.500    1.875    0.000    0.000    0.000    0.000 
#    0.000    0.000    0.000    0.000    0.000    0.000 
#
# Total GULP energy -89474.148993 kJ/mol
# GULP energy per Si atom -5592.134312 kJ/mol
# Density = 2.328009 g / cm^3
# Si number density = 23.333201 Si / 1000 Ang^3
#
#
#
# Elastic Constant Matrix: (Units=GPa)
#
#
# Indices 1 2 3 4 5 6 
#
# 1 122.0303 34.8173 28.6258 -18.0068 22.8670 -14.2910
# 2 34.8173 73.7209 11.1547 -28.8530 -9.4516 6.2936
# 3 28.6258 11.1547 95.9003 -31.1234 2.7454 -4.7378
# 4 -18.0068 -28.8530 -31.1234 41.1616 -2.2869 6.9214
# 5 22.8670 -9.4516 2.7454 -2.2869 26.0309 -7.0781
# 6 -14.2910 6.2936 -4.7378 6.9214 -7.0781 38.6050
#
#
#
# Elastic Compliance Matrix: (Units=1/GPa)
#
#
# Indices 1 2 3 4 5 6 
#
# 1 0.015345 -0.011801 -0.004727 -0.006930 -0.016447 0.005251
# 2 -0.011801 0.031123 0.006807 0.024496 0.020594 -0.009223
# 3 -0.004727 0.006807 0.015741 0.015364 0.005591 -0.002657
# 4 -0.006930 0.024496 0.015364 0.052796 0.014898 -0.011408
# 5 -0.016447 0.020594 0.005591 0.014898 0.060993 -0.000248
# 6 0.005251 -0.009223 -0.002657 -0.011408 -0.000248 0.031025
#
#
# Mechanical properties :
#
#
# Convention : Reuss Voigt Hill
#
# Bulk Modulus (GPa) = 23.38186 48.98298 36.18242
# Shear Modulus (GPa) = 20.77091 35.62977 28.20034
#
# Velocity S-wave (km/s) = 2.98684 3.91192 3.48025
# Velocity P-wave (km/s) = 4.68375 6.43759 5.62939
#
# Compressibility (1/GPa) = 0.04276821
#
# Stress axis : x y z
#
# Youngs Moduli (GPa) = 65.16815 32.13042 63.52669
#
# Poissons Ratio (x) = 0.37918 0.30026
# Poissons Ratio (y) = 0.76907 -0.43244
# Poissons Ratio (z) = 0.30802 -0.21872
#
# Static dielectric constant tensor:
#      x y z
#    x 1.897480 -0.012940 -0.036700 
#    y -0.012940 1.882430 -0.019610 
#    z -0.036700 -0.019610 1.912370 
# 
# From -- ./inp_files/186437.got.cif
#   From: 2010.05.17/outbox.cif.g08.bks.cpg/sg2_94_cif.got.tgz:186437.got - 2010.06.03 11:33:40.
