data_PCOD9107562
_publ_section_title
;
Structure prediction by ZEFSAII (Michael W. Deem and Ramdas Pophale) SiO2 
 PCOD9107562
Probable space group: P -1
;
_chemical_formula_sum "Si O2"
_cell_formula_units_Z 16
_cell_length_a 28.415860
_cell_length_b 5.312327
_cell_length_c 5.312334
_cell_angle_alpha 92.838447
_cell_angle_beta 126.716259
_cell_angle_gamma 90.533850
_cell_volume 641.275967
_symmetry_space_group_name_H-M "P -1"
_symmetry_group_IT_number 2
_symmetry_cell_setting 'triclinic'
loop_
_space_group_symop_operation_xyz
x,y,z
-x,-y,-z
loop_
_atom_site_type_symbol
_atom_site_label
_atom_site_fract_x
_atom_site_fract_y
_atom_site_fract_z
Si Si1 0.180696 0.339122 0.717679
Si Si2 0.680695 0.675642 0.881112
Si Si3 0.906469 0.065599 0.681923
Si Si4 0.510638 0.212613 0.259892
Si Si5 0.989360 0.772006 0.255484
Si Si6 0.124600 0.548451 0.033442
Si Si7 0.375406 0.840325 0.077847
Si Si8 0.406465 0.462500 0.785053
O O1 0.157844 0.428005 0.374902
O O2 0.146625 0.069450 0.641992
O O3 0.249999 0.321182 0.928819
O O4 0.160677 0.508756 0.894546
O O5 0.657832 0.401426 0.901413
O O6 0.646638 0.702138 0.509250
O O7 0.660672 0.912574 0.990644
O O8 0.882832 0.172470 0.872162
O O9 0.946884 0.267687 0.665100
O O10 0.951525 0.858547 0.898222
O O11 0.557155 0.116751 0.604825
O O12 0.548477 0.456376 0.286848
O O13 0.446882 0.324438 0.108358
O O14 0.500000 0.000000 0.000000
O O15 0.942839 0.566604 0.211781
O O16 0.000000 0.000000 0.500000
O O17 0.382834 0.723650 0.821039
#
# Coordination Sequence:
#
# PCOD9107562 Si02
#       8
#     2   2   2   2   2   2   2   2
#     4  11  27  45  66  99 135 180 245 288 346 425
#     4  11  27  45  66  99 135 180 245 288 346 425
#     4  10  23  41  66  99 137 179 223 291 353 428
#     4  10  20  40  65 102 138 171 228 284 353 432
#     4  10  20  40  65 102 138 171 228 284 353 432
#     4  11  25  44  69 100 134 186 227 290 361 414
#     4  11  25  44  69 100 134 186 227 290 361 414
#     4  10  23  41  66  99 137 179 223 291 353 428
#
# _framework density 24.950256
#
# number of rings (size 3 to 8) (size 9 to 14) (size 15 to 20)
#    0.000    1.500    2.500    0.750    7.000    1.000 
#    0.000    0.000    0.000    0.000    0.000    0.000 
#    0.000    0.000    0.000    0.000    0.000    0.000 
#
# Total GULP energy -89472.968950 kJ/mol
# GULP energy per Si atom -5592.060559 kJ/mol
# Density = 2.489347 g / cm^3
# Si number density = 24.950256 Si / 1000 Ang^3
#
#
#
# Elastic Constant Matrix: (Units=GPa)
#
#
# Indices 1 2 3 4 5 6 
#
# 1 147.1830 49.2608 76.7967 0.5528 29.3897 -23.2224
# 2 49.2608 98.1610 32.1063 5.1471 5.9878 -7.6002
# 3 76.7967 32.1063 117.3332 4.0853 23.1805 -8.1523
# 4 0.5528 5.1471 4.0853 38.2591 -3.0310 -15.3255
# 5 29.3897 5.9878 23.1805 -3.0310 55.0688 2.8237
# 6 -23.2224 -7.6002 -8.1523 -15.3255 2.8237 43.5370
#
#
#
# Elastic Compliance Matrix: (Units=1/GPa)
#
#
# Indices 1 2 3 4 5 6 
#
# 1 0.013400 -0.004002 -0.006512 0.003393 -0.004131 0.006692
# 2 -0.004002 0.012487 -0.001023 -0.001758 0.001155 -0.000840
# 3 -0.006512 -0.001023 0.013430 -0.002060 -0.002091 -0.001727
# 4 0.003393 -0.001758 -0.002060 0.031445 0.000354 0.012164
# 5 -0.004131 0.001155 -0.002091 0.000354 0.021325 -0.003652
# 6 0.006692 -0.000840 -0.001727 0.012164 -0.003652 0.030587
#
#
# Mechanical properties :
#
#
# Convention : Reuss Voigt Hill
#
# Bulk Modulus (GPa) = 61.56802 75.44500 68.50651
# Shear Modulus (GPa) = 33.07693 41.00719 37.04206
#
# Velocity S-wave (km/s) = 3.64499 4.05848 3.85728
# Velocity P-wave (km/s) = 6.51494 7.22949 6.88149
#
# Compressibility (1/GPa) = 0.01624220
#
# Stress axis : x y z
#
# Youngs Moduli (GPa) = 74.62831 80.08332 74.46108
#
# Poissons Ratio (x) = 0.32052 0.48491
# Poissons Ratio (y) = 0.29868 0.07615
# Poissons Ratio (z) = 0.48600 0.08190
#
# Static dielectric constant tensor:
#      x y z
#    x 1.996480 0.095360 -0.081890 
#    y 0.095360 2.127730 -0.087260 
#    z -0.081890 -0.087260 2.006280 
# 
# From -- ./inp_files/12325.got.cif
#   From: 2010.05.17/outbox.cif.g08.bks.cpg/sg2_7_cif.got.tgz:12325.got - 2010.06.03 11:33:40.
