data_PCOD9107340
_publ_section_title
;
Structure prediction by ZEFSAII (Michael W. Deem and Ramdas Pophale) SiO2 
 PCOD9107340
Probable space group: P -1
;
_chemical_formula_sum "Si O2"
_cell_formula_units_Z 12
_cell_length_a 14.711062
_cell_length_b 6.754207
_cell_length_c 8.980439
_cell_angle_alpha 53.999268
_cell_angle_beta 140.046167
_cell_angle_gamma 128.490991
_cell_volume 437.490844
_symmetry_space_group_name_H-M "P -1"
_symmetry_group_IT_number 2
_symmetry_cell_setting 'triclinic'
loop_
_space_group_symop_operation_xyz
x,y,z
-x,-y,-z
loop_
_atom_site_type_symbol
_atom_site_label
_atom_site_fract_x
_atom_site_fract_y
_atom_site_fract_z
Si Si1 0.779448 0.165487 0.501984
Si Si2 0.244613 0.049352 0.869004
Si Si3 0.947493 0.687889 0.052285
Si Si4 0.596895 0.813189 0.680540
Si Si5 0.654030 0.347011 0.996931
Si Si6 0.898731 0.796862 0.625084
O O1 0.673990 0.280457 0.222125
O O2 0.899997 0.355248 0.682352
O O3 0.684769 0.925719 0.590240
O O4 0.873579 0.061025 0.545006
O O5 0.351203 0.903661 0.995182
O O6 0.070273 0.869865 0.752688
O O7 0.225213 0.258247 0.635371
O O8 0.303546 0.138745 0.066143
O O9 0.814800 0.544349 0.058287
O O10 0.888445 0.628568 0.835885
O O11 0.000000 0.000000 0.000000
O O12 0.500000 0.000000 0.500000
O O13 0.539295 0.498932 0.744856
#
# Coordination Sequence:
#
# PCOD9107340 Si02
#       6
#     2   2   2   2   2   2
#     4  10  20  39  64  96 129 163 212 250 316 387
#     4  10  22  39  63 101 126 159 213 248 319 396
#     4  10  16  34  65  93 128 159 191 249 327 377
#     4  12  25  46  65  85 128 174 216 269 300 355
#     4  11  23  40  66  91 129 168 202 264 319 369
#     4   9  17  36  63  92 136 147 193 265 310 380
#
# _framework density 27.429145999999999
#
# number of rings (size 3 to 8) (size 9 to 14) (size 15 to 20)
#    0.000    1.667    5.000    1.500    0.000    4.667 
#    3.000    3.333    0.000    0.000    0.000    0.000 
#    0.000    0.000    0.000    0.000    0.000    0.000 
#
# Total GULP energy -67118.921231 kJ/mol
# GULP energy per Si atom -5593.243436 kJ/mol
# Density = 2.736672 g / cm^3
# Si number density = 27.429146 Si / 1000 Ang^3
#
#
#
# Elastic Constant Matrix: (Units=GPa)
#
#
# Indices 1 2 3 4 5 6 
#
# 1 114.4698 29.9939 86.4669 -3.7030 -0.0399 -20.5060
# 2 29.9939 61.6288 58.4602 -4.8035 -1.5341 -6.4318
# 3 86.4669 58.4602 215.9414 -31.1265 -24.7708 -9.4469
# 4 -3.7030 -4.8035 -31.1265 45.3099 -20.1639 6.2294
# 5 -0.0399 -1.5341 -24.7708 -20.1639 63.4436 -7.9918
# 6 -20.5060 -6.4318 -9.4469 6.2294 -7.9918 41.5336
#
#
#
# Elastic Compliance Matrix: (Units=1/GPa)
#
#
# Indices 1 2 3 4 5 6 
#
# 1 0.014968 -0.000732 -0.006865 -0.006110 -0.003889 0.005883
# 2 -0.000732 0.022728 -0.006697 -0.003846 -0.003084 0.001618
# 3 -0.006865 -0.006697 0.011381 0.010028 0.007218 -0.001953
# 4 -0.006110 -0.003846 0.010028 0.035013 0.014468 -0.003799
# 5 -0.003889 -0.003084 0.007218 0.014468 0.023298 0.001557
# 6 0.005883 0.001618 -0.001953 -0.003799 0.001557 0.027657
#
#
# Mechanical properties :
#
#
# Convention : Reuss Voigt Hill
#
# Bulk Modulus (GPa) = 48.80754 82.43134 65.61944
# Shear Modulus (GPa) = 29.33198 44.53201 36.93199
#
# Velocity S-wave (km/s) = 3.27367 4.03367 3.67338
# Velocity P-wave (km/s) = 5.66762 7.19804 6.47818
#
# Compressibility (1/GPa) = 0.02048864
#
# Stress axis : x y z
#
# Youngs Moduli (GPa) = 66.80855 43.99932 87.86667
#
# Poissons Ratio (x) = 0.03220 0.60319
# Poissons Ratio (y) = 0.04890 0.58846
# Poissons Ratio (z) = 0.45863 0.29467
#
# Static dielectric constant tensor:
#      x y z
#    x 2.192980 -0.107750 0.098960 
#    y -0.107750 2.196040 -0.063380 
#    z 0.098960 -0.063380 2.229870 
# 
# From -- ./inp_files/178442.got.cif
#   From: 2010.05.17/outbox.cif.g08.bks.cpg/sg2_90_cif.got.tgz:178442.got - 2010.06.03 11:33:40.
