data_PCOD9107209
_publ_section_title
;
Structure prediction by ZEFSAII (Michael W. Deem and Ramdas Pophale) SiO2 
 PCOD9107209
Probable space group: P -1
;
_chemical_formula_sum "Si O2"
_cell_formula_units_Z 14
_cell_length_a 6.268945
_cell_length_b 10.763548
_cell_length_c 10.872427
_cell_angle_alpha 91.599725
_cell_angle_beta 53.802791
_cell_angle_gamma 87.049156
_cell_volume 589.695462
_symmetry_space_group_name_H-M "P -1"
_symmetry_group_IT_number 2
_symmetry_cell_setting 'triclinic'
loop_
_space_group_symop_operation_xyz
x,y,z
-x,-y,-z
loop_
_atom_site_type_symbol
_atom_site_label
_atom_site_fract_x
_atom_site_fract_y
_atom_site_fract_z
Si Si1 0.304558 0.023696 0.872729
Si Si2 0.470904 0.410978 0.122787
Si Si3 0.046793 0.618509 0.574259
Si Si4 0.592755 0.220153 0.888340
Si Si5 0.187072 0.186369 0.682167
Si Si6 0.799266 0.889271 0.582498
Si Si7 0.419352 0.400215 0.719526
O O1 0.385827 0.117624 0.952475
O O2 0.306509 0.101832 0.747662
O O3 0.555254 0.924215 0.759269
O O4 0.000000 0.000000 0.000000
O O5 0.157192 0.401028 0.248052
O O6 0.600802 0.464908 0.203353
O O7 0.500000 0.500000 0.000000
O O8 0.599285 0.282811 0.021059
O O9 0.959008 0.758282 0.562046
O O10 0.000000 0.500000 0.500000
O O11 0.362924 0.608609 0.463446
O O12 0.523681 0.315411 0.800018
O O13 0.885136 0.160359 0.762749
O O14 0.326813 0.147583 0.506476
O O15 0.187926 0.329709 0.733117
O O16 0.000000 0.000000 0.500000
#
# Coordination Sequence:
#
# PCOD9107209 Si02
#       7
#     2   2   2   2   2   2   2
#     4  11  26  41  61 102 136 171 233 285 332 412
#     4   9  20  37  66  91 132 179 212 276 350 398
#     4  10  21  41  69  97 133 173 230 283 337 409
#     4  10  20  40  63  91 131 173 218 276 345 392
#     4  11  22  40  68  90 133 177 225 281 338 403
#     4  12  23  44  70  98 134 187 228 278 349 404
#     4   9  19  40  62  95 123 168 225 276 326 414
#
# _framework density 23.741067000000001
#
# number of rings (size 3 to 8) (size 9 to 14) (size 15 to 20)
#    0.000    1.714    2.857    1.286    2.000    3.429 
#    0.000    2.857    0.000    0.000    0.000    0.000 
#    0.000    0.000    0.000    0.000    0.000    0.000 
#
# Total GULP energy -78049.114683 kJ/mol
# GULP energy per Si atom -5574.936763 kJ/mol
# Density = 2.368703 g / cm^3
# Si number density = 23.741067 Si / 1000 Ang^3
#
#
#
# Elastic Constant Matrix: (Units=GPa)
#
#
# Indices 1 2 3 4 5 6 
#
# 1 56.9521 37.9648 13.4615 1.8271 -0.9292 26.8505
# 2 37.9648 115.3464 50.2759 6.9323 -0.4245 16.7663
# 3 13.4615 50.2759 141.2734 4.0329 -3.1616 19.1989
# 4 1.8271 6.9323 4.0329 47.6103 5.8646 3.4866
# 5 -0.9292 -0.4245 -3.1616 5.8646 36.6368 -3.7720
# 6 26.8505 16.7663 19.1989 3.4866 -3.7720 42.6149
#
#
#
# Elastic Compliance Matrix: (Units=1/GPa)
#
#
# Indices 1 2 3 4 5 6 
#
# 1 0.031000 -0.008846 0.002494 0.001295 -0.001098 -0.017379
# 2 -0.008846 0.013108 -0.004105 -0.001401 0.000043 0.002384
# 3 0.002494 -0.004105 0.008841 -0.000007 0.000378 -0.003906
# 4 0.001295 -0.001401 -0.000007 0.021790 -0.003716 -0.002373
# 5 -0.001098 0.000043 0.000378 -0.003716 0.028236 0.003308
# 6 -0.017379 0.002384 -0.003906 -0.002373 0.003308 0.035724
#
#
# Mechanical properties :
#
#
# Convention : Reuss Voigt Hill
#
# Bulk Modulus (GPa) = 31.21531 57.44181 44.32856
# Shear Modulus (GPa) = 29.36141 39.49703 34.42922
#
# Velocity S-wave (km/s) = 3.52054 4.08322 3.81228
# Velocity P-wave (km/s) = 5.44999 6.81747 6.17172
#
# Compressibility (1/GPa) = 0.03203556
#
# Stress axis : x y z
#
# Youngs Moduli (GPa) = 32.25828 76.28799 113.10782
#
# Poissons Ratio (x) = 0.67486 -0.28215
# Poissons Ratio (y) = 0.28536 0.46431
# Poissons Ratio (z) = -0.08047 0.31317
#
# Static dielectric constant tensor:
#      x y z
#    x 1.974110 -0.035870 -0.042760 
#    y -0.035870 2.048660 0.017870 
#    z -0.042760 0.017870 1.982000 
# 
# From -- ./inp_files/78455.got.cif
#   From: 2010.05.17/outbox.cif.g08.bks.cpg/sg2_40_cif.got.tgz:78455.got - 2010.06.03 11:33:40.
