data_PCOD9107858
_publ_section_title
;
Structure prediction by ZEFSAII (Michael W. Deem and Ramdas Pophale) SiO2 
 PCOD9107858
Probable space group: P -1
;
_chemical_formula_sum "Si O2"
_cell_formula_units_Z 12
_cell_length_a 18.104510
_cell_length_b 15.696130
_cell_length_c 18.671114
_cell_angle_alpha 166.180637
_cell_angle_beta 24.943386
_cell_angle_gamma 156.746428
_cell_volume 494.356411
_symmetry_space_group_name_H-M "P -1"
_symmetry_group_IT_number 2
_symmetry_cell_setting 'triclinic'
loop_
_space_group_symop_operation_xyz
x,y,z
-x,-y,-z
loop_
_atom_site_type_symbol
_atom_site_label
_atom_site_fract_x
_atom_site_fract_y
_atom_site_fract_z
Si Si1 0.381810 0.348475 0.817934
Si Si2 0.427691 0.101749 0.786856
Si Si3 0.510619 0.086042 0.144406
Si Si4 0.073807 0.862965 0.175139
Si Si5 0.125391 0.775885 0.679203
Si Si6 0.877597 0.426250 0.855754
O O1 0.434423 0.133077 0.530487
O O2 0.311402 0.015081 0.666385
O O3 0.548917 0.717474 0.006420
O O4 0.192560 0.429408 0.035496
O O5 0.233220 0.778830 0.663416
O O6 0.500000 0.500000 0.000000
O O7 0.500000 0.500000 0.500000
O O8 0.326864 0.822091 0.133210
O O9 0.707018 0.049291 0.961728
O O10 0.500000 0.000000 0.000000
O O11 0.010285 0.188621 0.531183
O O12 0.000000 0.500000 0.000000
O O13 0.972843 0.746968 0.092956
O O14 0.000000 0.500000 0.500000
O O15 0.000000 0.000000 0.000000
#
# Coordination Sequence:
#
# PCOD9107858 Si02
#       6
#     2   2   2   2   2   2
#     4  11  23  42  63  91 129 164 210 266 329 373
#     4  10  20  40  66  86 118 173 209 243 313 402
#     4  12  23  41  69  95 125 173 225 261 322 401
#     4  12  23  42  70  94 128 175 222 265 323 396
#     4  11  21  38  64  92 122 161 210 257 307 388
#     4  12  25  44  65  97 136 168 214 284 326 374
#
# _framework density 24.273983999999999
#
# number of rings (size 3 to 8) (size 9 to 14) (size 15 to 20)
#    0.000    0.667    3.333    7.500    0.000    0.000 
#    9.000    0.000    0.000    0.000    0.000    0.000 
#    0.000    0.000    0.000    0.000    0.000    0.000 
#
# Total GULP energy -66882.531884 kJ/mol
# GULP energy per Si atom -5573.544324 kJ/mol
# Density = 2.421874 g / cm^3
# Si number density = 24.273984 Si / 1000 Ang^3
#
#
#
# Elastic Constant Matrix: (Units=GPa)
#
#
# Indices 1 2 3 4 5 6 
#
# 1 73.6912 21.3941 28.3184 10.1565 21.8618 33.8909
# 2 21.3941 119.6221 30.4624 -16.3815 9.5860 24.1740
# 3 28.3184 30.4624 160.5620 -21.0666 32.3932 5.6450
# 4 10.1565 -16.3815 -21.0666 44.4946 17.2486 9.2242
# 5 21.8618 9.5860 32.3932 17.2486 48.7872 4.6696
# 6 33.8909 24.1740 5.6450 9.2242 4.6696 47.8539
#
#
#
# Elastic Compliance Matrix: (Units=1/GPa)
#
#
# Indices 1 2 3 4 5 6 
#
# 1 0.024091 0.000094 -0.002141 -0.000118 -0.007812 -0.016072
# 2 0.000094 0.010934 -0.000213 0.006724 -0.003805 -0.006490
# 3 -0.002141 -0.000213 0.009305 0.007951 -0.007966 -0.000229
# 4 -0.000118 0.006724 0.007951 0.038170 -0.019110 -0.009744
# 5 -0.007812 -0.003805 -0.007966 -0.019110 0.035971 0.008568
# 6 -0.016072 -0.006490 -0.000229 -0.009744 0.008568 0.036627
#
#
# Mechanical properties :
#
#
# Convention : Reuss Voigt Hill
#
# Bulk Modulus (GPa) = 25.11921 57.13611 41.12766
# Shear Modulus (GPa) = 28.92074 46.47382 37.69728
#
# Velocity S-wave (km/s) = 3.45545 4.38031 3.94508
# Velocity P-wave (km/s) = 5.12746 7.01227 6.14259
#
# Compressibility (1/GPa) = 0.03981017
#
# Stress axis : x y z
#
# Youngs Moduli (GPa) = 41.50971 91.45516 107.47433
#
# Poissons Ratio (x) = -0.00864 0.23011
# Poissons Ratio (y) = -0.00392 0.02290
# Poissons Ratio (z) = 0.08888 0.01948
#
# Static dielectric constant tensor:
#      x y z
#    x 2.162270 -0.035710 -0.060650 
#    y -0.035710 2.027510 0.037290 
#    z -0.060650 0.037290 1.931760 
# 
# From -- ./inp_files/613829.got.cif
#   From: 2010.05.17/outbox.cif.g08.bks.cpg/sg2_307_cif.got.tgz:613829.got - 2010.06.03 11:33:40.
