data_PCOD9107721
_publ_section_title
;
Structure prediction by ZEFSAII (Michael W. Deem and Ramdas Pophale) SiO2 
 PCOD9107721
Probable space group: P -1
;
_chemical_formula_sum "Si O2"
_cell_formula_units_Z 12
_cell_length_a 12.254525
_cell_length_b 4.952710
_cell_length_c 21.435505
_cell_angle_alpha 94.221145
_cell_angle_beta 159.978851
_cell_angle_gamma 94.086884
_cell_volume 404.898412
_symmetry_space_group_name_H-M "P -1"
_symmetry_group_IT_number 2
_symmetry_cell_setting 'triclinic'
loop_
_space_group_symop_operation_xyz
x,y,z
-x,-y,-z
loop_
_atom_site_type_symbol
_atom_site_label
_atom_site_fract_x
_atom_site_fract_y
_atom_site_fract_z
Si Si1 0.675107 0.276072 0.863341
Si Si2 0.464862 0.557689 0.874865
Si Si3 0.769090 0.824097 0.777589
Si Si4 0.826373 0.920349 0.183728
Si Si5 0.579681 0.245264 0.601623
Si Si6 0.875086 0.624617 0.495099
O O1 0.578344 0.421408 0.874411
O O2 0.315531 0.169440 0.628857
O O3 0.000000 0.500000 0.000000
O O4 0.856573 0.070935 0.985384
O O5 0.233048 0.306768 0.795335
O O6 0.227906 0.726307 0.727284
O O7 0.801626 0.746128 0.101739
O O8 0.687662 0.091135 0.713861
O O9 0.448242 0.628298 0.646611
O O10 0.777734 0.599841 0.722843
O O11 0.176755 0.203001 0.389476
O O12 0.500000 0.000000 0.000000
O O13 0.500000 0.000000 0.500000
O O14 0.000000 0.500000 0.500000
#
# Coordination Sequence:
#
# PCOD9107721 Si02
#       6
#     2   2   2   2   2   2
#     4   9  20  39  70  92 127 174 221 272 325 390
#     4  10  20  40  65  93 130 165 221 268 333 388
#     4  11  23  44  66  98 134 170 223 269 328 395
#     4  11  24  37  64  96 130 172 212 272 331 397
#     4  12  26  42  68  98 137 176 217 271 330 396
#     4   9  18  40  69  93 130 171 221 273 327 385
#
# _framework density 29.637063999999999
#
# number of rings (size 3 to 8) (size 9 to 14) (size 15 to 20)
#    0.000    1.667    1.667    2.500    4.667    0.000 
#    0.000    8.333   14.667    0.000    0.000    0.000 
#    0.000    0.000    0.000    0.000    0.000    0.000 
#
# Total GULP energy -67238.876849 kJ/mol
# GULP energy per Si atom -5603.239737 kJ/mol
# Density = 2.956961 g / cm^3
# Si number density = 29.637064 Si / 1000 Ang^3
#
#
#
# Elastic Constant Matrix: (Units=GPa)
#
#
# Indices 1 2 3 4 5 6 
#
# 1 182.0725 36.9828 28.0538 -7.1292 0.6235 -28.7291
# 2 36.9828 103.2020 41.8769 -18.4664 -22.7531 -12.1370
# 3 28.0538 41.8769 229.7409 -34.3173 -41.1002 20.0398
# 4 -7.1292 -18.4664 -34.3173 49.1808 2.4157 8.4125
# 5 0.6235 -22.7531 -41.1002 2.4157 47.6399 -1.8832
# 6 -28.7291 -12.1370 20.0398 8.4125 -1.8832 57.0549
#
#
#
# Elastic Compliance Matrix: (Units=1/GPa)
#
#
# Indices 1 2 3 4 5 6 
#
# 1 0.006616 -0.002108 -0.001257 -0.001200 -0.001981 0.003436
# 2 -0.002108 0.012722 -0.000726 0.003432 0.005365 0.001571
# 3 -0.001257 -0.000726 0.006490 0.004442 0.004903 -0.003560
# 4 -0.001200 0.003432 0.004442 0.025209 0.004010 -0.005019
# 5 -0.001981 0.005365 0.004903 0.004010 0.027556 -0.001260
# 6 0.003436 0.001571 -0.003560 -0.005019 -0.001260 0.021540
#
#
# Mechanical properties :
#
#
# Convention : Reuss Voigt Hill
#
# Bulk Modulus (GPa) = 56.67377 80.98249 68.82813
# Shear Modulus (GPa) = 43.78442 57.98192 50.88317
#
# Velocity S-wave (km/s) = 3.84781 4.42792 4.14802
# Velocity P-wave (km/s) = 6.23738 7.31615 6.79820
#
# Compressibility (1/GPa) = 0.01764485
#
# Stress axis : x y z
#
# Youngs Moduli (GPa) = 151.14360 78.60669 154.09312
#
# Poissons Ratio (x) = 0.16573 0.19370
# Poissons Ratio (y) = 0.31866 0.11185
# Poissons Ratio (z) = 0.19000 0.05706
#
# Static dielectric constant tensor:
#      x y z
#    x 2.741260 -0.244190 0.028990 
#    y -0.244190 2.338720 -0.028120 
#    z 0.028990 -0.028120 2.247850 
# 
# From -- ./inp_files/25448.got.cif
#   From: 2010.05.17/outbox.cif.g08.bks.cpg/sg2_13_cif.got.tgz:25448.got - 2010.06.03 11:33:40.
