data_PCOD9107133
_publ_section_title
;
Structure prediction by ZEFSAII (Michael W. Deem and Ramdas Pophale) SiO2 
 PCOD9107133
Probable space group: P -1
;
_chemical_formula_sum "Si O2"
_cell_formula_units_Z 16
_cell_length_a 17.488272
_cell_length_b 9.693817
_cell_length_c 9.763102
_cell_angle_alpha 43.076366
_cell_angle_beta 54.797612
_cell_angle_gamma 77.304292
_cell_volume 861.490216
_symmetry_space_group_name_H-M "P -1"
_symmetry_group_IT_number 2
_symmetry_cell_setting 'triclinic'
loop_
_space_group_symop_operation_xyz
x,y,z
-x,-y,-z
loop_
_atom_site_type_symbol
_atom_site_label
_atom_site_fract_x
_atom_site_fract_y
_atom_site_fract_z
Si Si1 0.381208 0.830489 0.638960
Si Si2 0.991900 0.625326 0.558271
Si Si3 0.144466 0.543337 0.665820
Si Si4 0.627421 0.192179 0.821425
Si Si5 0.004732 0.932611 0.886411
Si Si6 0.159024 0.697582 0.853457
Si Si7 0.467497 0.704767 0.885514
Si Si8 0.501741 0.740164 0.340348
O O1 0.276014 0.784852 0.706622
O O2 0.378754 0.707457 0.873171
O O3 0.457658 0.760382 0.518406
O O4 0.436865 0.087730 0.409753
O O5 0.080726 0.635498 0.563174
O O6 0.000000 0.500000 0.500000
O O7 0.993059 0.861249 0.351432
O O8 0.893963 0.485870 0.846121
O O9 0.258523 0.649825 0.420927
O O10 0.140734 0.608555 0.781387
O O11 0.090630 0.283918 0.893276
O O12 0.574797 0.214298 0.718977
O O13 0.567362 0.259476 0.953834
O O14 0.606365 0.938270 0.058653
O O15 0.102254 0.867884 0.806853
O O16 0.000000 0.000000 0.000000
O O17 0.500000 0.500000 0.000000
O O18 0.500000 0.500000 0.500000
#
# Coordination Sequence:
#
# PCOD9107133 Si02
#       8
#     2   2   2   2   2   2   2   2
#     4  10  22  40  61  89 127 161 206 255 313 364
#     4  11  23  43  66  90 124 166 209 263 324 377
#     4  11  24  42  64  96 130 163 215 266 316 378
#     4  10  22  38  62  90 126 160 205 254 307 371
#     4  11  23  42  67  92 125 166 211 264 323 378
#     4  11  24  42  64  94 131 163 211 272 311 380
#     4  10  22  39  60  92 125 164 205 257 307 371
#     4  10  20  40  63  87 126 165 201 250 308 370
#
# _framework density 18.572469999999999
#
# number of rings (size 3 to 8) (size 9 to 14) (size 15 to 20)
#    0.000    1.500    3.750    2.250    1.750    5.000 
#    2.250    0.000    0.000    0.000    0.000    0.000 
#    0.000    0.000    0.000    0.000    0.000    0.000 
#
# Total GULP energy -89262.560477 kJ/mol
# GULP energy per Si atom -5578.910030 kJ/mol
# Density = 1.853020 g / cm^3
# Si number density = 18.572470 Si / 1000 Ang^3
#
#
#
# Elastic Constant Matrix: (Units=GPa)
#
#
# Indices 1 2 3 4 5 6 
#
# 1 83.6409 40.4414 55.3583 -19.8056 -7.5581 12.2361
# 2 40.4414 114.3519 49.1657 -17.9867 7.5428 3.0221
# 3 55.3583 49.1657 107.2895 -19.1695 8.2731 -15.6568
# 4 -19.8056 -17.9867 -19.1695 39.1055 -4.8100 17.6334
# 5 -7.5581 7.5428 8.2731 -4.8100 34.9880 -2.1646
# 6 12.2361 3.0221 -15.6568 17.6334 -2.1646 33.1748
#
#
#
# Elastic Compliance Matrix: (Units=1/GPa)
#
#
# Indices 1 2 3 4 5 6 
#
# 1 0.043358 0.000171 -0.024401 0.031641 0.016774 -0.043247
# 2 0.000171 0.012303 -0.005607 0.006103 -0.000892 -0.007132
# 3 -0.024401 -0.005607 0.026736 -0.016865 -0.010823 0.030387
# 4 0.031641 0.006103 -0.016865 0.061312 0.014731 -0.051814
# 5 0.016774 -0.000892 -0.010823 0.014731 0.035948 -0.016697
# 6 -0.043247 -0.007132 0.030387 -0.051814 -0.016697 0.087536
#
#
# Mechanical properties :
#
#
# Convention : Reuss Voigt Hill
#
# Bulk Modulus (GPa) = 44.01136 66.13479 55.07308
# Shear Modulus (GPa) = 14.95021 32.14144 23.54582
#
# Velocity S-wave (km/s) = 2.84027 4.16456 3.56445
# Velocity P-wave (km/s) = 5.87407 7.66884 6.83066
#
# Compressibility (1/GPa) = 0.02272140
#
# Stress axis : x y z
#
# Youngs Moduli (GPa) = 23.06371 81.28281 37.40257
#
# Poissons Ratio (x) = -0.01387 0.91266
# Poissons Ratio (y) = -0.00394 0.20973
# Poissons Ratio (z) = 0.56278 0.45579
#
# Static dielectric constant tensor:
#      x y z
#    x 1.629720 0.021310 -0.007560 
#    y 0.021310 1.635330 -0.008170 
#    z -0.007560 -0.008170 1.654180 
# 
# From -- ./inp_files/201115.got.cif
#   From: 2010.05.17/outbox.cif.g08.bks.cpg/sg2_101_cif.got.tgz:201115.got - 2010.06.03 11:33:40.
