data_PCOD9107945
_publ_section_title
;
Structure prediction by ZEFSAII (Michael W. Deem and Ramdas Pophale) SiO2 
 PCOD9107945
Probable space group: P -1
;
_chemical_formula_sum "Si O2"
_cell_formula_units_Z 14
_cell_length_a 15.950933
_cell_length_b 8.503317
_cell_length_c 16.858747
_cell_angle_alpha 44.060220
_cell_angle_beta 161.491062
_cell_angle_gamma 137.536402
_cell_volume 488.130742
_symmetry_space_group_name_H-M "P -1"
_symmetry_group_IT_number 2
_symmetry_cell_setting 'triclinic'
loop_
_space_group_symop_operation_xyz
x,y,z
-x,-y,-z
loop_
_atom_site_type_symbol
_atom_site_label
_atom_site_fract_x
_atom_site_fract_y
_atom_site_fract_z
Si Si1 0.420844 0.731195 0.508797
Si Si2 0.937023 0.643539 0.201914
Si Si3 0.648034 0.434884 0.735566
Si Si4 0.782978 0.098879 0.883228
Si Si5 0.379270 0.284046 0.832024
Si Si6 0.217227 0.754415 0.565746
Si Si7 0.661392 0.952778 0.284387
O O1 0.230044 0.608458 0.452788
O O2 0.689845 0.660584 0.747333
O O3 0.229380 0.729282 0.262132
O O4 0.500000 0.000000 0.500000
O O5 0.965100 0.715083 0.293373
O O6 0.697432 0.421589 0.046548
O O7 0.899492 0.881921 0.044188
O O8 0.500000 0.500000 0.500000
O O9 0.856471 0.277799 0.958972
O O10 0.428023 0.265885 0.657642
O O11 0.469910 0.952449 0.682371
O O12 0.298319 0.506234 0.721084
O O13 0.262358 0.147409 0.694976
O O14 0.418633 0.077096 0.000273
O O15 0.160477 0.847700 0.568219
#
# Coordination Sequence:
#
# PCOD9107945 Si02
#       7
#     2   2   2   2   2   2   2
#     4  11  20  37  65  90 128 176 213 269 331 384
#     4  11  22  38  67 100 126 172 222 270 321 395
#     4   9  20  39  64  89 122 170 211 260 323 385
#     4   9  20  39  60  91 132 167 218 264 327 385
#     4  10  23  42  64  96 132 174 219 268 326 391
#     4  10  20  40  66  91 131 171 215 270 331 383
#     4  10  21  42  67  90 133 177 213 268 331 390
#
# _framework density 28.680841000000001
#
# number of rings (size 3 to 8) (size 9 to 14) (size 15 to 20)
#    0.000    2.000    1.429    1.714    2.000    0.571 
#    0.000   20.000    0.000    0.000    0.000    0.000 
#    0.000    0.000    0.000    0.000    0.000    0.000 
#
# Total GULP energy -78157.161436 kJ/mol
# GULP energy per Si atom -5582.654388 kJ/mol
# Density = 2.861556 g / cm^3
# Si number density = 28.680841 Si / 1000 Ang^3
#
#
#
# Elastic Constant Matrix: (Units=GPa)
#
#
# Indices 1 2 3 4 5 6 
#
# 1 173.9947 37.1898 29.0797 -12.7371 -3.7481 -44.5004
# 2 37.1898 123.1718 21.3880 -15.2144 -2.8294 -36.5240
# 3 29.0797 21.3880 73.2271 -6.2758 -13.2788 -20.3519
# 4 -12.7371 -15.2144 -6.2758 54.7789 -4.9691 -4.2305
# 5 -3.7481 -2.8294 -13.2788 -4.9691 56.6692 -14.3529
# 6 -44.5004 -36.5240 -20.3519 -4.2305 -14.3529 67.1540
#
#
#
# Elastic Compliance Matrix: (Units=1/GPa)
#
#
# Indices 1 2 3 4 5 6 
#
# 1 0.007432 -0.000313 -0.001009 0.002058 0.001670 0.004936
# 2 -0.000313 0.010594 -0.000584 0.003472 0.002213 0.006069
# 3 -0.001009 -0.000584 0.016956 0.002466 0.005481 0.005479
# 4 0.002058 0.003472 0.002466 0.020851 0.004294 0.006231
# 5 0.001670 0.002213 0.005481 0.004294 0.021782 0.008897
# 6 0.004936 0.006069 0.005479 0.006231 0.008897 0.025418
#
#
# Mechanical properties :
#
#
# Convention : Reuss Voigt Hill
#
# Bulk Modulus (GPa) = 32.08266 60.63427 46.35846
# Shear Modulus (GPa) = 42.64991 54.56949 48.60970
#
# Velocity S-wave (km/s) = 3.86042 4.36667 4.12132
# Velocity P-wave (km/s) = 5.57501 6.82720 6.23263
#
# Compressibility (1/GPa) = 0.03116949
#
# Stress axis : x y z
#
# Youngs Moduli (GPa) = 134.55900 94.39207 58.97769
#
# Poissons Ratio (x) = 0.02950 0.05951
# Poissons Ratio (y) = 0.04206 0.03447
# Poissons Ratio (z) = 0.13577 0.05516
#
# Static dielectric constant tensor:
#      x y z
#    x 2.554460 -0.024120 -0.053800 
#    y -0.024120 2.356980 0.114420 
#    z -0.053800 0.114420 2.368480 
# 
# From -- ./inp_files/565116.got.cif
#   From: 2010.05.17/outbox.cif.g08.bks.cpg/sg2_283_cif.got.tgz:565116.got - 2010.06.03 11:33:40.
