data_PCOD9107859
_publ_section_title
;
Structure prediction by ZEFSAII (Michael W. Deem and Ramdas Pophale) SiO2 
 PCOD9107859
Probable space group: P -1
;
_chemical_formula_sum "Si O2"
_cell_formula_units_Z 16
_cell_length_a 9.411059
_cell_length_b 11.421507
_cell_length_c 21.480787
_cell_angle_alpha 140.304320
_cell_angle_beta 149.512090
_cell_angle_gamma 50.317941
_cell_volume 746.071875
_symmetry_space_group_name_H-M "P -1"
_symmetry_group_IT_number 2
_symmetry_cell_setting 'triclinic'
loop_
_space_group_symop_operation_xyz
x,y,z
-x,-y,-z
loop_
_atom_site_type_symbol
_atom_site_label
_atom_site_fract_x
_atom_site_fract_y
_atom_site_fract_z
Si Si1 0.438841 0.133351 0.208594
Si Si2 0.942830 0.576583 0.940990
Si Si3 0.895358 0.000007 0.801913
Si Si4 0.556981 0.567906 0.142426
Si Si5 0.686118 0.973281 0.348536
Si Si6 0.915241 0.235826 0.107723
Si Si7 0.933338 0.216500 0.337331
Si Si8 0.326240 0.432640 0.665586
O O1 0.639154 0.161482 0.237399
O O2 0.195207 0.269271 0.185066
O O3 0.634273 0.124233 0.338791
O O4 0.274247 0.932772 0.062466
O O5 0.630743 0.490690 0.773660
O O6 0.000000 0.500000 0.000000
O O7 0.962644 0.798975 0.044330
O O8 0.221980 0.526765 0.989452
O O9 0.561437 0.009339 0.687487
O O10 0.988090 0.851469 0.826223
O O11 0.981546 0.938060 0.741126
O O12 0.641707 0.762896 0.222929
O O13 0.738670 0.407807 0.122318
O O14 0.621534 0.594051 0.252053
O O15 0.000000 0.000000 0.500000
O O16 0.873843 0.399735 0.351040
O O17 0.167546 0.267860 0.499283
#
# Coordination Sequence:
#
# PCOD9107859 Si02
#       8
#     2   2   2   2   2   2   2   2
#     4  10  23  39  62  92 125 156 206 257 301 358
#     4   9  20  36  58  91 121 158 199 252 297 359
#     4  10  21  40  68  89 120 166 210 244 308 366
#     4  10  20  40  66  86 120 164 208 245 303 367
#     4  10  22  44  60  86 127 167 197 248 310 373
#     4  10  21  41  65  92 116 162 212 253 300 358
#     4  11  22  38  63  96 126 156 202 260 305 360
#     4  10  21  38  59  96 129 153 201 260 306 354
#
# _framework density 21.445654000000001
#
# number of rings (size 3 to 8) (size 9 to 14) (size 15 to 20)
#    0.000    2.000    1.250    1.500    3.500    2.500 
#    6.750    8.125    0.000    0.000    0.000    0.000 
#    0.000    0.000    0.000    0.000    0.000    0.000 
#
# Total GULP energy -89381.692098 kJ/mol
# GULP energy per Si atom -5586.355756 kJ/mol
# Density = 2.139684 g / cm^3
# Si number density = 21.445654 Si / 1000 Ang^3
#
#
#
# Elastic Constant Matrix: (Units=GPa)
#
#
# Indices 1 2 3 4 5 6 
#
# 1 108.2646 46.5770 39.8504 1.0183 1.0695 -28.3583
# 2 46.5770 106.5094 24.7527 -5.9057 3.8205 -38.6992
# 3 39.8504 24.7527 96.8914 -29.3031 14.2891 -24.5003
# 4 1.0183 -5.9057 -29.3031 27.3496 1.8379 1.9823
# 5 1.0695 3.8205 14.2891 1.8379 28.2155 -5.0031
# 6 -28.3583 -38.6992 -24.5003 1.9823 -5.0031 42.6301
#
#
#
# Elastic Compliance Matrix: (Units=1/GPa)
#
#
# Indices 1 2 3 4 5 6 
#
# 1 0.015056 -0.004692 -0.008851 -0.011571 0.005632 0.001868
# 2 -0.004692 0.015605 0.003218 0.006213 -0.001771 0.012398
# 3 -0.008851 0.003218 0.026485 0.029657 -0.013803 0.009256
# 4 -0.011571 0.006213 0.029657 0.070651 -0.018331 0.009551
# 5 0.005632 -0.001771 -0.013803 -0.018331 0.043685 0.000185
# 6 0.001868 0.012398 0.009256 0.009551 0.000185 0.040852
#
#
# Mechanical properties :
#
#
# Convention : Reuss Voigt Hill
#
# Bulk Modulus (GPa) = 27.40013 59.33616 43.36815
# Shear Modulus (GPa) = 20.39574 33.00474 26.70024
#
# Velocity S-wave (km/s) = 3.08724 3.92726 3.53231
# Velocity P-wave (km/s) = 5.05098 6.94929 6.07475
#
# Compressibility (1/GPa) = 0.03649618
#
# Stress axis : x y z
#
# Youngs Moduli (GPa) = 66.42047 64.08016 37.75786
#
# Poissons Ratio (x) = 0.30064 0.33421
# Poissons Ratio (y) = 0.31162 -0.12151
# Poissons Ratio (z) = 0.58791 -0.20622
#
# Static dielectric constant tensor:
#      x y z
#    x 1.801420 0.037560 -0.019860 
#    y 0.037560 1.786890 -0.038440 
#    z -0.019860 -0.038440 1.801520 
# 
# From -- ./inp_files/186710.got.cif
#   From: 2010.05.17/outbox.cif.g08.bks.cpg/sg2_94_cif.got.tgz:186710.got - 2010.06.03 11:33:40.
