data_PCOD9107347
_publ_section_title
;
Structure prediction by ZEFSAII (Michael W. Deem and Ramdas Pophale) SiO2 
 PCOD9107347
Probable space group: P -1
;
_chemical_formula_sum "Si O2"
_cell_formula_units_Z 14
_cell_length_a 12.028883
_cell_length_b 11.550278
_cell_length_c 14.505158
_cell_angle_alpha 118.509672
_cell_angle_beta 152.787198
_cell_angle_gamma 81.628923
_cell_volume 583.035922
_symmetry_space_group_name_H-M "P -1"
_symmetry_group_IT_number 2
_symmetry_cell_setting 'triclinic'
loop_
_space_group_symop_operation_xyz
x,y,z
-x,-y,-z
loop_
_atom_site_type_symbol
_atom_site_label
_atom_site_fract_x
_atom_site_fract_y
_atom_site_fract_z
Si Si1 0.821355 0.059421 0.478455
Si Si2 0.030399 0.736868 0.726274
Si Si3 0.752049 0.883250 0.685330
Si Si4 0.134434 0.478859 0.310710
Si Si5 0.141913 0.262190 0.082517
Si Si6 0.062298 0.657604 0.194609
Si Si7 0.100695 0.875991 0.642729
O O1 0.831378 0.176401 0.605103
O O2 0.984716 0.176122 0.547979
O O3 0.998510 0.992508 0.620846
O O4 0.433748 0.885988 0.098885
O O5 0.947048 0.725805 0.552681
O O6 0.878149 0.809213 0.690445
O O7 0.913258 0.566667 0.634790
O O8 0.376227 0.733242 0.389942
O O9 0.000000 0.000000 0.000000
O O10 0.833437 0.049641 0.755018
O O11 0.109544 0.332465 0.179551
O O12 0.502936 0.679055 0.638309
O O13 0.911402 0.495510 0.093312
O O14 0.194654 0.387403 0.088311
O O15 0.500000 0.000000 0.000000
#
# Coordination Sequence:
#
# PCOD9107347 Si02
#       7
#     2   2   2   2   2   2   2
#     4  10  20  40  64  87 112 144 199 248 282 339
#     4  11  21  37  61  87 120 156 189 235 292 342
#     4  12  19  37  59  87 123 152 191 242 282 330
#     4  11  22  37  52  82 127 157 189 235 282 351
#     4  11  22  36  54  81 120 165 197 230 283 339
#     4  12  23  36  59  88 120 158 194 234 289 347
#     4   9  21  39  64  88 108 145 195 248 294 333
#
# _framework density 24.012242000000001
#
# number of rings (size 3 to 8) (size 9 to 14) (size 15 to 20)
#    0.000    1.143    4.286    2.571    0.000    3.429 
#    0.000    0.714    0.000    8.571    0.000    0.000 
#    0.000    0.000    0.000    0.000    0.000    0.000 
#
# Total GULP energy -78170.766585 kJ/mol
# GULP energy per Si atom -5583.626185 kJ/mol
# Density = 2.395759 g / cm^3
# Si number density = 24.012242 Si / 1000 Ang^3
#
#
#
# Elastic Constant Matrix: (Units=GPa)
#
#
# Indices 1 2 3 4 5 6 
#
# 1 77.0406 49.7249 5.0216 -10.6922 7.7913 33.9021
# 2 49.7249 138.4409 19.3593 -15.4287 4.8802 40.5532
# 3 5.0216 19.3593 36.9968 -10.5623 8.2782 -3.6824
# 4 -10.6922 -15.4287 -10.5623 33.6577 2.1786 2.6837
# 5 7.7913 4.8802 8.2782 2.1786 20.5057 -10.7650
# 6 33.9021 40.5532 -3.6824 2.6837 -10.7650 57.4211
#
#
#
# Elastic Compliance Matrix: (Units=1/GPa)
#
#
# Indices 1 2 3 4 5 6 
#
# 1 0.025907 -0.002742 0.004068 0.011028 -0.021243 -0.017596
# 2 -0.002742 0.011809 -0.004392 0.004109 -0.004669 -0.008070
# 3 0.004068 -0.004392 0.035714 0.011605 -0.016489 -0.000643
# 4 0.011028 0.004109 0.011605 0.041336 -0.021973 -0.014720
# 5 -0.021243 -0.004669 -0.016489 -0.021973 0.083453 0.031454
# 6 -0.017596 -0.008070 -0.000643 -0.014720 0.031454 0.040047
#
#
# Mechanical properties :
#
#
# Convention : Reuss Voigt Hill
#
# Bulk Modulus (GPa) = 14.85920 44.52111 29.69016
# Shear Modulus (GPa) = 18.73847 34.20839 26.47343
#
# Velocity S-wave (km/s) = 2.79654 3.77851 3.32399
# Velocity P-wave (km/s) = 4.07789 6.13331 5.20800
#
# Compressibility (1/GPa) = 0.06729836
#
# Stress axis : x y z
#
# Youngs Moduli (GPa) = 38.59989 84.68230 27.99995
#
# Poissons Ratio (x) = 0.23218 -0.11392
# Poissons Ratio (y) = 0.10583 0.12299
# Poissons Ratio (z) = -0.15704 0.37196
#
# Static dielectric constant tensor:
#      x y z
#    x 1.931490 0.079950 0.043340 
#    y 0.079950 2.092010 -0.017350 
#    z 0.043340 -0.017350 1.925120 
# 
# From -- ./inp_files/253360.got.cif
#   From: 2010.05.17/outbox.cif.g08.bks.cpg/sg2_127_cif.got.tgz:253360.got - 2010.06.03 11:33:40.
