data_PCOD9107115
_publ_section_title
;
Structure prediction by ZEFSAII (Michael W. Deem and Ramdas Pophale) SiO2 
 PCOD9107115
Probable space group: P -1
;
_chemical_formula_sum "Si O2"
_cell_formula_units_Z 16
_cell_length_a 21.728684
_cell_length_b 9.100857
_cell_length_c 6.618110
_cell_angle_alpha 129.958756
_cell_angle_beta 136.931789
_cell_angle_gamma 64.197011
_cell_volume 683.581096
_symmetry_space_group_name_H-M "P -1"
_symmetry_group_IT_number 2
_symmetry_cell_setting 'triclinic'
loop_
_space_group_symop_operation_xyz
x,y,z
-x,-y,-z
loop_
_atom_site_type_symbol
_atom_site_label
_atom_site_fract_x
_atom_site_fract_y
_atom_site_fract_z
Si Si1 0.153122 0.811638 0.262267
Si Si2 0.508828 0.227651 0.707891
Si Si3 0.041467 0.295449 0.416719
Si Si4 0.789902 0.516360 0.167611
Si Si5 0.330286 0.757949 0.199512
Si Si6 0.437035 0.534393 0.567812
Si Si7 0.898585 0.951256 0.296222
Si Si8 0.749313 0.892704 0.542092
O O1 0.140858 0.872511 0.517088
O O2 0.215675 0.972996 0.441093
O O3 0.189135 0.607623 0.095425
O O4 0.050981 0.831812 0.954303
O O5 0.602016 0.278748 0.851138
O O6 0.429930 0.331232 0.490778
O O7 0.500000 0.000000 0.500000
O O8 0.517318 0.323029 0.030670
O O9 0.119114 0.340237 0.477208
O O10 0.000000 0.500000 0.500000
O O11 0.089068 0.217360 0.659462
O O12 0.721509 0.682459 0.203663
O O13 0.768990 0.353346 0.143471
O O14 0.359802 0.653033 0.385289
O O15 0.327394 0.983562 0.431653
O O16 0.500000 0.500000 0.500000
O O17 0.000000 0.000000 0.500000
O O18 0.825557 0.894676 0.900728
#
# Coordination Sequence:
#
# PCOD9107115 Si02
#       8
#     2   2   2   2   2   2   2   2
#     4  10  21  42  62  86 128 164 221 285 324 377
#     4  10  22  43  72 105 131 160 218 256 304 386
#     4  10  20  40  63  86 122 169 220 275 331 378
#     4  10  22  42  61  87 132 174 208 265 325 386
#     4  10  24  42  64  97 138 169 206 263 322 381
#     4   9  21  43  71 101 134 169 201 255 313 379
#     4  12  22  38  68  92 121 169 227 285 322 376
#     4  11  23  41  63  93 129 172 222 265 326 386
#
# _framework density 23.406146
#
# number of rings (size 3 to 8) (size 9 to 14) (size 15 to 20)
#    0.000    1.750    2.500    1.125    0.000    8.000 
#   13.500    3.750    0.000    0.000    0.000    0.000 
#    0.000    0.000    0.000    0.000    0.000    0.000 
#
# Total GULP energy -89082.987707 kJ/mol
# GULP energy per Si atom -5567.686732 kJ/mol
# Density = 2.335287 g / cm^3
# Si number density = 23.406146 Si / 1000 Ang^3
#
#
#
# Elastic Constant Matrix: (Units=GPa)
#
#
# Indices 1 2 3 4 5 6 
#
# 1 121.2601 23.5611 38.0079 7.7676 -26.2149 -12.6267
# 2 23.5611 163.9373 63.1075 6.4668 -25.2355 -21.9514
# 3 38.0079 63.1075 76.3467 -5.0056 -35.5994 -13.1470
# 4 7.7676 6.4668 -5.0056 43.5848 -7.4679 -11.0940
# 5 -26.2149 -25.2355 -35.5994 -7.4679 35.2321 20.3193
# 6 -12.6267 -21.9514 -13.1470 -11.0940 20.3193 39.7327
#
#
#
# Elastic Compliance Matrix: (Units=1/GPa)
#
#
# Indices 1 2 3 4 5 6 
#
# 1 0.010309 0.000758 -0.004206 -0.001828 0.003606 -0.000051
# 2 0.000758 0.010027 -0.011351 -0.002912 -0.007148 0.004867
# 3 -0.004206 -0.011351 0.042066 0.011322 0.039970 -0.010968
# 4 -0.001828 -0.002912 0.011322 0.027876 0.012078 0.003163
# 5 0.003606 -0.007148 0.039970 0.012078 0.086428 -0.030405
# 6 -0.000051 0.004867 -0.010968 0.003163 -0.030405 0.040644
#
#
# Mechanical properties :
#
#
# Convention : Reuss Voigt Hill
#
# Bulk Modulus (GPa) = 30.48525 67.87747 49.18136
# Shear Modulus (GPa) = 19.38863 39.50109 29.44486
#
# Velocity S-wave (km/s) = 2.88124 4.11254 3.55067
# Velocity P-wave (km/s) = 4.91136 7.18425 6.15366
#
# Compressibility (1/GPa) = 0.03280275
#
# Stress axis : x y z
#
# Youngs Moduli (GPa) = 97.00188 99.73189 23.77227
#
# Poissons Ratio (x) = -0.07557 0.09999
# Poissons Ratio (y) = -0.07350 0.26985
# Poissons Ratio (z) = 0.40799 1.13208
#
# Static dielectric constant tensor:
#      x y z
#    x 1.918240 0.411490 0.536010 
#    y 0.411490 0.093680 -1.412370 
#    z 0.536010 -1.412370 1.062740 
# 
# From -- ./inp_files/117501.got.cif
#   From: 2010.05.17/outbox.cif.g08.bks.cpg/sg2_59_cif.got.tgz:117501.got - 2010.06.03 11:33:40.
