data_PCOD9107410
_publ_section_title
;
Structure prediction by ZEFSAII (Michael W. Deem and Ramdas Pophale) SiO2 
 PCOD9107410
Probable space group: P -1
;
_chemical_formula_sum "Si O2"
_cell_formula_units_Z 14
_cell_length_a 9.947738
_cell_length_b 11.441393
_cell_length_c 14.583727
_cell_angle_alpha 27.212242
_cell_angle_beta 60.327207
_cell_angle_gamma 75.989989
_cell_volume 571.620775
_symmetry_space_group_name_H-M "P -1"
_symmetry_group_IT_number 2
_symmetry_cell_setting 'triclinic'
loop_
_space_group_symop_operation_xyz
x,y,z
-x,-y,-z
loop_
_atom_site_type_symbol
_atom_site_label
_atom_site_fract_x
_atom_site_fract_y
_atom_site_fract_z
Si Si1 0.577301 0.296126 0.075918
Si Si2 0.316152 0.768847 0.268522
Si Si3 0.198916 0.760816 0.589899
Si Si4 0.826834 0.552066 0.646170
Si Si5 0.091178 0.325008 0.784009
Si Si6 0.138089 0.073246 0.228527
Si Si7 0.705849 0.262900 0.237504
O O1 0.723033 0.301370 0.094762
O O2 0.411555 0.965779 0.357617
O O3 0.500000 0.500000 0.000000
O O4 0.659394 0.414814 0.866214
O O5 0.212229 0.552849 0.370710
O O6 0.282372 0.537271 0.522596
O O7 0.240923 0.967459 0.198794
O O8 0.500000 0.000000 0.000000
O O9 0.128333 0.433567 0.801267
O O10 0.178406 0.782145 0.690839
O O11 0.122112 0.922221 0.439332
O O12 0.955068 0.432170 0.721918
O O13 0.938682 0.903939 0.373048
O O14 0.000000 0.000000 0.000000
O O15 0.254831 0.417819 0.964259
O O16 0.500000 0.000000 0.500000
#
# Coordination Sequence:
#
# PCOD9107410 Si02
#       7
#     2   2   2   2   2   2   2
#     4  11  21  41  64  88 125 169 217 261 305 379
#     4  10  21  39  65  92 122 168 212 254 326 395
#     4   9  20  39  63  86 125 163 209 261 312 382
#     4  10  22  39  64  93 124 165 213 257 329 379
#     4  10  22  41  62  94 134 159 204 274 325 381
#     4  10  20  40  64  90 126 162 206 269 320 377
#     4  10  22  37  65  89 123 171 211 260 316 368
#
# _framework density 24.491765000000001
#
# number of rings (size 3 to 8) (size 9 to 14) (size 15 to 20)
#    0.000    2.286    1.429    3.429    4.000    0.571 
#    5.143    4.286    0.000    0.000    0.000    0.000 
#    0.000    0.000    0.000    0.000    0.000    0.000 
#
# Total GULP energy -78086.406056 kJ/mol
# GULP energy per Si atom -5577.600433 kJ/mol
# Density = 2.443602 g / cm^3
# Si number density = 24.491765 Si / 1000 Ang^3
#
#
#
# Elastic Constant Matrix: (Units=GPa)
#
#
# Indices 1 2 3 4 5 6 
#
# 1 44.2038 33.3620 3.1166 -5.0685 2.2175 31.0394
# 2 33.3620 145.8128 64.1183 -22.6269 -6.0450 22.0563
# 3 3.1166 64.1183 135.9544 -31.0492 -13.5039 -6.0740
# 4 -5.0685 -22.6269 -31.0492 61.1482 11.6451 -9.6446
# 5 2.2175 -6.0450 -13.5039 11.6451 26.3492 0.5347
# 6 31.0394 22.0563 -6.0740 -9.6446 0.5347 48.1882
#
#
#
# Elastic Compliance Matrix: (Units=1/GPa)
#
#
# Indices 1 2 3 4 5 6 
#
# 1 0.047422 -0.007280 0.000202 -0.002251 -0.004003 -0.027594
# 2 -0.007280 0.010874 -0.004776 0.000821 0.000312 -0.000729
# 3 0.000202 -0.004776 0.010963 0.003971 0.002665 0.004203
# 4 -0.002251 0.000821 0.003971 0.020707 -0.006856 0.005795
# 5 -0.004003 0.000312 0.002665 -0.006856 0.042738 0.000925
# 6 -0.027594 -0.000729 0.004203 0.005795 0.000925 0.040539
#
#
# Mechanical properties :
#
#
# Convention : Reuss Voigt Hill
#
# Bulk Modulus (GPa) = 21.95345 58.57387 40.26366
# Shear Modulus (GPa) = 23.56998 42.16205 32.86601
#
# Velocity S-wave (km/s) = 3.10556 4.15357 3.66720
# Velocity P-wave (km/s) = 4.67359 6.85351 5.86570
#
# Compressibility (1/GPa) = 0.04555092
#
# Stress axis : x y z
#
# Youngs Moduli (GPa) = 21.08736 91.95837 91.21931
#
# Poissons Ratio (x) = 0.66946 -0.01841
# Poissons Ratio (y) = 0.15352 0.43564
# Poissons Ratio (z) = -0.00426 0.43917
#
# Static dielectric constant tensor:
#      x y z
#    x 2.044510 0.004540 0.010460 
#    y 0.004540 1.950950 0.020130 
#    z 0.010460 0.020130 2.092690 
# 
# From -- ./inp_files/519476.got.cif
#   From: 2010.05.17/outbox.cif.g08.bks.cpg/sg2_260_cif.got.tgz:519476.got - 2010.06.03 11:33:40.
