data_PCOD9107197
_publ_section_title
;
Structure prediction by ZEFSAII (Michael W. Deem and Ramdas Pophale) SiO2 
 PCOD9107197
Probable space group: P -1
;
_chemical_formula_sum "Si O2"
_cell_formula_units_Z 15
_cell_length_a 12.096316
_cell_length_b 9.239608
_cell_length_c 16.817289
_cell_angle_alpha 30.072538
_cell_angle_beta 136.704583
_cell_angle_gamma 124.832796
_cell_volume 636.401577
_symmetry_space_group_name_H-M "P -1"
_symmetry_group_IT_number 2
_symmetry_cell_setting 'triclinic'
loop_
_space_group_symop_operation_xyz
x,y,z
-x,-y,-z
loop_
_atom_site_type_symbol
_atom_site_label
_atom_site_fract_x
_atom_site_fract_y
_atom_site_fract_z
Si Si1 0.769419 0.671347 0.396327
Si Si2 0.158509 0.153055 0.196067
Si Si3 0.500000 0.000000 0.500000
Si Si4 0.823318 0.911820 0.937194
Si Si5 0.075821 0.692731 0.644719
Si Si6 0.587238 0.093817 0.869297
Si Si7 0.344020 0.565743 0.713680
Si Si8 0.829914 0.204244 0.075086
O O1 0.746948 0.493152 0.388839
O O2 0.926235 0.572816 0.579371
O O3 0.593759 0.725120 0.321469
O O4 0.794020 0.987991 0.226827
O O5 0.990255 0.058935 0.178777
O O6 0.303064 0.085655 0.366388
O O7 0.224242 0.012978 0.214102
O O8 0.124024 0.502926 0.003953
O O9 0.492232 0.731624 0.689146
O O10 0.845199 0.563801 0.132090
O O11 0.692630 0.069339 0.856363
O O12 0.000000 0.000000 0.000000
O O13 0.214003 0.716753 0.639172
O O14 0.000000 0.000000 0.500000
O O15 0.589098 0.761853 0.060383
O O16 0.681865 0.242459 0.916581
#
# Coordination Sequence:
#
# PCOD9107197 Si02
#       8
#     2   2   1   2   2   2   2   2
#     4  11  21  40  68  95 123 168 222 276 313 378
#     4  11  23  38  64  91 129 165 211 267 317 383
#     4  12  24  38  62 100 122 158 220 270 318 356
#     4  11  24  44  64  92 133 179 210 255 334 401
#     4  11  25  43  66  96 131 174 219 264 328 392
#     4  10  21  42  67  94 128 171 220 261 329 389
#     4  10  23  41  65  91 133 169 214 270 325 390
#     4  10  20  40  63  91 124 169 212 261 322 380
#
# _framework density 23.570022999999999
#
# number of rings (size 3 to 8) (size 9 to 14) (size 15 to 20)
#    0.000    1.333    1.333    5.200    1.867    2.133 
#    2.400    4.000    0.000    0.000    0.000    0.000 
#    0.000    0.000    0.000    0.000    0.000    0.000 
#
# Total GULP energy -83689.893282 kJ/mol
# GULP energy per Si atom -5579.326219 kJ/mol
# Density = 2.351638 g / cm^3
# Si number density = 23.570023 Si / 1000 Ang^3
#
#
#
# Elastic Constant Matrix: (Units=GPa)
#
#
# Indices 1 2 3 4 5 6 
#
# 1 158.0212 26.3386 24.8280 -11.3973 20.0797 8.1598
# 2 26.3386 46.3337 -2.4904 -12.8964 7.6452 11.8505
# 3 24.8280 -2.4904 32.8792 -1.8499 18.0210 -0.9466
# 4 -11.3973 -12.8964 -1.8499 37.3093 -1.3884 6.1993
# 5 20.0797 7.6452 18.0210 -1.3884 23.6697 1.0868
# 6 8.1598 11.8505 -0.9466 6.1993 1.0868 45.0579
#
#
#
# Elastic Compliance Matrix: (Units=1/GPa)
#
#
# Indices 1 2 3 4 5 6 
#
# 1 0.008220 -0.004547 -0.006083 0.000690 -0.000810 -0.000496
# 2 -0.004547 0.033682 0.016545 0.011859 -0.018515 -0.008873
# 3 -0.006083 0.016545 0.062484 0.005453 -0.047365 -0.001545
# 4 0.000690 0.011859 0.005453 0.032383 -0.006326 -0.007432
# 5 -0.000810 -0.018515 -0.047365 -0.006326 0.084475 0.002854
# 6 -0.000496 -0.008873 -0.001545 -0.007432 0.002854 0.025538
#
#
# Mechanical properties :
#
#
# Convention : Reuss Voigt Hill
#
# Bulk Modulus (GPa) = 8.60479 37.17630 22.89054
# Shear Modulus (GPa) = 18.26869 33.77789 26.02329
#
# Velocity S-wave (km/s) = 2.78705 3.78972 3.32638
# Velocity P-wave (km/s) = 3.74373 5.91238 4.94832
#
# Compressibility (1/GPa) = 0.11621434
#
# Stress axis : x y z
#
# Youngs Moduli (GPa) = 121.65022 29.68960 16.00407
#
# Poissons Ratio (x) = 0.13501 0.09736
# Poissons Ratio (y) = 0.55318 -0.26478
# Poissons Ratio (z) = 0.74003 -0.49120
#
# Static dielectric constant tensor:
#      x y z
#    x 1.861120 -0.005710 -0.055410 
#    y -0.005710 1.931670 -0.066110 
#    z -0.055410 -0.066110 2.025690 
# 
# From -- ./inp_files/181702.got.cif
#   From: 2010.05.17/outbox.cif.g08.bks.cpg/sg2_91_cif.got.tgz:181702.got - 2010.06.03 11:33:40.
