data_PCOD9107097
_publ_section_title
;
Structure prediction by ZEFSAII (Michael W. Deem and Ramdas Pophale) SiO2 
 PCOD9107097
Probable space group: P -1
;
_chemical_formula_sum "Si O2"
_cell_formula_units_Z 16
_cell_length_a 13.311914
_cell_length_b 9.143347
_cell_length_c 7.995094
_cell_angle_alpha 64.931782
_cell_angle_beta 124.634981
_cell_angle_gamma 101.066626
_cell_volume 723.697540
_symmetry_space_group_name_H-M "P -1"
_symmetry_group_IT_number 2
_symmetry_cell_setting 'triclinic'
loop_
_space_group_symop_operation_xyz
x,y,z
-x,-y,-z
loop_
_atom_site_type_symbol
_atom_site_label
_atom_site_fract_x
_atom_site_fract_y
_atom_site_fract_z
Si Si1 0.631045 0.573093 0.082407
Si Si2 0.920392 0.848405 0.969079
Si Si3 0.378732 0.066828 0.944285
Si Si4 0.408598 0.319190 0.359143
Si Si5 0.334013 0.007850 0.277720
Si Si6 0.204262 0.224295 0.459910
Si Si7 0.075783 0.542234 0.215447
Si Si8 0.683781 0.340500 0.530941
O O1 0.615302 0.752170 0.060936
O O2 0.705189 0.453189 0.336148
O O3 0.500000 0.500000 0.000000
O O4 0.659916 0.584412 0.906781
O O5 0.794007 0.888809 0.923635
O O6 0.875294 0.836950 0.738868
O O7 0.990713 0.677826 0.165227
O O8 0.000000 0.000000 0.000000
O O9 0.264555 0.085674 0.701829
O O10 0.370130 0.954851 0.151516
O O11 0.500000 0.000000 0.000000
O O12 0.415902 0.132882 0.388258
O O13 0.321324 0.307799 0.442940
O O14 0.547713 0.374156 0.466091
O O15 0.312931 0.845468 0.435537
O O16 0.122667 0.364185 0.410294
O O17 0.200783 0.632101 0.255378
O O18 0.000000 0.500000 0.000000
#
# Coordination Sequence:
#
# PCOD9107097 Si02
#       8
#     2   2   2   2   2   2   2   2
#     4   9  20  37  56  86 123 157 196 237 292 374
#     4  10  20  40  63  83 114 164 211 249 288 355
#     4  11  22  40  59  92 128 158 191 248 310 368
#     4   9  20  36  60  92 123 153 200 244 308 377
#     4  10  21  37  62  89 124 157 204 243 303 363
#     4  10  21  39  63  86 122 161 193 254 310 345
#     4  10  21  37  62  85 116 158 207 250 299 342
#     4  11  18  35  63  86 119 159 195 246 308 351
#
# _framework density 22.108687
#
# number of rings (size 3 to 8) (size 9 to 14) (size 15 to 20)
#    0.000    2.000    2.500    1.125    0.000    5.500 
#    4.500    1.250    5.500    0.000    0.000    0.000 
#    0.000    0.000    0.000    0.000    0.000    0.000 
#
# Total GULP energy -89167.643609 kJ/mol
# GULP energy per Si atom -5572.977726 kJ/mol
# Density = 2.205837 g / cm^3
# Si number density = 22.108687 Si / 1000 Ang^3
#
#
#
# Elastic Constant Matrix: (Units=GPa)
#
#
# Indices 1 2 3 4 5 6 
#
# 1 46.1218 10.6227 23.4231 2.1281 9.1743 -8.2720
# 2 10.6227 67.8941 23.6022 -0.6113 10.8895 6.7196
# 3 23.4231 23.6022 113.6305 -5.7599 9.1650 1.9430
# 4 2.1281 -0.6113 -5.7599 44.6162 9.8840 18.2555
# 5 9.1743 10.8895 9.1650 9.8840 36.2443 1.5115
# 6 -8.2720 6.7196 1.9430 18.2555 1.5115 41.4173
#
#
#
# Elastic Compliance Matrix: (Units=1/GPa)
#
#
# Indices 1 2 3 4 5 6 
#
# 1 0.027397 -0.002734 -0.005135 -0.004533 -0.003925 0.008297
# 2 -0.002734 0.017161 -0.002429 0.002786 -0.004431 -0.004282
# 3 -0.005135 -0.002429 0.010655 0.002839 -0.001342 -0.002334
# 4 -0.004533 0.002786 0.002839 0.030919 -0.008221 -0.014819
# 5 -0.003925 -0.004431 -0.001342 -0.008221 0.032395 0.002439
# 6 0.008297 -0.004282 -0.002334 -0.014819 0.002439 0.033049
#
#
# Mechanical properties :
#
#
# Convention : Reuss Voigt Hill
#
# Bulk Modulus (GPa) = 28.88703 38.10472 33.49588
# Shear Modulus (GPa) = 27.21679 35.78879 31.50279
#
# Velocity S-wave (km/s) = 3.51243 4.02775 3.77889
# Velocity P-wave (km/s) = 5.43543 6.23723 5.85008
#
# Compressibility (1/GPa) = 0.03461761
#
# Stress axis : x y z
#
# Youngs Moduli (GPa) = 36.50025 58.27312 93.84837
#
# Poissons Ratio (x) = 0.15932 0.48188
# Poissons Ratio (y) = 0.09979 0.22796
# Poissons Ratio (z) = 0.18742 0.14155
#
# Static dielectric constant tensor:
#      x y z
#    x 1.849900 -0.027780 0.026450 
#    y -0.027780 1.858990 -0.027170 
#    z 0.026450 -0.027170 1.934090 
# 
# From -- ./inp_files/297998.got.cif
#   From: 2010.05.17/outbox.cif.g08.bks.cpg/sg2_149_cif.got.tgz:297998.got - 2010.06.03 11:33:40.
