data_PCOD9107837
_publ_section_title
;
Structure prediction by ZEFSAII (Michael W. Deem and Ramdas Pophale) SiO2 
 PCOD9107837
Probable space group: P -1
;
_chemical_formula_sum "Si O2"
_cell_formula_units_Z 16
_cell_length_a 22.175203
_cell_length_b 9.412164
_cell_length_c 7.788926
_cell_angle_alpha 80.242678
_cell_angle_beta 62.948741
_cell_angle_gamma 135.240003
_cell_volume 631.301610
_symmetry_space_group_name_H-M "P -1"
_symmetry_group_IT_number 2
_symmetry_cell_setting 'triclinic'
loop_
_space_group_symop_operation_xyz
x,y,z
-x,-y,-z
loop_
_atom_site_type_symbol
_atom_site_label
_atom_site_fract_x
_atom_site_fract_y
_atom_site_fract_z
Si Si1 0.962169 0.137338 0.744905
Si Si2 0.299907 0.456603 0.370712
Si Si3 0.353843 0.090200 0.721516
Si Si4 0.354374 0.422484 0.642354
Si Si5 0.985192 0.157711 0.334788
Si Si6 0.559241 0.772036 0.807192
Si Si7 0.015876 0.511509 0.184821
Si Si8 0.188448 0.521366 0.662759
O O1 0.986981 0.353704 0.720074
O O2 0.042556 0.224785 0.788650
O O3 0.031686 0.222786 0.457177
O O4 0.780447 0.757698 0.043277
O O5 0.285791 0.302568 0.564108
O O6 0.300731 0.603300 0.454563
O O7 0.444974 0.678243 0.034758
O O8 0.160014 0.204507 0.475184
O O9 0.355777 0.261057 0.737600
O O10 0.462924 0.197948 0.675915
O O11 0.431773 0.219848 0.409879
O O12 0.174484 0.734526 0.990243
O O13 0.907208 0.170981 0.436026
O O14 0.116787 0.383269 0.974382
O O15 0.726048 0.162389 0.555526
O O16 0.500000 0.500000 0.000000
O O17 0.000000 0.500000 0.000000
#
# Coordination Sequence:
#
# PCOD9107837 Si02
#       8
#     2   2   2   2   2   2   2   2
#     4  11  24  42  73 110 146 192 248 308 365 440
#     4  12  26  46  74 105 147 204 239 306 380 435
#     4  10  20  40  66 102 144 185 237 307 360 430
#     4  10  21  41  66 105 149 183 243 304 365 436
#     4  12  24  44  74 105 145 198 245 302 374 437
#     4  12  25  46  74 103 140 194 244 306 378 439
#     4  11  20  41  71 106 151 185 240 315 364 423
#     4  12  27  50  71 105 156 189 251 309 368 449
#
# _framework density 25.344460999999999
#
# number of rings (size 3 to 8) (size 9 to 14) (size 15 to 20)
#    0.000    0.750    5.000    2.625    1.750    1.500 
#    4.500    0.625    0.000    0.000    0.000    0.000 
#    0.000    0.000    0.000    0.000    0.000    0.000 
#
# Total GULP energy -89137.128957 kJ/mol
# GULP energy per Si atom -5571.070560 kJ/mol
# Density = 2.528678 g / cm^3
# Si number density = 25.344461 Si / 1000 Ang^3
#
#
#
# Elastic Constant Matrix: (Units=GPa)
#
#
# Indices 1 2 3 4 5 6 
#
# 1 93.7635 47.4913 32.6216 5.4225 -18.0432 9.2787
# 2 47.4913 139.9185 51.0564 19.7712 -9.1412 5.0372
# 3 32.6216 51.0564 117.1801 21.9369 -19.0432 -1.2328
# 4 5.4225 19.7712 21.9369 44.7323 1.2180 -2.8801
# 5 -18.0432 -9.1412 -19.0432 1.2180 30.8696 7.5889
# 6 9.2787 5.0372 -1.2328 -2.8801 7.5889 41.8159
#
#
#
# Elastic Compliance Matrix: (Units=1/GPa)
#
#
# Indices 1 2 3 4 5 6 
#
# 1 0.015069 -0.004003 -0.001215 0.000043 0.007937 -0.004335
# 2 -0.004003 0.009853 -0.002889 -0.002449 -0.001017 -0.000368
# 3 -0.001215 -0.002889 0.011994 -0.004654 0.006130 -0.000462
# 4 0.000043 -0.002449 -0.004654 0.026046 -0.005313 0.002906
# 5 0.007937 -0.001017 0.006130 -0.005313 0.043095 -0.009645
# 6 -0.004335 -0.000368 -0.000462 0.002906 -0.009645 0.026857
#
#
# Mechanical properties :
#
#
# Convention : Reuss Voigt Hill
#
# Bulk Modulus (GPa) = 48.30616 68.13342 58.21979
# Shear Modulus (GPa) = 32.04540 38.12975 35.08758
#
# Velocity S-wave (km/s) = 3.55969 3.88295 3.72483
# Velocity P-wave (km/s) = 5.99970 6.85889 6.44363
#
# Compressibility (1/GPa) = 0.02070129
#
# Stress axis : x y z
#
# Youngs Moduli (GPa) = 66.36103 101.49369 83.37751
#
# Poissons Ratio (x) = 0.40628 0.10128
# Poissons Ratio (y) = 0.26564 0.24091
# Poissons Ratio (z) = 0.08061 0.29326
#
# Static dielectric constant tensor:
#      x y z
#    x 2.090250 -0.076130 0.046340 
#    y -0.076130 2.157590 -0.199230 
#    z 0.046340 -0.199230 2.229740 
# 
# From -- ./inp_files/343541.got.cif
#   From: 2010.05.17/outbox.cif.g08.bks.cpg/sg2_172_cif.got.tgz:343541.got - 2010.06.03 11:33:40.
