data_PCOD9107279
_publ_section_title
;
Structure prediction by ZEFSAII (Michael W. Deem and Ramdas Pophale) SiO2 
 PCOD9107279
Probable space group: P -1
;
_chemical_formula_sum "Si O2"
_cell_formula_units_Z 16
_cell_length_a 12.540423
_cell_length_b 11.915552
_cell_length_c 8.862311
_cell_angle_alpha 54.091887
_cell_angle_beta 129.691001
_cell_angle_gamma 97.675283
_cell_volume 761.162915
_symmetry_space_group_name_H-M "P -1"
_symmetry_group_IT_number 2
_symmetry_cell_setting 'triclinic'
loop_
_space_group_symop_operation_xyz
x,y,z
-x,-y,-z
loop_
_atom_site_type_symbol
_atom_site_label
_atom_site_fract_x
_atom_site_fract_y
_atom_site_fract_z
Si Si1 0.530910 0.501225 0.773849
Si Si2 0.128492 0.451143 0.527435
Si Si3 0.220905 0.927029 0.954626
Si Si4 0.277656 0.615530 0.677181
Si Si5 0.026255 0.723652 0.997415
Si Si6 0.556214 0.697894 0.387909
Si Si7 0.826663 0.789501 0.480736
Si Si8 0.950836 0.868384 0.108685
O O1 0.395572 0.623477 0.652084
O O2 0.604361 0.584239 0.662543
O O3 0.467551 0.401115 0.692898
O O4 0.650850 0.398763 0.083429
O O5 0.266163 0.457204 0.744939
O O6 0.113904 0.565362 0.284289
O O7 0.129605 0.305994 0.558592
O O8 0.000000 0.500000 0.500000
O O9 0.179346 0.042977 0.684639
O O10 0.127830 0.819557 0.975352
O O11 0.393407 0.821372 0.181273
O O12 0.181661 0.043038 0.967434
O O13 0.109297 0.741441 0.412525
O O14 0.912342 0.806292 0.966705
O O15 0.943473 0.713552 0.779142
O O16 0.669944 0.777266 0.392046
O O17 0.000000 0.000000 0.000000
#
# Coordination Sequence:
#
# PCOD9107279 Si02
#       8
#     2   2   2   2   2   2   2   2
#     4  10  22  40  67  92 129 171 215 265 325 393
#     4  11  23  40  65  96 132 163 216 276 323 376
#     4  11  24  44  65  90 134 178 214 262 324 395
#     4  10  20  40  63  97 122 169 220 263 321 387
#     4  10  23  41  67  95 128 171 219 262 326 387
#     4  11  24  41  64  94 136 167 214 268 327 379
#     4  12  24  41  63  99 133 167 215 272 327 381
#     4   9  19  39  65  90 126 163 220 263 311 381
#
# _framework density 21.020465999999999
#
# number of rings (size 3 to 8) (size 9 to 14) (size 15 to 20)
#    0.000    1.500    1.250    4.875    3.500    4.000 
#    0.000    0.625    0.000    0.000    0.000    0.000 
#    0.000    0.000    0.000    0.000    0.000    0.000 
#
# Total GULP energy -89188.941642 kJ/mol
# GULP energy per Si atom -5574.308853 kJ/mol
# Density = 2.097262 g / cm^3
# Si number density = 21.020466 Si / 1000 Ang^3
#
#
#
# Elastic Constant Matrix: (Units=GPa)
#
#
# Indices 1 2 3 4 5 6 
#
# 1 129.4661 36.3152 45.2870 -3.1865 -1.2882 -3.2692
# 2 36.3152 79.0117 38.9913 -6.2475 -5.7914 3.7065
# 3 45.2870 38.9913 80.0559 0.7431 -13.8835 3.0372
# 4 -3.1865 -6.2475 0.7431 33.5813 -0.0905 -5.5636
# 5 -1.2882 -5.7914 -13.8835 -0.0905 31.1112 -12.8113
# 6 -3.2692 3.7065 3.0372 -5.5636 -12.8113 40.7259
#
#
#
# Elastic Compliance Matrix: (Units=1/GPa)
#
#
# Indices 1 2 3 4 5 6 
#
# 1 0.010137 -0.002326 -0.004964 0.000787 -0.001846 0.000922
# 2 -0.002326 0.017593 -0.007329 0.003051 -0.000485 -0.000977
# 3 -0.004964 -0.007329 0.020211 -0.002105 0.007829 0.000936
# 4 0.000787 0.003051 -0.002105 0.031259 0.001708 0.004750
# 5 -0.001846 -0.000485 0.007829 0.001708 0.040539 0.012298
# 6 0.000922 -0.000977 0.000936 0.004750 0.012298 0.029165
#
#
# Mechanical properties :
#
#
# Convention : Reuss Voigt Hill
#
# Bulk Modulus (GPa) = 53.46475 58.85786 56.16131
# Shear Modulus (GPa) = 27.11850 32.27969 29.69910
#
# Velocity S-wave (km/s) = 3.59569 3.92297 3.76289
# Velocity P-wave (km/s) = 6.53670 6.96998 6.75681
#
# Compressibility (1/GPa) = 0.01870391
#
# Stress axis : x y z
#
# Youngs Moduli (GPa) = 98.64659 56.83920 49.47887
#
# Poissons Ratio (x) = 0.13220 0.24563
# Poissons Ratio (y) = 0.22943 0.36261
# Poissons Ratio (z) = 0.48971 0.41655
#
# Static dielectric constant tensor:
#      x y z
#    x 1.834150 -0.017540 -0.016430 
#    y -0.017540 1.792110 -0.038710 
#    z -0.016430 -0.038710 1.749820 
# 
# From -- ./inp_files/257171.got.cif
#   From: 2010.05.17/outbox.cif.g08.bks.cpg/sg2_129_cif.got.tgz:257171.got - 2010.06.03 11:33:40.
