data_PCOD9107047
_publ_section_title
;
Structure prediction by ZEFSAII (Michael W. Deem and Ramdas Pophale) SiO2 
 PCOD9107047
Probable space group: P -1
;
_chemical_formula_sum "Si O2"
_cell_formula_units_Z 11
_cell_length_a 6.866694
_cell_length_b 12.230758
_cell_length_c 7.246029
_cell_angle_alpha 65.265542
_cell_angle_beta 82.363600
_cell_angle_gamma 46.805302
_cell_volume 391.976302
_symmetry_space_group_name_H-M "P -1"
_symmetry_group_IT_number 2
_symmetry_cell_setting 'triclinic'
loop_
_space_group_symop_operation_xyz
x,y,z
-x,-y,-z
loop_
_atom_site_type_symbol
_atom_site_label
_atom_site_fract_x
_atom_site_fract_y
_atom_site_fract_z
Si Si1 0.692924 0.223174 0.215402
Si Si2 0.700716 0.649071 0.107817
Si Si3 0.285207 0.945262 0.219679
Si Si4 0.063707 0.706106 0.143781
Si Si5 0.500000 0.000000 0.500000
Si Si6 0.144923 0.682848 0.574911
O O1 0.440387 0.257257 0.138650
O O2 0.726887 0.323602 0.004412
O O3 0.671912 0.291037 0.369931
O O4 0.983363 0.033302 0.269602
O O5 0.951757 0.627648 0.142524
O O6 0.795395 0.472728 0.236931
O O7 0.460084 0.779903 0.192467
O O8 0.459537 0.924879 0.378204
O O9 0.193957 0.092177 0.988564
O O10 0.170937 0.659686 0.369165
O O11 0.834453 0.848320 0.548814
#
# Coordination Sequence:
#
# PCOD9107047 Si02
#       6
#     2   2   2   2   1   2
#     4   9  24  43  61  94 132 160 207 261 309 372
#     4  12  21  40  70  92 123 170 211 252 314 373
#     4   9  21  40  64  89 129 162 203 258 306 370
#     4  10  23  41  66  92 125 171 202 257 319 362
#     4  10  20  40  62  94 128 162 210 260 308 370
#     4  11  23  41  65  93 129 165 207 265 308 366
#
# _framework density 28.062919000000001
#
# number of rings (size 3 to 8) (size 9 to 14) (size 15 to 20)
#    1.091    0.727    1.818    2.182    0.000    1.455 
#    0.000    4.545    0.000    0.000    0.000    0.000 
#    0.000    0.000    0.000    0.000    0.000    0.000 
#
# Total GULP energy -61538.146712 kJ/mol
# GULP energy per Si atom -5594.376974 kJ/mol
# Density = 2.799905 g / cm^3
# Si number density = 28.062919 Si / 1000 Ang^3
#
#
#
# Elastic Constant Matrix: (Units=GPa)
#
#
# Indices 1 2 3 4 5 6 
#
# 1 115.5294 31.1379 44.6278 11.7513 28.8307 19.9382
# 2 31.1379 145.2228 39.1110 20.2031 9.8435 -4.2324
# 3 44.6278 39.1110 161.3794 43.0476 31.6092 7.6258
# 4 11.7513 20.2031 43.0476 44.9862 13.9560 12.5632
# 5 28.8307 9.8435 31.6092 13.9560 53.7075 12.5793
# 6 19.9382 -4.2324 7.6258 12.5632 12.5793 36.3520
#
#
#
# Elastic Compliance Matrix: (Units=1/GPa)
#
#
# Indices 1 2 3 4 5 6 
#
# 1 0.011940 -0.002229 -0.002576 0.003247 -0.003915 -0.006035
# 2 -0.002229 0.008102 -0.000615 -0.003482 0.000173 0.003438
# 3 -0.002576 -0.000615 0.009673 -0.008327 -0.002771 0.003149
# 4 0.003247 -0.003482 -0.008327 0.034957 -0.002563 -0.011633
# 5 -0.003915 0.000173 -0.002771 -0.002563 0.024087 -0.004701
# 6 -0.006035 0.003438 0.003149 -0.011633 -0.004701 0.036206
#
#
# Mechanical properties :
#
#
# Convention : Reuss Voigt Hill
#
# Bulk Modulus (GPa) = 52.97460 72.43166 62.70313
# Shear Modulus (GPa) = 35.18760 47.49279 41.34020
#
# Velocity S-wave (km/s) = 3.54486 4.11830 3.84230
# Velocity P-wave (km/s) = 5.97267 6.96279 6.48665
#
# Compressibility (1/GPa) = 0.01887697
#
# Stress axis : x y z
#
# Youngs Moduli (GPa) = 83.75379 123.42182 103.37957
#
# Poissons Ratio (x) = 0.27505 0.26628
# Poissons Ratio (y) = 0.18665 0.06356
# Poissons Ratio (z) = 0.21573 0.07588
#
# Static dielectric constant tensor:
#      x y z
#    x 2.217710 0.084140 -0.061150 
#    y 0.084140 2.142450 -0.067330 
#    z -0.061150 -0.067330 2.223240 
# 
# From -- ./inp_files/164313.got.cif
#   From: 2010.05.17/outbox.cif.g08.bks.cpg/sg2_83_cif.got.tgz:164313.got - 2010.06.03 11:33:40.
