data_PCOD9107542
_publ_section_title
;
Structure prediction by ZEFSAII (Michael W. Deem and Ramdas Pophale) SiO2 
 PCOD9107542
Probable space group: P -1
;
_chemical_formula_sum "Si O2"
_cell_formula_units_Z 16
_cell_length_a 17.931279
_cell_length_b 12.207833
_cell_length_c 8.057916
_cell_angle_alpha 51.491468
_cell_angle_beta 132.399693
_cell_angle_gamma 148.873855
_cell_volume 668.545068
_symmetry_space_group_name_H-M "P -1"
_symmetry_group_IT_number 2
_symmetry_cell_setting 'triclinic'
loop_
_space_group_symop_operation_xyz
x,y,z
-x,-y,-z
loop_
_atom_site_type_symbol
_atom_site_label
_atom_site_fract_x
_atom_site_fract_y
_atom_site_fract_z
Si Si1 0.145667 0.034354 0.802340
Si Si2 0.087356 0.781739 0.647046
Si Si3 0.154627 0.597669 0.564190
Si Si4 0.408901 0.004840 0.989897
Si Si5 0.325574 0.523993 0.025433
Si Si6 0.618413 0.505647 0.229781
Si Si7 0.103311 0.082545 0.237240
Si Si8 0.366265 0.030352 0.287001
O O1 0.086649 0.869289 0.730124
O O2 0.258923 0.278986 0.683467
O O3 0.003379 0.961010 0.742244
O O4 0.247235 0.034157 0.068376
O O5 0.231677 0.829054 0.833402
O O6 0.126595 0.941848 0.420358
O O7 0.920137 0.547237 0.577375
O O8 0.222533 0.556217 0.833205
O O9 0.284905 0.841192 0.471272
O O10 0.000000 0.500000 0.500000
O O11 0.501875 0.249541 0.885781
O O12 0.500000 0.000000 0.000000
O O13 0.402223 0.991075 0.198664
O O14 0.308559 0.459932 0.869038
O O15 0.258726 0.332198 0.216870
O O16 0.520797 0.268331 0.362598
O O17 0.500000 0.500000 0.000000
O O18 0.000000 0.000000 0.000000
#
# Coordination Sequence:
#
# PCOD9107542 Si02
#       8
#     2   2   2   2   2   2   2   2
#     4  10  20  40  64  98 133 163 214 283 329 388
#     4  11  25  41  65  99 129 171 222 270 336 389
#     4  12  24  41  65  97 130 174 225 269 318 401
#     4  10  23  45  62  93 138 174 213 274 324 391
#     4  11  23  40  63  92 129 170 221 266 320 395
#     4   9  18  37  61  87 124 167 210 262 320 387
#     4  12  22  40  67  96 127 170 216 276 332 384
#     4   9  22  38  67  94 127 178 221 260 333 393
#
# _framework density 23.932566000000001
#
# number of rings (size 3 to 8) (size 9 to 14) (size 15 to 20)
#    0.000    1.500    2.500    2.625    0.000    5.500 
#    0.000    3.750    0.000    0.000    0.000    0.000 
#    0.000    0.000    0.000    0.000    0.000    0.000 
#
# Total GULP energy -89358.610342 kJ/mol
# GULP energy per Si atom -5584.913146 kJ/mol
# Density = 2.387809 g / cm^3
# Si number density = 23.932566 Si / 1000 Ang^3
#
#
#
# Elastic Constant Matrix: (Units=GPa)
#
#
# Indices 1 2 3 4 5 6 
#
# 1 103.3851 6.7733 -2.0906 -2.1960 12.9114 -1.7941
# 2 6.7733 128.6271 -5.6354 -21.4957 -10.4375 0.5705
# 3 -2.0906 -5.6354 28.8755 -6.5264 9.4248 4.8182
# 4 -2.1960 -21.4957 -6.5264 43.6466 4.3031 -6.1233
# 5 12.9114 -10.4375 9.4248 4.3031 26.3311 0.1183
# 6 -1.7941 0.5705 4.8182 -6.1233 0.1183 35.3341
#
#
#
# Elastic Compliance Matrix: (Units=1/GPa)
#
#
# Indices 1 2 3 4 5 6 
#
# 1 0.010679 -0.000758 0.003112 0.001362 -0.006875 0.000389
# 2 -0.000758 0.008826 0.001780 0.004372 0.002517 0.000326
# 3 0.003112 0.001780 0.043725 0.008737 -0.017880 -0.004259
# 4 0.001362 0.004372 0.008737 0.027596 -0.006588 0.003612
# 5 -0.006875 0.002517 -0.017880 -0.006588 0.049820 0.000740
# 6 0.000389 0.000326 -0.004259 0.003612 0.000740 0.029520
#
#
# Mechanical properties :
#
#
# Convention : Reuss Voigt Hill
#
# Bulk Modulus (GPa) = 13.98628 28.77581 21.38105
# Shear Modulus (GPa) = 26.92061 38.51838 32.71950
#
# Velocity S-wave (km/s) = 3.35752 4.01615 3.70152
# Velocity P-wave (km/s) = 4.57026 5.79274 5.21743
#
# Compressibility (1/GPa) = 0.07149864
#
# Stress axis : x y z
#
# Youngs Moduli (GPa) = 93.63737 113.30447 22.87002
#
# Poissons Ratio (x) = 0.08589 -0.07118
# Poissons Ratio (y) = 0.07098 -0.04071
# Poissons Ratio (z) = -0.29142 -0.20166
#
# Static dielectric constant tensor:
#      x y z
#    x 1.890080 -0.027000 -0.028080 
#    y -0.027000 1.922340 0.016040 
#    z -0.028080 0.016040 2.009550 
# 
# From -- ./inp_files/332958.got.cif
#   From: 2010.05.17/outbox.cif.g08.bks.cpg/sg2_167_cif.got.tgz:332958.got - 2010.06.03 11:33:40.
