data_PCOD9107128
_publ_section_title
;
Structure prediction by ZEFSAII (Michael W. Deem and Ramdas Pophale) SiO2 
 PCOD9107128
Probable space group: P -1
;
_chemical_formula_sum "Si O2"
_cell_formula_units_Z 16
_cell_length_a 14.023630
_cell_length_b 6.790449
_cell_length_c 23.286269
_cell_angle_alpha 83.629813
_cell_angle_beta 160.928279
_cell_angle_gamma 95.584321
_cell_volume 719.895084
_symmetry_space_group_name_H-M "P -1"
_symmetry_group_IT_number 2
_symmetry_cell_setting 'triclinic'
loop_
_space_group_symop_operation_xyz
x,y,z
-x,-y,-z
loop_
_atom_site_type_symbol
_atom_site_label
_atom_site_fract_x
_atom_site_fract_y
_atom_site_fract_z
Si Si1 0.365074 0.300124 0.953122
Si Si2 0.188594 0.079638 0.526432
Si Si3 0.195066 0.436885 0.195704
Si Si4 0.778951 0.880590 0.687239
Si Si5 0.571038 0.391232 0.786712
Si Si6 0.930035 0.040890 0.263232
Si Si7 0.716094 0.271648 0.326868
Si Si8 0.892885 0.782935 0.072637
O O1 0.214308 0.332232 0.927720
O O2 0.137723 0.184219 0.786907
O O3 0.500000 0.500000 0.000000
O O4 0.632138 0.139640 0.114928
O O5 0.465575 0.188695 0.706245
O O6 0.170003 0.055587 0.448763
O O7 0.925425 0.225193 0.394039
O O8 0.159147 0.867308 0.546761
O O9 0.305291 0.301399 0.314888
O O10 0.389267 0.457983 0.249059
O O11 0.129263 0.654150 0.176784
O O12 0.878578 0.368164 0.994946
O O13 0.974741 0.841189 0.743354
O O14 0.500000 0.000000 0.500000
O O15 0.969783 0.019591 0.831985
O O16 0.342020 0.501165 0.695344
O O17 0.394936 0.194877 0.130354
#
# Coordination Sequence:
#
# PCOD9107128 Si02
#       8
#     2   2   2   2   2   2   2   2
#     4  10  20  40  63  87 119 163 198 250 305 367
#     4  11  22  40  63  95 126 158 201 258 307 365
#     4  10  23  43  63  91 120 165 213 249 301 368
#     4  11  25  41  62  90 126 163 201 258 304 363
#     4  10  23  41  66  90 123 163 210 255 303 360
#     4  10  23  39  60  93 123 155 209 242 308 376
#     4  10  22  40  63  92 122 160 202 256 311 360
#     4  10  21  42  62  88 122 160 208 246 308 365
#
# _framework density 22.225462
#
# number of rings (size 3 to 8) (size 9 to 14) (size 15 to 20)
#    0.000    1.750    1.250    1.875    3.500    1.500 
#   11.250    3.750    0.000    0.000    0.000    0.000 
#    0.000    0.000    0.000    0.000    0.000    0.000 
#
# Total GULP energy -89400.772418 kJ/mol
# GULP energy per Si atom -5587.548276 kJ/mol
# Density = 2.217488 g / cm^3
# Si number density = 22.225462 Si / 1000 Ang^3
#
#
#
# Elastic Constant Matrix: (Units=GPa)
#
#
# Indices 1 2 3 4 5 6 
#
# 1 85.0084 24.1886 11.0994 -4.9790 -14.3719 -6.8366
# 2 24.1886 47.1988 7.9053 8.5721 -17.5893 7.8208
# 3 11.0994 7.9053 23.8611 4.1139 -16.4816 -8.6207
# 4 -4.9790 8.5721 4.1139 19.9510 -7.1507 -4.3686
# 5 -14.3719 -17.5893 -16.4816 -7.1507 38.6827 2.6919
# 6 -6.8366 7.8208 -8.6207 -4.3686 2.6919 30.4742
#
#
#
# Elastic Compliance Matrix: (Units=1/GPa)
#
#
# Indices 1 2 3 4 5 6 
#
# 1 0.016732 -0.010796 -0.002129 0.011602 0.002030 0.007406
# 2 -0.010796 0.036609 -0.003772 -0.018042 0.008824 -0.016250
# 3 -0.002129 -0.003772 0.067859 -0.000056 0.025182 0.017454
# 4 0.011602 -0.018042 -0.000056 0.066950 0.007334 0.016167
# 5 0.002030 0.008824 0.025182 0.007334 0.042521 0.002610
# 6 0.007406 -0.016250 0.017454 0.016167 0.002610 0.045671
#
#
# Mechanical properties :
#
#
# Convention : Reuss Voigt Hill
#
# Bulk Modulus (GPa) = 11.38891 26.93943 19.16417
# Shear Modulus (GPa) = 14.74901 25.34657 20.04779
#
# Velocity S-wave (km/s) = 2.57885 3.38069 3.00662
# Velocity P-wave (km/s) = 3.74202 5.23317 4.54911
#
# Compressibility (1/GPa) = 0.08780470
#
# Stress axis : x y z
#
# Youngs Moduli (GPa) = 59.76631 27.31544 14.73650
#
# Poissons Ratio (x) = 0.29490 0.03137
# Poissons Ratio (y) = 0.64525 0.05559
# Poissons Ratio (z) = 0.12725 0.10304
#
# Static dielectric constant tensor:
#      x y z
#    x 1.797100 -0.007980 0.024600 
#    y -0.007980 1.808460 0.009510 
#    z 0.024600 0.009510 1.832730 
# 
# From -- ./inp_files/68467.got.cif
#   From: 2010.05.17/outbox.cif.g08.bks.cpg/sg2_35_cif.got.tgz:68467.got - 2010.06.03 11:33:40.
