data_PCOD9107908
_publ_section_title
;
Structure prediction by ZEFSAII (Michael W. Deem and Ramdas Pophale) SiO2 
 PCOD9107908
Probable space group: P -1
;
_chemical_formula_sum "Si O2"
_cell_formula_units_Z 16
_cell_length_a 9.795816
_cell_length_b 17.260760
_cell_length_c 15.578455
_cell_angle_alpha 139.764946
_cell_angle_beta 37.438286
_cell_angle_gamma 146.725535
_cell_volume 838.470333
_symmetry_space_group_name_H-M "P -1"
_symmetry_group_IT_number 2
_symmetry_cell_setting 'triclinic'
loop_
_space_group_symop_operation_xyz
x,y,z
-x,-y,-z
loop_
_atom_site_type_symbol
_atom_site_label
_atom_site_fract_x
_atom_site_fract_y
_atom_site_fract_z
Si Si1 0.278733 0.782173 0.359408
Si Si2 0.194282 0.861790 0.061774
Si Si3 0.376117 0.874258 0.576816
Si Si4 0.099191 0.163861 0.114161
Si Si5 0.364020 0.687284 0.934470
Si Si6 0.941481 0.638750 0.244521
Si Si7 0.128833 0.131380 0.615266
Si Si8 0.667262 0.675246 0.043492
O O1 0.224442 0.793236 0.495245
O O2 0.475859 0.727742 0.210013
O O3 0.020698 0.679339 0.338421
O O4 0.442126 0.949224 0.382366
O O5 0.070246 0.908683 0.237627
O O6 0.958230 0.776533 0.035122
O O7 0.242941 0.746359 0.980052
O O8 0.500000 0.000000 0.000000
O O9 0.584209 0.834179 0.466111
O O10 0.159341 0.839354 0.728668
O O11 0.311356 0.208457 0.123691
O O12 0.255685 0.280368 0.057194
O O13 0.000000 0.000000 0.000000
O O14 0.278671 0.531092 0.811666
O O15 0.216782 0.677093 0.089553
O O16 0.849938 0.734516 0.329027
O O17 0.000000 0.000000 0.500000
O O18 0.500000 0.500000 0.000000
#
# Coordination Sequence:
#
# PCOD9107908 Si02
#       8
#     2   2   2   2   2   2   2   2
#     4  11  21  41  65  93 128 173 220 265 340 388
#     4  11  25  41  68  99 132 167 226 282 321 394
#     4  11  24  40  66  97 129 172 221 279 323 404
#     4  12  24  43  70  98 129 173 234 276 326 402
#     4  10  22  39  66  95 125 166 220 270 328 384
#     4  10  20  40  66  90 125 170 215 267 326 400
#     4  11  23  40  64  95 131 171 214 266 340 391
#     4  12  25  42  67  99 137 175 220 276 338 400
#
# _framework density 19.082369
#
# number of rings (size 3 to 8) (size 9 to 14) (size 15 to 20)
#    0.000    1.000    5.000    1.500    7.000    0.000 
#    0.000    3.125    0.000    0.000    0.000    0.000 
#    0.000    0.000    0.000    0.000    0.000    0.000 
#
# Total GULP energy -89379.680542 kJ/mol
# GULP energy per Si atom -5586.230034 kJ/mol
# Density = 1.903894 g / cm^3
# Si number density = 19.082369 Si / 1000 Ang^3
#
#
#
# Elastic Constant Matrix: (Units=GPa)
#
#
# Indices 1 2 3 4 5 6 
#
# 1 111.6302 35.9898 47.2708 9.0916 -14.9565 10.8307
# 2 35.9898 68.2885 46.6742 11.1813 -22.4456 -3.7733
# 3 47.2708 46.6742 120.7124 7.8222 -14.5845 -6.6297
# 4 9.0916 11.1813 7.8222 32.6951 0.5429 0.2705
# 5 -14.9565 -22.4456 -14.5845 0.5429 24.2636 -7.4972
# 6 10.8307 -3.7733 -6.6297 0.2705 -7.4972 23.6703
#
#
#
# Elastic Compliance Matrix: (Units=1/GPa)
#
#
# Indices 1 2 3 4 5 6 
#
# 1 0.012781 -0.005046 -0.003619 -0.000871 -0.001453 -0.008116
# 2 -0.005046 0.033219 -0.005942 -0.009142 0.028953 0.015215
# 3 -0.003619 -0.005942 0.012381 0.000020 0.001113 0.004529
# 4 -0.000871 -0.009142 0.000020 0.034179 -0.011299 -0.005022
# 5 -0.001453 0.028953 0.001113 -0.011299 0.077363 0.030225
# 6 -0.008116 0.015215 0.004529 -0.005022 0.030225 0.059285
#
#
# Mechanical properties :
#
#
# Convention : Reuss Voigt Hill
#
# Bulk Modulus (GPa) = 34.28548 62.27785 48.28167
# Shear Modulus (GPa) = 18.64672 27.50557 23.07614
#
# Velocity S-wave (km/s) = 3.12936 3.80071 3.48126
# Velocity P-wave (km/s) = 5.57345 7.20887 6.44325
#
# Compressibility (1/GPa) = 0.02916686
#
# Stress axis : x y z
#
# Youngs Moduli (GPa) = 78.23996 30.10363 80.77078
#
# Poissons Ratio (x) = 0.15190 0.29230
# Poissons Ratio (y) = 0.39479 0.47994
# Poissons Ratio (z) = 0.28314 0.17888
#
# Static dielectric constant tensor:
#      x y z
#    x 1.663020 -0.003230 0.020470 
#    y -0.003230 1.660880 -0.013770 
#    z 0.020470 -0.013770 1.644330 
# 
# From -- ./inp_files/206251.got.cif
#   From: 2010.05.17/outbox.cif.g08.bks.cpg/sg2_104_cif.got.tgz:206251.got - 2010.06.03 11:33:40.
