data_PCOD9107800
_publ_section_title
;
Structure prediction by ZEFSAII (Michael W. Deem and Ramdas Pophale) SiO2 
 PCOD9107800
Probable space group: P -1
;
_chemical_formula_sum "Si O2"
_cell_formula_units_Z 16
_cell_length_a 5.563535
_cell_length_b 15.632461
_cell_length_c 8.673025
_cell_angle_alpha 113.568267
_cell_angle_beta 104.756018
_cell_angle_gamma 84.922708
_cell_volume 668.508741
_symmetry_space_group_name_H-M "P -1"
_symmetry_group_IT_number 2
_symmetry_cell_setting 'triclinic'
loop_
_space_group_symop_operation_xyz
x,y,z
-x,-y,-z
loop_
_atom_site_type_symbol
_atom_site_label
_atom_site_fract_x
_atom_site_fract_y
_atom_site_fract_z
Si Si1 0.285400 0.901998 0.156568
Si Si2 0.799246 0.677242 0.492084
Si Si3 0.474056 0.626160 0.637285
Si Si4 0.163636 0.999211 0.682786
Si Si5 0.418211 0.424398 0.059111
Si Si6 0.755772 0.183001 0.251615
Si Si7 0.603922 0.276444 0.767216
Si Si8 0.115450 0.567754 0.258010
O O1 0.569175 0.945280 0.244995
O O2 0.282140 0.816867 0.216737
O O3 0.045211 0.964060 0.203766
O O4 0.245286 0.864082 0.949856
O O5 0.741147 0.620113 0.596344
O O6 0.577001 0.733409 0.415895
O O7 0.009132 0.751642 0.620740
O O8 0.864067 0.600718 0.317558
O O9 0.424936 0.583183 0.763594
O O10 0.453313 0.738327 0.728043
O O11 0.299605 0.583568 0.445477
O O12 0.247796 0.897463 0.679679
O O13 0.000000 0.000000 0.500000
O O14 0.165266 0.467709 0.119117
O O15 0.500000 0.500000 0.000000
O O16 0.447384 0.324190 0.913775
O O17 0.804922 0.351931 0.793084
#
# Coordination Sequence:
#
# PCOD9107800 Si02
#       8
#     2   2   2   2   2   2   2   2
#     4  12  27  46  74 106 146 186 239 291 359 423
#     4  10  23  40  67  96 140 183 237 285 356 424
#     4  10  21  40  67  96 137 185 231 286 356 422
#     4  12  29  47  75 109 144 186 236 295 354 428
#     4  10  20  40  65  97 137 179 236 295 352 423
#     4  11  25  45  69 101 139 186 229 291 352 424
#     4  10  22  41  66  99 136 188 231 298 356 422
#     4   9  21  39  64  94 136 185 232 295 349 424
#
# _framework density 23.933865999999998
#
# number of rings (size 3 to 8) (size 9 to 14) (size 15 to 20)
#    0.000    1.500    1.250    2.250   10.500    1.000 
#    0.000    2.500    0.000    0.000    0.000    0.000 
#    0.000    0.000    0.000    0.000    0.000    0.000 
#
# Total GULP energy -89301.782324 kJ/mol
# GULP energy per Si atom -5581.361395 kJ/mol
# Density = 2.387939 g / cm^3
# Si number density = 23.933866 Si / 1000 Ang^3
#
#
#
# Elastic Constant Matrix: (Units=GPa)
#
#
# Indices 1 2 3 4 5 6 
#
# 1 75.8047 32.5870 43.1849 9.0300 -7.9762 -3.4119
# 2 32.5870 137.1088 36.5860 -15.8405 -4.7117 0.3626
# 3 43.1849 36.5860 122.3710 -6.1386 -10.8782 10.3147
# 4 9.0300 -15.8405 -6.1386 43.1703 -0.6612 -4.0988
# 5 -7.9762 -4.7117 -10.8782 -0.6612 34.3290 11.0934
# 6 -3.4119 0.3626 10.3147 -4.0988 11.0934 30.7426
#
#
#
# Elastic Compliance Matrix: (Units=1/GPa)
#
#
# Indices 1 2 3 4 5 6 
#
# 1 0.019185 -0.003568 -0.006186 -0.005890 0.000878 0.003145
# 2 -0.003568 0.008922 -0.001260 0.003884 -0.000080 0.000469
# 3 -0.006186 -0.001260 0.011673 0.002006 0.003988 -0.005760
# 4 -0.005890 0.003884 0.002006 0.026317 -0.000434 0.002293
# 5 0.000878 -0.000080 0.003988 -0.000434 0.035089 -0.013960
# 6 0.003145 0.000469 -0.005760 0.002293 -0.013960 0.040147
#
#
# Mechanical properties :
#
#
# Convention : Reuss Voigt Hill
#
# Bulk Modulus (GPa) = 56.33323 62.22228 59.27776
# Shear Modulus (GPa) = 29.53681 36.51015 33.02348
#
# Velocity S-wave (km/s) = 3.51679 3.90995 3.71857
# Velocity P-wave (km/s) = 6.33076 6.81452 6.57709
#
# Compressibility (1/GPa) = 0.01775151
#
# Stress axis : x y z
#
# Youngs Moduli (GPa) = 52.12336 112.07650 85.67135
#
# Poissons Ratio (x) = 0.39985 0.52999
# Poissons Ratio (y) = 0.18596 0.10798
# Poissons Ratio (z) = 0.32245 0.14126
#
# Static dielectric constant tensor:
#      x y z
#    x 2.071410 -0.036900 -0.012690 
#    y -0.036900 1.918960 -0.007340 
#    z -0.012690 -0.007340 1.924830 
# 
# From -- ./inp_files/124749.got.cif
#   From: 2010.05.17/outbox.cif.g08.bks.cpg/sg2_63_cif.got.tgz:124749.got - 2010.06.03 11:33:40.
