data_PCOD9107405
_publ_section_title
;
Structure prediction by ZEFSAII (Michael W. Deem and Ramdas Pophale) SiO2 
 PCOD9107405
Probable space group: P -1
;
_chemical_formula_sum "Si O2"
_cell_formula_units_Z 14
_cell_length_a 11.697483
_cell_length_b 10.082638
_cell_length_c 11.265220
_cell_angle_alpha 104.710535
_cell_angle_beta 38.517841
_cell_angle_gamma 128.377133
_cell_volume 570.861225
_symmetry_space_group_name_H-M "P -1"
_symmetry_group_IT_number 2
_symmetry_cell_setting 'triclinic'
loop_
_space_group_symop_operation_xyz
x,y,z
-x,-y,-z
loop_
_atom_site_type_symbol
_atom_site_label
_atom_site_fract_x
_atom_site_fract_y
_atom_site_fract_z
Si Si1 0.959915 0.213305 0.877193
Si Si2 0.623941 0.722251 0.320692
Si Si3 0.227739 0.910426 0.748037
Si Si4 0.968920 0.484663 0.215573
Si Si5 0.238663 0.697346 0.283113
Si Si6 0.528889 0.435218 0.837449
Si Si7 0.033698 0.855177 0.418367
O O1 0.247803 0.316679 0.702399
O O2 0.937691 0.366441 0.929457
O O3 0.915754 0.138534 0.761985
O O4 0.785792 0.076891 0.096970
O O5 0.324080 0.611924 0.545665
O O6 0.654419 0.675858 0.153323
O O7 0.789872 0.947177 0.258184
O O8 0.048538 0.686595 0.816077
O O9 0.500000 0.000000 0.500000
O O10 0.169711 0.623709 0.188083
O O11 0.454909 0.713586 0.163416
O O12 0.000000 0.500000 0.500000
O O13 0.241465 0.865044 0.321500
O O14 0.774891 0.641407 0.623743
O O15 0.500000 0.500000 0.000000
O O16 0.000000 0.000000 0.500000
#
# Coordination Sequence:
#
# PCOD9107405 Si02
#       7
#     2   2   2   2   2   2   2
#     4  11  22  41  66  92 133 161 211 273 318 383
#     4  11  22  40  61  97 130 162 215 262 322 383
#     4  10  24  40  61  93 124 169 212 260 319 383
#     4  10  20  40  64  90 123 168 209 261 322 375
#     4   9  18  40  64  85 127 171 214 255 310 384
#     4  11  24  41  64  94 130 177 217 259 318 392
#     4  10  23  43  67  95 126 173 215 267 327 371
#
# _framework density 24.524349999999998
#
# number of rings (size 3 to 8) (size 9 to 14) (size 15 to 20)
#    0.000    1.714    4.286    1.286    4.000    2.286 
#    2.571    0.714    0.000    0.000    0.000    0.000 
#    0.000    0.000    0.000    0.000    0.000    0.000 
#
# Total GULP energy -77992.440766 kJ/mol
# GULP energy per Si atom -5570.888626 kJ/mol
# Density = 2.446853 g / cm^3
# Si number density = 24.524350 Si / 1000 Ang^3
#
#
#
# Elastic Constant Matrix: (Units=GPa)
#
#
# Indices 1 2 3 4 5 6 
#
# 1 72.3928 32.6669 -10.7834 5.6380 1.3965 -37.0162
# 2 32.6669 165.7931 -8.0247 15.3377 -5.6696 -24.0518
# 3 -10.7834 -8.0247 79.0418 7.7493 7.4796 -5.5038
# 4 5.6380 15.3377 7.7493 36.0412 -2.1528 1.4713
# 5 1.3965 -5.6696 7.4796 -2.1528 28.1783 1.7320
# 6 -37.0162 -24.0518 -5.5038 1.4713 1.7320 39.8798
#
#
#
# Elastic Compliance Matrix: (Units=1/GPa)
#
#
# Indices 1 2 3 4 5 6 
#
# 1 0.031712 -0.000940 0.007717 -0.007840 -0.006283 0.030495
# 2 -0.000940 0.007125 0.001099 -0.003228 0.000717 0.003664
# 3 0.007717 0.001099 0.015619 -0.005781 -0.005390 0.010429
# 4 -0.007840 -0.003228 -0.005781 0.032320 0.004444 -0.011407
# 5 -0.006283 0.000717 -0.005390 0.004444 0.038204 -0.007966
# 6 0.030495 0.003664 0.010429 -0.011407 -0.007966 0.057796
#
#
# Mechanical properties :
#
#
# Convention : Reuss Voigt Hill
#
# Bulk Modulus (GPa) = 14.24355 38.32726 26.28540
# Shear Modulus (GPa) = 26.25686 41.04446 33.65066
#
# Velocity S-wave (km/s) = 3.27562 4.09543 3.70825
# Velocity P-wave (km/s) = 4.48629 6.16649 5.39223
#
# Compressibility (1/GPa) = 0.07020721
#
# Stress axis : x y z
#
# Youngs Moduli (GPa) = 31.53381 140.35670 64.02484
#
# Poissons Ratio (x) = 0.13200 -0.49411
# Poissons Ratio (y) = 0.02966 -0.07035
# Poissons Ratio (z) = -0.24336 -0.15422
#
# Static dielectric constant tensor:
#      x y z
#    x 2.023780 0.032220 -0.065400 
#    y 0.032220 1.969570 0.000420 
#    z -0.065400 0.000420 2.077100 
# 
# From -- ./inp_files/417294.got.cif
#   From: 2010.05.17/outbox.cif.g08.bks.cpg/sg2_209_cif.got.tgz:417294.got - 2010.06.03 11:33:40.
