data_PCOD9107886
_publ_section_title
;
Structure prediction by ZEFSAII (Michael W. Deem and Ramdas Pophale) SiO2 
 PCOD9107886
Probable space group: P -1
;
_chemical_formula_sum "Si O2"
_cell_formula_units_Z 14
_cell_length_a 19.830609
_cell_length_b 7.966290
_cell_length_c 8.546480
_cell_angle_alpha 115.266883
_cell_angle_beta 34.528017
_cell_angle_gamma 130.653931
_cell_volume 561.301964
_symmetry_space_group_name_H-M "P -1"
_symmetry_group_IT_number 2
_symmetry_cell_setting 'triclinic'
loop_
_space_group_symop_operation_xyz
x,y,z
-x,-y,-z
loop_
_atom_site_type_symbol
_atom_site_label
_atom_site_fract_x
_atom_site_fract_y
_atom_site_fract_z
Si Si1 0.779904 0.536203 0.590171
Si Si2 0.960178 0.780639 0.599218
Si Si3 0.959734 0.057074 0.939645
Si Si4 0.553840 0.220465 0.373673
Si Si5 0.306359 0.929578 0.484604
Si Si6 0.557093 0.624116 0.107604
Si Si7 0.745494 0.123299 0.805374
O O1 0.697627 0.294734 0.568247
O O2 0.668147 0.560681 0.910973
O O3 0.891077 0.572376 0.527704
O O4 0.883946 0.739633 0.352406
O O5 0.089662 0.793536 0.447004
O O6 0.000000 0.000000 0.500000
O O7 0.877904 0.821825 0.904547
O O8 0.849052 0.126241 0.191203
O O9 0.000000 0.000000 0.000000
O O10 0.500000 0.000000 0.500000
O O11 0.435029 0.130563 0.424098
O O12 0.551512 0.400501 0.560734
O O13 0.700453 0.276778 0.032801
O O14 0.312408 0.950318 0.292088
O O15 0.657941 0.889856 0.978887
O O16 0.500000 0.500000 0.000000
#
# Coordination Sequence:
#
# PCOD9107886 Si02
#       7
#     2   2   2   2   2   2   2
#     4  11  23  39  64  96 130 172 213 268 321 387
#     4  10  20  40  66  88 134 170 219 256 330 375
#     4  11  21  41  63  94 127 172 214 265 320 377
#     4  10  24  41  68  93 125 177 216 265 332 381
#     4  12  24  42  64  99 136 168 220 267 324 386
#     4  11  22  45  68  94 123 170 226 266 325 391
#     4  11  22  44  65  95 134 175 213 271 323 386
#
# _framework density 24.942011000000001
#
# number of rings (size 3 to 8) (size 9 to 14) (size 15 to 20)
#    0.000    1.143    4.286    3.429    6.000    0.571 
#    2.571    4.286    0.000    0.000    0.000    0.000 
#    0.000    0.000    0.000    0.000    0.000    0.000 
#
# Total GULP energy -78189.598688 kJ/mol
# GULP energy per Si atom -5584.971335 kJ/mol
# Density = 2.488524 g / cm^3
# Si number density = 24.942011 Si / 1000 Ang^3
#
#
#
# Elastic Constant Matrix: (Units=GPa)
#
#
# Indices 1 2 3 4 5 6 
#
# 1 122.3486 7.0591 26.3505 13.9610 5.3762 5.7222
# 2 7.0591 73.0941 30.1394 30.5798 1.8361 2.0814
# 3 26.3505 30.1394 144.4899 49.7532 0.2007 -5.3615
# 4 13.9610 30.5798 49.7532 44.9045 -4.2896 12.7845
# 5 5.3762 1.8361 0.2007 -4.2896 32.9106 7.6758
# 6 5.7222 2.0814 -5.3615 12.7845 7.6758 34.8117
#
#
#
# Elastic Compliance Matrix: (Units=1/GPa)
#
#
# Indices 1 2 3 4 5 6 
#
# 1 0.008679 0.000378 -0.001105 -0.001683 -0.001495 -0.000672
# 2 0.000378 0.020866 0.002856 -0.020267 -0.005712 0.007833
# 3 -0.001105 0.002856 0.014163 -0.020961 -0.005381 0.011076
# 4 -0.001683 -0.020267 -0.020961 0.070558 0.018111 -0.031645
# 5 -0.001495 -0.005712 -0.005381 0.018111 0.036844 -0.015016
# 6 -0.000672 0.007833 0.011076 -0.031645 -0.015016 0.045007
#
#
# Mechanical properties :
#
#
# Convention : Reuss Voigt Hill
#
# Bulk Modulus (GPa) = 20.84795 51.89228 36.37012
# Shear Modulus (GPa) = 24.05618 40.95093 32.50356
#
# Velocity S-wave (km/s) = 3.10898 4.05637 3.61385
# Velocity P-wave (km/s) = 4.61134 6.54134 5.65922
#
# Compressibility (1/GPa) = 0.04796635
#
# Stress axis : x y z
#
# Youngs Moduli (GPa) = 115.22500 47.92392 70.60802
#
# Poissons Ratio (x) = -0.01813 0.07801
# Poissons Ratio (y) = -0.04359 -0.20164
# Poissons Ratio (z) = 0.12731 -0.13686
#
# Static dielectric constant tensor:
#      x y z
#    x 1.729730 -0.293780 -0.192480 
#    y -0.293780 1.819800 -0.171800 
#    z -0.192480 -0.171800 1.937020 
# 
# From -- ./inp_files/169170.got.cif
#   From: 2010.05.17/outbox.cif.g08.bks.cpg/sg2_85_cif.got.tgz:169170.got - 2010.06.03 11:33:40.
