data_PCOD9107069
_publ_section_title
;
Structure prediction by ZEFSAII (Michael W. Deem and Ramdas Pophale) SiO2 
 PCOD9107069
Probable space group: P -1
;
_chemical_formula_sum "Si O2"
_cell_formula_units_Z 14
_cell_length_a 6.865782
_cell_length_b 12.137835
_cell_length_c 7.591904
_cell_angle_alpha 88.224312
_cell_angle_beta 104.515104
_cell_angle_gamma 69.895157
_cell_volume 570.366546
_symmetry_space_group_name_H-M "P -1"
_symmetry_group_IT_number 2
_symmetry_cell_setting 'triclinic'
loop_
_space_group_symop_operation_xyz
x,y,z
-x,-y,-z
loop_
_atom_site_type_symbol
_atom_site_label
_atom_site_fract_x
_atom_site_fract_y
_atom_site_fract_z
Si Si1 0.365614 0.642589 0.779507
Si Si2 0.466018 0.167654 0.648966
Si Si3 0.788890 0.892675 0.696322
Si Si4 0.905892 0.997146 0.176223
Si Si5 0.827785 0.264412 0.636134
Si Si6 0.439889 0.167014 0.047165
Si Si7 0.824724 0.438532 0.924644
O O1 0.223528 0.677997 0.569903
O O2 0.467348 0.738766 0.857340
O O3 0.585364 0.528630 0.811810
O O4 0.221270 0.621219 0.904834
O O5 0.282550 0.177089 0.466418
O O6 0.600838 0.250559 0.637888
O O7 0.392357 0.190617 0.831150
O O8 0.628681 0.031130 0.664467
O O9 0.014771 0.907102 0.715216
O O10 0.752522 0.839190 0.875992
O O11 0.649516 0.045797 0.116417
O O12 0.007899 0.870754 0.295977
O O13 0.000000 0.000000 0.000000
O O14 0.892017 0.345039 0.785786
O O15 0.000000 0.500000 0.000000
#
# Coordination Sequence:
#
# PCOD9107069 Si02
#       7
#     2   2   2   2   2   2   2
#     4  11  25  46  74  97 132 178 225 281 348 396
#     4  10  20  40  62  95 139 175 221 264 320 396
#     4  10  22  40  60  95 137 183 223 252 325 398
#     4  11  23  41  66 101 147 180 220 268 319 406
#     4  11  22  47  67 100 141 176 221 285 332 389
#     4  12  22  42  68  98 139 185 215 265 337 393
#     4  11  26  51  74  96 127 173 233 292 342 400
#
# _framework density 24.545618000000001
#
# number of rings (size 3 to 8) (size 9 to 14) (size 15 to 20)
#    0.000    1.143    5.714    0.857    0.000    3.429 
#    0.000    2.857    0.000    0.000    0.000    0.000 
#    0.000    0.000    0.000    0.000    0.000    0.000 
#
# Total GULP energy -78484.327994 kJ/mol
# GULP energy per Si atom -5606.023428 kJ/mol
# Density = 2.448975 g / cm^3
# Si number density = 24.545618 Si / 1000 Ang^3
#
#
#
# Elastic Constant Matrix: (Units=GPa)
#
#
# Indices 1 2 3 4 5 6 
#
# 1 148.4639 42.0866 47.8651 5.3804 11.7831 22.1167
# 2 42.0866 95.5697 62.5683 6.6266 2.9579 8.8033
# 3 47.8651 62.5683 197.0003 6.3072 1.3581 4.5302
# 4 5.3804 6.6266 6.3072 35.2392 12.0958 12.1877
# 5 11.7831 2.9579 1.3581 12.0958 34.1357 1.9291
# 6 22.1167 8.8033 4.5302 12.1877 1.9291 48.8725
#
#
#
# Elastic Compliance Matrix: (Units=1/GPa)
#
#
# Indices 1 2 3 4 5 6 
#
# 1 0.008604 -0.002707 -0.001182 0.001714 -0.003092 -0.003602
# 2 -0.002707 0.014312 -0.003828 -0.001517 0.000420 -0.000637
# 3 -0.001182 -0.003828 0.006581 -0.000794 0.000715 0.000784
# 4 0.001714 -0.001517 -0.000794 0.035970 -0.012672 -0.008899
# 5 -0.003092 0.000420 0.000715 -0.012672 0.034615 0.003051
# 6 -0.003602 -0.000637 0.000784 -0.008899 0.003051 0.024232
#
#
# Mechanical properties :
#
#
# Convention : Reuss Voigt Hill
#
# Bulk Modulus (GPa) = 71.09562 82.89711 76.99637
# Shear Modulus (GPa) = 34.61761 42.88375 38.75068
#
# Velocity S-wave (km/s) = 3.75952 4.18437 3.97762
# Velocity P-wave (km/s) = 6.91902 7.56249 7.24790
#
# Compressibility (1/GPa) = 0.01406556
#
# Stress axis : x y z
#
# Youngs Moduli (GPa) = 116.22879 69.86990 151.94394
#
# Poissons Ratio (x) = 0.18912 0.17952
# Poissons Ratio (y) = 0.31460 0.58160
# Poissons Ratio (z) = 0.13733 0.26744
#
# Static dielectric constant tensor:
#      x y z
#    x 1.961490 -0.027240 0.036060 
#    y -0.027240 1.994050 -0.002980 
#    z 0.036060 -0.002980 1.950820 
# 
# From -- ./inp_files/92918.got.cif
#   From: 2010.05.17/outbox.cif.g08.bks.cpg/sg2_47_cif.got.tgz:92918.got - 2010.06.03 11:33:40.
