data_PCOD9107622
_publ_section_title
;
Structure prediction by ZEFSAII (Michael W. Deem and Ramdas Pophale) SiO2 
 PCOD9107622
Probable space group: P -1
;
_chemical_formula_sum "Si O2"
_cell_formula_units_Z 14
_cell_length_a 17.778471
_cell_length_b 16.117925
_cell_length_c 9.345582
_cell_angle_alpha 63.961404
_cell_angle_beta 46.573543
_cell_angle_gamma 25.688982
_cell_volume 690.757487
_symmetry_space_group_name_H-M "P -1"
_symmetry_group_IT_number 2
_symmetry_cell_setting 'triclinic'
loop_
_space_group_symop_operation_xyz
x,y,z
-x,-y,-z
loop_
_atom_site_type_symbol
_atom_site_label
_atom_site_fract_x
_atom_site_fract_y
_atom_site_fract_z
Si Si1 0.399132 0.686159 0.513805
Si Si2 0.394817 0.983718 0.606881
Si Si3 0.214134 0.583419 0.574465
Si Si4 0.780700 0.507355 0.968983
Si Si5 0.386426 0.368124 0.229988
Si Si6 0.773387 0.620758 0.149800
Si Si7 0.062284 0.004479 0.272396
O O1 0.500000 0.500000 0.500000
O O2 0.487040 0.644848 0.587914
O O3 0.095172 0.923440 0.697004
O O4 0.562832 0.616891 0.241477
O O5 0.514684 0.807465 0.689640
O O6 0.511753 0.864278 0.388535
O O7 0.500000 0.000000 0.500000
O O8 0.081157 0.233533 0.816535
O O9 0.205887 0.570246 0.427373
O O10 0.140219 0.549967 0.775090
O O11 0.050749 0.801151 0.688477
O O12 0.738105 0.549005 0.824174
O O13 0.743756 0.633078 0.009964
O O14 0.637674 0.226852 0.980952
O O15 0.000000 0.500000 0.000000
O O16 0.000000 0.000000 0.500000
#
# Coordination Sequence:
#
# PCOD9107622 Si02
#       7
#     2   2   2   2   2   2   2
#     4   9  18  38  61  85 122 167 200 251 312 360
#     4  11  23  41  65  90 124 167 205 257 319 365
#     4   9  22  39  60  90 127 159 210 260 302 379
#     4  11  22  41  63  91 127 162 212 258 306 377
#     4  11  24  41  63  95 127 161 213 262 302 374
#     4  10  20  40  65  89 121 167 205 255 317 367
#     4  11  21  39  63  91 126 164 203 257 314 360
#
# _framework density 20.267603999999999
#
# number of rings (size 3 to 8) (size 9 to 14) (size 15 to 20)
#    0.000    1.714    2.857    2.571    0.000    2.857 
#    2.571    0.714    0.000    0.000    0.000    0.000 
#    0.000    0.000    0.000    0.000    0.000    0.000 
#
# Total GULP energy -78054.475778 kJ/mol
# GULP energy per Si atom -5575.319698 kJ/mol
# Density = 2.022147 g / cm^3
# Si number density = 20.267604 Si / 1000 Ang^3
#
#
#
# Elastic Constant Matrix: (Units=GPa)
#
#
# Indices 1 2 3 4 5 6 
#
# 1 137.4528 21.1396 34.0860 -8.8332 7.8156 -20.4156
# 2 21.1396 26.0626 0.0382 -0.4591 0.9152 -5.7164
# 3 34.0860 0.0382 70.5811 10.2946 10.4780 -9.6613
# 4 -8.8332 -0.4591 10.2946 24.8065 -1.1523 0.9766
# 5 7.8156 0.9152 10.4780 -1.1523 48.2621 -13.2336
# 6 -20.4156 -5.7164 -9.6613 0.9766 -13.2336 35.8602
#
#
#
# Elastic Compliance Matrix: (Units=1/GPa)
#
#
# Indices 1 2 3 4 5 6 
#
# 1 0.010749 -0.007877 -0.005691 0.005942 0.000729 0.003438
# 2 -0.007877 0.045626 0.004920 -0.004155 0.000447 0.004392
# 3 -0.005691 0.004920 0.019087 -0.010071 -0.003053 0.001834
# 4 0.005942 -0.004155 -0.010071 0.046654 0.002303 -0.000413
# 5 0.000729 0.000447 -0.003053 0.002303 0.023589 0.008306
# 6 0.003438 0.004392 0.001834 -0.000413 0.008306 0.034114
#
#
# Mechanical properties :
#
#
# Convention : Reuss Voigt Hill
#
# Bulk Modulus (GPa) = 17.19226 38.29156 27.74191
# Shear Modulus (GPa) = 23.09437 33.70794 28.40116
#
# Velocity S-wave (km/s) = 3.37927 4.08259 3.74747
# Velocity P-wave (km/s) = 4.87104 6.41540 5.69580
#
# Compressibility (1/GPa) = 0.05816572
#
# Stress axis : x y z
#
# Youngs Moduli (GPa) = 93.03187 21.91746 52.39162
#
# Poissons Ratio (x) = 0.17265 0.29817
# Poissons Ratio (y) = 0.73283 -0.25778
# Poissons Ratio (z) = 0.52945 -0.10784
#
# Static dielectric constant tensor:
#      x y z
#    x 1.751890 -0.061830 -0.007950 
#    y -0.061830 1.748250 0.009430 
#    z -0.007950 0.009430 1.739140 
# 
# From -- ./inp_files/220424.got.cif
#   From: 2010.05.17/outbox.cif.g08.bks.cpg/sg2_111_cif.got.tgz:220424.got - 2010.06.03 11:33:40.
