data_PCOD9107136
_publ_section_title
;
Structure prediction by ZEFSAII (Michael W. Deem and Ramdas Pophale) SiO2 
 PCOD9107136
Probable space group: P -1
;
_chemical_formula_sum "Si O2"
_cell_formula_units_Z 15
_cell_length_a 13.213251
_cell_length_b 12.161128
_cell_length_c 9.895399
_cell_angle_alpha 127.630102
_cell_angle_beta 130.717665
_cell_angle_gamma 29.297945
_cell_volume 586.016611
_symmetry_space_group_name_H-M "P -1"
_symmetry_group_IT_number 2
_symmetry_cell_setting 'triclinic'
loop_
_space_group_symop_operation_xyz
x,y,z
-x,-y,-z
loop_
_atom_site_type_symbol
_atom_site_label
_atom_site_fract_x
_atom_site_fract_y
_atom_site_fract_z
Si Si1 0.128362 0.532960 0.535667
Si Si2 0.629911 0.013248 0.880748
Si Si3 0.500000 0.000000 0.500000
Si Si4 0.296509 0.047441 0.675976
Si Si5 0.607056 0.549835 0.546849
Si Si6 0.000327 0.665404 0.113362
Si Si7 0.466684 0.618767 0.834827
Si Si8 0.178417 0.746140 0.922067
O O1 0.262928 0.279770 0.474799
O O2 0.256684 0.503160 0.503118
O O3 0.132943 0.627250 0.741879
O O4 0.877723 0.743850 0.423279
O O5 0.576049 0.063672 0.714130
O O6 0.507767 0.972667 0.792587
O O7 0.522237 0.225453 0.030164
O O8 0.885065 0.799706 0.974575
O O9 0.173954 0.145056 0.783414
O O10 0.386975 0.820880 0.553359
O O11 0.575988 0.415758 0.373499
O O12 0.770459 0.454855 0.740111
O O13 0.000000 0.500000 0.000000
O O14 0.280560 0.732570 0.866490
O O15 0.669712 0.387202 0.914639
O O16 0.000000 0.000000 0.000000
#
# Coordination Sequence:
#
# PCOD9107136 Si02
#       8
#     2   2   1   2   2   2   2   2
#     4  10  21  38  63  95 126 172 218 270 325 386
#     4  12  24  41  65 100 135 168 218 276 332 384
#     4  12  22  42  60  98 138 162 212 284 326 386
#     4  11  22  42  71  92 126 177 226 268 323 399
#     4  10  21  42  68  90 126 172 221 268 325 390
#     4  11  23  44  69  97 126 174 225 273 328 387
#     4  10  23  41  60  96 136 169 216 277 324 387
#     4  10  20  40  63  87 132 183 219 253 327 403
#
# _framework density 25.596544000000002
#
# number of rings (size 3 to 8) (size 9 to 14) (size 15 to 20)
#    0.000    1.333    4.000    2.000    0.000    2.133 
#    4.800    0.667    0.000    0.000    0.000    0.000 
#    0.000    0.000    0.000    0.000    0.000    0.000 
#
# Total GULP energy -83696.747479 kJ/mol
# GULP energy per Si atom -5579.783165 kJ/mol
# Density = 2.553829 g / cm^3
# Si number density = 25.596544 Si / 1000 Ang^3
#
#
#
# Elastic Constant Matrix: (Units=GPa)
#
#
# Indices 1 2 3 4 5 6 
#
# 1 39.5278 13.4081 4.7906 -7.3691 18.4261 -0.4835
# 2 13.4081 183.9192 86.6246 28.2106 -9.6103 -23.9197
# 3 4.7906 86.6246 187.3498 8.2976 -3.2777 -8.5345
# 4 -7.3691 28.2106 8.2976 24.6753 25.6666 27.4856
# 5 18.4261 -9.6103 -3.2777 25.6666 23.6582 -12.0940
# 6 -0.4835 -23.9197 -8.5345 27.4856 -12.0940 2.2217
#
#
#
# Elastic Compliance Matrix: (Units=1/GPa)
#
#
# Indices 1 2 3 4 5 6 
#
# 1 0.028357 0.000568 -0.000116 -0.004083 -0.008096 0.018280
# 2 0.000568 0.005689 -0.003010 0.002774 -0.003570 -0.003936
# 3 -0.000116 -0.003010 0.006792 -0.000328 0.000562 0.000777
# 4 -0.004083 0.002774 -0.000328 0.004707 0.009225 0.019699
# 5 -0.008096 -0.003570 0.000562 0.009225 0.022768 -0.028220
# 6 0.018280 -0.003936 0.000777 0.019699 -0.028220 0.017373
#
#
# Mechanical properties :
#
#
# Convention : Reuss Voigt Hill
#
# Bulk Modulus (GPa) = 27.99331 68.93815 48.46573
# Shear Modulus (GPa) = 48.68127 30.50926 39.59526
#
# Velocity S-wave (km/s) = 4.36577 3.45618 3.93733
# Velocity P-wave (km/s) = 6.03104 6.55118 6.29648
#
# Compressibility (1/GPa) = 0.03572282
#
# Stress axis : x y z
#
# Youngs Moduli (GPa) = 35.26526 175.76425 147.23306
#
# Poissons Ratio (x) = -0.09983 0.01704
# Poissons Ratio (y) = -0.02003 0.44313
# Poissons Ratio (z) = 0.00408 0.52900
#
# Static dielectric constant tensor:
#      x y z
#    x 2.144690 -0.017250 -0.065330 
#    y -0.017250 1.892950 -0.102070 
#    z -0.065330 -0.102070 1.973880 
# 
# From -- ./inp_files/408942.got.cif
#   From: 2010.05.17/outbox.cif.g08.bks.cpg/sg2_205_cif.got.tgz:408942.got - 2010.06.03 11:33:40.
