data_PCOD9107075
_publ_section_title
;
Structure prediction by ZEFSAII (Michael W. Deem and Ramdas Pophale) SiO2 
 PCOD9107075
Probable space group: P -1
;
_chemical_formula_sum "Si O2"
_cell_formula_units_Z 16
_cell_length_a 15.095060
_cell_length_b 11.961622
_cell_length_c 9.272199
_cell_angle_alpha 46.864997
_cell_angle_beta 104.942700
_cell_angle_gamma 136.086585
_cell_volume 750.757638
_symmetry_space_group_name_H-M "P -1"
_symmetry_group_IT_number 2
_symmetry_cell_setting 'triclinic'
loop_
_space_group_symop_operation_xyz
x,y,z
-x,-y,-z
loop_
_atom_site_type_symbol
_atom_site_label
_atom_site_fract_x
_atom_site_fract_y
_atom_site_fract_z
Si Si1 0.616065 0.050732 0.915912
Si Si2 0.045123 0.869918 0.768669
Si Si3 0.543532 0.193192 0.237452
Si Si4 0.348232 0.131898 0.381457
Si Si5 0.823606 0.409227 0.225812
Si Si6 0.368765 0.225929 0.637300
Si Si7 0.094906 0.471542 0.525924
Si Si8 0.916335 0.024858 0.641251
O O1 0.771461 0.323662 0.705228
O O2 0.543181 0.927620 0.839568
O O3 0.500000 0.000000 0.000000
O O4 0.639740 0.927366 0.123905
O O5 0.033680 0.855047 0.603775
O O6 0.212210 0.103158 0.674934
O O7 0.959814 0.904130 0.767557
O O8 0.976361 0.628089 0.019631
O O9 0.710251 0.371287 0.127902
O O10 0.500000 0.000000 0.500000
O O11 0.487561 0.272848 0.221712
O O12 0.239269 0.844086 0.576656
O O13 0.252864 0.152119 0.273065
O O14 0.392006 0.201960 0.504016
O O15 0.839090 0.487021 0.327652
O O16 0.500000 0.500000 0.500000
O O17 0.000000 0.500000 0.500000
O O18 0.994333 0.217516 0.631281
#
# Coordination Sequence:
#
# PCOD9107075 Si02
#       8
#     2   2   2   2   2   2   2   2
#     4  12  25  40  71 100 130 179 233 280 339 401
#     4  10  25  44  64 100 135 180 224 273 350 400
#     4  10  20  40  62  97 134 166 219 276 341 393
#     4  10  21  43  67  93 134 178 221 278 339 402
#     4  11  22  40  69  97 136 169 223 282 335 406
#     4  11  27  44  65  97 141 177 225 283 343 410
#     4  12  23  41  68 102 135 173 230 283 335 405
#     4  10  23  41  68  93 138 175 226 278 335 403
#
# _framework density 21.311806000000001
#
# number of rings (size 3 to 8) (size 9 to 14) (size 15 to 20)
#    0.000    1.250    3.750    2.250    5.250    3.500 
#    0.000    3.750    0.000    0.000    0.000    0.000 
#    0.000    0.000    0.000    0.000    0.000    0.000 
#
# Total GULP energy -89411.370236 kJ/mol
# GULP energy per Si atom -5588.210640 kJ/mol
# Density = 2.126330 g / cm^3
# Si number density = 21.311806 Si / 1000 Ang^3
#
#
#
# Elastic Constant Matrix: (Units=GPa)
#
#
# Indices 1 2 3 4 5 6 
#
# 1 103.9866 8.5991 -1.0822 7.2302 -2.6031 2.4956
# 2 8.5991 127.5823 20.1286 16.0590 2.6164 -8.5754
# 3 -1.0822 20.1286 47.1783 -5.0555 -7.0105 -3.2748
# 4 7.2302 16.0590 -5.0555 33.7674 9.7501 -3.3776
# 5 -2.6031 2.6164 -7.0105 9.7501 24.5864 2.1460
# 6 2.4956 -8.5754 -3.2748 -3.3776 2.1460 31.9216
#
#
#
# Elastic Compliance Matrix: (Units=1/GPa)
#
#
# Indices 1 2 3 4 5 6 
#
# 1 0.009941 -0.000547 0.000445 -0.002624 0.002393 -0.001317
# 2 -0.000547 0.009280 -0.004446 -0.004618 -0.000624 0.001633
# 3 0.000445 -0.004446 0.024495 0.004164 0.005736 0.001339
# 4 -0.002624 -0.004618 0.004164 0.037411 -0.013808 0.004278
# 5 0.002393 -0.000624 0.005736 -0.013808 0.048496 -0.004488
# 6 -0.001317 0.001633 0.001339 0.004278 -0.004488 0.032760
#
#
# Mechanical properties :
#
#
# Convention : Reuss Voigt Hill
#
# Bulk Modulus (GPa) = 28.88719 37.11535 33.00127
# Shear Modulus (GPa) = 27.31932 34.79519 31.05725
#
# Velocity S-wave (km/s) = 3.58423 4.04502 3.82157
# Velocity P-wave (km/s) = 5.54192 6.26653 5.91533
#
# Compressibility (1/GPa) = 0.03461742
#
# Stress axis : x y z
#
# Youngs Moduli (GPa) = 100.59853 107.75443 40.82471
#
# Poissons Ratio (x) = 0.05899 -0.01815
# Poissons Ratio (y) = 0.05507 0.18152
# Poissons Ratio (z) = -0.04472 0.47911
#
# Static dielectric constant tensor:
#      x y z
#    x 1.822170 0.027000 -0.018450 
#    y 0.027000 1.709240 -0.020990 
#    z -0.018450 -0.020990 1.796520 
# 
# From -- ./inp_files/306542.got.cif
#   From: 2010.05.17/outbox.cif.g08.bks.cpg/sg2_154_cif.got.tgz:306542.got - 2010.06.03 11:33:40.
