data_PCOD9107192
_publ_section_title
;
Structure prediction by ZEFSAII (Michael W. Deem and Ramdas Pophale) SiO2 
 PCOD9107192
Probable space group: P -1
;
_chemical_formula_sum "Si O2"
_cell_formula_units_Z 14
_cell_length_a 6.098798
_cell_length_b 5.273074
_cell_length_c 23.288420
_cell_angle_alpha 107.605569
_cell_angle_beta 130.339892
_cell_angle_gamma 82.483146
_cell_volume 541.938442
_symmetry_space_group_name_H-M "P -1"
_symmetry_group_IT_number 2
_symmetry_cell_setting 'triclinic'
loop_
_space_group_symop_operation_xyz
x,y,z
-x,-y,-z
loop_
_atom_site_type_symbol
_atom_site_label
_atom_site_fract_x
_atom_site_fract_y
_atom_site_fract_z
Si Si1 0.310566 0.460102 0.394468
Si Si2 0.860724 0.636263 0.119966
Si Si3 0.090595 0.969663 0.743070
Si Si4 0.747203 0.683850 0.982527
Si Si5 0.343773 0.033113 0.568265
Si Si6 0.215612 0.270503 0.677952
Si Si7 0.637083 0.718075 0.840595
O O1 0.515450 0.715040 0.426532
O O2 0.129403 0.292541 0.301440
O O3 0.021989 0.559403 0.381955
O O4 0.510156 0.241435 0.438313
O O5 0.543316 0.503016 0.069158
O O6 0.062409 0.393688 0.132332
O O7 0.955123 0.825082 0.200954
O O8 0.841472 0.803531 0.068605
O O9 0.432721 0.928741 0.794963
O O10 0.031819 0.074408 0.676839
O O11 0.684888 0.823103 0.921616
O O12 0.000000 0.500000 0.000000
O O13 0.380518 0.117593 0.647436
O O14 0.000000 0.000000 0.500000
O O15 0.423561 0.455237 0.768060
#
# Coordination Sequence:
#
# PCOD9107192 Si02
#       7
#     2   2   2   2   2   2   2
#     4  11  26  49  73 106 146 186 237 289 358 421
#     4  10  20  40  63  90 140 181 232 298 352 406
#     4  11  23  43  70 104 135 186 237 293 356 419
#     4   9  19  39  62  92 134 185 235 290 348 420
#     4  12  28  48  75 108 145 190 236 286 355 429
#     4  11  25  45  71 103 142 184 236 297 352 426
#     4  10  22  38  65  95 132 178 238 287 353 419
#
# _framework density 25.833192
#
# number of rings (size 3 to 8) (size 9 to 14) (size 15 to 20)
#    0.000    1.429    2.857    1.286    4.000    1.714 
#    2.571    6.429    0.000    0.000    0.000    0.000 
#    0.000    0.000    0.000    0.000    0.000    0.000 
#
# Total GULP energy -78161.965289 kJ/mol
# GULP energy per Si atom -5582.997521 kJ/mol
# Density = 2.577439 g / cm^3
# Si number density = 25.833192 Si / 1000 Ang^3
#
#
#
# Elastic Constant Matrix: (Units=GPa)
#
#
# Indices 1 2 3 4 5 6 
#
# 1 85.2778 46.0186 41.7575 2.0789 25.4067 -15.3712
# 2 46.0186 136.6287 37.7671 -12.0203 12.2309 -7.7337
# 3 41.7575 37.7671 107.8745 -18.0782 17.1927 -8.5016
# 4 2.0789 -12.0203 -18.0782 27.3562 -14.8669 7.7771
# 5 25.4067 12.2309 17.1927 -14.8669 57.9118 -6.1175
# 6 -15.3712 -7.7337 -8.5016 7.7771 -6.1175 26.8549
#
#
#
# Elastic Compliance Matrix: (Units=1/GPa)
#
#
# Indices 1 2 3 4 5 6 
#
# 1 0.025224 -0.006263 -0.008082 -0.019776 -0.011016 0.013293
# 2 -0.006263 0.009790 -0.000475 0.006296 0.002201 -0.002238
# 3 -0.008082 -0.000475 0.013925 0.011714 0.002176 -0.003251
# 4 -0.019776 0.006296 0.011714 0.064221 0.018216 -0.020246
# 5 -0.011016 0.002201 0.002176 0.018216 0.025189 -0.004520
# 6 0.013293 -0.002238 -0.003251 -0.020246 -0.004520 0.048005
#
#
# Mechanical properties :
#
#
# Convention : Reuss Voigt Hill
#
# Bulk Modulus (GPa) = 51.81729 64.54083 58.17906
# Shear Modulus (GPa) = 22.47928 36.04044 29.25986
#
# Velocity S-wave (km/s) = 2.95307 3.73918 3.36913
# Velocity P-wave (km/s) = 5.63289 6.60908 6.14041
#
# Compressibility (1/GPa) = 0.01929858
#
# Stress axis : x y z
#
# Youngs Moduli (GPa) = 39.64519 102.14370 71.81299
#
# Poissons Ratio (x) = 0.63972 0.58039
# Poissons Ratio (y) = 0.24829 0.03413
# Poissons Ratio (z) = 0.32041 0.04854
#
# Static dielectric constant tensor:
#      x y z
#    x 2.023980 0.048940 -0.033190 
#    y 0.048940 2.099580 -0.038010 
#    z -0.033190 -0.038010 2.101190 
# 
# From -- ./inp_files/7940.got.cif
#   From: 2010.05.17/outbox.cif.g08.bks.cpg/sg2_4_cif.got.tgz:7940.got - 2010.06.03 11:33:40.
