data_PCOD9107065
_publ_section_title
;
Structure prediction by ZEFSAII (Michael W. Deem and Ramdas Pophale) SiO2 
 PCOD9107065
Probable space group: P -1
;
_chemical_formula_sum "Si O2"
_cell_formula_units_Z 16
_cell_length_a 8.718279
_cell_length_b 18.153075
_cell_length_c 11.667868
_cell_angle_alpha 137.881991
_cell_angle_beta 146.084479
_cell_angle_gamma 53.711689
_cell_volume 689.623098
_symmetry_space_group_name_H-M "P -1"
_symmetry_group_IT_number 2
_symmetry_cell_setting 'triclinic'
loop_
_space_group_symop_operation_xyz
x,y,z
-x,-y,-z
loop_
_atom_site_type_symbol
_atom_site_label
_atom_site_fract_x
_atom_site_fract_y
_atom_site_fract_z
Si Si1 0.896382 0.633117 0.880764
Si Si2 0.720844 0.944003 0.406073
Si Si3 0.367548 0.856577 0.282468
Si Si4 0.043268 0.556138 0.465952
Si Si5 0.193229 0.211463 0.210398
Si Si6 0.559982 0.248067 0.139667
Si Si7 0.487977 0.354529 0.749619
Si Si8 0.332976 0.888675 0.731289
O O1 0.817366 0.523138 0.631466
O O2 0.872319 0.726541 0.876608
O O3 0.697506 0.676855 0.905001
O O4 0.215710 0.620739 0.099046
O O5 0.633002 0.903462 0.432265
O O6 0.033276 0.920963 0.547018
O O7 0.678892 0.073069 0.549808
O O8 0.539781 0.863819 0.117681
O O9 0.433389 0.732246 0.206215
O O10 0.091725 0.862219 0.040011
O O11 0.224650 0.671088 0.702564
O O12 0.000000 0.500000 0.500000
O O13 0.728002 0.564516 0.239154
O O14 0.279203 0.294239 0.459355
O O15 0.470155 0.152944 0.291776
O O16 0.682486 0.202668 0.282288
O O17 0.500000 0.000000 0.000000
#
# Coordination Sequence:
#
# PCOD9107065 Si02
#       8
#     2   2   2   2   2   2   2   2
#     4  10  23  44  66  97 130 171 224 279 333 393
#     4  11  23  41  62  98 136 176 219 265 330 395
#     4  10  23  38  63  95 137 173 217 272 320 400
#     4  12  24  46  72  95 132 177 223 282 339 385
#     4  10  20  40  62  95 132 167 223 268 323 393
#     4  11  26  44  68 100 137 175 221 277 330 395
#     4  11  22  40  69  97 127 176 222 274 331 395
#     4  11  23  41  65  96 135 178 215 266 322 397
#
# _framework density 23.201077000000002
#
# number of rings (size 3 to 8) (size 9 to 14) (size 15 to 20)
#    0.000    1.250    2.500    3.000    3.500    0.500 
#    2.250    3.750    0.000    0.000    0.000    0.000 
#    0.000    0.000    0.000    0.000    0.000    0.000 
#
# Total GULP energy -89223.837351 kJ/mol
# GULP energy per Si atom -5576.489834 kJ/mol
# Density = 2.314827 g / cm^3
# Si number density = 23.201077 Si / 1000 Ang^3
#
#
#
# Elastic Constant Matrix: (Units=GPa)
#
#
# Indices 1 2 3 4 5 6 
#
# 1 71.2650 24.7003 24.0598 -19.0530 12.4798 -20.8280
# 2 24.7003 58.7667 -14.9104 -22.8629 2.8350 -13.8322
# 3 24.0598 -14.9104 83.2311 -7.5673 9.9069 3.7112
# 4 -19.0530 -22.8629 -7.5673 28.3233 -10.2716 4.2123
# 5 12.4798 2.8350 9.9069 -10.2716 31.4398 5.3943
# 6 -20.8280 -13.8322 3.7112 4.2123 5.3943 44.0662
#
#
#
# Elastic Compliance Matrix: (Units=1/GPa)
#
#
# Indices 1 2 3 4 5 6 
#
# 1 0.024839 -0.008149 -0.007898 0.003892 -0.007140 0.010349
# 2 -0.008149 0.033227 0.009906 0.025375 0.004942 0.002713
# 3 -0.007898 0.009906 0.016899 0.007556 -0.000143 -0.002751
# 4 0.003892 0.025375 0.007556 0.065744 0.015087 0.001037
# 5 -0.007140 0.004942 -0.000143 0.015087 0.040580 -0.008221
# 6 0.010349 0.002713 -0.002751 0.001037 -0.008221 0.029575
#
#
# Mechanical properties :
#
#
# Convention : Reuss Voigt Hill
#
# Bulk Modulus (GPa) = 15.95329 31.21802 23.58565
# Shear Modulus (GPa) = 20.48847 32.72676 26.60762
#
# Velocity S-wave (km/s) = 2.97489 3.75983 3.39016
# Velocity P-wave (km/s) = 4.32331 5.68622 5.05095
#
# Compressibility (1/GPa) = 0.06268301
#
# Stress axis : x y z
#
# Youngs Moduli (GPa) = 40.26006 30.09579 59.17512
#
# Poissons Ratio (x) = 0.24526 0.46735
# Poissons Ratio (y) = 0.32809 -0.58619
# Poissons Ratio (z) = 0.31796 -0.29813
#
# Static dielectric constant tensor:
#      x y z
#    x 1.906850 -0.082380 -0.006930 
#    y -0.082380 2.030760 0.084880 
#    z -0.006930 0.084880 1.942650 
# 
# From -- ./inp_files/90827.got.cif
#   From: 2010.05.17/outbox.cif.g08.bks.cpg/sg2_46_cif.got.tgz:90827.got - 2010.06.03 11:33:40.
