data_PCOD9107388
_publ_section_title
;
Structure prediction by ZEFSAII (Michael W. Deem and Ramdas Pophale) SiO2 
 PCOD9107388
Probable space group: P -1
;
_chemical_formula_sum "Si O2"
_cell_formula_units_Z 16
_cell_length_a 16.116167
_cell_length_b 7.345981
_cell_length_c 8.341512
_cell_angle_alpha 79.090755
_cell_angle_beta 134.892297
_cell_angle_gamma 100.292177
_cell_volume 685.521954
_symmetry_space_group_name_H-M "P -1"
_symmetry_group_IT_number 2
_symmetry_cell_setting 'triclinic'
loop_
_space_group_symop_operation_xyz
x,y,z
-x,-y,-z
loop_
_atom_site_type_symbol
_atom_site_label
_atom_site_fract_x
_atom_site_fract_y
_atom_site_fract_z
Si Si1 0.982710 0.201948 0.876690
Si Si2 0.241691 0.136060 0.719353
Si Si3 0.186498 0.492244 0.784436
Si Si4 0.610135 0.613476 0.710543
Si Si5 0.488273 0.292250 0.101423
Si Si6 0.779577 0.691582 0.671391
Si Si7 0.067749 0.826085 0.557054
Si Si8 0.260791 0.669940 0.514036
O O1 0.982273 0.204529 0.684124
O O2 0.849981 0.242956 0.730284
O O3 0.093264 0.328898 0.072006
O O4 0.000000 0.000000 0.000000
O O5 0.188246 0.278093 0.753986
O O6 0.195712 0.179860 0.471272
O O7 0.199197 0.925645 0.730535
O O8 0.381100 0.177785 0.890543
O O9 0.081681 0.619279 0.681261
O O10 0.220620 0.588077 0.644984
O O11 0.288624 0.506806 0.053735
O O12 0.500000 0.500000 0.500000
O O13 0.556938 0.703688 0.778903
O O14 0.685458 0.745749 0.666814
O O15 0.617118 0.218964 0.300948
O O16 0.500000 0.500000 0.000000
O O17 0.719351 0.503136 0.545663
O O18 0.000000 0.000000 0.500000
#
# Coordination Sequence:
#
# PCOD9107388 Si02
#       8
#     2   2   2   2   2   2   2   2
#     4  11  24  42  61  89 131 164 214 264 314 380
#     4  10  21  41  69  91 127 175 207 262 332 374
#     4   9  22  40  63  93 124 164 223 250 318 384
#     4  11  20  35  64  98 127 161 210 269 320 374
#     4  11  18  38  65  91 126 164 212 261 311 390
#     4  11  21  38  63  97 125 164 210 259 326 375
#     4  11  25  44  63  93 131 171 220 266 312 380
#     4  10  20  40  64  89 121 168 213 253 316 385
#
# _framework density 23.339880000000001
#
# number of rings (size 3 to 8) (size 9 to 14) (size 15 to 20)
#    0.000    1.500    6.250    0.375    3.500    1.500 
#    4.500    3.750    0.000    3.750    0.000    0.000 
#    0.000    0.000    0.000    0.000    0.000    0.000 
#
# Total GULP energy -89165.899751 kJ/mol
# GULP energy per Si atom -5572.868734 kJ/mol
# Density = 2.328676 g / cm^3
# Si number density = 23.339880 Si / 1000 Ang^3
#
#
#
# Elastic Constant Matrix: (Units=GPa)
#
#
# Indices 1 2 3 4 5 6 
#
# 1 75.2008 13.0271 12.2193 0.6966 13.9142 -3.6332
# 2 13.0271 82.7254 35.9699 13.3877 11.5403 8.0699
# 3 12.2193 35.9699 150.9557 21.7929 16.6836 5.1996
# 4 0.6966 13.3877 21.7929 29.1319 2.9521 1.5409
# 5 13.9142 11.5403 16.6836 2.9521 41.8780 8.4510
# 6 -3.6332 8.0699 5.1996 1.5409 8.4510 24.5321
#
#
#
# Elastic Compliance Matrix: (Units=1/GPa)
#
#
# Indices 1 2 3 4 5 6 
#
# 1 0.014919 -0.002072 -0.000476 0.001232 -0.005235 0.004718
# 2 -0.002072 0.014770 -0.002409 -0.004597 -0.001308 -0.003916
# 3 -0.000476 -0.002409 0.008157 -0.004772 -0.002094 0.000014
# 4 0.001232 -0.004597 -0.004772 0.039978 -0.000106 0.000232
# 5 -0.005235 -0.001308 -0.002094 -0.000106 0.028802 -0.009816
# 6 0.004718 -0.003916 0.000014 0.000232 -0.009816 0.046114
#
#
# Mechanical properties :
#
#
# Convention : Reuss Voigt Hill
#
# Bulk Modulus (GPa) = 35.79931 47.92384 41.86157
# Shear Modulus (GPa) = 29.07601 35.61946 32.34774
#
# Velocity S-wave (km/s) = 3.53337 3.91080 3.72686
# Velocity P-wave (km/s) = 5.65843 6.40078 6.04102
#
# Compressibility (1/GPa) = 0.02793350
#
# Stress axis : x y z
#
# Youngs Moduli (GPa) = 67.02784 67.70441 122.59683
#
# Poissons Ratio (x) = 0.14027 0.05833
# Poissons Ratio (y) = 0.13887 0.29530
# Poissons Ratio (z) = 0.03189 0.16308
#
# Static dielectric constant tensor:
#      x y z
#    x 2.028100 -0.038640 0.084610 
#    y -0.038640 1.912140 -0.002280 
#    z 0.084610 -0.002280 1.902810 
# 
# From -- ./inp_files/326236.got.cif
#   From: 2010.05.17/outbox.cif.g08.bks.cpg/sg2_164_cif.got.tgz:326236.got - 2010.06.03 11:33:40.
