data_PCOD9107728
_publ_section_title
;
Structure prediction by ZEFSAII (Michael W. Deem and Ramdas Pophale) SiO2 
 PCOD9107728
Probable space group: P -1
;
_chemical_formula_sum "Si O2"
_cell_formula_units_Z 16
_cell_length_a 12.087050
_cell_length_b 5.960688
_cell_length_c 14.348643
_cell_angle_alpha 111.113359
_cell_angle_beta 120.660958
_cell_angle_gamma 99.291627
_cell_volume 748.902615
_symmetry_space_group_name_H-M "P -1"
_symmetry_group_IT_number 2
_symmetry_cell_setting 'triclinic'
loop_
_space_group_symop_operation_xyz
x,y,z
-x,-y,-z
loop_
_atom_site_type_symbol
_atom_site_label
_atom_site_fract_x
_atom_site_fract_y
_atom_site_fract_z
Si Si1 0.736853 0.270286 0.199887
Si Si2 0.086159 0.878410 0.888683
Si Si3 0.895322 0.973865 0.694155
Si Si4 0.486751 0.761925 0.060274
Si Si5 0.376069 0.391563 0.356685
Si Si6 0.928262 0.710646 0.479483
Si Si7 0.302739 0.905497 0.136552
Si Si8 0.819384 0.407830 0.781515
O O1 0.867139 0.273595 0.194404
O O2 0.794157 0.522495 0.330007
O O3 0.646994 0.995018 0.174637
O O4 0.615589 0.237586 0.068470
O O5 0.036395 0.065257 0.833516
O O6 0.951808 0.691950 0.866141
O O7 0.217617 0.982478 0.031334
O O8 0.766590 0.773092 0.670871
O O9 0.902611 0.811728 0.583616
O O10 0.856490 0.219391 0.699106
O O11 0.396298 0.771043 0.111906
O O12 0.500000 0.500000 0.000000
O O13 0.500000 0.500000 0.500000
O O14 0.330747 0.589618 0.308718
O O15 0.399027 0.182716 0.268829
O O16 0.000000 0.500000 0.500000
O O17 0.000000 0.000000 0.500000
O O18 0.197289 0.711685 0.140043
#
# Coordination Sequence:
#
# PCOD9107728 Si02
#       8
#     2   2   2   2   2   2   2   2
#     4  10  23  42  65  97 139 185 234 287 354 428
#     4  10  20  40  65  93 135 164 222 286 350 418
#     4  10  23  40  65  96 132 176 226 284 348 417
#     4  10  24  44  66  97 136 184 237 293 350 421
#     4  10  24  44  62  88 132 174 225 287 344 422
#     4  12  26  44  71 108 145 192 238 296 368 432
#     4  10  23  40  65  97 128 177 227 283 357 421
#     4  10  22  40  65  96 127 174 227 289 354 415
#
# _framework density 21.364591999999998
#
# number of rings (size 3 to 8) (size 9 to 14) (size 15 to 20)
#    0.000    1.750    1.250    1.125    5.250   12.500 
#    2.250    0.000    0.000    0.000    0.000    0.000 
#    0.000    0.000    0.000    0.000    0.000    0.000 
#
# Total GULP energy -89124.873409 kJ/mol
# GULP energy per Si atom -5570.304588 kJ/mol
# Density = 2.131597 g / cm^3
# Si number density = 21.364592 Si / 1000 Ang^3
#
#
#
# Elastic Constant Matrix: (Units=GPa)
#
#
# Indices 1 2 3 4 5 6 
#
# 1 90.2683 38.7790 45.9746 8.1234 -19.0200 -14.5540
# 2 38.7790 62.7892 23.5882 14.0411 -3.9911 -14.6694
# 3 45.9746 23.5882 127.3611 12.0012 -10.2105 -1.7273
# 4 8.1234 14.0411 12.0012 30.7720 -6.8587 0.3520
# 5 -19.0200 -3.9911 -10.2105 -6.8587 34.8399 7.1077
# 6 -14.5540 -14.6694 -1.7273 0.3520 7.1077 29.1586
#
#
#
# Elastic Compliance Matrix: (Units=1/GPa)
#
#
# Indices 1 2 3 4 5 6 
#
# 1 0.019677 -0.009894 -0.004859 0.003030 0.008271 0.002503
# 2 -0.009894 0.026726 -0.000755 -0.010922 -0.006803 0.010253
# 3 -0.004859 -0.000755 0.009937 -0.002177 0.000201 -0.002239
# 4 0.003030 -0.010922 -0.002177 0.039601 0.008942 -0.006769
# 5 0.008271 -0.006803 0.000201 0.008942 0.035920 -0.008146
# 6 0.002503 0.010253 -0.002239 -0.006769 -0.008146 0.042638
#
#
# Mechanical properties :
#
#
# Convention : Reuss Voigt Hill
#
# Bulk Modulus (GPa) = 39.49094 55.23358 47.36226
# Shear Modulus (GPa) = 23.36931 30.42587 26.89759
#
# Velocity S-wave (km/s) = 3.31090 3.77785 3.55206
# Velocity P-wave (km/s) = 5.75678 6.70362 6.24816
#
# Compressibility (1/GPa) = 0.02532226
#
# Stress axis : x y z
#
# Youngs Moduli (GPa) = 50.82081 37.41642 100.63887
#
# Poissons Ratio (x) = 0.37021 0.48900
# Poissons Ratio (y) = 0.50284 0.07602
# Poissons Ratio (z) = 0.24694 0.02827
#
# Static dielectric constant tensor:
#      x y z
#    x 1.795780 0.004570 0.012140 
#    y 0.004570 1.956320 -0.019670 
#    z 0.012140 -0.019670 1.772950 
# 
# From -- ./inp_files/123813.got.cif
#   From: 2010.05.17/outbox.cif.g08.bks.cpg/sg2_62_cif.got.tgz:123813.got - 2010.06.03 11:33:40.
