data_PCOD9107589
_publ_section_title
;
Structure prediction by ZEFSAII (Michael W. Deem and Ramdas Pophale) SiO2 
 PCOD9107589
Probable space group: P -1
;
_chemical_formula_sum "Si O2"
_cell_formula_units_Z 16
_cell_length_a 8.724334
_cell_length_b 9.614878
_cell_length_c 13.175016
_cell_angle_alpha 96.670533
_cell_angle_beta 104.506599
_cell_angle_gamma 48.122654
_cell_volume 794.644104
_symmetry_space_group_name_H-M "P -1"
_symmetry_group_IT_number 2
_symmetry_cell_setting 'triclinic'
loop_
_space_group_symop_operation_xyz
x,y,z
-x,-y,-z
loop_
_atom_site_type_symbol
_atom_site_label
_atom_site_fract_x
_atom_site_fract_y
_atom_site_fract_z
Si Si1 0.712401 0.870129 0.957716
Si Si2 0.061681 0.756618 0.577163
Si Si3 0.643544 0.901480 0.613854
Si Si4 0.122652 0.271808 0.819051
Si Si5 0.476562 0.554700 0.295285
Si Si6 0.968485 0.132863 0.645060
Si Si7 0.447320 0.839697 0.194946
Si Si8 0.325642 0.339118 0.239899
O O1 0.683740 0.761878 0.863969
O O2 0.721278 0.005300 0.902793
O O3 0.886577 0.741783 0.061790
O O4 0.500000 0.000000 0.000000
O O5 0.297499 0.563875 0.622343
O O6 0.013778 0.796990 0.453025
O O7 0.885959 0.768052 0.606124
O O8 0.033548 0.933604 0.625962
O O9 0.593525 0.790886 0.659192
O O10 0.500000 0.000000 0.500000
O O11 0.601345 0.052026 0.698607
O O12 0.328379 0.235233 0.814999
O O13 0.112989 0.126742 0.751039
O O14 0.915413 0.473578 0.765067
O O15 0.275844 0.709997 0.346362
O O16 0.458762 0.670251 0.207450
O O17 0.450927 0.407941 0.247597
#
# Coordination Sequence:
#
# PCOD9107589 Si02
#       8
#     2   2   2   2   2   2   2   2
#     4   9  20  38  65  87 120 162 202 258 308 364
#     4  11  23  38  64  87 130 165 200 248 317 353
#     4  11  23  39  62  90 125 166 210 248 304 372
#     4  10  20  40  65  86 123 161 212 250 310 360
#     4  11  23  40  62  92 131 158 207 258 301 369
#     4  10  23  39  59  95 121 163 207 254 303 369
#     4  10  21  39  60  90 127 157 206 256 306 363
#     4  10  23  39  63  92 120 162 210 252 309 369
#
# _framework density 20.134799999999998
#
# number of rings (size 3 to 8) (size 9 to 14) (size 15 to 20)
#    0.000    1.750    1.250    2.250    8.750    2.000 
#    0.000    9.375    2.750    0.000    0.000    0.000 
#    0.000    0.000    0.000    0.000    0.000    0.000 
#
# Total GULP energy -89360.873890 kJ/mol
# GULP energy per Si atom -5585.054618 kJ/mol
# Density = 2.008897 g / cm^3
# Si number density = 20.134800 Si / 1000 Ang^3
#
#
#
# Elastic Constant Matrix: (Units=GPa)
#
#
# Indices 1 2 3 4 5 6 
#
# 1 87.8266 25.0254 32.8512 -9.6044 -14.5766 11.3189
# 2 25.0254 62.3101 32.7043 -15.9405 -8.0921 14.4962
# 3 32.8512 32.7043 127.0100 -14.5760 -13.3658 24.2168
# 4 -9.6044 -15.9405 -14.5760 27.9273 -0.0406 -9.4690
# 5 -14.5766 -8.0921 -13.3658 -0.0406 19.2930 -6.3575
# 6 11.3189 14.4962 24.2168 -9.4690 -6.3575 34.1016
#
#
#
# Elastic Compliance Matrix: (Units=1/GPa)
#
#
# Indices 1 2 3 4 5 6 
#
# 1 0.014636 -0.003263 -0.001800 0.002246 0.008449 0.000006
# 2 -0.003263 0.022447 -0.002873 0.009129 0.003941 -0.003149
# 3 -0.001800 -0.002873 0.010476 0.001666 0.003193 -0.004563
# 4 0.002246 0.009129 0.001666 0.045606 0.009626 0.008649
# 5 0.008449 0.003941 0.003193 0.009626 0.064735 0.007995
# 6 0.000006 -0.003149 -0.004563 0.008649 0.007995 0.037793
#
#
# Mechanical properties :
#
#
# Convention : Reuss Voigt Hill
#
# Bulk Modulus (GPa) = 31.55856 50.92315 41.24085
# Shear Modulus (GPa) = 22.50950 28.70210 25.60580
#
# Velocity S-wave (km/s) = 3.34719 3.77967 3.56999
# Velocity P-wave (km/s) = 5.53587 6.66288 6.12535
#
# Compressibility (1/GPa) = 0.03168713
#
# Stress axis : x y z
#
# Youngs Moduli (GPa) = 68.32361 44.54904 95.45737
#
# Poissons Ratio (x) = 0.14538 0.17179
# Poissons Ratio (y) = 0.22296 0.27427
# Poissons Ratio (z) = 0.12296 0.12800
#
# Static dielectric constant tensor:
#      x y z
#    x 1.717450 0.008050 0.021180 
#    y 0.008050 1.744800 -0.006100 
#    z 0.021180 -0.006100 1.732860 
# 
# From -- ./inp_files/319048.got.cif
#   From: 2010.05.17/outbox.cif.g08.bks.cpg/sg2_160_cif.got.tgz:319048.got - 2010.06.03 11:33:40.
