data_PCOD9107641
_publ_section_title
;
Structure prediction by ZEFSAII (Michael W. Deem and Ramdas Pophale) SiO2 
 PCOD9107641
Probable space group: P -1
;
_chemical_formula_sum "Si O2"
_cell_formula_units_Z 16
_cell_length_a 21.713807
_cell_length_b 18.923189
_cell_length_c 12.541322
_cell_angle_alpha 31.801100
_cell_angle_beta 135.936190
_cell_angle_gamma 159.918344
_cell_volume 837.222304
_symmetry_space_group_name_H-M "P -1"
_symmetry_group_IT_number 2
_symmetry_cell_setting 'triclinic'
loop_
_space_group_symop_operation_xyz
x,y,z
-x,-y,-z
loop_
_atom_site_type_symbol
_atom_site_label
_atom_site_fract_x
_atom_site_fract_y
_atom_site_fract_z
Si Si1 0.879220 0.757467 0.568968
Si Si2 0.283095 0.365628 0.865443
Si Si3 0.546138 0.721700 0.279069
Si Si4 0.597865 0.277110 0.275882
Si Si5 0.965059 0.066192 0.082844
Si Si6 0.383932 0.198134 0.975133
Si Si7 0.331611 0.224872 0.298650
Si Si8 0.090051 0.769727 0.758537
O O1 0.648322 0.462284 0.689578
O O2 0.949338 0.700076 0.713829
O O3 0.923899 0.899855 0.334269
O O4 0.000000 0.000000 0.500000
O O5 0.329538 0.572321 0.711012
O O6 0.483744 0.604171 0.742251
O O7 0.103089 0.092621 0.910370
O O8 0.265823 0.236720 0.107732
O O9 0.500000 0.500000 0.500000
O O10 0.608651 0.847480 0.076098
O O11 0.720338 0.975917 0.253949
O O12 0.500000 0.000000 0.500000
O O13 0.431479 0.152521 0.181920
O O14 0.805420 0.576065 0.086124
O O15 0.817205 0.991256 0.013013
O O16 0.568750 0.551288 0.770380
O O17 0.164511 0.909933 0.552033
O O18 0.000000 0.500000 0.000000
#
# Coordination Sequence:
#
# PCOD9107641 Si02
#       8
#     2   2   2   2   2   2   2   2
#     4  12  22  40  74  96 121 175 226 259 309 390
#     4   9  19  38  65  88 111 166 216 255 302 367
#     4  12  20  41  68  92 123 167 221 260 308 380
#     4  11  24  40  56  92 131 157 200 264 322 374
#     4  11  21  38  69  90 115 165 222 255 305 378
#     4  10  20  40  65  90 118 163 215 261 300 373
#     4   9  17  39  66  84 121 162 210 260 303 370
#     4  12  26  42  59 100 138 166 206 272 333 377
#
# _framework density 19.110816
#
# number of rings (size 3 to 8) (size 9 to 14) (size 15 to 20)
#    0.000    1.250    3.750    4.125    0.000    1.000 
#   11.250    0.000    0.000    0.000    0.000    0.000 
#    0.000    0.000    0.000    0.000    0.000    0.000 
#
# Total GULP energy -89335.297638 kJ/mol
# GULP energy per Si atom -5583.456102 kJ/mol
# Density = 1.906732 g / cm^3
# Si number density = 19.110816 Si / 1000 Ang^3
#
#
#
# Elastic Constant Matrix: (Units=GPa)
#
#
# Indices 1 2 3 4 5 6 
#
# 1 112.5168 61.1934 68.2374 -1.7966 1.4744 9.4806
# 2 61.1934 109.7727 35.0131 4.9453 12.5487 7.1354
# 3 68.2374 35.0131 91.7936 -6.2639 21.8192 -3.4512
# 4 -1.7966 4.9453 -6.2639 23.3919 -5.7234 -0.8707
# 5 1.4744 12.5487 21.8192 -5.7234 32.4917 9.6056
# 6 9.4806 7.1354 -3.4512 -0.8707 9.6056 47.9658
#
#
#
# Elastic Compliance Matrix: (Units=1/GPa)
#
#
# Indices 1 2 3 4 5 6 
#
# 1 0.029675 -0.011161 -0.023231 0.003470 0.022209 -0.010261
# 2 -0.011161 0.015080 0.004654 -0.005165 -0.010005 0.002207
# 3 -0.023231 0.004654 0.033097 0.000072 -0.026375 0.011564
# 4 0.003470 -0.005165 0.000072 0.046614 0.010336 -0.001136
# 5 0.022209 -0.010005 -0.026375 0.010336 0.057960 -0.016218
# 6 -0.010261 0.002207 0.011564 -0.001136 -0.016218 0.026607
#
#
# Mechanical properties :
#
#
# Convention : Reuss Voigt Hill
#
# Bulk Modulus (GPa) = 54.41874 71.44122 62.92998
# Shear Modulus (GPa) = 18.20595 30.74584 24.47589
#
# Velocity S-wave (km/s) = 3.08985 4.01536 3.58262
# Velocity P-wave (km/s) = 6.42392 7.67862 7.07913
#
# Compressibility (1/GPa) = 0.01837602
#
# Stress axis : x y z
#
# Youngs Moduli (GPa) = 33.69824 66.31221 30.21421
#
# Poissons Ratio (x) = 0.74012 0.70190
# Poissons Ratio (y) = 0.37611 -0.14060
# Poissons Ratio (z) = 0.78283 -0.30859
#
# Static dielectric constant tensor:
#      x y z
#    x 1.698520 0.019680 -0.022600 
#    y 0.019680 1.664800 0.017270 
#    z -0.022600 0.017270 1.660820 
# 
# From -- ./inp_files/472340.got.cif
#   From: 2010.05.17/outbox.cif.g08.bks.cpg/sg2_237_cif.got.tgz:472340.got - 2010.06.03 11:33:40.
