data_PCOD9107708
_publ_section_title
;
Structure prediction by ZEFSAII (Michael W. Deem and Ramdas Pophale) SiO2 
 PCOD9107708
Probable space group: P -1
;
_chemical_formula_sum "Si O2"
_cell_formula_units_Z 14
_cell_length_a 8.203678
_cell_length_b 19.039631
_cell_length_c 11.412725
_cell_angle_alpha 148.943701
_cell_angle_beta 137.254674
_cell_angle_gamma 51.911915
_cell_volume 623.797594
_symmetry_space_group_name_H-M "P -1"
_symmetry_group_IT_number 2
_symmetry_cell_setting 'triclinic'
loop_
_space_group_symop_operation_xyz
x,y,z
-x,-y,-z
loop_
_atom_site_type_symbol
_atom_site_label
_atom_site_fract_x
_atom_site_fract_y
_atom_site_fract_z
Si Si1 0.714244 0.378747 0.562425
Si Si2 0.069088 0.744423 0.179286
Si Si3 0.237026 0.454540 0.951887
Si Si4 0.574687 0.232750 0.799838
Si Si5 0.722342 0.959621 0.790901
Si Si6 0.505616 0.757482 0.952422
Si Si7 0.543710 0.139874 0.289070
O O1 0.701051 0.508141 0.826501
O O2 0.559958 0.263748 0.385296
O O3 0.628888 0.365460 0.365507
O O4 0.999864 0.355531 0.682583
O O5 0.158951 0.594303 0.049940
O O6 0.174621 0.775788 0.150032
O O7 0.209646 0.848597 0.489991
O O8 0.787625 0.751674 0.063461
O O9 0.454299 0.373866 0.899604
O O10 0.570730 0.237112 0.944048
O O11 0.393676 0.111286 0.486241
O O12 0.585548 0.098713 0.938384
O O13 0.660254 0.853538 0.710729
O O14 0.000000 0.000000 0.000000
O O15 0.500000 0.000000 0.000000
#
# Coordination Sequence:
#
# PCOD9107708 Si02
#       7
#     2   2   2   2   2   2   2
#     4  10  21  39  68  99 120 179 218 268 332 381
#     4  10  25  42  67  99 129 179 218 272 330 382
#     4  10  21  44  71  91 132 172 229 266 318 400
#     4  11  24  42  65 100 134 172 217 272 331 392
#     4  11  25  42  66  94 132 179 221 267 329 397
#     4  12  24  42  65  99 140 168 216 278 336 386
#     4  10  20  40  65  93 124 171 225 262 313 393
#
# _framework density 22.443176000000001
#
# number of rings (size 3 to 8) (size 9 to 14) (size 15 to 20)
#    0.000    1.429    1.429    4.286    2.000    5.714 
#    0.000    4.286    0.000    0.000    0.000    0.000 
#    0.000    0.000    0.000    0.000    0.000    0.000 
#
# Total GULP energy -78187.363696 kJ/mol
# GULP energy per Si atom -5584.811693 kJ/mol
# Density = 2.239209 g / cm^3
# Si number density = 22.443176 Si / 1000 Ang^3
#
#
#
# Elastic Constant Matrix: (Units=GPa)
#
#
# Indices 1 2 3 4 5 6 
#
# 1 141.4381 45.7357 59.4168 -22.9443 -0.8171 9.6832
# 2 45.7357 64.2880 29.1146 0.7736 1.1828 -4.8400
# 3 59.4168 29.1146 139.2895 -19.6255 -3.1459 2.5810
# 4 -22.9443 0.7736 -19.6255 28.8063 5.5143 -5.8101
# 5 -0.8171 1.1828 -3.1459 5.5143 37.7288 0.5082
# 6 9.6832 -4.8400 2.5810 -5.8101 0.5082 38.1888
#
#
#
# Elastic Compliance Matrix: (Units=1/GPa)
#
#
# Indices 1 2 3 4 5 6 
#
# 1 0.012015 -0.007751 -0.002379 0.007770 -0.000795 -0.002675
# 2 -0.007751 0.022623 -0.002589 -0.007771 -0.000009 0.003825
# 3 -0.002379 -0.002589 0.009381 0.004609 0.000134 0.000341
# 4 0.007770 -0.007771 0.004609 0.046176 -0.006004 0.003839
# 5 -0.000795 -0.000009 0.000134 -0.006004 0.027391 -0.001087
# 6 -0.002675 0.003825 0.000341 0.003839 -0.001087 0.027924
#
#
# Mechanical properties :
#
#
# Convention : Reuss Voigt Hill
#
# Bulk Modulus (GPa) = 53.81219 68.17220 60.99219
# Shear Modulus (GPa) = 28.22620 34.99468 31.61044
#
# Velocity S-wave (km/s) = 3.55022 3.95303 3.75702
# Velocity P-wave (km/s) = 6.39019 7.16077 6.78643
#
# Compressibility (1/GPa) = 0.01858315
#
# Stress axis : x y z
#
# Youngs Moduli (GPa) = 83.23096 44.20309 106.59622
#
# Poissons Ratio (x) = 0.34260 0.25356
# Poissons Ratio (y) = 0.64509 0.27593
# Poissons Ratio (z) = 0.19798 0.11442
#
# Static dielectric constant tensor:
#      x y z
#    x 1.853070 0.038200 -0.027740 
#    y 0.038200 1.909900 0.019050 
#    z -0.027740 0.019050 1.855800 
# 
# From -- ./inp_files/405186.got.cif
#   From: 2010.05.17/outbox.cif.g08.bks.cpg/sg2_203_cif.got.tgz:405186.got - 2010.06.03 11:33:40.
