data_PCOD9107849
_publ_section_title
;
Structure prediction by ZEFSAII (Michael W. Deem and Ramdas Pophale) SiO2 
 PCOD9107849
Probable space group: P -1
;
_chemical_formula_sum "Si O2"
_cell_formula_units_Z 12
_cell_length_a 11.158182
_cell_length_b 7.889412
_cell_length_c 13.946200
_cell_angle_alpha 47.266756
_cell_angle_beta 150.419997
_cell_angle_gamma 122.714816
_cell_volume 440.951458
_symmetry_space_group_name_H-M "P -1"
_symmetry_group_IT_number 2
_symmetry_cell_setting 'triclinic'
loop_
_space_group_symop_operation_xyz
x,y,z
-x,-y,-z
loop_
_atom_site_type_symbol
_atom_site_label
_atom_site_fract_x
_atom_site_fract_y
_atom_site_fract_z
Si Si1 0.253430 0.963117 0.745564
Si Si2 0.482779 0.874839 0.311982
Si Si3 0.129447 0.500544 0.223663
Si Si4 0.752727 0.887785 0.765111
Si Si5 0.653513 0.628980 0.209291
Si Si6 0.949224 0.331847 0.677772
O O1 0.446168 0.019870 0.777933
O O2 0.252065 0.148860 0.758175
O O3 0.000000 0.000000 0.500000
O O4 0.367642 0.710291 0.960573
O O5 0.332930 0.660836 0.271605
O O6 0.736313 0.764064 0.585807
O O7 0.317109 0.056280 0.193833
O O8 0.100760 0.547581 0.300456
O O9 0.882320 0.622616 0.953454
O O10 0.940425 0.059314 0.792345
O O11 0.500000 0.000000 0.500000
O O12 0.728756 0.422221 0.415338
O O13 0.813806 0.591771 0.238875
#
# Coordination Sequence:
#
# PCOD9107849 Si02
#       6
#     2   2   2   2   2   2
#     4  11  23  39  61  92 122 158 201 251 303 357
#     4  10  21  40  62  87 117 157 204 247 302 361
#     4  10  20  40  66  83 117 161 199 249 302 361
#     4  11  24  37  60  93 121 154 201 255 305 358
#     4  10  22  40  64  85 122 163 200 245 300 369
#     4  10  20  42  60  85 117 160 204 243 304 360
#
# _framework density 27.21388
#
# number of rings (size 3 to 8) (size 9 to 14) (size 15 to 20)
#    0.000    1.667    1.667    4.000    2.333    2.000 
#    0.000    1.667    0.000    0.000    0.000    0.000 
#    0.000    0.000    0.000    0.000    0.000    0.000 
#
# Total GULP energy -67233.460256 kJ/mol
# GULP energy per Si atom -5602.788355 kJ/mol
# Density = 2.715194 g / cm^3
# Si number density = 27.213880 Si / 1000 Ang^3
#
#
#
# Elastic Constant Matrix: (Units=GPa)
#
#
# Indices 1 2 3 4 5 6 
#
# 1 115.3814 32.7156 30.6092 -19.7400 -9.5286 8.4572
# 2 32.7156 49.1169 23.1855 -4.6441 0.4540 1.3078
# 3 30.6092 23.1855 235.5683 -10.8761 16.9555 -5.0166
# 4 -19.7400 -4.6441 -10.8761 51.5386 -8.2721 2.0041
# 5 -9.5286 0.4540 16.9555 -8.2721 32.0998 -11.1508
# 6 8.4572 1.3078 -5.0166 2.0041 -11.1508 31.0466
#
#
#
# Elastic Compliance Matrix: (Units=1/GPa)
#
#
# Indices 1 2 3 4 5 6 
#
# 1 0.012357 -0.007281 -0.001064 0.004713 0.004935 -0.001763
# 2 -0.007281 0.025833 -0.001502 -0.001102 -0.002018 -0.000001
# 3 -0.001064 -0.001502 0.004732 0.000010 -0.002746 0.000131
# 4 0.004713 -0.001102 0.000010 0.022255 0.007102 -0.000122
# 5 0.004935 -0.002018 -0.002746 0.007102 0.040191 0.012273
# 6 -0.001763 -0.000001 0.000131 -0.000122 0.012273 0.037127
#
#
# Mechanical properties :
#
#
# Convention : Reuss Voigt Hill
#
# Bulk Modulus (GPa) = 43.05375 63.67637 53.36506
# Shear Modulus (GPa) = 29.42340 43.84075 36.63207
#
# Velocity S-wave (km/s) = 3.29171 4.01804 3.67288
# Velocity P-wave (km/s) = 5.50473 6.70638 6.13504
#
# Compressibility (1/GPa) = 0.02322678
#
# Stress axis : x y z
#
# Youngs Moduli (GPa) = 80.92658 38.71000 211.32390
#
# Poissons Ratio (x) = 0.28186 0.22488
# Poissons Ratio (y) = 0.58926 0.31744
# Poissons Ratio (z) = 0.08612 0.05815
#
# Static dielectric constant tensor:
#      x y z
#    x 2.061650 -0.018570 -0.000870 
#    y -0.018570 2.095330 0.069590 
#    z -0.000870 0.069590 2.247080 
# 
# From -- ./inp_files/160451.got.cif
#   From: 2010.05.17/outbox.cif.g08.bks.cpg/sg2_81_cif.got.tgz:160451.got - 2010.06.03 11:33:40.
