data_PCOD9107880
_publ_section_title
;
Structure prediction by ZEFSAII (Michael W. Deem and Ramdas Pophale) SiO2 
 PCOD9107880
Probable space group: P -1
;
_chemical_formula_sum "Si O2"
_cell_formula_units_Z 13
_cell_length_a 17.761307
_cell_length_b 9.565260
_cell_length_c 8.500548
_cell_angle_alpha 113.419788
_cell_angle_beta 38.997109
_cell_angle_gamma 138.546291
_cell_volume 539.038941
_symmetry_space_group_name_H-M "P -1"
_symmetry_group_IT_number 2
_symmetry_cell_setting 'triclinic'
loop_
_space_group_symop_operation_xyz
x,y,z
-x,-y,-z
loop_
_atom_site_type_symbol
_atom_site_label
_atom_site_fract_x
_atom_site_fract_y
_atom_site_fract_z
Si Si1 0.297218 0.771200 0.872331
Si Si2 0.192575 0.515114 0.606164
Si Si3 0.833431 0.015585 0.506885
Si Si4 0.078953 0.011662 0.210833
Si Si5 0.621808 0.046548 0.677684
Si Si6 0.583118 0.762171 0.091548
Si Si7 0.000000 0.500000 0.500000
O O1 0.216481 0.629498 0.779678
O O2 0.488956 0.885891 0.675811
O O3 0.356680 0.004634 0.870414
O O4 0.152647 0.598542 0.165986
O O5 0.005160 0.238954 0.780501
O O6 0.230333 0.675542 0.478213
O O7 0.362959 0.560401 0.348755
O O8 0.730723 0.001110 0.525460
O O9 0.942246 0.262829 0.516919
O O10 0.979375 0.022493 0.250375
O O11 0.670029 0.810206 0.801188
O O12 0.000000 0.000000 0.500000
O O13 0.300201 0.222795 0.965984
O O14 0.500000 0.000000 0.000000
#
# Coordination Sequence:
#
# PCOD9107880 Si02
#       7
#     2   2   2   2   2   2   1
#     4  10  22  40  66  98 125 166 222 268 325 385
#     4  11  23  42  66  95 133 171 215 275 322 371
#     4  10  21  38  61  95 126 166 221 265 313 385
#     4  10  24  40  61  96 135 175 221 255 323 396
#     4  11  19  38  68  94 125 167 221 270 314 379
#     4   9  19  40  63  96 127 166 217 263 314 386
#     4  10  20  40  66  88 126 160 214 268 324 376
#
# _framework density 24.116994999999999
#
# number of rings (size 3 to 8) (size 9 to 14) (size 15 to 20)
#    0.000    1.846    4.615    1.846    6.462    3.077 
#    5.538    1.538    0.000    0.000    0.000    0.000 
#    0.000    0.000    0.000    0.000    0.000    0.000 
#
# Total GULP energy -72434.136263 kJ/mol
# GULP energy per Si atom -5571.856636 kJ/mol
# Density = 2.406210 g / cm^3
# Si number density = 24.116995 Si / 1000 Ang^3
#
#
#
# Elastic Constant Matrix: (Units=GPa)
#
#
# Indices 1 2 3 4 5 6 
#
# 1 116.8256 2.4901 18.5508 8.5494 -42.9868 -13.5989
# 2 2.4901 66.3269 -7.3002 6.0361 11.8774 2.8713
# 3 18.5508 -7.3002 50.0790 -17.3725 -7.1006 -11.3734
# 4 8.5494 6.0361 -17.3725 22.1691 3.7136 -7.7072
# 5 -42.9868 11.8774 -7.1006 3.7136 46.5775 6.5170
# 6 -13.5989 2.8713 -11.3734 -7.7072 6.5170 35.0748
#
#
#
# Elastic Compliance Matrix: (Units=1/GPa)
#
#
# Indices 1 2 3 4 5 6 
#
# 1 0.018425 -0.003251 -0.013273 -0.021405 0.018214 -0.004982
# 2 -0.003251 0.016755 0.002282 -0.000658 -0.006763 -0.000780
# 3 -0.013273 0.002282 0.046455 0.051243 -0.013114 0.023427
# 4 -0.021405 -0.000658 0.051243 0.111105 -0.025894 0.037596
# 5 0.018214 -0.006763 -0.013114 -0.025894 0.041473 -0.010032
# 6 -0.004982 -0.000780 0.023427 0.037596 -0.010032 0.044364
#
#
# Mechanical properties :
#
#
# Convention : Reuss Voigt Hill
#
# Bulk Modulus (GPa) = 18.81418 28.96809 23.89114
# Shear Modulus (GPa) = 15.39509 35.39701 25.39605
#
# Velocity S-wave (km/s) = 2.52930 3.83524 3.24857
# Velocity P-wave (km/s) = 4.04326 5.62580 4.89886
#
# Compressibility (1/GPa) = 0.05315139
#
# Stress axis : x y z
#
# Youngs Moduli (GPa) = 54.27347 59.68429 21.52607
#
# Poissons Ratio (x) = 0.19401 0.28573
# Poissons Ratio (y) = 0.17643 -0.04913
# Poissons Ratio (z) = 0.72040 -0.13621
#
# Static dielectric constant tensor:
#      x y z
#    x 2.096060 0.031940 -0.021250 
#    y 0.031940 1.894980 0.011680 
#    z -0.021250 0.011680 1.949550 
# 
# From -- ./inp_files/326386.got.cif
#   From: 2010.05.17/outbox.cif.g08.bks.cpg/sg2_164_cif.got.tgz:326386.got - 2010.06.03 11:33:40.
