data_PCOD9107211
_publ_section_title
;
Structure prediction by ZEFSAII (Michael W. Deem and Ramdas Pophale) SiO2 
 PCOD9107211
Probable space group: P -1
;
_chemical_formula_sum "Si O2"
_cell_formula_units_Z 16
_cell_length_a 8.681143
_cell_length_b 8.905547
_cell_length_c 13.402776
_cell_angle_alpha 106.474250
_cell_angle_beta 98.980851
_cell_angle_gamma 127.379476
_cell_volume 712.553499
_symmetry_space_group_name_H-M "P -1"
_symmetry_group_IT_number 2
_symmetry_cell_setting 'triclinic'
loop_
_space_group_symop_operation_xyz
x,y,z
-x,-y,-z
loop_
_atom_site_type_symbol
_atom_site_label
_atom_site_fract_x
_atom_site_fract_y
_atom_site_fract_z
Si Si1 0.037879 0.163065 0.115983
Si Si2 0.978710 0.483530 0.612546
Si Si3 0.442579 0.769775 0.755105
Si Si4 0.427769 0.626737 0.500910
Si Si5 0.111149 0.943071 0.205809
Si Si6 0.830837 0.524171 0.974700
Si Si7 0.880059 0.050671 0.563301
Si Si8 0.545123 0.850816 0.000867
O O1 0.157768 0.150976 0.211453
O O2 0.151062 0.388362 0.117391
O O3 0.790953 0.020027 0.090651
O O4 0.000000 0.000000 0.000000
O O5 0.783389 0.471421 0.602017
O O6 0.924223 0.263878 0.586547
O O7 0.000000 0.500000 0.500000
O O8 0.205203 0.681875 0.724601
O O9 0.407292 0.662320 0.623029
O O10 0.492410 0.734548 0.864787
O O11 0.674127 0.006562 0.794505
O O12 0.500000 0.500000 0.500000
O O13 0.624662 0.846072 0.504824
O O14 0.054294 0.920265 0.309828
O O15 0.917393 0.723494 0.090952
O O16 0.605101 0.316543 0.958267
O O17 0.000000 0.500000 0.000000
O O18 0.000000 0.000000 0.500000
O O19 0.500000 0.000000 0.000000
#
# Coordination Sequence:
#
# PCOD9107211 Si02
#       8
#     2   2   2   2   2   2   2   2
#     4  10  21  42  63  92 135 168 226 271 328 386
#     4  10  21  40  65  96 123 172 216 267 337 395
#     4  10  20  40  63  91 132 170 213 267 330 394
#     4  10  22  42  68  94 133 168 215 284 330 393
#     4  10  22  42  64  95 133 174 216 279 327 388
#     4  11  21  39  66  93 132 175 222 274 328 387
#     4  11  22  41  68  95 135 172 221 274 330 403
#     4  12  22  40  67  95 135 178 219 274 330 396
#
# _framework density 22.454453000000001
#
# number of rings (size 3 to 8) (size 9 to 14) (size 15 to 20)
#    0.000    1.500    3.750    2.625    0.000    2.000 
#   11.250    0.000    5.500    0.000    0.000    0.000 
#    0.000    0.000    0.000    0.000    0.000    0.000 
#
# Total GULP energy -89070.090058 kJ/mol
# GULP energy per Si atom -5566.880629 kJ/mol
# Density = 2.240335 g / cm^3
# Si number density = 22.454453 Si / 1000 Ang^3
#
#
#
# Elastic Constant Matrix: (Units=GPa)
#
#
# Indices 1 2 3 4 5 6 
#
# 1 124.2999 65.7337 35.0166 2.3206 3.4049 7.3095
# 2 65.7337 168.6504 36.2694 -25.2889 0.5185 4.6264
# 3 35.0166 36.2694 71.0244 -17.7522 3.7316 6.1978
# 4 2.3206 -25.2889 -17.7522 37.2627 4.6269 9.7045
# 5 3.4049 0.5185 3.7316 4.6269 30.1001 1.0566
# 6 7.3095 4.6264 6.1978 9.7045 1.0566 42.8651
#
#
#
# Elastic Compliance Matrix: (Units=1/GPa)
#
#
# Indices 1 2 3 4 5 6 
#
# 1 0.012028 -0.004551 -0.005338 -0.006609 0.000371 0.000699
# 2 -0.004551 0.008827 -0.000467 0.006527 -0.000527 -0.001574
# 3 -0.005338 -0.000467 0.020347 0.011302 -0.003492 -0.004454
# 4 -0.006609 0.006527 0.011302 0.040551 -0.006640 -0.010228
# 5 0.000371 -0.000527 -0.003492 -0.006640 0.034603 0.001149
# 6 0.000699 -0.001574 -0.004454 -0.010228 0.001149 0.026311
#
#
# Mechanical properties :
#
#
# Convention : Reuss Voigt Hill
#
# Bulk Modulus (GPa) = 48.80803 70.89045 59.84924
# Shear Modulus (GPa) = 29.37528 37.17591 33.27560
#
# Velocity S-wave (km/s) = 3.62085 4.07334 3.85374
# Velocity P-wave (km/s) = 6.26613 7.33226 6.82006
#
# Compressibility (1/GPa) = 0.02048843
#
# Stress axis : x y z
#
# Youngs Moduli (GPa) = 83.13965 113.28343 49.14628
#
# Poissons Ratio (x) = 0.51560 0.26236
# Poissons Ratio (y) = 0.37840 0.02297
# Poissons Ratio (z) = 0.44383 0.05296
#
# Static dielectric constant tensor:
#      x y z
#    x 2.008370 -0.023820 -0.001130 
#    y -0.023820 1.840050 0.007350 
#    z -0.001130 0.007350 1.917510 
# 
# From -- ./inp_files/455509.got.cif
#   From: 2010.05.17/outbox.cif.g08.bks.cpg/sg2_228_cif.got.tgz:455509.got - 2010.06.03 11:33:40.
