data_PCOD9107143
_publ_section_title
;
Structure prediction by ZEFSAII (Michael W. Deem and Ramdas Pophale) SiO2 
 PCOD9107143
Probable space group: P -1
;
_chemical_formula_sum "Si O2"
_cell_formula_units_Z 14
_cell_length_a 20.102316
_cell_length_b 14.829728
_cell_length_c 6.338491
_cell_angle_alpha 102.409890
_cell_angle_beta 81.114292
_cell_angle_gamma 161.007884
_cell_volume 593.469033
_symmetry_space_group_name_H-M "P -1"
_symmetry_group_IT_number 2
_symmetry_cell_setting 'triclinic'
loop_
_space_group_symop_operation_xyz
x,y,z
-x,-y,-z
loop_
_atom_site_type_symbol
_atom_site_label
_atom_site_fract_x
_atom_site_fract_y
_atom_site_fract_z
Si Si1 0.731144 0.203726 0.935896
Si Si2 0.129352 0.807674 0.002943
Si Si3 0.510584 0.357203 0.849454
Si Si4 0.007265 0.200938 0.665240
Si Si5 0.709226 0.760905 0.261728
Si Si6 0.647009 0.223997 0.352663
Si Si7 0.095821 0.226300 0.055915
O O1 0.804714 0.194951 0.892725
O O2 0.507866 0.926316 0.809076
O O3 0.728625 0.240483 0.193401
O O4 0.897629 0.484374 0.876532
O O5 0.117026 0.880204 0.193594
O O6 0.297706 0.033835 0.853487
O O7 0.449011 0.358089 0.716076
O O8 0.591463 0.521542 0.096636
O O9 0.686620 0.508916 0.799097
O O10 0.162901 0.457875 0.562285
O O11 0.127197 0.301200 0.839940
O O12 0.839791 0.919388 0.490296
O O13 0.902915 0.034219 0.146062
O O14 0.500000 0.000000 0.500000
O O15 0.000000 0.000000 0.000000
#
# Coordination Sequence:
#
# PCOD9107143 Si02
#       7
#     2   2   2   2   2   2   2
#     4   9  21  41  61  88 130 162 208 270 314 376
#     4  10  20  40  63  88 126 170 210 260 322 380
#     4  10  21  40  65  89 128 173 209 257 334 373
#     4  11  23  40  65  93 132 168 216 268 319 380
#     4  10  23  42  61  95 130 165 215 270 309 385
#     4  10  22  39  64  94 123 167 213 261 322 381
#     4  10  22  43  63  91 128 170 218 261 316 382
#
# _framework density 23.590111
#
# number of rings (size 3 to 8) (size 9 to 14) (size 15 to 20)
#    0.000    2.000    1.429    0.857    2.000    5.143 
#    7.714    2.143    0.000    0.000    0.000    0.000 
#    0.000    0.000    0.000    0.000    0.000    0.000 
#
# Total GULP energy -78095.764616 kJ/mol
# GULP energy per Si atom -5578.268901 kJ/mol
# Density = 2.353642 g / cm^3
# Si number density = 23.590111 Si / 1000 Ang^3
#
#
#
# Elastic Constant Matrix: (Units=GPa)
#
#
# Indices 1 2 3 4 5 6 
#
# 1 79.8858 12.8836 20.7082 -4.5838 -0.2318 20.1829
# 2 12.8836 106.9360 13.1409 -18.4334 -4.1697 5.7981
# 3 20.7082 13.1409 23.3609 -3.4593 1.0450 -4.3510
# 4 -4.5838 -18.4334 -3.4593 39.5162 -1.0425 4.5909
# 5 -0.2318 -4.1697 1.0450 -1.0425 14.5384 -2.2548
# 6 20.1829 5.7981 -4.3510 4.5909 -2.2548 36.3941
#
#
#
# Elastic Compliance Matrix: (Units=1/GPa)
#
#
# Indices 1 2 3 4 5 6 
#
# 1 0.022522 0.001574 -0.023358 0.003157 0.000247 -0.015916
# 2 0.001574 0.011432 -0.007953 0.005391 0.003626 -0.004100
# 3 -0.023358 -0.007953 0.072026 -0.002895 -0.004484 0.022919
# 4 0.003157 0.005391 -0.002895 0.028754 0.002873 -0.006405
# 5 0.000247 0.003626 -0.004484 0.002873 0.070786 0.002772
# 6 -0.015916 -0.004100 0.022919 -0.006405 0.002772 0.040676
#
#
# Mechanical properties :
#
#
# Convention : Reuss Voigt Hill
#
# Bulk Modulus (GPa) = 21.50271 33.73867 27.62069
# Shear Modulus (GPa) = 15.56797 28.98641 22.27719
#
# Velocity S-wave (km/s) = 2.57171 3.50916 3.07635
# Velocity P-wave (km/s) = 4.23712 5.54545 4.93484
#
# Compressibility (1/GPa) = 0.04650577
#
# Stress axis : x y z
#
# Youngs Moduli (GPa) = 44.40134 87.47234 13.88385
#
# Poissons Ratio (x) = -0.13766 0.32429
# Poissons Ratio (y) = -0.06988 0.11042
# Poissons Ratio (z) = 1.03711 0.69571
#
# Static dielectric constant tensor:
#      x y z
#    x 1.908840 0.023290 -0.002170 
#    y 0.023290 1.915730 -0.019570 
#    z -0.002170 -0.019570 1.961230 
# 
# From -- ./inp_files/119465.got.cif
#   From: 2010.05.17/outbox.cif.g08.bks.cpg/sg2_60_cif.got.tgz:119465.got - 2010.06.03 11:33:40.
