data_PCOD9107350
_publ_section_title
;
Structure prediction by ZEFSAII (Michael W. Deem and Ramdas Pophale) SiO2 
 PCOD9107350
Probable space group: P -1
;
_chemical_formula_sum "Si O2"
_cell_formula_units_Z 16
_cell_length_a 6.249159
_cell_length_b 6.100239
_cell_length_c 27.010384
_cell_angle_alpha 105.169445
_cell_angle_beta 49.485869
_cell_angle_gamma 88.772777
_cell_volume 729.368642
_symmetry_space_group_name_H-M "P -1"
_symmetry_group_IT_number 2
_symmetry_cell_setting 'triclinic'
loop_
_space_group_symop_operation_xyz
x,y,z
-x,-y,-z
loop_
_atom_site_type_symbol
_atom_site_label
_atom_site_fract_x
_atom_site_fract_y
_atom_site_fract_z
Si Si1 0.420975 0.899544 0.163287
Si Si2 0.025632 0.070241 0.588123
Si Si3 0.497471 0.520408 0.343658
Si Si4 0.510257 0.357254 0.540388
Si Si5 0.499389 0.859019 0.041702
Si Si6 0.357029 0.080836 0.287609
Si Si7 0.975055 0.442516 0.914332
Si Si8 0.901956 0.655458 0.215692
O O1 0.442429 0.994502 0.110354
O O2 0.724597 0.709080 0.117654
O O3 0.171316 0.760468 0.193795
O O4 0.358279 0.084107 0.228341
O O5 0.256290 0.222506 0.570614
O O6 0.741704 0.232534 0.614340
O O7 0.184598 0.842671 0.519189
O O8 0.920011 0.987646 0.651202
O O9 0.527383 0.485581 0.395655
O O10 0.382709 0.320267 0.322346
O O11 0.787670 0.537722 0.272428
O O12 0.500000 0.500000 0.500000
O O13 0.248274 0.721604 0.066299
O O14 0.811019 0.666157 0.983919
O O15 0.500000 0.000000 0.000000
O O16 0.638244 0.874751 0.250102
O O17 0.026216 0.508614 0.853537
#
# Coordination Sequence:
#
# PCOD9107350 Si02
#       8
#     2   2   2   2   2   2   2   2
#     4  10  20  40  64  87 122 160 198 248 299 353
#     4  10  23  42  62  88 122 158 200 247 301 356
#     4  11  23  41  64  88 121 160 198 246 300 357
#     4  11  24  40  63  93 121 156 201 247 299 359
#     4  10  21  38  60  89 123 157 197 246 298 353
#     4  10  22  39  61  91 121 156 202 248 299 355
#     4   9  20  39  60  88 119 156 202 246 296 352
#     4   9  21  39  61  87 120 157 200 251 298 350
#
# _framework density 21.936781
#
# number of rings (size 3 to 8) (size 9 to 14) (size 15 to 20)
#    0.000    2.000    0.000    2.250    0.000   11.500 
#    0.000   12.500    0.000    0.000    0.000    0.000 
#    0.000    0.000    0.000    0.000    0.000    0.000 
#
# Total GULP energy -89466.139432 kJ/mol
# GULP energy per Si atom -5591.633715 kJ/mol
# Density = 2.188685 g / cm^3
# Si number density = 21.936781 Si / 1000 Ang^3
#
#
#
# Elastic Constant Matrix: (Units=GPa)
#
#
# Indices 1 2 3 4 5 6 
#
# 1 67.5152 22.2491 69.5946 -15.1917 23.5978 -0.7148
# 2 22.2491 61.6480 57.1122 -18.5612 22.2604 1.2448
# 3 69.5946 57.1122 180.0978 -28.0603 33.8408 3.8566
# 4 -15.1917 -18.5612 -28.0603 19.5738 -4.0800 8.0559
# 5 23.5978 22.2604 33.8408 -4.0800 61.5399 0.5347
# 6 -0.7148 1.2448 3.8566 8.0559 0.5347 18.4280
#
#
#
# Elastic Compliance Matrix: (Units=1/GPa)
#
#
# Indices 1 2 3 4 5 6 
#
# 1 0.027485 0.004433 -0.008763 0.012780 -0.006452 -0.002799
# 2 0.004433 0.031757 -0.005297 0.029894 -0.008173 -0.013696
# 3 -0.008763 -0.005297 0.012114 0.007802 -0.000817 -0.005904
# 4 0.012780 0.029894 0.007802 0.121092 -0.011491 -0.055759
# 5 -0.006452 -0.008173 -0.000817 -0.011491 0.021325 0.004878
# 6 -0.002799 -0.013696 -0.005904 -0.055759 0.004878 0.080551
#
#
# Mechanical properties :
#
#
# Convention : Reuss Voigt Hill
#
# Bulk Modulus (GPa) = 19.19312 67.46363 43.32838
# Shear Modulus (GPa) = 15.10822 30.59537 22.85179
#
# Velocity S-wave (km/s) = 2.62719 3.73863 3.23106
# Velocity P-wave (km/s) = 4.23923 7.03256 5.80638
#
# Compressibility (1/GPa) = 0.05210199
#
# Stress axis : x y z
#
# Youngs Moduli (GPa) = 36.38368 31.48910 82.54865
#
# Poissons Ratio (x) = -0.13960 0.72339
# Poissons Ratio (y) = -0.16130 0.43727
# Poissons Ratio (z) = 0.31884 0.16680
#
# Static dielectric constant tensor:
#      x y z
#    x 1.786390 -0.030560 0.011350 
#    y -0.030560 1.774460 0.007290 
#    z 0.011350 0.007290 1.823950 
# 
# From -- ./inp_files/11111.got.cif
#   From: 2010.05.17/outbox.cif.g08.bks.cpg/sg2_6_cif.got.tgz:11111.got - 2010.06.03 11:33:40.
