data_PCOD9107755
_publ_section_title
;
Structure prediction by ZEFSAII (Michael W. Deem and Ramdas Pophale) SiO2 
 PCOD9107755
Probable space group: P -1
;
_chemical_formula_sum "Si O2"
_cell_formula_units_Z 16
_cell_length_a 25.683906
_cell_length_b 5.141947
_cell_length_c 5.613284
_cell_angle_alpha 83.460636
_cell_angle_beta 121.477829
_cell_angle_gamma 106.305759
_cell_volume 606.313903
_symmetry_space_group_name_H-M "P -1"
_symmetry_group_IT_number 2
_symmetry_cell_setting 'triclinic'
loop_
_space_group_symop_operation_xyz
x,y,z
-x,-y,-z
loop_
_atom_site_type_symbol
_atom_site_label
_atom_site_fract_x
_atom_site_fract_y
_atom_site_fract_z
Si Si1 0.687182 0.948359 0.251302
Si Si2 0.258046 0.486653 0.864480
Si Si3 0.214319 0.069000 0.167488
Si Si4 0.133489 0.290264 0.301914
Si Si5 0.572940 0.494471 0.160851
Si Si6 0.018581 0.301097 0.257326
Si Si7 0.454762 0.703524 0.385689
Si Si8 0.100321 0.699337 0.795940
O O1 0.711847 0.715909 0.197672
O O2 0.618173 0.791688 0.191759
O O3 0.699983 0.208558 0.087309
O O4 0.732038 0.046716 0.577002
O O5 0.248297 0.362752 0.116864
O O6 0.187505 0.448963 0.594916
O O7 0.167373 0.904421 0.871993
O O8 0.165533 0.093017 0.254609
O O9 0.065682 0.143215 0.270097
O O10 0.119098 0.507386 0.060639
O O11 0.586482 0.379932 0.463154
O O12 0.500000 0.500000 0.000000
O O13 0.577607 0.326784 0.948673
O O14 0.064464 0.501590 0.528786
O O15 0.953255 0.160008 0.247145
O O16 0.000000 0.500000 0.000000
O O17 0.500000 0.500000 0.500000
O O18 0.500000 0.000000 0.500000
#
# Coordination Sequence:
#
# PCOD9107755 Si02
#       8
#     2   2   2   2   2   2   2   2
#     4  11  27  47  70 110 146 188 250 301 368 444
#     4  11  26  44  72 103 145 192 243 303 364 439
#     4  11  25  42  71  98 135 193 239 299 364 441
#     4  10  21  41  61  96 133 179 234 293 363 425
#     4  10  24  48  76 113 153 201 245 315 381 450
#     4   9  20  36  64  96 135 175 232 297 365 436
#     4  10  22  42  72 107 146 193 240 291 365 444
#     4  10  20  40  65  94 135 180 234 296 365 435
#
# _framework density 26.388974000000001
#
# number of rings (size 3 to 8) (size 9 to 14) (size 15 to 20)
#    0.000    1.750    1.250    1.125    5.250    5.500 
#    0.000    8.750    0.000    0.000    0.000    0.000 
#    0.000    0.000    0.000    0.000    0.000    0.000 
#
# Total GULP energy -89629.250728 kJ/mol
# GULP energy per Si atom -5601.828171 kJ/mol
# Density = 2.632891 g / cm^3
# Si number density = 26.388974 Si / 1000 Ang^3
#
#
#
# Elastic Constant Matrix: (Units=GPa)
#
#
# Indices 1 2 3 4 5 6 
#
# 1 98.7331 32.8238 46.8788 7.4432 13.7844 20.9704
# 2 32.8238 154.2893 29.7900 4.0239 -2.0165 26.1572
# 3 46.8788 29.7900 84.4477 -2.9305 -24.7879 9.1773
# 4 7.4432 4.0239 -2.9305 40.7443 9.2965 -0.1754
# 5 13.7844 -2.0165 -24.7879 9.2965 44.2108 3.6923
# 6 20.9704 26.1572 9.1773 -0.1754 3.6923 46.5418
#
#
#
# Elastic Compliance Matrix: (Units=1/GPa)
#
#
# Indices 1 2 3 4 5 6 
#
# 1 0.020446 -0.000855 -0.014673 -0.001551 -0.013918 -0.004741
# 2 -0.000855 0.007643 -0.001853 -0.000754 0.000031 -0.003550
# 3 -0.014673 -0.001853 0.026111 0.000420 0.018958 0.001001
# 4 -0.001551 -0.000754 0.000420 0.026061 -0.004923 0.001529
# 5 -0.013918 0.000031 0.018958 -0.004923 0.038672 -0.000571
# 6 -0.004741 -0.003550 0.001001 0.001529 -0.000571 0.025471
#
#
# Mechanical properties :
#
#
# Convention : Reuss Voigt Hill
#
# Bulk Modulus (GPa) = 51.44158 61.82838 56.63498
# Shear Modulus (GPa) = 26.93321 41.49786 34.21554
#
# Velocity S-wave (km/s) = 3.19819 3.96984 3.60472
# Velocity P-wave (km/s) = 5.75967 6.67033 6.23165
#
# Compressibility (1/GPa) = 0.01943953
#
# Stress axis : x y z
#
# Youngs Moduli (GPa) = 48.90928 130.84093 38.29807
#
# Poissons Ratio (x) = 0.11180 0.56194
# Poissons Ratio (y) = 0.04179 0.07096
# Poissons Ratio (z) = 0.71763 0.24244
#
# Static dielectric constant tensor:
#      x y z
#    x 2.127920 -0.011650 -0.054350 
#    y -0.011650 2.019650 0.002480 
#    z -0.054350 0.002480 2.100800 
# 
# From -- ./inp_files/125789.got.cif
#   From: 2010.05.17/outbox.cif.g08.bks.cpg/sg2_63_cif.got.tgz:125789.got - 2010.06.03 11:33:40.
