data_PCOD9107520
_publ_section_title
;
Structure prediction by ZEFSAII (Michael W. Deem and Ramdas Pophale) SiO2 
 PCOD9107520
Probable space group: P -1
;
_chemical_formula_sum "Si O2"
_cell_formula_units_Z 16
_cell_length_a 4.958935
_cell_length_b 24.071026
_cell_length_c 5.433187
_cell_angle_alpha 106.718052
_cell_angle_beta 90.970553
_cell_angle_gamma 66.484013
_cell_volume 565.997504
_symmetry_space_group_name_H-M "P -1"
_symmetry_group_IT_number 2
_symmetry_cell_setting 'triclinic'
loop_
_space_group_symop_operation_xyz
x,y,z
-x,-y,-z
loop_
_atom_site_type_symbol
_atom_site_label
_atom_site_fract_x
_atom_site_fract_y
_atom_site_fract_z
Si Si1 0.153312 0.704779 0.746900
Si Si2 0.927076 0.312816 0.781777
Si Si3 0.073734 0.892187 0.449914
Si Si4 0.583323 0.559507 0.555928
Si Si5 0.713146 0.871813 0.799948
Si Si6 0.748368 0.598857 0.105421
Si Si7 0.698923 0.017792 0.737819
Si Si8 0.359086 0.803284 0.961770
O O1 0.988780 0.725113 0.514690
O O2 0.298781 0.627868 0.645899
O O3 0.957190 0.724862 0.013804
O O4 0.403422 0.731482 0.812257
O O5 0.008680 0.373003 0.848499
O O6 0.570662 0.340783 0.822245
O O7 0.810364 0.871891 0.516670
O O8 0.153062 0.936363 0.309499
O O9 0.324781 0.824677 0.275096
O O10 0.969039 0.950489 0.725256
O O11 0.500000 0.500000 0.500000
O O12 0.739717 0.561429 0.303747
O O13 0.760701 0.562908 0.805926
O O14 0.520848 0.940680 0.002781
O O15 0.523355 0.832912 0.824345
O O16 0.014526 0.840177 0.917718
O O17 0.500000 0.000000 0.500000
#
# Coordination Sequence:
#
# PCOD9107520 Si02
#       8
#     2   2   2   2   2   2   2   2
#     4  10  24  45  66 100 135 182 231 288 350 418
#     4  10  22  42  68  94 133 174 225 278 340 411
#     4  10  23  41  63  96 132 174 220 281 338 410
#     4  10  21  42  69 102 139 180 230 289 350 416
#     4  11  25  42  67  95 131 178 224 277 345 408
#     4  10  21  40  66  98 131 173 220 278 343 411
#     4  10  20  40  64  96 133 169 222 277 337 408
#     4  11  26  43  63  96 131 173 232 279 341 418
#
# _framework density 28.268674000000001
#
# number of rings (size 3 to 8) (size 9 to 14) (size 15 to 20)
#    0.000    1.750    1.250    1.500    3.500    4.500 
#    0.000   15.000    0.000    0.000    0.000    0.000 
#    0.000    0.000    0.000    0.000    0.000    0.000 
#
# Total GULP energy -89374.504170 kJ/mol
# GULP energy per Si atom -5585.906511 kJ/mol
# Density = 2.820433 g / cm^3
# Si number density = 28.268674 Si / 1000 Ang^3
#
#
#
# Elastic Constant Matrix: (Units=GPa)
#
#
# Indices 1 2 3 4 5 6 
#
# 1 115.7098 34.6407 28.0569 -17.1996 24.4661 25.2701
# 2 34.6407 168.0435 84.3906 3.7469 -14.2733 51.7576
# 3 28.0569 84.3906 393.6942 34.9210 -123.2857 43.4830
# 4 -17.1996 3.7469 34.9210 89.0755 -46.5560 -7.2702
# 5 24.4661 -14.2733 -123.2857 -46.5560 143.9126 -9.9762
# 6 25.2701 51.7576 43.4830 -7.2702 -9.9762 65.1499
#
#
#
# Elastic Compliance Matrix: (Units=1/GPa)
#
#
# Indices 1 2 3 4 5 6 
#
# 1 0.010574 -0.000948 -0.001196 0.000825 -0.002850 -0.002894
# 2 -0.000948 0.008524 -0.001290 -0.000923 -0.000797 -0.005768
# 3 -0.001196 -0.001290 0.004082 0.000010 0.003528 -0.000694
# 4 0.000825 -0.000923 0.000010 0.013980 0.004483 0.002654
# 5 -0.002850 -0.000797 0.003528 0.004483 0.011946 0.001714
# 6 -0.002894 -0.005768 -0.000694 0.002654 0.001714 0.022076
#
#
# Mechanical properties :
#
#
# Convention : Reuss Voigt Hill
#
# Bulk Modulus (GPa) = 61.31115 107.95821 84.63468
# Shear Modulus (GPa) = 59.88935 94.98489 77.43712
#
# Velocity S-wave (km/s) = 4.60779 5.80290 5.23954
# Velocity P-wave (km/s) = 7.07424 9.11983 8.16137
#
# Compressibility (1/GPa) = 0.01631025
#
# Stress axis : x y z
#
# Youngs Moduli (GPa) = 94.57602 117.32224 244.95239
#
# Poissons Ratio (x) = 0.11121 0.29307
# Poissons Ratio (y) = 0.08965 0.31605
# Poissons Ratio (z) = 0.11315 0.15138
#
# Static dielectric constant tensor:
#      x y z
#    x 2.377220 -0.088060 0.150170 
#    y -0.088060 2.231560 -0.049670 
#    z 0.150170 -0.049670 2.360160 
# 
# From -- ./inp_files/13536.got.cif
#   From: 2010.05.17/outbox.cif.g08.bks.cpg/sg2_7_cif.got.tgz:13536.got - 2010.06.03 11:33:40.
