data_PCOD9107556
_publ_section_title
;
Structure prediction by ZEFSAII (Michael W. Deem and Ramdas Pophale) SiO2 
 PCOD9107556
Probable space group: P -1
;
_chemical_formula_sum "Si O2"
_cell_formula_units_Z 13
_cell_length_a 7.897070
_cell_length_b 5.003176
_cell_length_c 11.715789
_cell_angle_alpha 87.611662
_cell_angle_beta 80.970843
_cell_angle_gamma 90.759119
_cell_volume 456.670970
_symmetry_space_group_name_H-M "P -1"
_symmetry_group_IT_number 2
_symmetry_cell_setting 'triclinic'
loop_
_space_group_symop_operation_xyz
x,y,z
-x,-y,-z
loop_
_atom_site_type_symbol
_atom_site_label
_atom_site_fract_x
_atom_site_fract_y
_atom_site_fract_z
Si Si1 0.642912 0.477986 0.367512
Si Si2 0.093217 0.815979 0.327848
Si Si3 0.500000 0.500000 0.000000
Si Si4 0.356153 0.458326 0.219177
Si Si5 0.822164 0.575148 0.120044
Si Si6 0.874465 0.844292 0.903090
Si Si7 0.249023 0.060844 0.515569
O O1 0.483723 0.397552 0.306596
O O2 0.763844 0.609030 0.254551
O O3 0.614475 0.717915 0.456612
O O4 0.728748 0.219341 0.416560
O O5 0.072609 0.953515 0.205225
O O6 0.232645 0.982797 0.386463
O O7 0.181197 0.538417 0.296403
O O8 0.929278 0.811211 0.426327
O O9 0.433428 0.679534 0.119419
O O10 0.673400 0.424592 0.063798
O O11 0.317025 0.258539 0.120430
O O12 0.992065 0.399161 0.112147
O O13 0.852374 0.852453 0.041719
#
# Coordination Sequence:
#
# PCOD9107556 Si02
#       7
#     2   2   1   2   2   2   2
#     4  11  24  47  67 104 138 189 228 291 343 414
#     4  11  25  42  68 103 133 189 232 292 336 424
#     4   8  18  40  62  98 134 182 220 286 348 418
#     4  10  23  41  69  96 143 177 238 279 356 406
#     4   9  18  40  67  95 139 174 229 281 351 404
#     4  10  20  40  65 101 130 179 229 288 341 416
#     4  11  27  45  72  97 145 185 240 280 347 404
#
# _framework density 28.466884
#
# number of rings (size 3 to 8) (size 9 to 14) (size 15 to 20)
#    0.000    1.846    1.538    0.923    4.308    2.462 
#    8.308    6.923    0.000    0.000    0.000    0.000 
#    0.000    0.000    0.000    0.000    0.000    0.000 
#
# Total GULP energy -72516.070055 kJ/mol
# GULP energy per Si atom -5578.159235 kJ/mol
# Density = 2.840209 g / cm^3
# Si number density = 28.466884 Si / 1000 Ang^3
#
#
#
# Elastic Constant Matrix: (Units=GPa)
#
#
# Indices 1 2 3 4 5 6 
#
# 1 98.4012 16.5803 28.2216 -4.3440 31.7464 -2.3950
# 2 16.5803 105.4536 39.7791 -17.8019 16.3356 -2.3121
# 3 28.2216 39.7791 223.0793 -5.1091 34.5487 -9.3019
# 4 -4.3440 -17.8019 -5.1091 36.3237 3.2768 -2.8962
# 5 31.7464 16.3356 34.5487 3.2768 53.4431 7.5851
# 6 -2.3950 -2.3121 -9.3019 -2.8962 7.5851 33.5662
#
#
#
# Elastic Compliance Matrix: (Units=1/GPa)
#
#
# Indices 1 2 3 4 5 6 
#
# 1 0.013051 -0.000266 -0.000171 0.002370 -0.008118 0.002905
# 2 -0.000266 0.011530 -0.001344 0.005835 -0.003082 0.001603
# 3 -0.000171 -0.001344 0.005357 0.000544 -0.003292 0.002171
# 4 0.002370 0.005835 0.000544 0.031694 -0.006175 0.004852
# 5 -0.008118 -0.003082 -0.003292 -0.006175 0.028205 -0.008610
# 6 0.002905 0.001603 0.002171 0.004852 -0.008610 0.033075
#
#
# Mechanical properties :
#
#
# Convention : Reuss Voigt Hill
#
# Bulk Modulus (GPa) = 37.91580 66.23290 52.07435
# Shear Modulus (GPa) = 36.96429 47.49013 42.22721
#
# Velocity S-wave (km/s) = 3.60738 4.08886 3.85565
# Velocity P-wave (km/s) = 5.54068 6.75344 6.17689
#
# Compressibility (1/GPa) = 0.02637423
#
# Stress axis : x y z
#
# Youngs Moduli (GPa) = 76.62381 86.73390 186.67611
#
# Poissons Ratio (x) = 0.02308 0.03191
# Poissons Ratio (y) = 0.02039 0.25098
# Poissons Ratio (z) = 0.01310 0.11661
#
# Static dielectric constant tensor:
#      x y z
#    x 2.363850 -0.065460 0.082450 
#    y -0.065460 1.917960 0.213450 
#    z 0.082450 0.213450 2.013110 
# 
# From -- ./inp_files/23234.got.cif
#   From: 2010.05.17/outbox.cif.g08.bks.cpg/sg2_12_cif.got.tgz:23234.got - 2010.06.03 11:33:40.
