data_PCOD9107604
_publ_section_title
;
Structure prediction by ZEFSAII (Michael W. Deem and Ramdas Pophale) SiO2 
 PCOD9107604
Probable space group: P -1
;
_chemical_formula_sum "Si O2"
_cell_formula_units_Z 16
_cell_length_a 9.092129
_cell_length_b 19.754465
_cell_length_c 17.933113
_cell_angle_alpha 158.432352
_cell_angle_beta 133.825200
_cell_angle_gamma 57.614602
_cell_volume 779.657406
_symmetry_space_group_name_H-M "P -1"
_symmetry_group_IT_number 2
_symmetry_cell_setting 'triclinic'
loop_
_space_group_symop_operation_xyz
x,y,z
-x,-y,-z
loop_
_atom_site_type_symbol
_atom_site_label
_atom_site_fract_x
_atom_site_fract_y
_atom_site_fract_z
Si Si1 0.260616 0.635290 0.086042
Si Si2 0.887806 0.399288 0.162345
Si Si3 0.590779 0.335971 0.387091
Si Si4 0.872971 0.799740 0.601586
Si Si5 0.367069 0.943826 0.173594
Si Si6 0.219631 0.203992 0.593142
Si Si7 0.650256 0.040621 0.990311
Si Si8 0.184822 0.953244 0.472169
O O1 0.528423 0.718786 0.271673
O O2 0.154611 0.727852 0.206030
O O3 0.216756 0.700760 0.054995
O O4 0.176446 0.394046 0.803749
O O5 0.788664 0.559872 0.316682
O O6 0.145954 0.537355 0.380381
O O7 0.836950 0.238048 0.044413
O O8 0.500000 0.500000 0.500000
O O9 0.476770 0.194048 0.272083
O O10 0.557221 0.175244 0.144643
O O11 0.930814 0.883759 0.622871
O O12 0.686169 0.862269 0.633131
O O13 0.091844 0.885507 0.817857
O O14 0.374303 0.918106 0.061978
O O15 0.588248 0.961594 0.312646
O O16 0.205304 0.062850 0.512378
O O17 0.000000 0.000000 0.500000
#
# Coordination Sequence:
#
# PCOD9107604 Si02
#       8
#     2   2   2   2   2   2   2   2
#     4  10  20  40  65  88 116 164 211 257 300 369
#     4  10  22  38  67  92 116 161 219 253 303 372
#     4  10  22  42  62  87 122 168 206 250 307 376
#     4  10  21  39  66  92 117 161 215 259 303 364
#     4  12  23  39  62  92 129 162 200 262 314 371
#     4  10  20  40  68  87 117 161 215 255 303 368
#     4  10  24  40  62  93 127 158 205 256 315 367
#     4  12  26  38  58  95 132 164 201 256 324 374
#
# _framework density 20.521834999999999
#
# number of rings (size 3 to 8) (size 9 to 14) (size 15 to 20)
#    0.000    1.500    2.500    2.250    0.000    8.500 
#    0.000    0.000    0.000    0.000    0.000    0.000 
#    0.000    0.000    0.000    0.000    0.000    0.000 
#
# Total GULP energy -89347.577411 kJ/mol
# GULP energy per Si atom -5584.223588 kJ/mol
# Density = 2.047513 g / cm^3
# Si number density = 20.521835 Si / 1000 Ang^3
#
#
#
# Elastic Constant Matrix: (Units=GPa)
#
#
# Indices 1 2 3 4 5 6 
#
# 1 60.8774 18.6383 33.3403 3.8263 -23.4231 -10.9751
# 2 18.6383 100.5727 27.1476 -0.1560 -17.0154 12.9696
# 3 33.3403 27.1476 56.1350 1.5392 -14.0232 7.9171
# 4 3.8263 -0.1560 1.5392 26.0545 -0.8392 -15.8580
# 5 -23.4231 -17.0154 -14.0232 -0.8392 24.8071 4.9116
# 6 -10.9751 12.9696 7.9171 -15.8580 4.9116 38.9403
#
#
#
# Elastic Compliance Matrix: (Units=1/GPa)
#
#
# Indices 1 2 3 4 5 6 
#
# 1 0.037260 0.000208 -0.018632 0.004374 0.022329 0.013185
# 2 0.000208 0.012967 -0.003442 -0.003034 0.008197 -0.005830
# 3 -0.018632 -0.003442 0.033082 -0.007829 0.001291 -0.014182
# 4 0.004374 -0.003034 -0.007829 0.054214 -0.005818 0.026647
# 5 0.022329 0.008197 0.001291 -0.005818 0.069091 -0.007783
# 6 0.013185 -0.005830 -0.014182 0.026647 -0.007783 0.046055
#
#
# Mechanical properties :
#
#
# Convention : Reuss Voigt Hill
#
# Bulk Modulus (GPa) = 25.26601 41.75972 33.51287
# Shear Modulus (GPa) = 16.15012 27.19097 21.67054
#
# Velocity S-wave (km/s) = 2.80835 3.64397 3.25310
# Velocity P-wave (km/s) = 4.78061 6.17234 5.52051
#
# Compressibility (1/GPa) = 0.03957887
#
# Stress axis : x y z
#
# Youngs Moduli (GPa) = 26.83817 77.11616 30.22762
#
# Poissons Ratio (x) = -0.01608 0.56321
# Poissons Ratio (y) = -0.00559 0.10404
# Poissons Ratio (z) = 0.50006 0.26542
#
# Static dielectric constant tensor:
#      x y z
#    x 1.739620 -0.022370 -0.003110 
#    y -0.022370 1.763250 0.007950 
#    z -0.003110 0.007950 1.743660 
# 
# From -- ./inp_files/398144.got.cif
#   From: 2010.05.17/outbox.cif.g08.bks.cpg/sg2_200_cif.got.tgz:398144.got - 2010.06.03 11:33:40.
