data_PCOD9107549
_publ_section_title
;
Structure prediction by ZEFSAII (Michael W. Deem and Ramdas Pophale) SiO2 
 PCOD9107549
Probable space group: P -1
;
_chemical_formula_sum "Si O2"
_cell_formula_units_Z 13
_cell_length_a 8.253329
_cell_length_b 10.957293
_cell_length_c 8.655144
_cell_angle_alpha 98.701251
_cell_angle_beta 110.671670
_cell_angle_gamma 46.117097
_cell_volume 522.741717
_symmetry_space_group_name_H-M "P -1"
_symmetry_group_IT_number 2
_symmetry_cell_setting 'triclinic'
loop_
_space_group_symop_operation_xyz
x,y,z
-x,-y,-z
loop_
_atom_site_type_symbol
_atom_site_label
_atom_site_fract_x
_atom_site_fract_y
_atom_site_fract_z
Si Si1 0.980602 0.960640 0.812721
Si Si2 0.000000 0.000000 0.500000
Si Si3 0.312925 0.234069 0.047846
Si Si4 0.021235 0.286097 0.496425
Si Si5 0.821399 0.438296 0.786466
Si Si6 0.501129 0.073809 0.758707
Si Si7 0.629697 0.420350 0.189034
O O1 0.238220 0.775399 0.823734
O O2 0.932013 0.071328 0.671889
O O3 0.756733 0.978629 0.756754
O O4 0.000000 0.000000 0.000000
O O5 0.023881 0.135956 0.489704
O O6 0.251359 0.391854 0.139237
O O7 0.479931 0.071321 0.185427
O O8 0.431128 0.188543 0.909087
O O9 0.060916 0.287041 0.936670
O O10 0.296325 0.190226 0.583783
O O11 0.895577 0.404472 0.627818
O O12 0.849452 0.398179 0.314087
O O13 0.584060 0.474927 0.739960
O O14 0.500000 0.500000 0.000000
#
# Coordination Sequence:
#
# PCOD9107549 Si02
#       7
#     2   1   2   2   2   2   2
#     4  11  25  44  73 105 135 186 231 289 353 415
#     4  10  26  42  66 104 140 176 240 284 342 406
#     4   9  20  36  69 104 134 179 228 287 343 419
#     4  10  24  43  69  99 137 186 227 292 348 402
#     4  10  20  40  64  99 136 179 226 276 354 409
#     4  10  21  40  71 102 138 181 234 285 347 412
#     4  11  24  40  63  96 135 180 230 281 346 417
#
# _framework density 24.868877999999999
#
# number of rings (size 3 to 8) (size 9 to 14) (size 15 to 20)
#    0.000    1.846    0.000    2.308   12.923    2.462 
#    0.000    0.000    0.000   16.615    0.000    0.000 
#    0.000    0.000    0.000    0.000    0.000    0.000 
#
# Total GULP energy -72401.955677 kJ/mol
# GULP energy per Si atom -5569.381206 kJ/mol
# Density = 2.481228 g / cm^3
# Si number density = 24.868878 Si / 1000 Ang^3
#
#
#
# Elastic Constant Matrix: (Units=GPa)
#
#
# Indices 1 2 3 4 5 6 
#
# 1 62.7867 15.0407 30.5779 -15.5867 2.6378 -26.2627
# 2 15.0407 78.7002 13.8981 12.9775 12.9236 -24.2403
# 3 30.5779 13.8981 144.1950 -12.2438 12.2759 -14.6315
# 4 -15.5867 12.9775 -12.2438 38.9022 -17.1817 9.7262
# 5 2.6378 12.9236 12.2759 -17.1817 32.2431 -1.4813
# 6 -26.2627 -24.2403 -14.6315 9.7262 -1.4813 36.9194
#
#
#
# Elastic Compliance Matrix: (Units=1/GPa)
#
#
# Indices 1 2 3 4 5 6 
#
# 1 0.025900 -0.003144 -0.003614 0.009982 0.006413 0.012556
# 2 -0.003144 0.029322 -0.000010 -0.028111 -0.025396 0.023398
# 3 -0.003614 -0.000010 0.007976 -0.000356 -0.002901 0.000561
# 4 0.009982 -0.028111 -0.000356 0.065160 0.044073 -0.026895
# 5 0.006413 -0.025396 -0.002901 0.044073 0.064235 -0.022296
# 6 0.012556 0.023398 0.000561 -0.026895 -0.022296 0.057793
#
#
# Mechanical properties :
#
#
# Convention : Reuss Voigt Hill
#
# Bulk Modulus (GPa) = 20.13562 44.96836 32.55199
# Shear Modulus (GPa) = 17.82683 36.69062 27.25872
#
# Velocity S-wave (km/s) = 2.68028 3.84521 3.31433
# Velocity P-wave (km/s) = 4.20628 6.15107 5.26918
#
# Compressibility (1/GPa) = 0.04966323
#
# Stress axis : x y z
#
# Youngs Moduli (GPa) = 38.60947 34.10439 125.37552
#
# Poissons Ratio (x) = 0.10721 0.45308
# Poissons Ratio (y) = 0.12137 0.00127
# Poissons Ratio (z) = 0.13953 0.00035
#
# Static dielectric constant tensor:
#      x y z
#    x 1.971250 0.039050 0.033370 
#    y 0.039050 2.025510 -0.036480 
#    z 0.033370 -0.036480 2.153350 
# 
# From -- ./inp_files/180535.got.cif
#   From: 2010.05.17/outbox.cif.g08.bks.cpg/sg2_91_cif.got.tgz:180535.got - 2010.06.03 11:33:40.
