data_PCOD9107606
_publ_section_title
;
Structure prediction by ZEFSAII (Michael W. Deem and Ramdas Pophale) SiO2 
 PCOD9107606
Probable space group: P -1
;
_chemical_formula_sum "Si O2"
_cell_formula_units_Z 16
_cell_length_a 7.438186
_cell_length_b 17.839058
_cell_length_c 11.176769
_cell_angle_alpha 132.704202
_cell_angle_beta 73.921477
_cell_angle_gamma 72.570548
_cell_volume 757.776762
_symmetry_space_group_name_H-M "P -1"
_symmetry_group_IT_number 2
_symmetry_cell_setting 'triclinic'
loop_
_space_group_symop_operation_xyz
x,y,z
-x,-y,-z
loop_
_atom_site_type_symbol
_atom_site_label
_atom_site_fract_x
_atom_site_fract_y
_atom_site_fract_z
Si Si1 0.409680 0.448854 0.371673
Si Si2 0.472707 0.713169 0.279506
Si Si3 0.505511 0.899164 0.308119
Si Si4 0.681915 0.748080 0.509788
Si Si5 0.158687 0.310229 0.164496
Si Si6 0.746232 0.518655 0.805324
Si Si7 0.413445 0.835699 0.892875
Si Si8 0.871651 0.907186 0.618662
O O1 0.500000 0.500000 0.500000
O O2 0.398671 0.491822 0.281973
O O3 0.579534 0.283838 0.190648
O O4 0.114627 0.552392 0.585580
O O5 0.475599 0.814112 0.307708
O O6 0.612102 0.699581 0.360056
O O7 0.180500 0.783578 0.423770
O O8 0.622582 0.575176 0.019641
O O9 0.500000 0.000000 0.500000
O O10 0.264857 0.988812 0.357739
O O11 0.771448 0.796692 0.068515
O O12 0.458030 0.821985 0.729396
O O13 0.952988 0.614114 0.374626
O O14 0.734300 0.847880 0.581104
O O15 0.270365 0.368304 0.141161
O O16 0.330857 0.215300 0.143552
O O17 0.192563 0.993275 0.151462
#
# Coordination Sequence:
#
# PCOD9107606 Si02
#       8
#     2   2   2   2   2   2   2   2
#     4  11  21  38  66 101 115 160 218 265 320 359
#     4  11  25  41  63  93 127 166 210 263 313 371
#     4  10  20  40  65  88 118 162 212 254 313 373
#     4  12  22  42  66  88 130 176 208 240 328 382
#     4   9  18  38  65  83 117 165 199 257 315 349
#     4  10  21  42  63  87 128 162 206 265 309 368
#     4  10  21  42  63  87 128 162 206 265 309 368
#     4  11  25  41  63  93 127 166 210 263 313 371
#
# _framework density 21.114397
#
# number of rings (size 3 to 8) (size 9 to 14) (size 15 to 20)
#    0.000    1.500    3.750    2.625    0.000    4.000 
#    0.000    0.000    0.000    0.000    0.000    0.000 
#    0.000    0.000    0.000    0.000    0.000    0.000 
#
# Total GULP energy -89124.737354 kJ/mol
# GULP energy per Si atom -5570.296085 kJ/mol
# Density = 2.106634 g / cm^3
# Si number density = 21.114397 Si / 1000 Ang^3
#
#
#
# Elastic Constant Matrix: (Units=GPa)
#
#
# Indices 1 2 3 4 5 6 
#
# 1 39.2311 10.6046 13.2567 -8.4344 12.1751 -15.7906
# 2 10.6046 66.2030 9.6798 -31.2080 9.5312 -14.3686
# 3 13.2567 9.6798 118.0426 -25.1667 10.5092 -16.5995
# 4 -8.4344 -31.2080 -25.1667 32.6541 -9.7219 8.8640
# 5 12.1751 9.5312 10.5092 -9.7219 27.9668 -4.7908
# 6 -15.7906 -14.3686 -16.5995 8.8640 -4.7908 20.5044
#
#
#
# Elastic Compliance Matrix: (Units=1/GPa)
#
#
# Indices 1 2 3 4 5 6 
#
# 1 0.041268 0.002541 0.000979 0.001554 -0.013427 0.030545
# 2 0.002541 0.032255 0.006092 0.031737 -0.000681 0.015613
# 3 0.000979 0.006092 0.011882 0.012465 -0.001093 0.008999
# 4 0.001554 0.031737 0.012465 0.072702 0.009850 0.004400
# 5 -0.013427 -0.000681 -0.001093 0.009850 0.044725 -0.005511
# 6 0.030545 0.015613 0.008999 0.004400 -0.005511 0.087329
#
#
# Mechanical properties :
#
#
# Convention : Reuss Voigt Hill
#
# Bulk Modulus (GPa) = 9.55748 32.28432 20.92090
# Shear Modulus (GPa) = 16.34991 28.88743 22.61867
#
# Velocity S-wave (km/s) = 2.78573 3.70285 3.27654
# Velocity P-wave (km/s) = 3.85790 5.79697 4.92383
#
# Compressibility (1/GPa) = 0.10463011
#
# Stress axis : x y z
#
# Youngs Moduli (GPa) = 24.23199 31.00324 84.15932
#
# Poissons Ratio (x) = -0.07879 -0.08240
# Poissons Ratio (y) = -0.06159 -0.51271
# Poissons Ratio (z) = -0.02372 -0.18888
#
# Static dielectric constant tensor:
#      x y z
#    x 1.731210 0.052020 0.146630 
#    y 0.052020 1.744330 -0.086080 
#    z 0.146630 -0.086080 1.813380 
# 
# From -- ./inp_files/387091.got.cif
#   From: 2010.05.17/outbox.cif.g08.bks.cpg/sg2_194_cif.got.tgz:387091.got - 2010.06.03 11:33:40.
