data_PCOD9107394
_publ_section_title
;
Structure prediction by ZEFSAII (Michael W. Deem and Ramdas Pophale) SiO2 
 PCOD9107394
Probable space group: P -1
;
_chemical_formula_sum "Si O2"
_cell_formula_units_Z 14
_cell_length_a 9.025540
_cell_length_b 8.513715
_cell_length_c 8.010065
_cell_angle_alpha 86.184290
_cell_angle_beta 92.249143
_cell_angle_gamma 91.466328
_cell_volume 613.499891
_symmetry_space_group_name_H-M "P -1"
_symmetry_group_IT_number 2
_symmetry_cell_setting 'triclinic'
loop_
_space_group_symop_operation_xyz
x,y,z
-x,-y,-z
loop_
_atom_site_type_symbol
_atom_site_label
_atom_site_fract_x
_atom_site_fract_y
_atom_site_fract_z
Si Si1 0.255779 0.434045 0.434172
Si Si2 0.054294 0.287060 0.193386
Si Si3 0.205524 0.544974 0.968564
Si Si4 0.857954 0.262903 0.719592
Si Si5 0.354484 0.895933 0.535171
Si Si6 0.565358 0.443564 0.283796
Si Si7 0.077591 0.022876 0.682024
O O1 0.155961 0.295286 0.363438
O O2 0.152020 0.584449 0.409265
O O3 0.392897 0.467944 0.308800
O O4 0.339776 0.428019 0.612533
O O5 0.911281 0.398761 0.181319
O O6 0.991934 0.111269 0.189656
O O7 0.153439 0.375716 0.051080
O O8 0.366114 0.550237 0.895586
O O9 0.184183 0.672687 0.105515
O O10 0.739131 0.142640 0.635976
O O11 0.018758 0.187736 0.731827
O O12 0.400543 0.727797 0.624709
O O13 0.247037 0.983834 0.654249
O O14 0.500000 0.000000 0.500000
O O15 0.000000 0.000000 0.500000
#
# Coordination Sequence:
#
# PCOD9107394 Si02
#       7
#     2   2   2   2   2   2   2
#     4   9  21  39  64  92 119 161 213 252 295 362
#     4  10  21  39  62  94 117 162 206 248 307 368
#     4  10  21  41  62  91 127 159 199 259 311 363
#     4   9  21  40  60  90 126 157 199 255 307 364
#     4  10  21  40  63  89 121 162 211 248 302 364
#     4  10  20  40  64  89 126 162 204 259 302 355
#     4  10  21  40  64  89 122 162 202 262 298 357
#
# _framework density 22.819890999999998
#
# number of rings (size 3 to 8) (size 9 to 14) (size 15 to 20)
#    0.000    2.286    1.429    0.000    4.000    3.429 
#   10.286    2.143    0.000    0.000    0.000    0.000 
#    0.000    0.000    0.000    0.000    0.000    0.000 
#
# Total GULP energy -78174.889163 kJ/mol
# GULP energy per Si atom -5583.920654 kJ/mol
# Density = 2.276795 g / cm^3
# Si number density = 22.819891 Si / 1000 Ang^3
#
#
#
# Elastic Constant Matrix: (Units=GPa)
#
#
# Indices 1 2 3 4 5 6 
#
# 1 119.0635 57.9144 36.1158 6.2027 -6.4868 -3.4678
# 2 57.9144 75.0885 35.1514 -1.9979 -22.7729 -7.8383
# 3 36.1158 35.1514 88.8139 13.0577 -22.9524 -1.0296
# 4 6.2027 -1.9979 13.0577 38.9691 -0.1141 2.2034
# 5 -6.4868 -22.7729 -22.9524 -0.1141 37.3416 2.3595
# 6 -3.4678 -7.8383 -1.0296 2.2034 2.3595 38.8310
#
#
#
# Elastic Compliance Matrix: (Units=1/GPa)
#
#
# Indices 1 2 3 4 5 6 
#
# 1 0.014968 -0.012472 -0.002527 -0.002153 -0.006520 -0.000730
# 2 -0.012472 0.029147 -0.003702 0.004554 0.013119 0.003616
# 3 -0.002527 -0.003702 0.016435 -0.005234 0.007433 -0.000692
# 4 -0.002153 0.004554 -0.005234 0.028044 -0.000667 -0.000963
# 5 -0.006520 0.013119 0.007433 -0.000667 0.038216 -0.000021
# 6 -0.000730 0.003616 -0.000692 -0.000963 -0.000021 0.026455
#
#
# Mechanical properties :
#
#
# Convention : Reuss Voigt Hill
#
# Bulk Modulus (GPa) = 43.20018 60.14768 51.67393
# Shear Modulus (GPa) = 25.20385 33.28060 29.24222
#
# Velocity S-wave (km/s) = 3.32696 3.82305 3.58360
# Velocity P-wave (km/s) = 5.80777 6.77513 6.31002
#
# Compressibility (1/GPa) = 0.02314805
#
# Stress axis : x y z
#
# Youngs Moduli (GPa) = 66.81011 34.30831 60.84737
#
# Poissons Ratio (x) = 0.42790 0.15377
# Poissons Ratio (y) = 0.83326 0.22523
# Poissons Ratio (z) = 0.16884 0.12699
#
# Static dielectric constant tensor:
#      x y z
#    x 1.870750 0.004640 0.034860 
#    y 0.004640 1.886800 0.019180 
#    z 0.034860 0.019180 1.909920 
# 
# From -- ./inp_files/153793.got.cif
#   From: 2010.05.17/outbox.cif.g08.bks.cpg/sg2_77_cif.got.tgz:153793.got - 2010.06.03 11:33:40.
