data_PCOD9107275
_publ_section_title
;
Structure prediction by ZEFSAII (Michael W. Deem and Ramdas Pophale) SiO2 
 PCOD9107275
Probable space group: P -1
;
_chemical_formula_sum "Si O2"
_cell_formula_units_Z 10
_cell_length_a 6.695315
_cell_length_b 11.199073
_cell_length_c 7.683865
_cell_angle_alpha 71.806083
_cell_angle_beta 127.200073
_cell_angle_gamma 125.154513
_cell_volume 374.641835
_symmetry_space_group_name_H-M "P -1"
_symmetry_group_IT_number 2
_symmetry_cell_setting 'triclinic'
loop_
_space_group_symop_operation_xyz
x,y,z
-x,-y,-z
loop_
_atom_site_type_symbol
_atom_site_label
_atom_site_fract_x
_atom_site_fract_y
_atom_site_fract_z
Si Si1 0.457827 0.387922 0.927021
Si Si2 0.652775 0.906653 0.828439
Si Si3 0.987057 0.618226 0.994172
Si Si4 0.758313 0.668617 0.511823
Si Si5 0.514896 0.863244 0.366012
O O1 0.323740 0.423461 0.026603
O O2 0.209865 0.353579 0.665044
O O3 0.768501 0.431586 0.941162
O O4 0.446978 0.244400 0.061888
O O5 0.574241 0.876947 0.596637
O O6 0.499115 0.996660 0.766675
O O7 0.000000 0.000000 0.000000
O O8 0.207535 0.725644 0.207846
O O9 0.959456 0.695054 0.771254
O O10 0.500000 0.500000 0.500000
O O11 0.727046 0.811581 0.425054
#
# Coordination Sequence:
#
# PCOD9107275 Si02
#       5
#     2   2   2   2   2
#     4  11  23  41  69  98 131 173 221 271 327 387
#     4  11  25  45  64  97 138 175 218 272 324 390
#     4  11  22  43  70  97 131 169 218 277 324 388
#     4  10  20  40  63  96 132 167 215 266 324 390
#     4  11  22  43  69  92 137 177 212 272 333 382
#
# _framework density 26.692162
#
# number of rings (size 3 to 8) (size 9 to 14) (size 15 to 20)
#    0.000    1.200    4.000    4.800    0.000    1.600 
#    7.200    2.000    0.000    0.000    0.000    0.000 
#    0.000    0.000    0.000    0.000    0.000    0.000 
#
# Total GULP energy -55808.200509 kJ/mol
# GULP energy per Si atom -5580.820051 kJ/mol
# Density = 2.663141 g / cm^3
# Si number density = 26.692162 Si / 1000 Ang^3
#
#
#
# Elastic Constant Matrix: (Units=GPa)
#
#
# Indices 1 2 3 4 5 6 
#
# 1 162.2498 85.6788 72.5429 -7.0014 -18.0857 -22.1401
# 2 85.6788 181.6440 67.2644 -27.5725 -9.8489 -25.6328
# 3 72.5429 67.2644 221.3888 -8.6089 -34.1951 -2.9868
# 4 -7.0014 -27.5725 -8.6089 63.3176 -4.8316 6.3421
# 5 -18.0857 -9.8489 -34.1951 -4.8316 49.1597 0.9548
# 6 -22.1401 -25.6328 -2.9868 6.3421 0.9548 50.5497
#
#
#
# Elastic Compliance Matrix: (Units=1/GPa)
#
#
# Indices 1 2 3 4 5 6 
#
# 1 0.009175 -0.003408 -0.001766 -0.000835 0.001338 0.002265
# 2 -0.003408 0.008341 -0.001318 0.002824 -0.000267 0.002310
# 3 -0.001766 -0.001318 0.006011 0.000423 0.003332 -0.001203
# 4 -0.000835 0.002824 0.000423 0.017274 0.002273 -0.001118
# 5 0.001338 -0.000267 0.003332 0.002273 0.023324 -0.000078
# 6 0.002265 0.002310 -0.001203 -0.001118 -0.000078 0.022017
#
#
# Mechanical properties :
#
#
# Convention : Reuss Voigt Hill
#
# Bulk Modulus (GPa) = 94.84886 112.91719 103.88302
# Shear Modulus (GPa) = 48.71428 55.25849 51.98639
#
# Velocity S-wave (km/s) = 4.27668 4.55490 4.41798
# Velocity P-wave (km/s) = 7.74585 8.37007 8.06400
#
# Compressibility (1/GPa) = 0.01054309
#
# Stress axis : x y z
#
# Youngs Moduli (GPa) = 108.99217 119.88965 166.36408
#
# Poissons Ratio (x) = 0.40860 0.29381
# Poissons Ratio (y) = 0.37146 0.21921
# Poissons Ratio (z) = 0.19249 0.15798
#
# Static dielectric constant tensor:
#      x y z
#    x 2.310950 0.044470 0.134780 
#    y 0.044470 1.998710 0.076870 
#    z 0.134780 0.076870 2.046610 
# 
# From -- ./inp_files/135210.got.cif
#   From: 2010.05.17/outbox.cif.g08.bks.cpg/sg2_68_cif.got.tgz:135210.got - 2010.06.03 11:33:40.
