data_PCOD9107345
_publ_section_title
;
Structure prediction by ZEFSAII (Michael W. Deem and Ramdas Pophale) SiO2 
 PCOD9107345
Probable space group: P -1
;
_chemical_formula_sum "Si O2"
_cell_formula_units_Z 14
_cell_length_a 11.305758
_cell_length_b 8.546474
_cell_length_c 9.207190
_cell_angle_alpha 44.937872
_cell_angle_beta 100.092970
_cell_angle_gamma 78.015127
_cell_volume 543.746962
_symmetry_space_group_name_H-M "P -1"
_symmetry_group_IT_number 2
_symmetry_cell_setting 'triclinic'
loop_
_space_group_symop_operation_xyz
x,y,z
-x,-y,-z
loop_
_atom_site_type_symbol
_atom_site_label
_atom_site_fract_x
_atom_site_fract_y
_atom_site_fract_z
Si Si1 0.341388 0.696330 0.639007
Si Si2 0.194984 0.454539 0.326308
Si Si3 0.299503 0.086982 0.111171
Si Si4 0.562488 0.675351 0.330087
Si Si5 0.116623 0.025404 0.595626
Si Si6 0.043597 0.227069 0.760111
Si Si7 0.599985 0.705555 0.766691
O O1 0.296761 0.917688 0.360136
O O2 0.346938 0.472999 0.689248
O O3 0.497305 0.597715 0.785435
O O4 0.252355 0.814105 0.685540
O O5 0.330207 0.303330 0.553616
O O6 0.121356 0.285388 0.394820
O O7 0.265331 0.458267 0.190185
O O8 0.093148 0.711684 0.217679
O O9 0.422199 0.930966 0.127456
O O10 0.343365 0.271070 0.082265
O O11 0.162336 0.176585 0.933049
O O12 0.500000 0.500000 0.500000
O O13 0.089655 0.041847 0.752581
O O14 0.000000 0.000000 0.500000
O O15 0.000000 0.500000 0.500000
O O16 0.500000 0.000000 0.500000
#
# Coordination Sequence:
#
# PCOD9107345 Si02
#       7
#     2   2   2   2   2   2   2
#     4  10  19  37  68  97 125 159 212 270 312 369
#     4  11  19  39  63  89 129 165 206 261 313 370
#     4  10  19  38  64  95 125 163 215 260 315 373
#     4  10  18  34  65  98 123 154 206 267 317 361
#     4  11  22  41  60  85 130 175 204 254 318 380
#     4  10  25  42  59  89 132 176 207 251 322 387
#     4  10  16  34  65  94 121 152 215 268 314 346
#
# _framework density 25.747271000000001
#
# number of rings (size 3 to 8) (size 9 to 14) (size 15 to 20)
#    0.000    1.714    7.143    0.857    0.000    0.571 
#    0.000   16.429    0.000    0.000    0.000    0.000 
#    0.000    0.000    0.000    0.000    0.000    0.000 
#
# Total GULP energy -78266.462657 kJ/mol
# GULP energy per Si atom -5590.461618 kJ/mol
# Density = 2.568867 g / cm^3
# Si number density = 25.747271 Si / 1000 Ang^3
#
#
#
# Elastic Constant Matrix: (Units=GPa)
#
#
# Indices 1 2 3 4 5 6 
#
# 1 122.8940 41.7729 37.5454 21.2568 22.5844 -19.5529
# 2 41.7729 178.1096 37.6814 20.1370 4.4847 -32.3033
# 3 37.5454 37.6814 131.6866 33.8552 10.6863 -4.2213
# 4 21.2568 20.1370 33.8552 43.7166 -0.0520 5.7229
# 5 22.5844 4.4847 10.6863 -0.0520 50.7014 15.3899
# 6 -19.5529 -32.3033 -4.2213 5.7229 15.3899 74.6327
#
#
#
# Elastic Compliance Matrix: (Units=1/GPa)
#
#
# Indices 1 2 3 4 5 6 
#
# 1 0.011396 -0.001006 -0.001122 -0.004751 -0.005996 0.004088
# 2 -0.001006 0.006883 -0.000901 -0.002382 -0.000894 0.003031
# 3 -0.001122 -0.000901 0.010144 -0.007002 -0.001808 0.000800
# 4 -0.004751 -0.002382 -0.007002 0.032543 0.005765 -0.006356
# 5 -0.005996 -0.000894 -0.001808 0.005765 0.025197 -0.007698
# 6 0.004088 0.003031 0.000800 -0.006356 -0.007698 0.017902
#
#
# Mechanical properties :
#
#
# Convention : Reuss Voigt Hill
#
# Bulk Modulus (GPa) = 44.71274 74.07663 59.39469
# Shear Modulus (GPa) = 42.52527 54.85616 48.69072
#
# Velocity S-wave (km/s) = 4.06845 4.62081 4.35340
# Velocity P-wave (km/s) = 6.28279 7.56983 6.95614
#
# Compressibility (1/GPa) = 0.02236499
#
# Stress axis : x y z
#
# Youngs Moduli (GPa) = 87.75083 145.29544 98.58022
#
# Poissons Ratio (x) = 0.14614 0.11063
# Poissons Ratio (y) = 0.08826 0.08879
# Poissons Ratio (z) = 0.09848 0.13086
#
# Static dielectric constant tensor:
#      x y z
#    x 1.806570 -0.123220 -0.053280 
#    y -0.123220 1.977680 -0.018160 
#    z -0.053280 -0.018160 2.089510 
# 
# From -- ./inp_files/237256.got.cif
#   From: 2010.05.17/outbox.cif.g08.bks.cpg/sg2_119_cif.got.tgz:237256.got - 2010.06.03 11:33:40.
