data_PCOD9107261
_publ_section_title
;
Structure prediction by ZEFSAII (Michael W. Deem and Ramdas Pophale) SiO2 
 PCOD9107261
Probable space group: P -1
;
_chemical_formula_sum "Si O2"
_cell_formula_units_Z 14
_cell_length_a 12.800742
_cell_length_b 12.038335
_cell_length_c 18.852860
_cell_angle_alpha 150.424250
_cell_angle_beta 29.497110
_cell_angle_gamma 144.587559
_cell_volume 685.620324
_symmetry_space_group_name_H-M "P -1"
_symmetry_group_IT_number 2
_symmetry_cell_setting 'triclinic'
loop_
_space_group_symop_operation_xyz
x,y,z
-x,-y,-z
loop_
_atom_site_type_symbol
_atom_site_label
_atom_site_fract_x
_atom_site_fract_y
_atom_site_fract_z
Si Si1 0.761349 0.508870 0.170405
Si Si2 0.153429 0.539798 0.576001
Si Si3 0.581498 0.850795 0.556495
Si Si4 0.567232 0.011318 0.048393
Si Si5 0.346479 0.604184 0.200779
Si Si6 0.631043 0.545096 0.739151
Si Si7 0.227190 0.124549 0.398945
O O1 0.740442 0.738867 0.351677
O O2 0.681351 0.281285 0.141036
O O3 0.593387 0.489471 0.192837
O O4 0.000000 0.500000 0.000000
O O5 0.337938 0.749950 0.615162
O O6 0.202260 0.517719 0.451281
O O7 0.195584 0.312344 0.464458
O O8 0.904608 0.539419 0.737153
O O9 0.615280 0.770737 0.571389
O O10 0.639723 0.127825 0.675981
O O11 0.349690 0.952238 0.191279
O O12 0.500000 0.000000 0.000000
O O13 0.700749 0.816869 0.870610
O O14 0.404194 0.592780 0.243529
O O15 0.500000 0.500000 0.000000
O O16 0.000000 0.000000 0.500000
#
# Coordination Sequence:
#
# PCOD9107261 Si02
#       7
#     2   2   2   2   2   2   2
#     4  10  23  38  67 104 131 168 216 279 341 385
#     4  11  24  45  66  96 130 178 221 277 335 384
#     4  11  25  43  68  98 138 167 228 270 335 399
#     4  10  20  40  63  95 133 161 226 267 329 396
#     4  12  27  46  67  96 132 181 225 267 332 404
#     4  10  23  44  65  94 135 174 221 264 328 407
#     4  12  22  39  70  98 133 178 214 286 337 383
#
# _framework density 20.419464000000001
#
# number of rings (size 3 to 8) (size 9 to 14) (size 15 to 20)
#    0.000    1.143    5.714    1.714    6.000    2.857 
#    2.571    0.000    0.000    0.000    0.000    0.000 
#    0.000    0.000    0.000    0.000    0.000    0.000 
#
# Total GULP energy -78158.168233 kJ/mol
# GULP energy per Si atom -5582.726302 kJ/mol
# Density = 2.037299 g / cm^3
# Si number density = 20.419464 Si / 1000 Ang^3
#
#
#
# Elastic Constant Matrix: (Units=GPa)
#
#
# Indices 1 2 3 4 5 6 
#
# 1 93.0834 14.5395 37.5809 -13.6168 14.6408 -10.1907
# 2 14.5395 78.8475 53.1402 -17.2551 7.7537 1.5931
# 3 37.5809 53.1402 152.5369 -28.2094 18.2134 13.6521
# 4 -13.6168 -17.2551 -28.2094 46.3792 -1.8281 -7.2727
# 5 14.6408 7.7537 18.2134 -1.8281 26.5420 -8.6452
# 6 -10.1907 1.5931 13.6521 -7.2727 -8.6452 29.4804
#
#
#
# Elastic Compliance Matrix: (Units=1/GPa)
#
#
# Indices 1 2 3 4 5 6 
#
# 1 0.013518 0.000437 -0.003030 0.003066 -0.003401 0.005811
# 2 0.000437 0.017135 -0.005633 0.003474 -0.000294 0.002604
# 3 -0.003030 -0.005633 0.011130 0.002397 -0.006506 -0.007214
# 4 0.003066 0.003474 0.002397 0.026136 -0.000584 0.006038
# 5 -0.003401 -0.000294 -0.006506 -0.000584 0.049331 0.016175
# 6 0.005811 0.002604 -0.007214 0.006038 0.016175 0.045363
#
#
# Mechanical properties :
#
#
# Convention : Reuss Voigt Hill
#
# Bulk Modulus (GPa) = 39.47491 59.44321 49.45906
# Shear Modulus (GPa) = 26.66581 35.09412 30.87996
#
# Velocity S-wave (km/s) = 3.61765 4.15017 3.89302
# Velocity P-wave (km/s) = 6.06826 7.22077 6.66945
#
# Compressibility (1/GPa) = 0.02533255
#
# Stress axis : x y z
#
# Youngs Moduli (GPa) = 73.97767 58.36073 89.84570
#
# Poissons Ratio (x) = -0.02552 0.27220
# Poissons Ratio (y) = -0.03235 0.50606
# Poissons Ratio (z) = 0.22413 0.32872
#
# Static dielectric constant tensor:
#      x y z
#    x 1.744710 0.004760 -0.000770 
#    y 0.004760 1.788000 0.015290 
#    z -0.000770 0.015290 1.745100 
# 
# From -- ./inp_files/199523.got.cif
#   From: 2010.05.17/outbox.cif.g08.bks.cpg/sg2_100_cif.got.tgz:199523.got - 2010.06.03 11:33:40.
