data_PCOD9107018
_publ_section_title
;
Structure prediction by ZEFSAII (Michael W. Deem and Ramdas Pophale) SiO2 
 PCOD9107018
Probable space group: P -1
;
_chemical_formula_sum "Si O2"
_cell_formula_units_Z 15
_cell_length_a 14.110413
_cell_length_b 8.475344
_cell_length_c 13.905137
_cell_angle_alpha 117.771884
_cell_angle_beta 31.503643
_cell_angle_gamma 99.112007
_cell_volume 658.271862
_symmetry_space_group_name_H-M "P -1"
_symmetry_group_IT_number 2
_symmetry_cell_setting 'triclinic'
loop_
_space_group_symop_operation_xyz
x,y,z
-x,-y,-z
loop_
_atom_site_type_symbol
_atom_site_label
_atom_site_fract_x
_atom_site_fract_y
_atom_site_fract_z
Si Si1 0.007100 0.932281 0.701541
Si Si2 0.366215 0.009476 0.472563
Si Si3 0.364245 0.603476 0.840053
Si Si4 0.559619 0.358393 0.002714
Si Si5 0.000000 0.000000 0.500000
Si Si6 0.108941 0.490225 0.501743
Si Si7 0.783655 0.600952 0.420960
Si Si8 0.776286 0.713139 0.139115
O O1 0.016042 0.730368 0.679252
O O2 0.230245 0.909045 0.529390
O O3 0.989819 0.928323 0.600399
O O4 0.813097 0.158419 0.964397
O O5 0.323793 0.184097 0.481637
O O6 0.264993 0.130198 0.694299
O O7 0.612042 0.848909 0.235278
O O8 0.596859 0.555346 0.594870
O O9 0.299310 0.446524 0.808418
O O10 0.354337 0.583230 0.959655
O O11 0.742590 0.130405 0.753352
O O12 0.500000 0.500000 0.000000
O O13 0.351451 0.374689 0.227838
O O14 0.107734 0.377787 0.568401
O O15 0.000000 0.500000 0.500000
O O16 0.979945 0.421764 0.140913
#
# Coordination Sequence:
#
# PCOD9107018 Si02
#       8
#     2   2   2   2   1   2   2   2
#     4  11  23  44  68  97 140 183 228 283 344 407
#     4  11  25  45  74 102 133 180 238 278 348 412
#     4  10  24  44  66 102 141 173 234 282 339 409
#     4  10  20  40  62  92 128 177 219 273 334 395
#     4  10  22  36  70  92 120 184 224 262 342 408
#     4  11  26  42  65 103 143 176 231 284 339 411
#     4  11  25  45  70 102 137 186 224 288 341 409
#     4  11  25  48  71 101 138 182 229 290 342 409
#
# _framework density 22.786937000000002
#
# number of rings (size 3 to 8) (size 9 to 14) (size 15 to 20)
#    0.000    1.333    2.667    2.000    5.600    0.533 
#    0.000    4.000    0.000    0.000    0.000    0.000 
#    0.000    0.000    0.000    0.000    0.000    0.000 
#
# Total GULP energy -83595.201134 kJ/mol
# GULP energy per Si atom -5573.013409 kJ/mol
# Density = 2.273507 g / cm^3
# Si number density = 22.786937 Si / 1000 Ang^3
#
#
#
# Elastic Constant Matrix: (Units=GPa)
#
#
# Indices 1 2 3 4 5 6 
#
# 1 60.8010 30.4367 0.1542 7.2713 -18.9305 -22.5039
# 2 30.4367 80.6478 40.2811 16.2870 -8.9645 -25.0951
# 3 0.1542 40.2811 115.9430 12.1380 -22.1914 -1.9194
# 4 7.2713 16.2870 12.1380 37.5457 -7.2956 -7.7321
# 5 -18.9305 -8.9645 -22.1914 -7.2956 25.0940 10.0360
# 6 -22.5039 -25.0951 -1.9194 -7.7321 10.0360 22.2547
#
#
#
# Elastic Compliance Matrix: (Units=1/GPa)
#
#
# Indices 1 2 3 4 5 6 
#
# 1 0.033983 -0.011008 0.008488 0.002873 0.025101 0.012361
# 2 -0.011008 0.033109 -0.015205 -0.005110 -0.025199 0.034480
# 3 0.008488 -0.015205 0.018240 0.000086 0.024291 -0.017915
# 4 0.002873 -0.005110 0.000086 0.030641 0.007574 0.004380
# 5 0.025101 -0.025199 0.024291 0.007574 0.088807 -0.038355
# 6 0.012361 0.034480 -0.017915 0.004380 -0.038355 0.113587
#
#
# Mechanical properties :
#
#
# Convention : Reuss Voigt Hill
#
# Bulk Modulus (GPa) = 20.04823 44.34843 32.19833
# Shear Modulus (GPa) = 13.49726 29.41353 21.45540
#
# Velocity S-wave (km/s) = 2.43641 3.59668 3.07182
# Velocity P-wave (km/s) = 4.09048 6.06239 5.17130
#
# Compressibility (1/GPa) = 0.04987973
#
# Stress axis : x y z
#
# Youngs Moduli (GPa) = 29.42630 30.20346 54.82465
#
# Poissons Ratio (x) = 0.33249 -0.46533
# Poissons Ratio (y) = 0.32394 0.83363
# Poissons Ratio (z) = -0.24976 0.45925
#
# Static dielectric constant tensor:
#      x y z
#    x 1.792090 -0.067540 0.139280 
#    y -0.067540 1.539040 0.047310 
#    z 0.139280 0.047310 1.699780 
# 
# From -- ./inp_files/291712.got.cif
#   From: 2010.05.17/outbox.cif.g08.bks.cpg/sg2_146_cif.got.tgz:291712.got - 2010.06.03 11:33:40.
