data_PCOD9107653
_publ_section_title
;
Structure prediction by ZEFSAII (Michael W. Deem and Ramdas Pophale) SiO2 
 PCOD9107653
Probable space group: P -1
;
_chemical_formula_sum "Si O2"
_cell_formula_units_Z 14
_cell_length_a 19.095548
_cell_length_b 6.768975
_cell_length_c 8.880878
_cell_angle_alpha 63.194046
_cell_angle_beta 141.466943
_cell_angle_gamma 130.584784
_cell_volume 539.001222
_symmetry_space_group_name_H-M "P -1"
_symmetry_group_IT_number 2
_symmetry_cell_setting 'triclinic'
loop_
_space_group_symop_operation_xyz
x,y,z
-x,-y,-z
loop_
_atom_site_type_symbol
_atom_site_label
_atom_site_fract_x
_atom_site_fract_y
_atom_site_fract_z
Si Si1 0.368457 0.846929 0.725910
Si Si2 0.684742 0.473537 0.522509
Si Si3 0.091650 0.615581 0.935684
Si Si4 0.236388 0.661953 0.867227
Si Si5 0.110745 0.948821 0.276454
Si Si6 0.495222 0.756154 0.431776
Si Si7 0.950014 0.933407 0.272526
O O1 0.340277 0.586214 0.678306
O O2 0.260993 0.782496 0.699497
O O3 0.384533 0.017488 0.545224
O O4 0.500000 0.000000 0.000000
O O5 0.747355 0.773597 0.581429
O O6 0.547902 0.278293 0.451852
O O7 0.800774 0.426118 0.786549
O O8 0.143526 0.681538 0.827123
O O9 0.082946 0.851939 0.903989
O O10 0.947869 0.345366 0.782828
O O11 0.177231 0.354922 0.852994
O O12 0.374263 0.760340 0.149166
O O13 0.064718 0.931634 0.375757
O O14 0.000000 0.000000 0.000000
O O15 0.500000 0.500000 0.500000
O O16 0.000000 0.000000 0.500000
#
# Coordination Sequence:
#
# PCOD9107653 Si02
#       7
#     2   2   2   2   2   2   2
#     4  10  21  41  62  88 125 162 213 266 311 368
#     4  10  20  40  65  90 125 171 209 257 324 376
#     4   9  21  40  65  90 132 170 202 260 312 386
#     4   9  21  42  61  91 132 162 212 259 313 380
#     4   9  20  39  60  95 129 155 212 255 307 390
#     4  10  22  41  62  92 122 164 217 270 309 372
#     4  11  22  39  61  94 129 165 208 250 323 385
#
# _framework density 25.973966999999998
#
# number of rings (size 3 to 8) (size 9 to 14) (size 15 to 20)
#    0.000    2.286    0.000    2.143    2.000    4.571 
#   10.286    1.429    0.000    0.000    0.000    0.000 
#    0.000    0.000    0.000    0.000    0.000    0.000 
#
# Total GULP energy -78118.352036 kJ/mol
# GULP energy per Si atom -5579.882288 kJ/mol
# Density = 2.591485 g / cm^3
# Si number density = 25.973967 Si / 1000 Ang^3
#
#
#
# Elastic Constant Matrix: (Units=GPa)
#
#
# Indices 1 2 3 4 5 6 
#
# 1 183.5893 48.0718 26.8059 3.5604 -36.0188 8.7661
# 2 48.0718 153.2100 18.9273 20.9485 14.0332 12.0982
# 3 26.8059 18.9273 96.0461 19.9886 -15.8048 0.3942
# 4 3.5604 20.9485 19.9886 44.7609 -0.8434 0.0867
# 5 -36.0188 14.0332 -15.8048 -0.8434 34.7425 -7.1572
# 6 8.7661 12.0982 0.3942 0.0867 -7.1572 42.2607
#
#
#
# Elastic Compliance Matrix: (Units=1/GPa)
#
#
# Indices 1 2 3 4 5 6 
#
# 1 0.008479 -0.003891 -0.000161 0.001416 0.010558 0.001142
# 2 -0.003891 0.009583 -0.001584 -0.003639 -0.009437 -0.003512
# 3 -0.000161 -0.001584 0.012845 -0.004862 0.006502 0.001478
# 4 0.001416 -0.003639 -0.004862 0.026130 0.001567 0.001005
# 5 0.010558 -0.009437 0.006502 0.001567 0.048315 0.008630
# 6 0.001142 -0.003512 0.001478 0.001005 0.008630 0.025877
#
#
# Mechanical properties :
#
#
# Convention : Reuss Voigt Hill
#
# Bulk Modulus (GPa) = 50.93248 68.93947 59.93597
# Shear Modulus (GPa) = 33.54674 46.95551 40.25112
#
# Velocity S-wave (km/s) = 3.59772 4.25643 3.94086
# Velocity P-wave (km/s) = 6.07534 7.12430 6.62062
#
# Compressibility (1/GPa) = 0.01963384
#
# Stress axis : x y z
#
# Youngs Moduli (GPa) = 117.94015 104.35292 77.85399
#
# Poissons Ratio (x) = 0.40606 0.01257
# Poissons Ratio (y) = 0.45893 0.12329
# Poissons Ratio (z) = 0.01904 0.16525
#
# Static dielectric constant tensor:
#      x y z
#    x 2.167810 0.003200 -0.025070 
#    y 0.003200 2.142450 -0.080170 
#    z -0.025070 -0.080170 2.178240 
# 
# From -- ./inp_files/38940.got.cif
#   From: 2010.05.17/outbox.cif.g08.bks.cpg/sg2_20_cif.got.tgz:38940.got - 2010.06.03 11:33:40.
