data_PCOD9107177
_publ_section_title
;
Structure prediction by ZEFSAII (Michael W. Deem and Ramdas Pophale) SiO2 
 PCOD9107177
Probable space group: P -1
;
_chemical_formula_sum "Si O2"
_cell_formula_units_Z 14
_cell_length_a 9.426747
_cell_length_b 8.008730
_cell_length_c 18.068824
_cell_angle_alpha 133.212634
_cell_angle_beta 136.647319
_cell_angle_gamma 48.913308
_cell_volume 646.978432
_symmetry_space_group_name_H-M "P -1"
_symmetry_group_IT_number 2
_symmetry_cell_setting 'triclinic'
loop_
_space_group_symop_operation_xyz
x,y,z
-x,-y,-z
loop_
_atom_site_type_symbol
_atom_site_label
_atom_site_fract_x
_atom_site_fract_y
_atom_site_fract_z
Si Si1 0.906747 0.421456 0.135762
Si Si2 0.292713 0.042094 0.243031
Si Si3 0.637178 0.550605 0.213779
Si Si4 0.107442 0.796058 0.373942
Si Si5 0.975292 0.335952 0.529706
Si Si6 0.813570 0.395799 0.923433
Si Si7 0.565845 0.752405 0.495369
O O1 0.743450 0.416133 0.138863
O O2 0.137689 0.220701 0.180628
O O3 0.947310 0.679589 0.236184
O O4 0.826440 0.381487 0.013019
O O5 0.366376 0.185202 0.378467
O O6 0.507063 0.834727 0.232302
O O7 0.157189 0.875410 0.175795
O O8 0.442351 0.466016 0.148217
O O9 0.828960 0.560576 0.343979
O O10 0.100889 0.727898 0.437226
O O11 0.348937 0.679930 0.398411
O O12 0.047301 0.085260 0.436670
O O13 0.772410 0.540893 0.480413
O O14 0.000000 0.500000 0.000000
O O15 0.500000 0.000000 0.500000
#
# Coordination Sequence:
#
# PCOD9107177 Si02
#       7
#     2   2   2   2   2   2   2
#     4  11  21  40  69  92 124 173 211 261 308 383
#     4  10  22  40  65  88 127 165 219 253 320 369
#     4   9  20  38  68  85 126 162 220 250 314 370
#     4  10  21  35  63  93 122 160 215 250 306 377
#     4  10  20  40  63  90 124 165 209 262 301 378
#     4  10  23  41  66  92 131 161 213 269 317 373
#     4  12  24  38  64  92 134 170 197 260 330 374
#
# _framework density 21.639053000000001
#
# number of rings (size 3 to 8) (size 9 to 14) (size 15 to 20)
#    0.857    0.857    4.286    1.286    2.000    0.571 
#    0.000    0.714    6.286    0.000    0.000    0.000 
#    0.000    0.000    0.000    0.000    0.000    0.000 
#
# Total GULP energy -78132.218003 kJ/mol
# GULP energy per Si atom -5580.872715 kJ/mol
# Density = 2.158980 g / cm^3
# Si number density = 21.639053 Si / 1000 Ang^3
#
#
#
# Elastic Constant Matrix: (Units=GPa)
#
#
# Indices 1 2 3 4 5 6 
#
# 1 74.4694 14.5453 29.5998 -8.9035 29.1233 -7.1353
# 2 14.5453 66.4074 11.7724 -23.3799 6.5916 -17.7213
# 3 29.5998 11.7724 42.7567 -6.5970 27.7704 -1.7724
# 4 -8.9035 -23.3799 -6.5970 30.1270 0.3575 10.6134
# 5 29.1233 6.5916 27.7704 0.3575 42.1250 3.2148
# 6 -7.1353 -17.7213 -1.7724 10.6134 3.2148 29.3013
#
#
#
# Elastic Compliance Matrix: (Units=1/GPa)
#
#
# Indices 1 2 3 4 5 6 
#
# 1 0.021148 0.000041 -0.007386 0.003126 -0.010144 0.004709
# 2 0.000041 0.023200 -0.001564 0.014521 -0.003443 0.009065
# 3 -0.007386 -0.001564 0.046519 0.006975 -0.025401 0.000330
# 4 0.003126 0.014521 0.006975 0.049477 -0.008919 -0.006977
# 5 -0.010144 -0.003443 -0.025401 -0.008919 0.048738 -0.008206
# 6 0.004709 0.009065 0.000330 -0.006977 -0.008206 0.044204
#
#
# Mechanical properties :
#
#
# Convention : Reuss Voigt Hill
#
# Bulk Modulus (GPa) = 13.68909 32.82985 23.25947
# Shear Modulus (GPa) = 18.15189 28.82507 23.48848
#
# Velocity S-wave (km/s) = 2.89943 3.65373 3.29822
# Velocity P-wave (km/s) = 4.18912 5.74493 5.02757
#
# Compressibility (1/GPa) = 0.07305087
#
# Stress axis : x y z
#
# Youngs Moduli (GPa) = 47.28590 43.10358 21.49642
#
# Poissons Ratio (x) = -0.00178 0.15876
# Poissons Ratio (y) = -0.00195 0.03362
# Poissons Ratio (z) = 0.34923 0.06741
#
# Static dielectric constant tensor:
#      x y z
#    x 1.831380 0.001140 0.025370 
#    y 0.001140 1.821070 -0.004790 
#    z 0.025370 -0.004790 1.760910 
# 
# From -- ./inp_files/593759.got.cif
#   From: 2010.05.17/outbox.cif.g08.bks.cpg/sg2_297_cif.got.tgz:593759.got - 2010.06.03 11:33:40.
