data_PCOD9107974
_publ_section_title
;
Structure prediction by ZEFSAII (Michael W. Deem and Ramdas Pophale) SiO2 
 PCOD9107974
Probable space group: P -1
;
_chemical_formula_sum "Si O2"
_cell_formula_units_Z 16
_cell_length_a 8.175250
_cell_length_b 26.167916
_cell_length_c 5.377282
_cell_angle_alpha 65.700545
_cell_angle_beta 47.400841
_cell_angle_gamma 48.465253
_cell_volume 632.410795
_symmetry_space_group_name_H-M "P -1"
_symmetry_group_IT_number 2
_symmetry_cell_setting 'triclinic'
loop_
_space_group_symop_operation_xyz
x,y,z
-x,-y,-z
loop_
_atom_site_type_symbol
_atom_site_label
_atom_site_fract_x
_atom_site_fract_y
_atom_site_fract_z
Si Si1 0.148247 0.086999 0.274810
Si Si2 0.001070 0.447970 0.292071
Si Si3 0.084228 0.048124 0.921517
Si Si4 0.380392 0.822281 0.055714
Si Si5 0.029417 0.671498 0.347813
Si Si6 0.655990 0.298344 0.644378
Si Si7 0.561935 0.578822 0.694967
Si Si8 0.818727 0.793731 0.011752
O O1 0.247818 0.055248 0.513847
O O2 0.829584 0.138796 0.573847
O O3 0.240051 0.134596 0.984227
O O4 0.197655 0.035258 0.109263
O O5 0.241294 0.427243 0.279316
O O6 0.029214 0.377927 0.349184
O O7 0.000000 0.500000 0.000000
O O8 0.701021 0.502358 0.608656
O O9 0.797765 0.123279 0.081739
O O10 0.000000 0.000000 0.000000
O O11 0.433446 0.750123 0.088244
O O12 0.651934 0.810957 0.894545
O O13 0.184005 0.692277 0.325701
O O14 0.251012 0.620045 0.016883
O O15 0.794583 0.742645 0.314725
O O16 0.438809 0.372529 0.610870
O O17 0.867786 0.254491 0.293263
#
# Coordination Sequence:
#
# PCOD9107974 Si02
#       8
#     2   2   2   2   2   2   2   2
#     4   9  21  39  63  90 131 165 213 259 309 372
#     4  11  24  40  59  87 117 156 202 257 315 386
#     4  10  20  40  66  92 133 173 206 257 316 371
#     4   9  21  37  62  89 125 161 207 258 309 374
#     4  11  23  38  63  84 119 160 203 260 318 382
#     4  10  21  38  60  90 115 155 202 254 311 368
#     4  10  23  40  59  81 120 153 204 249 318 375
#     4  10  21  39  61  91 117 162 206 261 308 367
#
# _framework density 25.300011000000001
#
# number of rings (size 3 to 8) (size 9 to 14) (size 15 to 20)
#    0.750    1.250    0.000    3.000    0.000    9.000 
#    0.000    1.250    0.000    0.000    0.000    0.000 
#    0.000    0.000    0.000    0.000    0.000    0.000 
#
# Total GULP energy -89305.909597 kJ/mol
# GULP energy per Si atom -5581.619350 kJ/mol
# Density = 2.524243 g / cm^3
# Si number density = 25.300011 Si / 1000 Ang^3
#
#
#
# Elastic Constant Matrix: (Units=GPa)
#
#
# Indices 1 2 3 4 5 6 
#
# 1 39.1256 11.7822 -0.7579 -6.0926 24.2700 2.3422
# 2 11.7822 110.1154 24.4915 -8.3114 -2.0687 11.2227
# 3 -0.7579 24.4915 91.2797 -8.5256 2.8254 4.4705
# 4 -6.0926 -8.3114 -8.5256 32.5596 -1.0447 -1.6203
# 5 24.2700 -2.0687 2.8254 -1.0447 34.7822 -3.6473
# 6 2.3422 11.2227 4.4705 -1.6203 -3.6473 53.7370
#
#
#
# Elastic Compliance Matrix: (Units=1/GPa)
#
#
# Indices 1 2 3 4 5 6 
#
# 1 0.051976 -0.006225 0.004160 0.007856 -0.037116 -0.003594
# 2 -0.006225 0.010700 -0.002931 0.000896 0.005104 -0.001346
# 3 0.004160 -0.002931 0.012226 0.003063 -0.004059 -0.000769
# 4 0.007856 0.000896 0.003063 0.033058 -0.004696 -0.000106
# 5 -0.037116 0.005104 -0.004059 -0.004696 0.055615 0.004523
# 6 -0.003594 -0.001346 -0.000769 -0.000106 0.004523 0.019415
#
#
# Mechanical properties :
#
#
# Convention : Reuss Voigt Hill
#
# Bulk Modulus (GPa) = 15.40568 34.61692 25.01130
# Shear Modulus (GPa) = 23.29729 37.88277 30.59003
#
# Velocity S-wave (km/s) = 3.03783 3.87375 3.48097
# Velocity P-wave (km/s) = 4.29033 5.80691 5.10525
#
# Compressibility (1/GPa) = 0.06491112
#
# Stress axis : x y z
#
# Youngs Moduli (GPa) = 19.23965 93.45784 81.79475
#
# Poissons Ratio (x) = 0.58175 -0.34030
# Poissons Ratio (y) = 0.11976 0.23974
# Poissons Ratio (z) = -0.08005 0.27393
#
# Static dielectric constant tensor:
#      x y z
#    x 1.951620 -0.023920 0.004400 
#    y -0.023920 2.009910 0.008540 
#    z 0.004400 0.008540 2.199980 
# 
# From -- ./inp_files/56159.got.cif
#   From: 2010.05.17/outbox.cif.g08.bks.cpg/sg2_29_cif.got.tgz:56159.got - 2010.06.03 11:33:40.
