data_PCOD9107818
_publ_section_title
;
Structure prediction by ZEFSAII (Michael W. Deem and Ramdas Pophale) SiO2 
 PCOD9107818
Probable space group: P -1
;
_chemical_formula_sum "Si O2"
_cell_formula_units_Z 15
_cell_length_a 11.001724
_cell_length_b 5.038250
_cell_length_c 15.235532
_cell_angle_alpha 70.621335
_cell_angle_beta 58.775102
_cell_angle_gamma 98.594540
_cell_volume 624.825996
_symmetry_space_group_name_H-M "P -1"
_symmetry_group_IT_number 2
_symmetry_cell_setting 'triclinic'
loop_
_space_group_symop_operation_xyz
x,y,z
-x,-y,-z
loop_
_atom_site_type_symbol
_atom_site_label
_atom_site_fract_x
_atom_site_fract_y
_atom_site_fract_z
Si Si1 0.438959 0.042602 0.113735
Si Si2 0.556525 0.235083 0.532949
Si Si3 0.844887 0.814973 0.845184
Si Si4 0.355109 0.917062 0.810936
Si Si5 0.826863 0.572602 0.710066
Si Si6 0.000000 0.000000 0.500000
Si Si7 0.834516 0.747716 0.063174
Si Si8 0.091667 0.395790 0.593820
O O1 0.322189 0.204406 0.122190
O O2 0.563721 0.183678 0.127147
O O3 0.325907 0.704922 0.226223
O O4 0.500000 0.000000 0.000000
O O5 0.500000 0.500000 0.500000
O O6 0.741936 0.388658 0.456807
O O7 0.500000 0.000000 0.500000
O O8 0.474293 0.073995 0.671503
O O9 0.861207 0.564056 0.801126
O O10 0.837889 0.770055 0.954508
O O11 0.983855 0.132947 0.730117
O O12 0.215117 0.612581 0.859895
O O13 0.289375 0.147921 0.854561
O O14 0.989105 0.605839 0.596293
O O15 0.840083 0.898630 0.635931
O O16 0.106012 0.218002 0.521830
O O17 0.000000 0.000000 0.000000
#
# Coordination Sequence:
#
# PCOD9107818 Si02
#       8
#     2   2   2   2   2   1   2   2
#     4  11  22  43  69 108 152 185 239 303 387 442
#     4  12  30  52  77 108 153 204 260 320 375 447
#     4  10  24  42  74 106 147 198 239 308 372 459
#     4  12  28  49  78 111 147 198 251 316 379 442
#     4  10  22  39  67 103 140 189 236 297 375 451
#     4  10  20  40  66 100 136 180 244 308 362 444
#     4  12  28  49  75 108 151 199 254 302 365 455
#     4  10  24  44  70 102 143 192 250 306 380 447
#
# _framework density 24.006685999999998
#
# number of rings (size 3 to 8) (size 9 to 14) (size 15 to 20)
#    0.000    1.067    1.333    3.200   11.200    3.200 
#    2.400    0.000    0.000    0.000    0.000    0.000 
#    0.000    0.000    0.000    0.000    0.000    0.000 
#
# Total GULP energy -83748.228408 kJ/mol
# GULP energy per Si atom -5583.215227 kJ/mol
# Density = 2.395205 g / cm^3
# Si number density = 24.006686 Si / 1000 Ang^3
#
#
#
# Elastic Constant Matrix: (Units=GPa)
#
#
# Indices 1 2 3 4 5 6 
#
# 1 66.4299 26.0615 45.1065 0.2387 -10.4175 26.8460
# 2 26.0615 134.8744 54.7466 2.6694 -4.9074 33.4718
# 3 45.1065 54.7466 147.2507 16.9098 -4.9491 12.5197
# 4 0.2387 2.6694 16.9098 47.6636 4.1359 -0.5382
# 5 -10.4175 -4.9074 -4.9491 4.1359 30.0084 -3.4742
# 6 26.8460 33.4718 12.5197 -0.5382 -3.4742 40.3029
#
#
#
# Elastic Compliance Matrix: (Units=1/GPa)
#
#
# Indices 1 2 3 4 5 6 
#
# 1 0.027341 0.002325 -0.007767 0.001742 0.006364 -0.017158
# 2 0.002325 0.010923 -0.004030 0.000635 0.000765 -0.009294
# 3 -0.007767 -0.004030 0.010603 -0.003392 -0.000545 0.005135
# 4 0.001742 0.000635 -0.003392 0.022394 -0.003006 -0.000595
# 5 0.006364 0.000765 -0.000545 -0.003006 0.035791 -0.001660
# 6 -0.017158 -0.009294 0.005135 -0.000595 -0.001660 0.042214
#
#
# Mechanical properties :
#
#
# Convention : Reuss Voigt Hill
#
# Bulk Modulus (GPa) = 33.41962 66.70935 50.06448
# Shear Modulus (GPa) = 28.06095 38.43767 33.24931
#
# Velocity S-wave (km/s) = 3.42260 4.00574 3.72560
# Velocity P-wave (km/s) = 5.43784 7.01732 6.27746
#
# Compressibility (1/GPa) = 0.02992254
#
# Stress axis : x y z
#
# Youngs Moduli (GPa) = 36.57502 91.55330 94.30951
#
# Poissons Ratio (x) = -0.21285 0.73250
# Poissons Ratio (y) = -0.08503 0.38008
# Poissons Ratio (z) = 0.28408 0.36897
#
# Static dielectric constant tensor:
#      x y z
#    x 2.154620 -0.246220 0.274680 
#    y -0.246220 2.323800 -0.221470 
#    z 0.274680 -0.221470 2.389150 
# 
# From -- ./inp_files/509744.got.cif
#   From: 2010.05.17/outbox.cif.g08.bks.cpg/sg2_255_cif.got.tgz:509744.got - 2010.06.03 11:33:40.
