data_PCOD9107364
_publ_section_title
;
Structure prediction by ZEFSAII (Michael W. Deem and Ramdas Pophale) SiO2 
 PCOD9107364
Probable space group: P -1
;
_chemical_formula_sum "Si O2"
_cell_formula_units_Z 15
_cell_length_a 11.472245
_cell_length_b 15.826541
_cell_length_c 9.242598
_cell_angle_alpha 59.519232
_cell_angle_beta 79.307931
_cell_angle_gamma 129.499641
_cell_volume 719.774570
_symmetry_space_group_name_H-M "P -1"
_symmetry_group_IT_number 2
_symmetry_cell_setting 'triclinic'
loop_
_space_group_symop_operation_xyz
x,y,z
-x,-y,-z
loop_
_atom_site_type_symbol
_atom_site_label
_atom_site_fract_x
_atom_site_fract_y
_atom_site_fract_z
Si Si1 0.253579 0.277293 0.281863
Si Si2 0.872440 0.498856 0.610933
Si Si3 0.561100 0.154643 0.193486
Si Si4 0.000000 0.000000 0.000000
Si Si5 0.126336 0.868637 0.344548
Si Si6 0.427532 0.060818 0.629108
Si Si7 0.542842 0.779638 0.261089
Si Si8 0.935478 0.044589 0.276092
O O1 0.259192 0.170038 0.430955
O O2 0.100165 0.229920 0.473278
O O3 0.500000 0.500000 0.000000
O O4 0.115449 0.180760 0.246800
O O5 0.677230 0.403648 0.628525
O O6 0.000000 0.500000 0.500000
O O7 0.046824 0.706459 0.446512
O O8 0.731564 0.352089 0.905422
O O9 0.570160 0.164217 0.356285
O O10 0.299256 0.987477 0.338838
O O11 0.611626 0.079398 0.197331
O O12 0.713132 0.817963 0.251088
O O13 0.055284 0.084153 0.073778
O O14 0.271676 0.026568 0.048395
O O15 0.536866 0.204064 0.606671
O O16 0.182003 0.937679 0.756572
#
# Coordination Sequence:
#
# PCOD9107364 Si02
#       8
#     2   2   2   1   2   2   2   2
#     4  11  24  38  64  91 120 159 209 250 295 365
#     4  11  24  40  64  93 122 162 209 252 301 362
#     4  10  22  41  65  88 121 161 201 255 304 363
#     4  10  20  40  64  88 120 168 192 246 312 362
#     4  11  22  41  64  92 118 163 209 247 301 363
#     4  10  20  40  65  87 119 161 198 248 314 357
#     4  10  22  41  64  85 125 161 202 253 301 366
#     4  10  22  42  64  86 124 158 201 249 308 356
#
# _framework density 20.839860000000002
#
# number of rings (size 3 to 8) (size 9 to 14) (size 15 to 20)
#    0.000    1.600    2.667    1.600    3.733    2.133 
#    0.000   18.000    0.000    0.000    0.000    0.000 
#    0.000    0.000    0.000    0.000    0.000    0.000 
#
# Total GULP energy -83555.370549 kJ/mol
# GULP energy per Si atom -5570.358037 kJ/mol
# Density = 2.079243 g / cm^3
# Si number density = 20.839860 Si / 1000 Ang^3
#
#
#
# Elastic Constant Matrix: (Units=GPa)
#
#
# Indices 1 2 3 4 5 6 
#
# 1 56.6331 -16.9369 1.0537 -8.0418 -9.6228 2.4915
# 2 -16.9369 65.2053 32.8092 12.1113 3.5130 -2.9702
# 3 1.0537 32.8092 57.3129 -12.4703 -8.3071 -1.3567
# 4 -8.0418 12.1113 -12.4703 34.8676 -1.8589 -3.3785
# 5 -9.6228 3.5130 -8.3071 -1.8589 16.2512 9.5207
# 6 2.4915 -2.9702 -1.3567 -3.3785 9.5207 26.3462
#
#
#
# Elastic Compliance Matrix: (Units=1/GPa)
#
#
# Indices 1 2 3 4 5 6 
#
# 1 0.022751 0.002672 0.001755 0.005190 0.019061 -0.007983
# 2 0.002672 0.039627 -0.032863 -0.025585 -0.033318 0.011282
# 3 0.001755 -0.032863 0.048989 0.030404 0.044613 -0.013571
# 4 0.005190 -0.025585 0.030404 0.050724 0.034501 -0.007772
# 5 0.019061 -0.033318 0.044613 0.034501 0.134587 -0.047473
# 6 -0.007983 0.011282 -0.013571 -0.007772 -0.047473 0.055443
#
#
# Mechanical properties :
#
#
# Convention : Reuss Voigt Hill
#
# Bulk Modulus (GPa) = 18.35029 23.66703 21.00866
# Shear Modulus (GPa) = 11.70534 26.30804 19.00669
#
# Velocity S-wave (km/s) = 2.37255 3.55687 3.02327
# Velocity P-wave (km/s) = 4.04102 5.31504 4.72120
#
# Compressibility (1/GPa) = 0.05449506
#
# Stress axis : x y z
#
# Youngs Moduli (GPa) = 43.95452 25.23555 20.41282
#
# Poissons Ratio (x) = -0.06742 -0.03583
# Poissons Ratio (y) = -0.11743 0.67082
# Poissons Ratio (z) = -0.07716 0.82931
#
# Static dielectric constant tensor:
#      x y z
#    x 1.898580 0.021130 -0.000620 
#    y 0.021130 1.739890 0.034670 
#    z -0.000620 0.034670 1.724560 
# 
# From -- ./inp_files/78647.got.cif
#   From: 2010.05.17/outbox.cif.g08.bks.cpg/sg2_40_cif.got.tgz:78647.got - 2010.06.03 11:33:40.
