data_PCOD9107691
_publ_section_title
;
Structure prediction by ZEFSAII (Michael W. Deem and Ramdas Pophale) SiO2 
 PCOD9107691
Probable space group: P -1
;
_chemical_formula_sum "Si O2"
_cell_formula_units_Z 15
_cell_length_a 9.107802
_cell_length_b 6.399862
_cell_length_c 15.055827
_cell_angle_alpha 128.365005
_cell_angle_beta 64.601248
_cell_angle_gamma 99.208580
_cell_volume 614.557343
_symmetry_space_group_name_H-M "P -1"
_symmetry_group_IT_number 2
_symmetry_cell_setting 'triclinic'
loop_
_space_group_symop_operation_xyz
x,y,z
-x,-y,-z
loop_
_atom_site_type_symbol
_atom_site_label
_atom_site_fract_x
_atom_site_fract_y
_atom_site_fract_z
Si Si1 0.758552 0.714972 0.871361
Si Si2 0.500000 0.500000 0.500000
Si Si3 0.762077 0.178371 0.624658
Si Si4 0.410814 0.394960 0.701205
Si Si5 0.141561 0.318583 0.972395
Si Si6 0.382784 0.706831 0.961016
Si Si7 0.803454 0.027544 0.289477
Si Si8 0.022434 0.180588 0.409333
O O1 0.803051 0.460948 0.728011
O O2 0.568379 0.696425 0.942401
O O3 0.875965 0.700992 0.922737
O O4 0.728693 0.011368 0.915530
O O5 0.444299 0.449088 0.605230
O O6 0.329983 0.714994 0.587920
O O7 0.575015 0.214571 0.651950
O O8 0.882426 0.099811 0.490524
O O9 0.804687 0.954166 0.630513
O O10 0.389607 0.657989 0.839508
O O11 0.263033 0.227928 0.715052
O O12 0.300105 0.465539 0.956665
O O13 0.175455 0.038358 0.837246
O O14 0.000000 0.500000 0.000000
O O15 0.974801 0.071466 0.299180
O O16 0.000000 0.500000 0.500000
#
# Coordination Sequence:
#
# PCOD9107691 Si02
#       8
#     2   1   2   2   2   2   2   2
#     4  10  20  40  65  92 124 164 211 258 311 370
#     4  12  22  36  68  94 126 162 212 260 324 374
#     4  10  23  41  63  89 128 168 214 266 308 376
#     4  10  22  41  65  96 126 167 212 268 317 368
#     4  11  23  40  63  94 130 167 207 256 323 377
#     4   9  21  40  65  93 127 162 213 258 309 376
#     4  11  25  41  64  95 128 167 214 271 314 376
#     4  11  25  43  62  90 127 173 216 256 322 383
#
# _framework density 24.407813000000001
#
# number of rings (size 3 to 8) (size 9 to 14) (size 15 to 20)
#    0.000    1.600    1.333    2.400    1.867    3.733 
#    0.000    0.000    0.000    0.000    0.000    0.000 
#    0.000    0.000    0.000    0.000    0.000    0.000 
#
# Total GULP energy -83702.006986 kJ/mol
# GULP energy per Si atom -5580.133799 kJ/mol
# Density = 2.435226 g / cm^3
# Si number density = 24.407813 Si / 1000 Ang^3
#
#
#
# Elastic Constant Matrix: (Units=GPa)
#
#
# Indices 1 2 3 4 5 6 
#
# 1 86.9618 48.2186 33.8137 -7.3314 18.5453 -7.5969
# 2 48.2186 51.3144 21.9905 -1.0879 15.0165 -18.4491
# 3 33.8137 21.9905 86.1871 -5.6467 2.7088 -7.0160
# 4 -7.3314 -1.0879 -5.6467 29.8104 -3.0483 -1.4940
# 5 18.5453 15.0165 2.7088 -3.0483 40.1503 1.0537
# 6 -7.5969 -18.4491 -7.0160 -1.4940 1.0537 33.7484
#
#
#
# Elastic Compliance Matrix: (Units=1/GPa)
#
#
# Indices 1 2 3 4 5 6 
#
# 1 0.028518 -0.027506 -0.004572 0.004474 -0.001992 -0.009308
# 2 -0.027506 0.058041 -0.001965 -0.004766 -0.009894 0.025226
# 3 -0.004572 -0.001965 0.014013 0.001705 0.002009 0.000822
# 4 0.004474 -0.004766 0.001705 0.035037 0.002255 0.000236
# 5 -0.001992 -0.009894 0.002009 0.002255 0.029727 -0.006268
# 6 -0.009308 0.025226 0.000822 0.000236 -0.006268 0.041703
#
#
# Mechanical properties :
#
#
# Convention : Reuss Voigt Hill
#
# Bulk Modulus (GPa) = 30.78405 48.05656 39.42030
# Shear Modulus (GPa) = 17.48526 28.77119 23.12823
#
# Velocity S-wave (km/s) = 2.67943 3.43705 3.08161
# Velocity P-wave (km/s) = 4.71298 5.95674 5.37099
#
# Compressibility (1/GPa) = 0.03248435
#
# Stress axis : x y z
#
# Youngs Moduli (GPa) = 35.06581 17.22927 71.36051
#
# Poissons Ratio (x) = 0.47392 0.32627
# Poissons Ratio (y) = 0.96454 0.14024
# Poissons Ratio (z) = 0.16032 0.03386
#
# Static dielectric constant tensor:
#      x y z
#    x 1.915810 -0.013690 0.020780 
#    y -0.013690 1.950290 0.012260 
#    z 0.020780 0.012260 1.945010 
# 
# From -- ./inp_files/307959.got.cif
#   From: 2010.05.17/outbox.cif.g08.bks.cpg/sg2_154_cif.got.tgz:307959.got - 2010.06.03 11:33:40.
