data_PCOD9107273
_publ_section_title
;
Structure prediction by ZEFSAII (Michael W. Deem and Ramdas Pophale) SiO2 
 PCOD9107273
Probable space group: P -1
;
_chemical_formula_sum "Si O2"
_cell_formula_units_Z 16
_cell_length_a 15.754182
_cell_length_b 11.538040
_cell_length_c 15.368756
_cell_angle_alpha 122.511823
_cell_angle_beta 152.641749
_cell_angle_gamma 38.464400
_cell_volume 665.600726
_symmetry_space_group_name_H-M "P -1"
_symmetry_group_IT_number 2
_symmetry_cell_setting 'triclinic'
loop_
_space_group_symop_operation_xyz
x,y,z
-x,-y,-z
loop_
_atom_site_type_symbol
_atom_site_label
_atom_site_fract_x
_atom_site_fract_y
_atom_site_fract_z
Si Si1 0.860493 0.617363 0.295145
Si Si2 0.496279 0.733495 0.574671
Si Si3 0.648441 0.872650 0.374214
Si Si4 0.286053 0.801875 0.584136
Si Si5 0.692877 0.292461 0.872556
Si Si6 0.997142 0.870145 0.074884
Si Si7 0.647479 0.262874 0.184341
Si Si8 0.837595 0.449198 0.618616
O O1 0.792904 0.769505 0.368449
O O2 0.142909 0.354138 0.471285
O O3 0.909343 0.652943 0.258754
O O4 0.567143 0.694416 0.056392
O O5 0.538088 0.681501 0.693836
O O6 0.793029 0.541707 0.709156
O O7 0.362241 0.965132 0.536370
O O8 0.260163 0.754564 0.335045
O O9 0.299652 0.028915 0.119764
O O10 0.359218 0.795775 0.747270
O O11 0.181823 0.703790 0.451748
O O12 0.991092 0.056189 0.387234
O O13 0.891570 0.079855 0.026306
O O14 0.489036 0.507034 0.833547
O O15 0.468856 0.334593 0.625969
O O16 0.874746 0.270917 0.955741
#
# Coordination Sequence:
#
# PCOD9107273 Si02
#       8
#     2   2   2   2   2   2   2   2
#     4  11  24  42  61 101 128 163 208 266 325 371
#     4  11  24  41  67  97 127 171 211 260 320 374
#     4  11  25  40  66  99 135 158 209 267 314 396
#     4  10  23  43  64  90 122 173 221 259 309 373
#     4   9  19  37  65  93 125 165 213 252 317 384
#     4  10  20  40  63  96 131 168 200 263 320 377
#     4  10  22  39  68  89 122 172 211 266 310 378
#     4  10  22  42  66  88 131 167 210 265 312 376
#
# _framework density 24.038435
#
# number of rings (size 3 to 8) (size 9 to 14) (size 15 to 20)
#    0.000    1.750    1.250    1.875    7.000    1.000 
#    2.250    3.750    0.000    0.000    0.000    0.000 
#    0.000    0.000    0.000    0.000    0.000    0.000 
#
# Total GULP energy -89428.402889 kJ/mol
# GULP energy per Si atom -5589.275181 kJ/mol
# Density = 2.398372 g / cm^3
# Si number density = 24.038435 Si / 1000 Ang^3
#
#
#
# Elastic Constant Matrix: (Units=GPa)
#
#
# Indices 1 2 3 4 5 6 
#
# 1 107.0683 28.5033 2.2507 6.3016 15.7726 -15.2473
# 2 28.5033 114.3208 7.1013 2.0500 10.3048 -16.9073
# 3 2.2507 7.1013 60.0758 3.0932 9.6387 3.0708
# 4 6.3016 2.0500 3.0932 23.3849 0.9444 -4.1337
# 5 15.7726 10.3048 9.6387 0.9444 19.7826 1.0387
# 6 -15.2473 -16.9073 3.0708 -4.1337 1.0387 24.3212
#
#
#
# Elastic Compliance Matrix: (Units=1/GPa)
#
#
# Indices 1 2 3 4 5 6 
#
# 1 0.012149 -0.001166 0.001002 -0.001703 -0.009843 0.006810
# 2 -0.001166 0.010528 -0.000881 0.000938 -0.004540 0.007052
# 3 0.001002 -0.000881 0.018426 -0.002685 -0.009064 -0.002380
# 4 -0.001703 0.000938 -0.002685 0.044846 -0.000361 0.007561
# 5 -0.009843 -0.004540 -0.009064 -0.000361 0.065776 -0.011053
# 6 0.006810 0.007052 -0.002380 0.007561 -0.011053 0.052346
#
#
# Mechanical properties :
#
#
# Convention : Reuss Voigt Hill
#
# Bulk Modulus (GPa) = 25.63301 39.68616 32.65959
# Shear Modulus (GPa) = 22.81353 29.73838 26.27596
#
# Velocity S-wave (km/s) = 3.08400 3.52108 3.30976
# Velocity P-wave (km/s) = 4.83403 5.75118 5.31243
#
# Compressibility (1/GPa) = 0.03901220
#
# Stress axis : x y z
#
# Youngs Moduli (GPa) = 82.30850 94.98249 54.26973
#
# Poissons Ratio (x) = 0.11079 -0.05435
# Poissons Ratio (y) = 0.09600 0.04782
# Poissons Ratio (z) = -0.08244 0.08369
#
# Static dielectric constant tensor:
#      x y z
#    x 1.991840 -0.029200 0.011740 
#    y -0.029200 1.932880 -0.033460 
#    z 0.011740 -0.033460 1.905950 
# 
# From -- ./inp_files/260378.got.cif
#   From: 2010.05.17/outbox.cif.g08.bks.cpg/sg2_131_cif.got.tgz:260378.got - 2010.06.03 11:33:40.
