data_PCOD9107672
_publ_section_title
;
Structure prediction by ZEFSAII (Michael W. Deem and Ramdas Pophale) SiO2 
 PCOD9107672
Probable space group: P -1
;
_chemical_formula_sum "Si O2"
_cell_formula_units_Z 16
_cell_length_a 14.308871
_cell_length_b 28.945360
_cell_length_c 11.379501
_cell_angle_alpha 150.851503
_cell_angle_beta 150.124138
_cell_angle_gamma 18.934600
_cell_volume 719.402284
_symmetry_space_group_name_H-M "P -1"
_symmetry_group_IT_number 2
_symmetry_cell_setting 'triclinic'
loop_
_space_group_symop_operation_xyz
x,y,z
-x,-y,-z
loop_
_atom_site_type_symbol
_atom_site_label
_atom_site_fract_x
_atom_site_fract_y
_atom_site_fract_z
Si Si1 0.582927 0.463349 0.370885
Si Si2 0.153926 0.141587 0.282845
Si Si3 0.541368 0.040796 0.258051
Si Si4 0.432305 0.156630 0.826532
Si Si5 0.745954 0.481474 0.192480
Si Si6 0.989226 0.746991 0.212741
Si Si7 0.732108 0.647365 0.374190
Si Si8 0.898238 0.528845 0.821698
O O1 0.500000 0.500000 0.500000
O O2 0.807923 0.456239 0.556560
O O3 0.799184 0.288193 0.206749
O O4 0.302750 0.602953 0.296838
O O5 0.306122 0.092526 0.212557
O O6 0.299232 0.167451 0.583386
O O7 0.243704 0.011572 0.164089
O O8 0.466949 0.181128 0.475057
O O9 0.867773 0.889504 0.333686
O O10 0.500000 0.000000 0.000000
O O11 0.236323 0.184759 0.776896
O O12 0.373294 0.290303 0.081597
O O13 0.611551 0.619438 0.274904
O O14 0.937501 0.450213 0.436728
O O15 0.500000 0.500000 0.000000
O O16 0.999131 0.333187 0.058113
O O17 0.826939 0.558756 0.159860
O O18 0.000000 0.500000 0.000000
#
# Coordination Sequence:
#
# PCOD9107672 Si02
#       8
#     2   2   2   2   2   2   2   2
#     4  12  23  39  63 100 135 173 220 282 343 399
#     4  10  21  38  65  92 129 170 226 261 338 401
#     4  11  22  41  67  98 131 182 229 275 337 417
#     4  10  20  40  65  91 122 175 221 270 322 408
#     4  11  24  41  67 101 133 177 234 287 336 407
#     4  11  22  40  67  91 136 171 219 284 342 393
#     4  11  23  43  69  99 134 184 233 273 349 419
#     4  12  21  39  66  97 130 174 227 269 335 421
#
# _framework density 22.240684999999999
#
# number of rings (size 3 to 8) (size 9 to 14) (size 15 to 20)
#    0.000    1.000    6.250    0.750    0.000    0.000 
#    0.000    2.500    0.000    0.000    0.000    0.000 
#    0.000    0.000    0.000    0.000    0.000    0.000 
#
# Total GULP energy -89229.436867 kJ/mol
# GULP energy per Si atom -5576.839804 kJ/mol
# Density = 2.219006 g / cm^3
# Si number density = 22.240685 Si / 1000 Ang^3
#
#
#
# Elastic Constant Matrix: (Units=GPa)
#
#
# Indices 1 2 3 4 5 6 
#
# 1 122.4985 35.0262 33.6372 0.2532 -18.4775 15.1455
# 2 35.0262 190.6092 27.5554 19.5468 5.0534 40.3586
# 3 33.6372 27.5554 32.9455 13.4448 -6.1385 8.0172
# 4 0.2532 19.5468 13.4448 41.2988 1.3035 7.1957
# 5 -18.4775 5.0534 -6.1385 1.3035 43.7936 11.6410
# 6 15.1455 40.3586 8.0172 7.1957 11.6410 38.3970
#
#
#
# Elastic Compliance Matrix: (Units=1/GPa)
#
#
# Indices 1 2 3 4 5 6 
#
# 1 0.013144 -0.000148 -0.013310 0.004979 0.004780 -0.004633
# 2 -0.000148 0.007369 -0.003853 -0.001060 0.000387 -0.006801
# 3 -0.013310 -0.003853 0.054134 -0.015825 0.002862 0.000095
# 4 0.004979 -0.001060 -0.015825 0.030401 -0.000041 -0.003230
# 5 0.004780 0.000387 0.002862 -0.000041 0.028252 -0.011447
# 6 -0.004633 -0.006801 0.000095 -0.003230 -0.011447 0.039076
#
#
# Mechanical properties :
#
#
# Convention : Reuss Voigt Hill
#
# Bulk Modulus (GPa) = 24.98446 59.83231 42.40839
# Shear Modulus (GPa) = 22.69230 41.35351 32.02291
#
# Velocity S-wave (km/s) = 3.19769 4.31671 3.79863
# Velocity P-wave (km/s) = 4.98916 7.19763 6.19264
#
# Compressibility (1/GPa) = 0.04002487
#
# Stress axis : x y z
#
# Youngs Moduli (GPa) = 76.08035 135.70393 18.47275
#
# Poissons Ratio (x) = 0.02002 0.24588
# Poissons Ratio (y) = 0.01122 0.07118
# Poissons Ratio (z) = 1.01265 0.52289
#
# Static dielectric constant tensor:
#      x y z
#    x 1.828540 0.011850 -0.051170 
#    y 0.011850 1.898760 0.029410 
#    z -0.051170 0.029410 1.916420 
# 
# From -- ./inp_files/458407.got.cif
#   From: 2010.05.17/outbox.cif.g08.bks.cpg/sg2_230_cif.got.tgz:458407.got - 2010.06.03 11:33:40.
