data_PCOD9107676
_publ_section_title
;
Structure prediction by ZEFSAII (Michael W. Deem and Ramdas Pophale) SiO2 
 PCOD9107676
Probable space group: P -1
;
_chemical_formula_sum "Si O2"
_cell_formula_units_Z 14
_cell_length_a 13.247908
_cell_length_b 12.294419
_cell_length_c 14.479378
_cell_angle_alpha 137.671950
_cell_angle_beta 152.030262
_cell_angle_gamma 44.965116
_cell_volume 733.588876
_symmetry_space_group_name_H-M "P -1"
_symmetry_group_IT_number 2
_symmetry_cell_setting 'triclinic'
loop_
_space_group_symop_operation_xyz
x,y,z
-x,-y,-z
loop_
_atom_site_type_symbol
_atom_site_label
_atom_site_fract_x
_atom_site_fract_y
_atom_site_fract_z
Si Si1 0.754409 0.421113 0.654693
Si Si2 0.645309 0.006811 0.993011
Si Si3 0.506695 0.257563 0.878905
Si Si4 0.151028 0.528147 0.722586
Si Si5 0.026892 0.711449 0.064926
Si Si6 0.860564 0.179684 0.974855
Si Si7 0.213121 0.881804 0.637070
O O1 0.500000 0.500000 0.500000
O O2 0.790749 0.293542 0.520323
O O3 0.816123 0.331330 0.746704
O O4 0.915412 0.552540 0.855724
O O5 0.754453 0.111088 0.222340
O O6 0.828848 0.852639 0.022380
O O7 0.566995 0.110234 0.904672
O O8 0.430463 0.945063 0.817444
O O9 0.259593 0.351442 0.739652
O O10 0.614747 0.197300 0.829474
O O11 0.647144 0.396030 0.109446
O O12 0.000000 0.500000 0.500000
O O13 0.055013 0.670608 0.807176
O O14 0.132234 0.775910 0.098975
O O15 0.000000 0.000000 0.000000
O O16 0.000000 0.000000 0.500000
#
# Coordination Sequence:
#
# PCOD9107676 Si02
#       7
#     2   2   2   2   2   2   2
#     4  11  24  42  62  90 126 161 211 257 311 365
#     4  11  22  40  67  88 127 162 205 264 313 364
#     4   9  21  40  63  88 128 156 202 255 304 368
#     4   9  20  41  60  86 123 160 206 245 295 369
#     4  11  22  41  65  91 128 163 202 264 310 366
#     4  10  20  40  65  91 126 162 196 250 313 364
#     4  11  24  41  62  93 118 162 213 254 310 370
#
# _framework density 19.084258999999999
#
# number of rings (size 3 to 8) (size 9 to 14) (size 15 to 20)
#    0.857    0.857    4.286    0.000    0.000    4.571 
#    5.143    0.714    0.000    0.000    0.000    0.000 
#    0.000    0.000    0.000    0.000    0.000    0.000 
#
# Total GULP energy -77991.710579 kJ/mol
# GULP energy per Si atom -5570.836470 kJ/mol
# Density = 1.904082 g / cm^3
# Si number density = 19.084259 Si / 1000 Ang^3
#
#
#
# Elastic Constant Matrix: (Units=GPa)
#
#
# Indices 1 2 3 4 5 6 
#
# 1 87.5474 47.3909 25.7624 -2.7735 -21.2388 3.8402
# 2 47.3909 148.0528 43.5158 -16.4007 -15.2677 -12.5938
# 3 25.7624 43.5158 85.3181 -6.0977 -22.5321 -10.7235
# 4 -2.7735 -16.4007 -6.0977 30.6128 -4.7075 -6.2478
# 5 -21.2388 -15.2677 -22.5321 -4.7075 18.6779 1.6480
# 6 3.8402 -12.5938 -10.7235 -6.2478 1.6480 39.6406
#
#
#
# Elastic Compliance Matrix: (Units=1/GPa)
#
#
# Indices 1 2 3 4 5 6 
#
# 1 0.018394 -0.004345 0.001794 0.002178 0.020358 -0.003180
# 2 -0.004345 0.009922 -0.002653 0.005289 0.000980 0.003648
# 3 0.001794 -0.002653 0.020643 0.007865 0.026341 0.004712
# 4 0.002178 0.005289 0.007865 0.043218 0.026359 0.009313
# 5 0.020358 0.000980 0.026341 0.026359 0.115485 0.004818
# 6 -0.003180 0.003648 0.004712 0.009313 0.004818 0.029236
#
#
# Mechanical properties :
#
#
# Convention : Reuss Voigt Hill
#
# Bulk Modulus (GPa) = 25.93933 61.58405 43.76169
# Shear Modulus (GPa) = 19.21920 31.40287 25.31104
#
# Velocity S-wave (km/s) = 3.17688 4.06086 3.64576
# Velocity P-wave (km/s) = 5.20368 7.37069 6.37986
#
# Compressibility (1/GPa) = 0.03855150
#
# Stress axis : x y z
#
# Youngs Moduli (GPa) = 54.36654 100.78247 48.44170
#
# Poissons Ratio (x) = 0.43790 -0.08693
# Poissons Ratio (y) = 0.23622 0.12853
# Poissons Ratio (z) = -0.09756 0.26742
#
# Static dielectric constant tensor:
#      x y z
#    x 1.670030 0.020580 0.001110 
#    y 0.020580 1.671440 0.000910 
#    z 0.001110 0.000910 1.648970 
# 
# From -- ./inp_files/530754.got.cif
#   From: 2010.05.17/outbox.cif.g08.bks.cpg/sg2_266_cif.got.tgz:530754.got - 2010.06.03 11:33:40.
