data_PCOD9107457
_publ_section_title
;
Structure prediction by ZEFSAII (Michael W. Deem and Ramdas Pophale) SiO2 
 PCOD9107457
Probable space group: P -1
;
_chemical_formula_sum "Si O2"
_cell_formula_units_Z 12
_cell_length_a 8.795923
_cell_length_b 17.328644
_cell_length_c 11.420601
_cell_angle_alpha 30.566900
_cell_angle_beta 54.380628
_cell_angle_gamma 39.428183
_cell_volume 543.492650
_symmetry_space_group_name_H-M "P -1"
_symmetry_group_IT_number 2
_symmetry_cell_setting 'triclinic'
loop_
_space_group_symop_operation_xyz
x,y,z
-x,-y,-z
loop_
_atom_site_type_symbol
_atom_site_label
_atom_site_fract_x
_atom_site_fract_y
_atom_site_fract_z
Si Si1 0.334720 0.594068 0.179375
Si Si2 0.889153 0.909120 0.608445
Si Si3 0.851552 0.815655 0.984499
Si Si4 0.837138 0.452637 0.190273
Si Si5 0.133597 0.537191 0.560700
Si Si6 0.569686 0.788366 0.460744
O O1 0.068898 0.782994 0.000170
O O2 0.562792 0.586567 0.083410
O O3 0.405170 0.403579 0.324634
O O4 0.284923 0.566806 0.370024
O O5 0.020518 0.779275 0.604772
O O6 0.594344 0.091157 0.506986
O O7 0.000000 0.000000 0.500000
O O8 0.941508 0.756404 0.886098
O O9 0.819920 0.661112 0.242902
O O10 0.601507 0.043398 0.782250
O O11 0.809517 0.479827 0.306188
O O12 0.000000 0.500000 0.000000
O O13 0.839405 0.716266 0.441687
#
# Coordination Sequence:
#
# PCOD9107457 Si02
#       6
#     2   2   2   2   2   2
#     4  11  23  39  66  94 126 169 211 259 316 382
#     4  10  20  40  64  93 122 170 212 257 310 368
#     4   9  20  40  64  95 119 167 213 259 310 372
#     4  12  23  42  63  93 133 169 208 263 319 378
#     4  11  23  39  64  97 128 167 205 263 324 373
#     4   9  20  40  64  94 124 163 215 260 306 380
#
# _framework density 22.079415000000001
#
# number of rings (size 3 to 8) (size 9 to 14) (size 15 to 20)
#    1.000    0.667    3.333    2.500    0.000    5.333 
#    0.000    5.000    0.000   10.000    0.000    0.000 
#    0.000    0.000    0.000    0.000    0.000    0.000 
#
# Total GULP energy -66960.339919 kJ/mol
# GULP energy per Si atom -5580.028327 kJ/mol
# Density = 2.202916 g / cm^3
# Si number density = 22.079415 Si / 1000 Ang^3
#
#
#
# Elastic Constant Matrix: (Units=GPa)
#
#
# Indices 1 2 3 4 5 6 
#
# 1 100.5476 34.4414 22.4865 -2.7380 -2.9264 -17.8789
# 2 34.4414 68.3148 -2.0705 -6.4585 -4.4048 -7.4225
# 3 22.4865 -2.0705 46.8268 -7.5069 3.9035 -18.2126
# 4 -2.7380 -6.4585 -7.5069 32.7106 -6.6745 4.1503
# 5 -2.9264 -4.4048 3.9035 -6.6745 31.0675 3.9481
# 6 -17.8789 -7.4225 -18.2126 4.1503 3.9481 44.3901
#
#
#
# Elastic Compliance Matrix: (Units=1/GPa)
#
#
# Indices 1 2 3 4 5 6 
#
# 1 0.014282 -0.007357 -0.006814 -0.001955 0.000501 0.001865
# 2 -0.007357 0.019315 0.005743 0.004686 0.002076 0.002000
# 3 -0.006814 0.005743 0.030103 0.005382 -0.003775 0.010400
# 4 -0.001955 0.004686 0.005382 0.034284 0.007380 -0.001657
# 5 0.000501 0.002076 -0.003775 0.007380 0.035202 -0.004821
# 6 0.001865 0.002000 0.010400 -0.001657 -0.004821 0.028464
#
#
# Mechanical properties :
#
#
# Convention : Reuss Voigt Hill
#
# Bulk Modulus (GPa) = 21.34659 36.15600 28.75130
# Shear Modulus (GPa) = 25.75704 32.35577 29.05640
#
# Velocity S-wave (km/s) = 3.41920 3.83224 3.63160
# Velocity P-wave (km/s) = 5.02763 5.99937 5.53486
#
# Compressibility (1/GPa) = 0.04684588
#
# Stress axis : x y z
#
# Youngs Moduli (GPa) = 70.01649 51.77212 33.21874
#
# Poissons Ratio (x) = 0.38088 0.22634
# Poissons Ratio (y) = 0.51511 -0.19077
# Poissons Ratio (z) = 0.47707 -0.29732
#
# Static dielectric constant tensor:
#      x y z
#    x 1.814660 -0.005390 -0.008030 
#    y -0.005390 1.833980 0.043230 
#    z -0.008030 0.043230 1.867110 
# 
# From -- ./inp_files/275340.got.cif
#   From: 2010.05.17/outbox.cif.g08.bks.cpg/sg2_138_cif.got.tgz:275340.got - 2010.06.03 11:33:40.
