data_PCOD9107169
_publ_section_title
;
Structure prediction by ZEFSAII (Michael W. Deem and Ramdas Pophale) SiO2 
 PCOD9107169
Probable space group: P -1
;
_chemical_formula_sum "Si O2"
_cell_formula_units_Z 16
_cell_length_a 10.235164
_cell_length_b 11.951680
_cell_length_c 8.268192
_cell_angle_alpha 50.731540
_cell_angle_beta 66.334071
_cell_angle_gamma 81.603884
_cell_volume 708.806926
_symmetry_space_group_name_H-M "P -1"
_symmetry_group_IT_number 2
_symmetry_cell_setting 'triclinic'
loop_
_space_group_symop_operation_xyz
x,y,z
-x,-y,-z
loop_
_atom_site_type_symbol
_atom_site_label
_atom_site_fract_x
_atom_site_fract_y
_atom_site_fract_z
Si Si1 0.153061 0.160854 0.628987
Si Si2 0.768879 0.239759 0.246114
Si Si3 0.158354 0.465986 0.516379
Si Si4 0.168025 0.961005 0.113904
Si Si5 0.844785 0.537029 0.091049
Si Si6 0.925827 0.849428 0.758309
Si Si7 0.611990 0.944754 0.621825
Si Si8 0.353825 0.755767 0.060166
O O1 0.185664 0.318787 0.548702
O O2 0.264876 0.122016 0.475708
O O3 0.985115 0.139825 0.679339
O O4 0.158194 0.038782 0.875417
O O5 0.747232 0.392887 0.198889
O O6 0.934019 0.209375 0.182161
O O7 0.687326 0.100252 0.512751
O O8 0.715150 0.236168 0.092187
O O9 0.160316 0.452047 0.722488
O O10 0.290199 0.592937 0.293093
O O11 0.000000 0.500000 0.500000
O O12 0.288497 0.860310 0.123392
O O13 0.180282 0.091043 0.116580
O O14 0.841192 0.696878 0.869910
O O15 0.000000 0.500000 0.000000
O O16 0.000000 0.000000 0.500000
O O17 0.500000 0.000000 0.500000
O O18 0.520094 0.824041 0.889911
#
# Coordination Sequence:
#
# PCOD9107169 Si02
#       8
#     2   2   2   2   2   2   2   2
#     4  11  20  35  64  85 123 157 199 265 301 357
#     4  10  20  41  58  85 128 163 198 251 311 373
#     4  12  23  38  62  96 126 159 206 262 310 364
#     4  11  19  35  61  91 116 150 215 258 291 357
#     4  10  23  37  56  88 130 162 191 252 324 367
#     4  11  22  35  60  92 123 157 203 256 316 365
#     4  10  20  40  63  90 119 169 207 252 314 363
#     4  11  23  38  67  92 120 165 211 251 313 370
#
# _framework density 22.573141
#
# number of rings (size 3 to 8) (size 9 to 14) (size 15 to 20)
#    0.000    1.250    6.250    2.250    3.500    1.500 
#    0.000    0.625    0.000    3.750    0.000    0.000 
#    0.000    0.000    0.000    0.000    0.000    0.000 
#
# Total GULP energy -89284.773962 kJ/mol
# GULP energy per Si atom -5580.298373 kJ/mol
# Density = 2.252176 g / cm^3
# Si number density = 22.573141 Si / 1000 Ang^3
#
#
#
# Elastic Constant Matrix: (Units=GPa)
#
#
# Indices 1 2 3 4 5 6 
#
# 1 52.0632 25.6747 33.1704 -3.4384 -11.0931 -7.2677
# 2 25.6747 212.4129 81.4142 -27.2995 -23.3580 -1.4735
# 3 33.1704 81.4142 167.2438 -19.9451 -31.7836 -5.7822
# 4 -3.4384 -27.2995 -19.9451 35.8163 4.3650 -8.9489
# 5 -11.0931 -23.3580 -31.7836 4.3650 41.2688 4.6557
# 6 -7.2677 -1.4735 -5.7822 -8.9489 4.6557 23.1920
#
#
#
# Elastic Compliance Matrix: (Units=1/GPa)
#
#
# Indices 1 2 3 4 5 6 
#
# 1 0.023297 -0.001148 -0.003320 0.000799 0.002266 0.006254
# 2 -0.001148 0.006250 -0.002167 0.003461 0.001125 0.000607
# 3 -0.003320 -0.002167 0.008880 0.002762 0.004288 0.001241
# 4 0.000799 0.003461 0.002762 0.036166 -0.001258 0.015366
# 5 0.002266 0.001125 0.004288 -0.001258 0.029425 -0.004542
# 6 0.006254 0.000607 0.001241 0.015366 -0.004542 0.052267
#
#
# Mechanical properties :
#
#
# Convention : Reuss Voigt Hill
#
# Bulk Modulus (GPa) = 39.75068 79.13761 59.44414
# Shear Modulus (GPa) = 28.09922 39.48610 33.79266
#
# Velocity S-wave (km/s) = 3.53201 4.18694 3.87334
# Velocity P-wave (km/s) = 5.85503 7.64908 6.81138
#
# Compressibility (1/GPa) = 0.02515681
#
# Stress axis : x y z
#
# Youngs Moduli (GPa) = 42.92361 159.99911 112.61500
#
# Poissons Ratio (x) = 0.18375 0.37383
# Poissons Ratio (y) = 0.04929 0.24405
# Poissons Ratio (z) = 0.14249 0.34674
#
# Static dielectric constant tensor:
#      x y z
#    x 1.889130 0.080320 0.025780 
#    y 0.080320 1.839260 -0.006750 
#    z 0.025780 -0.006750 1.914290 
# 
# From -- ./inp_files/261510.got.cif
#   From: 2010.05.17/outbox.cif.g08.bks.cpg/sg2_131_cif.got.tgz:261510.got - 2010.06.03 11:33:40.
