data_PCOD9107301
_publ_section_title
;
Structure prediction by ZEFSAII (Michael W. Deem and Ramdas Pophale) SiO2 
 PCOD9107301
Probable space group: P -1
;
_chemical_formula_sum "Si O2"
_cell_formula_units_Z 16
_cell_length_a 11.829357
_cell_length_b 5.993327
_cell_length_c 17.228507
_cell_angle_alpha 79.688464
_cell_angle_beta 48.745713
_cell_angle_gamma 58.478986
_cell_volume 756.151760
_symmetry_space_group_name_H-M "P -1"
_symmetry_group_IT_number 2
_symmetry_cell_setting 'triclinic'
loop_
_space_group_symop_operation_xyz
x,y,z
-x,-y,-z
loop_
_atom_site_type_symbol
_atom_site_label
_atom_site_fract_x
_atom_site_fract_y
_atom_site_fract_z
Si Si1 0.162592 0.473842 0.976278
Si Si2 0.985356 0.549794 0.721157
Si Si3 0.556011 0.725982 0.593485
Si Si4 0.259682 0.692235 0.779051
Si Si5 0.393435 0.312481 0.598786
Si Si6 0.321261 0.027288 0.048450
Si Si7 0.947805 0.311058 0.486549
Si Si8 0.894132 0.198407 0.862012
O O1 0.252491 0.578061 0.871543
O O2 0.283444 0.172375 0.973157
O O3 0.106472 0.650493 0.068987
O O4 0.000000 0.500000 0.000000
O O5 0.837977 0.783450 0.829915
O O6 0.933209 0.326853 0.762951
O O7 0.189760 0.389555 0.669983
O O8 0.985718 0.676170 0.631035
O O9 0.374933 0.825813 0.716663
O O10 0.560643 0.621044 0.510463
O O11 0.731150 0.497188 0.571574
O O12 0.548188 0.999379 0.562666
O O13 0.367976 0.456064 0.682705
O O14 0.061940 0.895046 0.821535
O O15 0.290724 0.785145 0.065349
O O16 0.500000 0.000000 0.000000
O O17 0.000000 0.500000 0.500000
O O18 0.000000 0.000000 0.500000
#
# Coordination Sequence:
#
# PCOD9107301 Si02
#       8
#     2   2   2   2   2   2   2   2
#     4  11  24  40  63 100 135 178 239 299 366 424
#     4  10  22  43  70  96 131 184 231 287 360 424
#     4  10  24  39  66 100 132 176 233 285 346 434
#     4  12  21  36  69  98 135 173 223 302 365 418
#     4  10  20  40  64 101 132 165 228 287 355 422
#     4  11  25  44  65  96 136 191 243 290 351 450
#     4  11  28  49  70 101 147 188 235 292 360 433
#     4  11  22  41  70  98 134 183 237 293 373 425
#
# _framework density 21.159772
#
# number of rings (size 3 to 8) (size 9 to 14) (size 15 to 20)
#    0.000    1.250    3.750    1.500    3.500    3.000 
#    2.250    0.000    0.000    0.000    0.000    0.000 
#    0.000    0.000    0.000    0.000    0.000    0.000 
#
# Total GULP energy -89123.250152 kJ/mol
# GULP energy per Si atom -5570.203134 kJ/mol
# Density = 2.111161 g / cm^3
# Si number density = 21.159772 Si / 1000 Ang^3
#
#
#
# Elastic Constant Matrix: (Units=GPa)
#
#
# Indices 1 2 3 4 5 6 
#
# 1 82.5443 37.4203 23.0540 -14.0212 -6.9214 -9.4393
# 2 37.4203 92.4958 29.3082 -18.6929 7.4380 -14.7648
# 3 23.0540 29.3082 105.4641 -25.6248 -5.8841 -6.6741
# 4 -14.0212 -18.6929 -25.6248 46.1226 3.6769 6.9897
# 5 -6.9214 7.4380 -5.8841 3.6769 26.7083 6.1321
# 6 -9.4393 -14.7648 -6.6741 6.9897 6.1321 24.3447
#
#
#
# Elastic Compliance Matrix: (Units=1/GPa)
#
#
# Indices 1 2 3 4 5 6 
#
# 1 0.015951 -0.006212 -0.001142 0.001208 0.005352 0.000409
# 2 -0.006212 0.016852 -0.002583 0.002942 -0.009249 0.008589
# 3 -0.001142 -0.002583 0.011768 0.005076 0.002518 -0.000875
# 4 0.001208 0.002942 0.005076 0.026768 -0.002277 -0.003468
# 5 0.005352 -0.009249 0.002518 -0.002277 0.045401 -0.013626
# 6 0.000409 0.008589 -0.000875 -0.003468 -0.013626 0.050632
#
#
# Mechanical properties :
#
#
# Convention : Reuss Voigt Hill
#
# Bulk Modulus (GPa) = 40.49233 51.11880 45.80557
# Shear Modulus (GPa) = 25.57826 32.14991 28.86408
#
# Velocity S-wave (km/s) = 3.48057 3.90216 3.69738
# Velocity P-wave (km/s) = 5.94395 6.67184 6.31838
#
# Compressibility (1/GPa) = 0.02469603
#
# Stress axis : x y z
#
# Youngs Moduli (GPa) = 62.69360 59.33928 84.97778
#
# Poissons Ratio (x) = 0.36861 0.09709
# Poissons Ratio (y) = 0.38945 0.21949
# Poissons Ratio (z) = 0.07163 0.15327
#
# Static dielectric constant tensor:
#      x y z
#    x 1.842490 0.124170 -0.027390 
#    y 0.124170 1.915990 -0.006550 
#    z -0.027390 -0.006550 1.748690 
# 
# From -- ./inp_files/139392.got.cif
#   From: 2010.05.17/outbox.cif.g08.bks.cpg/sg2_70_cif.got.tgz:139392.got - 2010.06.03 11:33:40.
