data_PCOD9107681
_publ_section_title
;
Structure prediction by ZEFSAII (Michael W. Deem and Ramdas Pophale) SiO2 
 PCOD9107681
Probable space group: P -1
;
_chemical_formula_sum "Si O2"
_cell_formula_units_Z 16
_cell_length_a 7.937454
_cell_length_b 12.920811
_cell_length_c 7.489069
_cell_angle_alpha 111.947772
_cell_angle_beta 108.533639
_cell_angle_gamma 75.032318
_cell_volume 666.905238
_symmetry_space_group_name_H-M "P -1"
_symmetry_group_IT_number 2
_symmetry_cell_setting 'triclinic'
loop_
_space_group_symop_operation_xyz
x,y,z
-x,-y,-z
loop_
_atom_site_type_symbol
_atom_site_label
_atom_site_fract_x
_atom_site_fract_y
_atom_site_fract_z
Si Si1 0.871432 0.824676 0.701685
Si Si2 0.225542 0.585026 0.991714
Si Si3 0.416086 0.452211 0.682222
Si Si4 0.247760 0.818027 0.939562
Si Si5 0.134278 0.290870 0.027606
Si Si6 0.863486 0.909528 0.372914
Si Si7 0.468446 0.000276 0.202160
Si Si8 0.497798 0.676126 0.700073
O O1 0.895818 0.718321 0.774108
O O2 0.884422 0.824192 0.493543
O O3 0.047600 0.876501 0.860108
O O4 0.676715 0.892463 0.728412
O O5 0.390341 0.561223 0.166984
O O6 0.260647 0.481666 0.795966
O O7 0.252073 0.702121 0.975908
O O8 0.028755 0.615799 0.029597
O O9 0.403174 0.567371 0.638242
O O10 0.427400 0.346240 0.487838
O O11 0.350781 0.783166 0.765015
O O12 0.360949 0.896699 0.135704
O O13 0.336375 0.317162 0.104176
O O14 0.118899 0.172124 0.848238
O O15 0.661037 0.978600 0.346357
O O16 0.000000 0.000000 0.500000
O O17 0.500000 0.000000 0.000000
#
# Coordination Sequence:
#
# PCOD9107681 Si02
#       8
#     2   2   2   2   2   2   2   2
#     4  11  25  42  64  94 129 171 214 266 318 371
#     4   9  21  39  62  94 125 162 208 263 322 384
#     4   9  20  40  64  93 119 166 204 261 335 376
#     4  10  21  38  65  89 127 166 208 266 316 378
#     4  11  24  44  62  96 131 167 215 266 313 380
#     4  12  27  42  64  96 129 175 221 260 316 375
#     4  12  22  43  64  90 130 172 216 264 321 370
#     4  10  20  40  65  91 129 162 209 262 320 389
#
# _framework density 23.991413999999999
#
# number of rings (size 3 to 8) (size 9 to 14) (size 15 to 20)
#    0.000    1.500    2.500    1.500    5.250    2.000 
#    2.250    0.000    0.000    0.000    0.000    0.000 
#    0.000    0.000    0.000    0.000    0.000    0.000 
#
# Total GULP energy -89306.968447 kJ/mol
# GULP energy per Si atom -5581.685528 kJ/mol
# Density = 2.393681 g / cm^3
# Si number density = 23.991414 Si / 1000 Ang^3
#
#
#
# Elastic Constant Matrix: (Units=GPa)
#
#
# Indices 1 2 3 4 5 6 
#
# 1 88.6660 12.1775 23.9867 3.3792 22.6093 -29.0694
# 2 12.1775 62.6917 7.7297 0.6602 5.0607 -10.0697
# 3 23.9867 7.7297 83.0852 3.1542 4.8037 0.1702
# 4 3.3792 0.6602 3.1542 32.9850 -1.1435 -1.2908
# 5 22.6093 5.0607 4.8037 -1.1435 34.2822 -8.6315
# 6 -29.0694 -10.0697 0.1702 -1.2908 -8.6315 48.1946
#
#
#
# Elastic Compliance Matrix: (Units=1/GPa)
#
#
# Indices 1 2 3 4 5 6 
#
# 1 0.017865 -0.000735 -0.004548 -0.001333 -0.008809 0.009025
# 2 -0.000735 0.016804 -0.001291 -0.000063 -0.001093 0.002875
# 3 -0.004548 -0.001291 0.013479 -0.000896 0.000518 -0.002992
# 4 -0.001333 -0.000063 -0.000896 0.030629 0.002133 0.000388
# 5 -0.008809 -0.001093 0.000518 0.002133 0.035352 0.000845
# 6 0.009025 0.002875 -0.002992 0.000388 0.000845 0.026966
#
#
# Mechanical properties :
#
#
# Convention : Reuss Voigt Hill
#
# Bulk Modulus (GPa) = 28.57149 35.80340 32.18745
# Shear Modulus (GPa) = 30.13673 35.79564 32.96618
#
# Velocity S-wave (km/s) = 3.54806 3.86686 3.71088
# Velocity P-wave (km/s) = 5.35909 5.90700 5.63970
#
# Compressibility (1/GPa) = 0.03499992
#
# Stress axis : x y z
#
# Youngs Moduli (GPa) = 55.97397 59.51064 74.18853
#
# Poissons Ratio (x) = 0.04373 0.33741
# Poissons Ratio (y) = 0.04113 0.09581
# Poissons Ratio (z) = 0.25457 0.07686
#
# Static dielectric constant tensor:
#      x y z
#    x 2.037470 0.065740 -0.040350 
#    y 0.065740 1.951970 -0.004560 
#    z -0.040350 -0.004560 1.923810 
# 
# From -- ./inp_files/208797.got.cif
#   From: 2010.05.17/outbox.cif.g08.bks.cpg/sg2_105_cif.got.tgz:208797.got - 2010.06.03 11:33:40.
