data_PCOD9107729
_publ_section_title
;
Structure prediction by ZEFSAII (Michael W. Deem and Ramdas Pophale) SiO2 
 PCOD9107729
Probable space group: P -1
;
_chemical_formula_sum "Si O2"
_cell_formula_units_Z 16
_cell_length_a 8.561412
_cell_length_b 11.083440
_cell_length_c 11.122326
_cell_angle_alpha 124.315219
_cell_angle_beta 51.954525
_cell_angle_gamma 99.600065
_cell_volume 659.475691
_symmetry_space_group_name_H-M "P -1"
_symmetry_group_IT_number 2
_symmetry_cell_setting 'triclinic'
loop_
_space_group_symop_operation_xyz
x,y,z
-x,-y,-z
loop_
_atom_site_type_symbol
_atom_site_label
_atom_site_fract_x
_atom_site_fract_y
_atom_site_fract_z
Si Si1 0.449880 0.417195 0.858233
Si Si2 0.475022 0.023098 0.885443
Si Si3 0.426187 0.439365 0.622387
Si Si4 0.886018 0.720678 0.780722
Si Si5 0.691920 0.070377 0.478880
Si Si6 0.972760 0.463172 0.769936
Si Si7 0.064441 0.145014 0.437748
Si Si8 0.765726 0.142529 0.241553
O O1 0.474468 0.496321 0.762353
O O2 0.577514 0.241783 0.679590
O O3 0.500000 0.500000 0.000000
O O4 0.207555 0.441046 0.005787
O O5 0.703489 0.948940 0.685897
O O6 0.312371 0.932592 0.873783
O O7 0.500000 0.000000 0.000000
O O8 0.348667 0.197027 0.021642
O O9 0.500000 0.500000 0.500000
O O10 0.561974 0.266134 0.455370
O O11 0.188253 0.458609 0.725664
O O12 0.943490 0.547418 0.700346
O O13 0.915076 0.773885 0.659231
O O14 0.048816 0.783817 0.816318
O O15 0.808786 0.034015 0.273986
O O16 0.904269 0.044450 0.442525
O O17 0.500000 0.000000 0.500000
O O18 0.976459 0.289388 0.646768
#
# Coordination Sequence:
#
# PCOD9107729 Si02
#       8
#     2   2   2   2   2   2   2   2
#     4  11  25  45  70 108 148 183 244 309 356 428
#     4  10  21  39  60  95 142 179 235 306 350 417
#     4  11  23  43  71 104 142 193 234 295 362 434
#     4  10  22  36  66 103 136 189 238 291 363 434
#     4  10  23  44  70  91 137 194 241 287 369 441
#     4  12  22  40  71 101 145 180 239 297 368 420
#     4  10  21  41  68 100 139 188 240 306 355 429
#     4  10  20  40  65  93 136 184 239 288 352 433
#
# _framework density 24.261699
#
# number of rings (size 3 to 8) (size 9 to 14) (size 15 to 20)
#    0.000    1.500    3.750    1.125    1.750    1.000 
#    0.000    0.625    5.500    0.000    0.000    0.000 
#    0.000    0.000    0.000    0.000    0.000    0.000 
#
# Total GULP energy -89138.206718 kJ/mol
# GULP energy per Si atom -5571.137920 kJ/mol
# Density = 2.420648 g / cm^3
# Si number density = 24.261699 Si / 1000 Ang^3
#
#
#
# Elastic Constant Matrix: (Units=GPa)
#
#
# Indices 1 2 3 4 5 6 
#
# 1 133.2534 25.9441 36.8799 19.5586 -12.1788 11.3120
# 2 25.9441 60.7178 15.0938 -4.2370 6.9248 9.8483
# 3 36.8799 15.0938 90.9945 7.9337 -8.3913 -8.7150
# 4 19.5586 -4.2370 7.9337 34.0127 -4.6871 5.2075
# 5 -12.1788 6.9248 -8.3913 -4.6871 63.6514 -5.9940
# 6 11.3120 9.8483 -8.7150 5.2075 -5.9940 27.7933
#
#
#
# Elastic Compliance Matrix: (Units=1/GPa)
#
#
# Indices 1 2 3 4 5 6 
#
# 1 0.010173 -0.003606 -0.003228 -0.004959 0.001297 -0.002666
# 2 -0.003606 0.021426 -0.003933 0.006561 -0.003945 -0.009438
# 3 -0.003228 -0.003933 0.014192 -0.002888 0.002239 0.008182
# 4 -0.004959 0.006561 -0.002888 0.034909 -0.000207 -0.007798
# 5 0.001297 -0.003945 0.002239 -0.000207 0.017168 0.005313
# 6 -0.002666 -0.009438 0.008182 -0.007798 0.005313 0.045582
#
#
# Mechanical properties :
#
#
# Convention : Reuss Voigt Hill
#
# Bulk Modulus (GPa) = 41.22275 48.97792 45.10033
# Shear Modulus (GPa) = 28.89016 38.89466 33.89241
#
# Velocity S-wave (km/s) = 3.45450 4.00825 3.74164
# Velocity P-wave (km/s) = 5.73927 6.45389 6.10704
#
# Compressibility (1/GPa) = 0.02425845
#
# Stress axis : x y z
#
# Youngs Moduli (GPa) = 98.30223 46.67118 70.46085
#
# Poissons Ratio (x) = 0.16828 0.22747
# Poissons Ratio (y) = 0.35445 0.27709
# Poissons Ratio (z) = 0.31735 0.18354
#
# Static dielectric constant tensor:
#      x y z
#    x 1.976140 -0.020190 0.054290 
#    y -0.020190 1.926660 -0.123240 
#    z 0.054290 -0.123240 1.963800 
# 
# From -- ./inp_files/392967.got.cif
#   From: 2010.05.17/outbox.cif.g08.bks.cpg/sg2_197_cif.got.tgz:392967.got - 2010.06.03 11:33:40.
