data_PCOD9107223
_publ_section_title
;
Structure prediction by ZEFSAII (Michael W. Deem and Ramdas Pophale) SiO2 
 PCOD9107223
Probable space group: P -1
;
_chemical_formula_sum "Si O2"
_cell_formula_units_Z 16
_cell_length_a 7.404148
_cell_length_b 11.222372
_cell_length_c 13.531354
_cell_angle_alpha 132.716912
_cell_angle_beta 114.743283
_cell_angle_gamma 92.692699
_cell_volume 651.475533
_symmetry_space_group_name_H-M "P -1"
_symmetry_group_IT_number 2
_symmetry_cell_setting 'triclinic'
loop_
_space_group_symop_operation_xyz
x,y,z
-x,-y,-z
loop_
_atom_site_type_symbol
_atom_site_label
_atom_site_fract_x
_atom_site_fract_y
_atom_site_fract_z
Si Si1 0.734829 0.931817 0.433674
Si Si2 0.140718 0.573605 0.864785
Si Si3 0.150573 0.454139 0.586684
Si Si4 0.463177 0.147014 0.138821
Si Si5 0.899844 0.936631 0.674816
Si Si6 0.112307 0.231031 0.028853
Si Si7 0.345317 0.514912 0.060024
Si Si8 0.595099 0.972518 0.226366
O O1 0.533810 0.714460 0.260077
O O2 0.773360 0.980750 0.583682
O O3 0.642345 0.013973 0.375817
O O4 0.000000 0.000000 0.500000
O O5 0.096927 0.439943 0.685167
O O6 0.137331 0.495893 0.931078
O O7 0.960005 0.645444 0.853920
O O8 0.387226 0.767292 0.035085
O O9 0.383980 0.645528 0.746991
O O10 0.000000 0.500000 0.500000
O O11 0.180449 0.281914 0.460906
O O12 0.549449 0.124606 0.251203
O O13 0.220506 0.128783 0.057975
O O14 0.500000 0.000000 0.000000
O O15 0.170583 0.012652 0.754171
O O16 0.894543 0.054097 0.831143
O O17 0.251166 0.365255 0.042570
O O18 0.500000 0.500000 0.000000
#
# Coordination Sequence:
#
# PCOD9107223 Si02
#       8
#     2   2   2   2   2   2   2   2
#     4   9  19  34  63  98 126 156 221 280 320 363
#     4  11  25  43  67  99 136 175 222 280 337 392
#     4  12  23  42  68  97 128 173 231 279 324 395
#     4  12  21  42  67  93 131 177 231 265 322 414
#     4  11  21  40  66  98 130 174 225 278 326 396
#     4  12  25  42  67 102 138 176 217 277 339 395
#     4  11  21  42  71  99 130 181 229 264 325 417
#     4  10  20  40  63  92 129 178 223 265 321 405
#
# _framework density 24.559633000000002
#
# number of rings (size 3 to 8) (size 9 to 14) (size 15 to 20)
#    0.000    1.000    3.750    4.875    0.000    1.500 
#    0.000    5.625    0.000    0.000    0.000    0.000 
#    0.000    0.000    0.000    0.000    0.000    0.000 
#
# Total GULP energy -89279.337150 kJ/mol
# GULP energy per Si atom -5579.958572 kJ/mol
# Density = 2.450373 g / cm^3
# Si number density = 24.559633 Si / 1000 Ang^3
#
#
#
# Elastic Constant Matrix: (Units=GPa)
#
#
# Indices 1 2 3 4 5 6 
#
# 1 46.6826 22.5090 3.2444 0.2023 -0.1223 -2.6717
# 2 22.5090 144.4408 40.4641 -19.6115 5.9388 -16.4398
# 3 3.2444 40.4641 94.6918 -9.3283 3.2983 -0.6103
# 4 0.2023 -19.6115 -9.3283 62.8491 -7.9901 16.1871
# 5 -0.1223 5.9388 3.2983 -7.9901 22.5593 4.1066
# 6 -2.6717 -16.4398 -0.6103 16.1871 4.1066 29.3559
#
#
#
# Elastic Compliance Matrix: (Units=1/GPa)
#
#
# Indices 1 2 3 4 5 6 
#
# 1 0.023326 -0.003981 0.000762 -0.001279 0.000511 0.000543
# 2 -0.003981 0.009312 -0.003641 0.000866 -0.002480 0.004646
# 3 0.000762 -0.003641 0.012201 0.001316 0.000092 -0.002455
# 4 -0.001279 0.000866 0.001316 0.020713 0.009149 -0.012305
# 5 0.000511 -0.002480 0.000092 0.009149 0.050662 -0.013472
# 6 0.000543 0.004646 -0.002455 -0.012305 -0.013472 0.045335
#
#
# Mechanical properties :
#
#
# Convention : Reuss Voigt Hill
#
# Bulk Modulus (GPa) = 32.13612 46.47224 39.30418
# Shear Modulus (GPa) = 26.93330 37.59271 32.26300
#
# Velocity S-wave (km/s) = 3.31516 3.91662 3.62838
# Velocity P-wave (km/s) = 5.26945 6.27826 5.79584
#
# Compressibility (1/GPa) = 0.03111764
#
# Stress axis : x y z
#
# Youngs Moduli (GPa) = 42.87070 107.38684 81.95976
#
# Poissons Ratio (x) = 0.42754 -0.06244
# Poissons Ratio (y) = 0.17068 0.29843
# Poissons Ratio (z) = -0.03266 0.39102
#
# Static dielectric constant tensor:
#      x y z
#    x 6.175760 0.497010 1.194540 
#    y 0.497010 1.873210 0.322400 
#    z 1.194540 0.322400 2.040350 
# 
# From -- ./inp_files/499460.got.cif
#   From: 2010.05.17/outbox.cif.g08.bks.cpg/sg2_250_cif.got.tgz:499460.got - 2010.06.03 11:33:40.
