data_PCOD9107935
_publ_section_title
;
Structure prediction by ZEFSAII (Michael W. Deem and Ramdas Pophale) SiO2 
 PCOD9107935
Probable space group: P -1
;
_chemical_formula_sum "Si O2"
_cell_formula_units_Z 16
_cell_length_a 20.053203
_cell_length_b 12.082680
_cell_length_c 8.222829
_cell_angle_alpha 76.159141
_cell_angle_beta 136.051815
_cell_angle_gamma 139.395595
_cell_volume 659.376692
_symmetry_space_group_name_H-M "P -1"
_symmetry_group_IT_number 2
_symmetry_cell_setting 'triclinic'
loop_
_space_group_symop_operation_xyz
x,y,z
-x,-y,-z
loop_
_atom_site_type_symbol
_atom_site_label
_atom_site_fract_x
_atom_site_fract_y
_atom_site_fract_z
Si Si1 0.902070 0.004485 0.228589
Si Si2 0.602932 0.015681 0.360700
Si Si3 0.131244 0.779144 0.951651
Si Si4 0.714155 0.681720 0.754510
Si Si5 0.078851 0.637586 0.426319
Si Si6 0.749898 0.463748 0.941512
Si Si7 0.524579 0.180685 0.306802
Si Si8 0.478948 0.577381 0.809050
O O1 0.976757 0.212458 0.277958
O O2 0.868765 0.928805 0.011483
O O3 0.684754 0.795389 0.996888
O O4 0.000000 0.000000 0.500000
O O5 0.593982 0.134476 0.371489
O O6 0.696705 0.110966 0.313321
O O7 0.386801 0.739907 0.094741
O O8 0.750786 0.099645 0.712604
O O9 0.997011 0.529542 0.785359
O O10 0.300305 0.937079 0.056725
O O11 0.500000 0.500000 0.500000
O O12 0.753113 0.599964 0.932279
O O13 0.690887 0.634351 0.540089
O O14 0.000000 0.500000 0.500000
O O15 0.964917 0.638283 0.231313
O O16 0.639541 0.322008 0.628344
O O17 0.553282 0.329250 0.211102
O O18 0.500000 0.500000 0.000000
#
# Coordination Sequence:
#
# PCOD9107935 Si02
#       8
#     2   2   2   2   2   2   2   2
#     4  10  22  39  63  92 126 169 214 263 321 372
#     4  11  20  40  68  89 117 173 208 251 328 390
#     4  10  20  41  63  88 127 164 213 264 310 389
#     4   9  19  40  67  87 123 174 214 254 322 384
#     4  12  26  38  58  98 131 158 206 268 326 376
#     4  10  20  40  66  91 127 158 211 266 312 383
#     4   9  17  36  65  88 117 164 210 259 309 380
#     4   9  19  37  61  91 124 164 215 264 309 385
#
# _framework density 24.265338
#
# number of rings (size 3 to 8) (size 9 to 14) (size 15 to 20)
#    0.000    2.000    2.500    3.375    1.750    1.500 
#    4.500    5.625    0.000    0.000    0.000    0.000 
#    0.000    0.000    0.000    0.000    0.000    0.000 
#
# Total GULP energy -89447.887551 kJ/mol
# GULP energy per Si atom -5590.492972 kJ/mol
# Density = 2.421011 g / cm^3
# Si number density = 24.265338 Si / 1000 Ang^3
#
#
#
# Elastic Constant Matrix: (Units=GPa)
#
#
# Indices 1 2 3 4 5 6 
#
# 1 90.7411 57.2410 25.5881 3.0867 29.0093 -16.0184
# 2 57.2410 88.7598 9.9839 -25.2723 19.4292 -1.3585
# 3 25.5881 9.9839 53.2075 -11.6178 13.3984 -7.2668
# 4 3.0867 -25.2723 -11.6178 34.3495 -1.9443 13.9298
# 5 29.0093 19.4292 13.3984 -1.9443 40.0361 -9.4262
# 6 -16.0184 -1.3585 -7.2668 13.9298 -9.4262 39.9293
#
#
#
# Elastic Compliance Matrix: (Units=1/GPa)
#
#
# Indices 1 2 3 4 5 6 
#
# 1 0.097259 -0.090006 -0.046136 -0.118464 -0.000939 0.068665
# 2 -0.090006 0.100966 0.044410 0.125476 -0.009155 -0.070525
# 3 -0.046136 0.044410 0.044170 0.064868 -0.007615 -0.033387
# 4 -0.118464 0.125476 0.064868 0.194768 -0.011338 -0.102074
# 5 -0.000939 -0.009155 -0.007615 -0.011338 0.034457 0.010015
# 6 0.068665 -0.070525 -0.033387 -0.102074 0.010015 0.082089
#
#
# Mechanical properties :
#
#
# Convention : Reuss Voigt Hill
#
# Bulk Modulus (GPa) = 16.96870 46.48158 31.72514
# Shear Modulus (GPa) = 6.60662 32.18936 19.39799
#
# Velocity S-wave (km/s) = 1.65184 3.64614 2.83045
# Velocity P-wave (km/s) = 3.26286 6.07643 4.87695
#
# Compressibility (1/GPa) = 0.05893205
#
# Stress axis : x y z
#
# Youngs Moduli (GPa) = 10.28183 9.90428 22.63971
#
# Poissons Ratio (x) = 0.89144 1.04451
# Poissons Ratio (y) = 0.92543 -1.00544
# Poissons Ratio (z) = 0.47436 -0.43985
#
# Static dielectric constant tensor:
#      x y z
#    x 1.866830 0.103560 0.025920 
#    y 0.103560 1.846730 -0.078530 
#    z 0.025920 -0.078530 1.961820 
# 
# From -- ./inp_files/346112.got.cif
#   From: 2010.05.17/outbox.cif.g08.bks.cpg/sg2_174_cif.got.tgz:346112.got - 2010.06.03 11:33:40.
