data_PCOD9107028
_publ_section_title
;
Structure prediction by ZEFSAII (Michael W. Deem and Ramdas Pophale) SiO2 
 PCOD9107028
Probable space group: P -1
;
_chemical_formula_sum "Si O2"
_cell_formula_units_Z 16
_cell_length_a 20.161603
_cell_length_b 13.029475
_cell_length_c 7.187373
_cell_angle_alpha 135.494619
_cell_angle_beta 110.486929
_cell_angle_gamma 34.731148
_cell_volume 608.118573
_symmetry_space_group_name_H-M "P -1"
_symmetry_group_IT_number 2
_symmetry_cell_setting 'triclinic'
loop_
_space_group_symop_operation_xyz
x,y,z
-x,-y,-z
loop_
_atom_site_type_symbol
_atom_site_label
_atom_site_fract_x
_atom_site_fract_y
_atom_site_fract_z
Si Si1 0.827665 0.949105 0.482377
Si Si2 0.165026 0.385877 0.035095
Si Si3 0.735588 0.527761 0.998988
Si Si4 0.014624 0.870633 0.026416
Si Si5 0.469966 0.875253 0.272296
Si Si6 0.241092 0.860725 0.757230
Si Si7 0.582224 0.479897 0.169668
Si Si8 0.793561 0.758915 0.703567
O O1 0.993946 0.693247 0.302970
O O2 0.754930 0.111463 0.421918
O O3 0.744138 0.183848 0.862759
O O4 0.815793 0.795300 0.303395
O O5 0.239518 0.226770 0.098677
O O6 0.220612 0.432308 0.057373
O O7 0.883702 0.223079 0.851783
O O8 0.612166 0.632846 0.970142
O O9 0.633685 0.796440 0.397400
O O10 0.100114 0.561934 0.676805
O O11 0.000000 0.000000 0.000000
O O12 0.862243 0.093426 0.249865
O O13 0.357197 0.964369 0.194093
O O14 0.510726 0.752574 0.363147
O O15 0.387788 0.581964 0.661884
O O16 0.158611 0.158128 0.135069
O O17 0.500000 0.500000 0.000000
#
# Coordination Sequence:
#
# PCOD9107028 Si02
#       8
#     2   2   2   2   2   2   2   2
#     4  10  23  39  63  97 127 158 216 265 315 377
#     4  10  20  40  62  93 120 163 208 263 318 367
#     4  10  21  40  65  82 130 167 203 260 316 384
#     4  11  22  39  63  94 124 163 215 263 322 378
#     4  10  22  41  58  93 123 170 214 246 314 393
#     4  11  22  41  66  94 127 169 210 268 318 371
#     4  12  23  40  64  93 128 169 209 260 317 371
#     4  10  22  39  64  91 124 167 214 254 315 387
#
# _framework density 26.310659000000001
#
# number of rings (size 3 to 8) (size 9 to 14) (size 15 to 20)
#    0.000    1.500    2.500    2.625    1.750    1.000 
#    4.500    1.250    0.000    0.000    0.000    0.000 
#    0.000    0.000    0.000    0.000    0.000    0.000 
#
# Total GULP energy -89509.680866 kJ/mol
# GULP energy per Si atom -5594.355054 kJ/mol
# Density = 2.625077 g / cm^3
# Si number density = 26.310659 Si / 1000 Ang^3
#
#
#
# Elastic Constant Matrix: (Units=GPa)
#
#
# Indices 1 2 3 4 5 6 
#
# 1 130.8338 29.6311 13.7947 17.9240 -10.3292 13.1468
# 2 29.6311 152.4894 3.3886 18.1725 -10.5569 29.2323
# 3 13.7947 3.3886 63.9687 14.8379 7.9705 -7.6359
# 4 17.9240 18.1725 14.8379 29.7144 1.9034 5.8431
# 5 -10.3292 -10.5569 7.9705 1.9034 42.4501 6.1076
# 6 13.1468 29.2323 -7.6359 5.8431 6.1076 38.8188
#
#
#
# Elastic Compliance Matrix: (Units=1/GPa)
#
#
# Indices 1 2 3 4 5 6 
#
# 1 0.008996 -0.000482 -0.001733 -0.003886 0.002987 -0.002910
# 2 -0.000482 0.008531 -0.000688 -0.003537 0.003208 -0.006369
# 3 -0.001733 -0.000688 0.019708 -0.009473 -0.004901 0.007178
# 4 -0.003886 -0.003537 -0.009473 0.043818 -0.001398 -0.004260
# 5 0.002987 0.003208 -0.004901 -0.001398 0.027284 -0.008474
# 6 -0.002910 -0.006369 0.007178 -0.004260 -0.008474 0.034929
#
#
# Mechanical properties :
#
#
# Convention : Reuss Voigt Hill
#
# Bulk Modulus (GPa) = 31.81675 48.99118 40.40397
# Shear Modulus (GPa) = 31.33890 42.22848 36.78369
#
# Velocity S-wave (km/s) = 3.45499 4.01059 3.74311
# Velocity P-wave (km/s) = 5.29480 6.33302 5.83704
#
# Compressibility (1/GPa) = 0.03142998
#
# Stress axis : x y z
#
# Youngs Moduli (GPa) = 111.16516 117.21592 50.74205
#
# Poissons Ratio (x) = 0.05648 0.08792
# Poissons Ratio (y) = 0.05356 0.03490
# Poissons Ratio (z) = 0.19261 0.08061
#
# Static dielectric constant tensor:
#      x y z
#    x 2.217670 -0.124920 0.050400 
#    y -0.124920 2.082020 -0.029090 
#    z 0.050400 -0.029090 2.107370 
# 
# From -- ./inp_files/271533.got.cif
#   From: 2010.05.17/outbox.cif.g08.bks.cpg/sg2_136_cif.got.tgz:271533.got - 2010.06.03 11:33:40.
