data_PCOD9107319
_publ_section_title
;
Structure prediction by ZEFSAII (Michael W. Deem and Ramdas Pophale) SiO2 
 PCOD9107319
Probable space group: P -1
;
_chemical_formula_sum "Si O2"
_cell_formula_units_Z 16
_cell_length_a 24.836184
_cell_length_b 18.374939
_cell_length_c 8.384828
_cell_angle_alpha 135.926024
_cell_angle_beta 148.849157
_cell_angle_gamma 24.239783
_cell_volume 777.369546
_symmetry_space_group_name_H-M "P -1"
_symmetry_group_IT_number 2
_symmetry_cell_setting 'triclinic'
loop_
_space_group_symop_operation_xyz
x,y,z
-x,-y,-z
loop_
_atom_site_type_symbol
_atom_site_label
_atom_site_fract_x
_atom_site_fract_y
_atom_site_fract_z
Si Si1 0.633796 0.928648 0.088141
Si Si2 0.011494 0.612510 0.712126
Si Si3 0.027711 0.105801 0.377738
Si Si4 0.524715 0.873970 0.467719
Si Si5 0.125658 0.141338 0.999951
Si Si6 0.992778 0.073495 0.759511
Si Si7 0.454986 0.786871 0.875906
Si Si8 0.241468 0.590225 0.102806
O O1 0.829527 0.797685 0.447261
O O2 0.554948 0.099006 0.075112
O O3 0.655766 0.811299 0.838711
O O4 0.500000 0.000000 0.000000
O O5 0.000000 0.500000 0.500000
O O6 0.179406 0.530840 0.926229
O O7 0.992147 0.666047 0.928056
O O8 0.031869 0.171307 0.652952
O O9 0.897017 0.261213 0.156152
O O10 0.243930 0.928266 0.598043
O O11 0.961838 0.045172 0.171374
O O12 0.500000 0.000000 0.500000
O O13 0.555579 0.748950 0.232378
O O14 0.329809 0.008310 0.266949
O O15 0.122533 0.060452 0.010720
O O16 0.000000 0.000000 0.500000
O O17 0.804036 0.287042 0.679375
O O18 0.561566 0.601275 0.774328
#
# Coordination Sequence:
#
# PCOD9107319 Si02
#       8
#     2   2   2   2   2   2   2   2
#     4  11  19  35  56  79 117 165 195 234 289 337
#     4  11  22  35  54  86 121 159 199 236 286 350
#     4  10  20  40  64  83 115 156 192 245 301 338
#     4   9  19  33  56  81 117 160 191 235 288 340
#     4   9  19  37  58  84 117 155 195 239 292 344
#     4   9  20  39  65  84 116 155 191 246 299 343
#     4  10  22  38  56  88 122 146 197 247 287 348
#     4  11  22  38  61  90 115 153 199 240 290 356
#
# _framework density 20.582232000000001
#
# number of rings (size 3 to 8) (size 9 to 14) (size 15 to 20)
#    0.000    2.000    2.500    1.125    1.750    1.500 
#    0.000    2.500    0.000    6.750    0.000    0.000 
#    0.000    0.000    0.000    0.000    0.000    0.000 
#
# Total GULP energy -89100.775565 kJ/mol
# GULP energy per Si atom -5568.798473 kJ/mol
# Density = 2.053539 g / cm^3
# Si number density = 20.582232 Si / 1000 Ang^3
#
#
#
# Elastic Constant Matrix: (Units=GPa)
#
#
# Indices 1 2 3 4 5 6 
#
# 1 93.6602 48.7584 13.1112 16.1537 10.4892 -12.9068
# 2 48.7584 119.8984 28.5906 18.9734 -7.4174 -9.4305
# 3 13.1112 28.5906 57.3300 17.0781 -9.7123 -4.5451
# 4 16.1537 18.9734 17.0781 27.3183 0.8299 6.8302
# 5 10.4892 -7.4174 -9.7123 0.8299 28.3358 7.2065
# 6 -12.9068 -9.4305 -4.5451 6.8302 7.2065 22.7862
#
#
#
# Elastic Compliance Matrix: (Units=1/GPa)
#
#
# Indices 1 2 3 4 5 6 
#
# 1 0.018955 -0.005632 0.001212 -0.011664 -0.011769 0.015866
# 2 -0.005632 0.012268 -0.002918 -0.003775 0.004118 0.001134
# 3 0.001212 -0.002918 0.025136 -0.016472 0.005967 0.007543
# 4 -0.011664 -0.003775 -0.016472 0.064296 0.003932 -0.031971
# 5 -0.011769 0.004118 0.005967 0.003932 0.047756 -0.020054
# 6 0.015866 0.001134 0.007543 -0.031971 -0.020054 0.070773
#
#
# Mechanical properties :
#
#
# Convention : Reuss Voigt Hill
#
# Bulk Modulus (GPa) = 23.98964 50.20101 37.09532
# Shear Modulus (GPa) = 18.67383 27.71662 23.19523
#
# Velocity S-wave (km/s) = 3.01538 3.67363 3.36066
# Velocity P-wave (km/s) = 4.87895 6.51440 5.75507
#
# Compressibility (1/GPa) = 0.04168466
#
# Stress axis : x y z
#
# Youngs Moduli (GPa) = 52.75561 81.51445 39.78287
#
# Poissons Ratio (x) = 0.45908 -0.04823
# Poissons Ratio (y) = 0.29711 0.11609
# Poissons Ratio (z) = -0.06396 0.23786
#
# Static dielectric constant tensor:
#      x y z
#    x 1.652210 -0.047760 -0.065320 
#    y -0.047760 1.809110 0.069970 
#    z -0.065320 0.069970 1.761590 
# 
# From -- ./inp_files/281946.got.cif
#   From: 2010.05.17/outbox.cif.g08.bks.cpg/sg2_141_cif.got.tgz:281946.got - 2010.06.03 11:33:40.
