data_PCOD9107723
_publ_section_title
;
Structure prediction by ZEFSAII (Michael W. Deem and Ramdas Pophale) SiO2 
 PCOD9107723
Probable space group: P -1
;
_chemical_formula_sum "Si O2"
_cell_formula_units_Z 16
_cell_length_a 24.716870
_cell_length_b 9.659810
_cell_length_c 9.839294
_cell_angle_alpha 134.213124
_cell_angle_beta 29.130049
_cell_angle_gamma 142.893336
_cell_volume 689.927571
_symmetry_space_group_name_H-M "P -1"
_symmetry_group_IT_number 2
_symmetry_cell_setting 'triclinic'
loop_
_space_group_symop_operation_xyz
x,y,z
-x,-y,-z
loop_
_atom_site_type_symbol
_atom_site_label
_atom_site_fract_x
_atom_site_fract_y
_atom_site_fract_z
Si Si1 0.133638 0.641254 0.888760
Si Si2 0.602590 0.655953 0.073218
Si Si3 0.420547 0.999960 0.808994
Si Si4 0.887459 0.980723 0.641313
Si Si5 0.385645 0.047487 0.489923
Si Si6 0.933942 0.103919 0.311883
Si Si7 0.337519 0.230263 0.444774
Si Si8 0.810760 0.501730 0.068304
O O1 0.165937 0.493464 0.816752
O O2 0.253246 0.801560 0.636481
O O3 0.131239 0.823270 0.120135
O O4 0.000000 0.500000 0.000000
O O5 0.522043 0.599328 0.817831
O O6 0.753609 0.730155 0.781371
O O7 0.599121 0.780470 0.304727
O O8 0.590642 0.788047 0.061186
O O9 0.497177 0.994393 0.768459
O O10 0.281641 0.761921 0.950050
O O11 0.500000 0.000000 0.500000
O O12 0.927921 0.034243 0.432984
O O13 0.000000 0.000000 0.500000
O O14 0.372871 0.152224 0.451456
O O15 0.783753 0.994555 0.516633
O O16 0.045618 0.369746 0.226524
O O17 0.000000 0.000000 0.000000
O O18 0.271792 0.382961 0.709954
#
# Coordination Sequence:
#
# PCOD9107723 Si02
#       8
#     2   2   2   2   2   2   2   2
#     4  11  23  40  68  96 132 177 222 268 332 400
#     4  10  20  37  63  90 131 171 218 272 329 386
#     4  10  16  35  57  93 124 167 216 266 321 395
#     4  11  26  44  65  98 137 172 226 275 330 395
#     4  10  19  33  60 100 128 166 221 267 321 396
#     4  10  26  41  64  96 137 176 218 274 334 386
#     4  11  21  35  64  97 133 172 217 270 330 394
#     4  11  20  37  64  93 133 172 219 268 330 393
#
# _framework density 23.190840999999999
#
# number of rings (size 3 to 8) (size 9 to 14) (size 15 to 20)
#    0.000    1.500    6.250    1.125   10.500    1.000 
#    0.000    0.000    0.000    0.750    0.000    0.000 
#    0.000    0.000    0.000    0.000    0.000    0.000 
#
# Total GULP energy -89427.152644 kJ/mol
# GULP energy per Si atom -5589.197040 kJ/mol
# Density = 2.313806 g / cm^3
# Si number density = 23.190841 Si / 1000 Ang^3
#
#
#
# Elastic Constant Matrix: (Units=GPa)
#
#
# Indices 1 2 3 4 5 6 
#
# 1 243.7592 98.5011 58.9336 -35.4104 -25.4705 -12.3685
# 2 98.5011 153.1765 73.7457 -62.6938 -6.6207 0.9937
# 3 58.9336 73.7457 69.4756 -31.4650 -7.9009 12.8987
# 4 -35.4104 -62.6938 -31.4650 58.6099 8.4707 -9.0075
# 5 -25.4705 -6.6207 -7.9009 8.4707 39.4149 0.5382
# 6 -12.3685 0.9937 12.8987 -9.0075 0.5382 43.5907
#
#
#
# Elastic Compliance Matrix: (Units=1/GPa)
#
#
# Indices 1 2 3 4 5 6 
#
# 1 0.006282 -0.003069 -0.002591 -0.000975 0.003202 0.002378
# 2 -0.003069 0.021779 -0.015545 0.014750 -0.004697 0.006338
# 3 -0.002591 -0.015545 0.034734 -0.001706 0.003195 -0.011051
# 4 -0.000975 0.014750 -0.001706 0.033210 -0.005725 0.006825
# 5 0.003202 -0.004697 0.003195 -0.005725 0.028542 -0.001465
# 6 0.002378 0.006338 -0.011051 0.006825 -0.001465 0.028169
#
#
# Mechanical properties :
#
#
# Convention : Reuss Voigt Hill
#
# Bulk Modulus (GPa) = 49.05398 103.19688 76.12543
# Shear Modulus (GPa) = 24.76218 44.00517 34.38367
#
# Velocity S-wave (km/s) = 3.27120 4.36078 3.85468
# Velocity P-wave (km/s) = 5.95532 8.36366 7.26005
#
# Compressibility (1/GPa) = 0.02038571
#
# Stress axis : x y z
#
# Youngs Moduli (GPa) = 159.17341 45.91671 28.79054
#
# Poissons Ratio (x) = 0.14091 0.07459
# Poissons Ratio (y) = 0.48847 0.44755
# Poissons Ratio (z) = 0.41238 0.71377
#
# Static dielectric constant tensor:
#      x y z
#    x 1.798200 0.032390 0.027920 
#    y 0.032390 1.978090 0.086580 
#    z 0.027920 0.086580 1.939440 
# 
# From -- ./inp_files/342910.got.cif
#   From: 2010.05.17/outbox.cif.g08.bks.cpg/sg2_172_cif.got.tgz:342910.got - 2010.06.03 11:33:40.
