data_PCOD9107504
_publ_section_title
;
Structure prediction by ZEFSAII (Michael W. Deem and Ramdas Pophale) SiO2 
 PCOD9107504
Probable space group: P -1
;
_chemical_formula_sum "Si O2"
_cell_formula_units_Z 14
_cell_length_a 11.885842
_cell_length_b 12.122365
_cell_length_c 6.138058
_cell_angle_alpha 47.024134
_cell_angle_beta 94.746494
_cell_angle_gamma 111.517631
_cell_volume 583.500846
_symmetry_space_group_name_H-M "P -1"
_symmetry_group_IT_number 2
_symmetry_cell_setting 'triclinic'
loop_
_space_group_symop_operation_xyz
x,y,z
-x,-y,-z
loop_
_atom_site_type_symbol
_atom_site_label
_atom_site_fract_x
_atom_site_fract_y
_atom_site_fract_z
Si Si1 0.987989 0.259142 0.392010
Si Si2 0.645047 0.744706 0.481143
Si Si3 0.415622 0.062758 0.164538
Si Si4 0.192414 0.085236 0.338006
Si Si5 0.423944 0.728192 0.734588
Si Si6 0.835021 0.443697 0.264982
Si Si7 0.208715 0.371160 0.621020
O O1 0.880040 0.298829 0.433871
O O2 0.090474 0.294382 0.547011
O O3 0.930335 0.077624 0.521008
O O4 0.051280 0.391554 0.030302
O O5 0.769593 0.845741 0.506323
O O6 0.526432 0.677737 0.711011
O O7 0.669524 0.610926 0.519430
O O8 0.623408 0.871786 0.144528
O O9 0.305629 0.038537 0.350208
O O10 0.536984 0.205900 0.103645
O O11 0.430580 0.892758 0.385367
O O12 0.198530 0.236895 0.985788
O O13 0.284585 0.594180 0.854306
O O14 0.796998 0.474786 0.458204
#
# Coordination Sequence:
#
# PCOD9107504 Si02
#       7
#     2   2   2   2   2   2   2
#     4  11  24  45  65  93 126 174 215 259 312 370
#     4  10  22  39  66  98 124 163 213 262 320 369
#     4   9  19  38  66  97 124 161 213 264 313 371
#     4  10  21  42  69  93 126 165 218 265 304 374
#     4  10  20  40  64  95 130 163 208 262 315 378
#     4  11  25  42  64  95 133 166 207 263 318 381
#     4  11  24  42  63  95 131 168 211 258 319 378
#
# _framework density 23.993106999999998
#
# number of rings (size 3 to 8) (size 9 to 14) (size 15 to 20)
#    0.000    1.714    1.429    2.143    0.000    6.286 
#    5.143   10.000    0.000    0.000    0.000    0.000 
#    0.000    0.000    0.000    0.000    0.000    0.000 
#
# Total GULP energy -78350.004286 kJ/mol
# GULP energy per Si atom -5596.428878 kJ/mol
# Density = 2.393850 g / cm^3
# Si number density = 23.993107 Si / 1000 Ang^3
#
#
#
# Elastic Constant Matrix: (Units=GPa)
#
#
# Indices 1 2 3 4 5 6 
#
# 1 106.6341 56.6687 6.4542 3.2836 6.0037 -21.1161
# 2 56.6687 87.7792 18.0288 -3.9672 2.7628 -28.0596
# 3 6.4542 18.0288 61.3667 7.5942 26.0694 -7.6336
# 4 3.2836 -3.9672 7.5942 30.0483 10.2180 4.1311
# 5 6.0037 2.7628 26.0694 10.2180 29.3029 6.6396
# 6 -21.1161 -28.0596 -7.6336 4.1311 6.6396 52.5261
#
#
#
# Elastic Compliance Matrix: (Units=1/GPa)
#
#
# Indices 1 2 3 4 5 6 
#
# 1 0.015250 -0.009904 0.004347 -0.002447 -0.005746 0.002391
# 2 -0.009904 0.020914 -0.006097 0.003607 0.002943 0.005649
# 3 0.004347 -0.006097 0.030930 -0.000042 -0.029335 0.006697
# 4 -0.002447 0.003607 -0.000042 0.038566 -0.013151 -0.000434
# 5 -0.005746 0.002943 -0.029335 -0.013151 0.068573 -0.012635
# 6 0.002391 0.005649 0.006697 -0.000434 -0.012635 0.025622
#
#
# Mechanical properties :
#
#
# Convention : Reuss Voigt Hill
#
# Bulk Modulus (GPa) = 22.83756 46.45372 34.64564
# Shear Modulus (GPa) = 21.02992 34.01733 27.52363
#
# Velocity S-wave (km/s) = 2.96378 3.76945 3.39063
# Velocity P-wave (km/s) = 4.60989 6.19260 5.45891
#
# Compressibility (1/GPa) = 0.04378752
#
# Stress axis : x y z
#
# Youngs Moduli (GPa) = 65.57329 47.81444 32.33141
#
# Poissons Ratio (x) = 0.47353 -0.14054
# Poissons Ratio (y) = 0.64941 0.19712
# Poissons Ratio (z) = -0.28505 0.29151
#
# Static dielectric constant tensor:
#      x y z
#    x 1.945260 -0.027840 -0.046910 
#    y -0.027840 1.903060 0.005600 
#    z -0.046910 0.005600 1.891460 
# 
# From -- ./inp_files/52735.got.cif
#   From: 2010.05.17/outbox.cif.g08.bks.cpg/sg2_27_cif.got.tgz:52735.got - 2010.06.03 11:33:40.
