data_PCOD9107905
_publ_section_title
;
Structure prediction by ZEFSAII (Michael W. Deem and Ramdas Pophale) SiO2 
 PCOD9107905
Probable space group: P -1
;
_chemical_formula_sum "Si O2"
_cell_formula_units_Z 13
_cell_length_a 8.811736
_cell_length_b 16.235556
_cell_length_c 12.507157
_cell_angle_alpha 24.976032
_cell_angle_beta 132.531169
_cell_angle_gamma 134.384319
_cell_volume 534.703668
_symmetry_space_group_name_H-M "P -1"
_symmetry_group_IT_number 2
_symmetry_cell_setting 'triclinic'
loop_
_space_group_symop_operation_xyz
x,y,z
-x,-y,-z
loop_
_atom_site_type_symbol
_atom_site_label
_atom_site_fract_x
_atom_site_fract_y
_atom_site_fract_z
Si Si1 0.000000 0.500000 0.000000
Si Si2 0.185198 0.204567 0.322028
Si Si3 0.109333 0.210751 0.665693
Si Si4 0.961918 0.560815 0.215398
Si Si5 0.554095 0.213819 0.832939
Si Si6 0.599914 0.119502 0.215500
Si Si7 0.176867 0.216302 0.946260
O O1 0.815985 0.627983 0.786290
O O2 0.187426 0.714883 0.839965
O O3 0.383414 0.111714 0.503394
O O4 0.116401 0.303839 0.067125
O O5 0.000000 0.000000 0.500000
O O6 0.342925 0.291616 0.629519
O O7 0.953334 0.348793 0.403320
O O8 0.131138 0.224501 0.788898
O O9 0.007636 0.974737 0.869655
O O10 0.216323 0.648128 0.256349
O O11 0.834591 0.580938 0.237666
O O12 0.575555 0.171935 0.017740
O O13 0.500000 0.000000 0.000000
O O14 0.395571 0.155404 0.135034
#
# Coordination Sequence:
#
# PCOD9107905 Si02
#       7
#     1   2   2   2   2   2   2
#     4  10  20  40  66  90 124 170 216 260 306 376
#     4  10  22  41  64  93 129 164 216 266 313 373
#     4  10  23  40  62  93 135 169 209 262 322 382
#     4  12  22  40  66  97 124 168 222 255 317 386
#     4  11  21  41  67  98 129 165 215 270 316 376
#     4  10  23  44  65  96 129 171 212 262 327 373
#     4  10  23  43  61  91 136 170 205 266 324 379
#
# _framework density 24.312532000000001
#
# number of rings (size 3 to 8) (size 9 to 14) (size 15 to 20)
#    0.000    1.538    4.615    0.923    0.000    5.538 
#    5.538    1.538    0.000    0.000    0.000    0.000 
#    0.000    0.000    0.000    0.000    0.000    0.000 
#
# Total GULP energy -72429.256820 kJ/mol
# GULP energy per Si atom -5571.481294 kJ/mol
# Density = 2.425720 g / cm^3
# Si number density = 24.312532 Si / 1000 Ang^3
#
#
#
# Elastic Constant Matrix: (Units=GPa)
#
#
# Indices 1 2 3 4 5 6 
#
# 1 98.6750 19.5554 32.1626 7.4767 46.5067 9.1489
# 2 19.5554 47.1782 18.2883 -0.8593 4.7649 -0.4291
# 3 32.1626 18.2883 134.9174 -4.6271 45.5224 -7.4090
# 4 7.4767 -0.8593 -4.6271 34.5659 -4.6465 7.6937
# 5 46.5067 4.7649 45.5224 -4.6465 53.6541 -2.9916
# 6 9.1489 -0.4291 -7.4090 7.6937 -2.9916 27.5191
#
#
#
# Elastic Compliance Matrix: (Units=1/GPa)
#
#
# Indices 1 2 3 4 5 6 
#
# 1 0.022299 -0.008195 0.002477 -0.005919 -0.021637 -0.007572
# 2 -0.008195 0.025419 -0.004251 0.002522 0.008795 0.002227
# 3 0.002477 -0.004251 0.011254 -0.000917 -0.011332 0.001165
# 4 -0.005919 0.002522 -0.000917 0.032692 0.008154 -0.006493
# 5 -0.021637 0.008795 -0.011332 0.008154 0.047331 0.007145
# 6 -0.007572 0.002227 0.001165 -0.006493 0.007145 0.041796
#
#
# Mechanical properties :
#
#
# Convention : Reuss Voigt Hill
#
# Bulk Modulus (GPa) = 25.61831 46.75369 36.18600
# Shear Modulus (GPa) = 23.39304 37.19878 30.29591
#
# Velocity S-wave (km/s) = 3.10527 3.91580 3.53385
# Velocity P-wave (km/s) = 4.83910 6.30211 5.61843
#
# Compressibility (1/GPa) = 0.03903458
#
# Stress axis : x y z
#
# Youngs Moduli (GPa) = 44.84433 39.34130 88.85974
#
# Poissons Ratio (x) = 0.32238 -0.22008
# Poissons Ratio (y) = 0.36748 0.37771
# Poissons Ratio (z) = -0.11106 0.16722
#
# Static dielectric constant tensor:
#      x y z
#    x 1.994590 0.001180 0.016150 
#    y 0.001180 1.963050 0.024680 
#    z 0.016150 0.024680 1.966120 
# 
# From -- ./inp_files/349140.got.cif
#   From: 2010.05.17/outbox.cif.g08.bks.cpg/sg2_175_cif.got.tgz:349140.got - 2010.06.03 11:33:40.
