data_PCOD9107852
_publ_section_title
;
Structure prediction by ZEFSAII (Michael W. Deem and Ramdas Pophale) SiO2 
 PCOD9107852
Probable space group: P -1
;
_chemical_formula_sum "Si O2"
_cell_formula_units_Z 16
_cell_length_a 16.055505
_cell_length_b 8.077825
_cell_length_c 13.857086
_cell_angle_alpha 65.454630
_cell_angle_beta 139.418882
_cell_angle_gamma 142.369871
_cell_volume 630.631539
_symmetry_space_group_name_H-M "P -1"
_symmetry_group_IT_number 2
_symmetry_cell_setting 'triclinic'
loop_
_space_group_symop_operation_xyz
x,y,z
-x,-y,-z
loop_
_atom_site_type_symbol
_atom_site_label
_atom_site_fract_x
_atom_site_fract_y
_atom_site_fract_z
Si Si1 0.964408 0.389305 0.106780
Si Si2 0.630905 0.389797 0.083590
Si Si3 0.532655 0.106039 0.246681
Si Si4 0.744155 0.970132 0.414007
Si Si5 0.079648 0.010756 0.917103
Si Si6 0.533287 0.718220 0.686824
Si Si7 0.829150 0.235743 0.229804
Si Si8 0.719047 0.861449 0.629679
O O1 0.997131 0.452464 0.236885
O O2 0.045580 0.278067 0.188052
O O3 0.000000 0.500000 0.000000
O O4 0.710235 0.141588 0.942337
O O5 0.662419 0.392357 0.223271
O O6 0.759872 0.704335 0.081710
O O7 0.725156 0.314884 0.136440
O O8 0.380065 0.123082 0.898974
O O9 0.550568 0.205908 0.345043
O O10 0.585086 0.959610 0.298892
O O11 0.625339 0.640677 0.367242
O O12 0.827540 0.043583 0.579747
O O13 0.885588 0.207885 0.390443
O O14 0.245455 0.100528 0.112050
O O15 0.901735 0.942407 0.818645
O O16 0.620507 0.878412 0.620300
O O17 0.500000 0.500000 0.500000
#
# Coordination Sequence:
#
# PCOD9107852 Si02
#       8
#     2   2   2   2   2   2   2   2
#     4  10  23  34  58  95 130 152 205 267 307 362
#     4   9  18  34  63  93 120 154 208 262 302 368
#     4   9  21  37  61  97 124 159 207 259 316 367
#     4  10  20  40  66  84 130 170 200 255 313 379
#     4  11  22  38  64  93 120 157 219 265 298 375
#     4  10  21  37  65  92 121 164 212 257 311 369
#     4   9  18  36  60  91 124 166 195 255 327 358
#     4  10  24  40  60  87 127 172 205 254 320 375
#
# _framework density 25.371390999999999
#
# number of rings (size 3 to 8) (size 9 to 14) (size 15 to 20)
#    0.000    2.250    1.250    1.125    5.250    4.000 
#    0.000    3.125    5.500    0.000    0.000    0.000 
#    0.000    0.000    0.000    0.000    0.000    0.000 
#
# Total GULP energy -89068.179489 kJ/mol
# GULP energy per Si atom -5566.761218 kJ/mol
# Density = 2.531364 g / cm^3
# Si number density = 25.371391 Si / 1000 Ang^3
#
#
#
# Elastic Constant Matrix: (Units=GPa)
#
#
# Indices 1 2 3 4 5 6 
#
# 1 118.8168 30.9079 6.6112 -15.0403 -26.5275 31.7472
# 2 30.9079 103.2261 15.4052 -15.9312 -14.1070 26.0506
# 3 6.6112 15.4052 59.8642 -10.1188 -12.4812 16.1202
# 4 -15.0403 -15.9312 -10.1188 20.5543 9.3597 -4.5652
# 5 -26.5275 -14.1070 -12.4812 9.3597 28.4291 -16.8724
# 6 31.7472 26.0506 16.1202 -4.5652 -16.8724 35.7189
#
#
#
# Elastic Compliance Matrix: (Units=1/GPa)
#
#
# Indices 1 2 3 4 5 6 
#
# 1 0.012839 -0.000286 0.003386 0.006134 0.005857 -0.009181
# 2 -0.000286 0.013194 0.000230 0.009027 -0.002123 -0.009322
# 3 0.003386 0.000230 0.021257 0.009238 0.003732 -0.009827
# 4 0.006134 0.009027 0.009238 0.069351 -0.017967 -0.015828
# 5 0.005857 -0.002123 0.003732 -0.017967 0.059206 0.020328
# 6 -0.009181 -0.009322 -0.009827 -0.015828 0.020328 0.054969
#
#
# Mechanical properties :
#
#
# Convention : Reuss Voigt Hill
#
# Bulk Modulus (GPa) = 18.53552 43.08396 30.80974
# Shear Modulus (GPa) = 20.64914 32.20597 26.42755
#
# Velocity S-wave (km/s) = 2.85594 3.56670 3.23093
# Velocity P-wave (km/s) = 4.26577 5.82924 5.10768
#
# Compressibility (1/GPa) = 0.05395047
#
# Stress axis : x y z
#
# Youngs Moduli (GPa) = 77.88481 75.79085 47.04275
#
# Poissons Ratio (x) = 0.02164 -0.15928
# Poissons Ratio (y) = 0.02224 -0.01080
# Poissons Ratio (z) = -0.26370 -0.01740
#
# Static dielectric constant tensor:
#      x y z
#    x 3.081000 0.603240 -0.275960 
#    y 0.603240 2.493670 -0.146670 
#    z -0.275960 -0.146670 2.097390 
# 
# From -- ./inp_files/528401.got.cif
#   From: 2010.05.17/outbox.cif.g08.bks.cpg/sg2_265_cif.got.tgz:528401.got - 2010.06.03 11:33:40.
