data_PCOD9107607
_publ_section_title
;
Structure prediction by ZEFSAII (Michael W. Deem and Ramdas Pophale) SiO2 
 PCOD9107607
Probable space group: P -1
;
_chemical_formula_sum "Si O2"
_cell_formula_units_Z 16
_cell_length_a 12.232897
_cell_length_b 10.659360
_cell_length_c 8.876499
_cell_angle_alpha 121.226667
_cell_angle_beta 47.700401
_cell_angle_gamma 102.381759
_cell_volume 715.324338
_symmetry_space_group_name_H-M "P -1"
_symmetry_group_IT_number 2
_symmetry_cell_setting 'triclinic'
loop_
_space_group_symop_operation_xyz
x,y,z
-x,-y,-z
loop_
_atom_site_type_symbol
_atom_site_label
_atom_site_fract_x
_atom_site_fract_y
_atom_site_fract_z
Si Si1 0.113349 0.133525 0.182471
Si Si2 0.384205 0.917785 0.645127
Si Si3 0.536688 0.842304 0.779438
Si Si4 0.041973 0.641441 0.132670
Si Si5 0.874569 0.576371 0.545349
Si Si6 0.157930 0.076754 0.453700
Si Si7 0.308048 0.723204 0.091339
Si Si8 0.770524 0.301560 0.525663
O O1 0.202804 0.269545 0.207336
O O2 0.109721 0.072782 0.319755
O O3 0.942534 0.199788 0.323824
O O4 0.220790 0.021437 0.903152
O O5 0.458007 0.860824 0.701702
O O6 0.341429 0.788136 0.503500
O O7 0.500000 0.000000 0.500000
O O8 0.713763 0.824650 0.587368
O O9 0.468859 0.728905 0.874610
O O10 0.500000 0.000000 0.000000
O O11 0.968607 0.623993 0.351919
O O12 0.969162 0.814314 0.260008
O O13 0.214554 0.647544 0.009999
O O14 0.000000 0.500000 0.000000
O O15 0.784003 0.449964 0.513346
O O16 0.000000 0.500000 0.500000
O O17 0.227723 0.901001 0.310826
O O18 0.295384 0.648476 0.216905
#
# Coordination Sequence:
#
# PCOD9107607 Si02
#       8
#     2   2   2   2   2   2   2   2
#     4  10  20  40  65  88 121 163 199 251 300 363
#     4  12  24  40  60  95 124 156 210 250 301 353
#     4  10  21  39  62  85 125 162 191 255 298 366
#     4  11  23  37  65  92 120 156 206 261 290 359
#     4   9  19  42  58  83 127 161 192 239 315 357
#     4  10  20  40  65  88 121 160 203 245 311 357
#     4  11  20  39  64  93 117 159 204 246 311 355
#     4  11  23  39  64  92 124 158 201 255 302 360
#
# _framework density 22.367474999999999
#
# number of rings (size 3 to 8) (size 9 to 14) (size 15 to 20)
#    0.000    1.500    6.250    2.250    1.750    0.000 
#    9.000    1.250    0.000    0.000    0.000    0.000 
#    0.000    0.000    0.000    0.000    0.000    0.000 
#
# Total GULP energy -89188.432402 kJ/mol
# GULP energy per Si atom -5574.277025 kJ/mol
# Density = 2.231657 g / cm^3
# Si number density = 22.367475 Si / 1000 Ang^3
#
#
#
# Elastic Constant Matrix: (Units=GPa)
#
#
# Indices 1 2 3 4 5 6 
#
# 1 91.3562 11.8403 6.6122 -0.3420 0.4259 33.6269
# 2 11.8403 78.5165 -6.1469 -1.0004 -6.3966 33.8537
# 3 6.6122 -6.1469 34.5310 -4.8698 5.3836 10.9242
# 4 -0.3420 -1.0004 -4.8698 32.4276 13.1099 1.2159
# 5 0.4259 -6.3966 5.3836 13.1099 18.6254 -0.5053
# 6 33.6269 33.8537 10.9242 1.2159 -0.5053 52.9619
#
#
#
# Elastic Compliance Matrix: (Units=1/GPa)
#
#
# Indices 1 2 3 4 5 6 
#
# 1 0.014715 0.002812 0.001713 0.001403 -0.001166 -0.011537
# 2 0.002812 0.020274 0.007858 0.001059 0.003438 -0.016357
# 3 0.001713 0.007858 0.039877 0.014752 -0.019653 -0.014862
# 4 0.001403 0.001059 0.014752 0.048902 -0.038519 -0.006101
# 5 -0.001166 0.003438 -0.019653 -0.038519 0.087807 0.004319
# 6 -0.011537 -0.016357 -0.014862 -0.006101 0.004319 0.039909
#
#
# Mechanical properties :
#
#
# Convention : Reuss Voigt Hill
#
# Bulk Modulus (GPa) = 10.03689 25.44608 17.74149
# Shear Modulus (GPa) = 19.23614 33.60953 26.42283
#
# Velocity S-wave (km/s) = 2.93577 3.88055 3.44074
# Velocity P-wave (km/s) = 3.99858 5.61064 4.87175
#
# Compressibility (1/GPa) = 0.09963246
#
# Stress axis : x y z
#
# Youngs Moduli (GPa) = 67.95720 49.32545 25.07735
#
# Poissons Ratio (x) = -0.13872 -0.04295
# Poissons Ratio (y) = -0.19113 -0.19707
# Poissons Ratio (z) = -0.11639 -0.38762
#
# Static dielectric constant tensor:
#      x y z
#    x 1.939220 -0.012480 -0.038420 
#    y -0.012480 1.877620 0.011460 
#    z -0.038420 0.011460 1.858160 
# 
# From -- ./inp_files/259844.got.cif
#   From: 2010.05.17/outbox.cif.g08.bks.cpg/sg2_130_cif.got.tgz:259844.got - 2010.06.03 11:33:40.
