data_PCOD9107260
_publ_section_title
;
Structure prediction by ZEFSAII (Michael W. Deem and Ramdas Pophale) SiO2 
 PCOD9107260
Probable space group: P -1
;
_chemical_formula_sum "Si O2"
_cell_formula_units_Z 16
_cell_length_a 11.401387
_cell_length_b 8.343525
_cell_length_c 13.025940
_cell_angle_alpha 54.278898
_cell_angle_beta 105.588087
_cell_angle_gamma 69.379628
_cell_volume 735.575613
_symmetry_space_group_name_H-M "P -1"
_symmetry_group_IT_number 2
_symmetry_cell_setting 'triclinic'
loop_
_space_group_symop_operation_xyz
x,y,z
-x,-y,-z
loop_
_atom_site_type_symbol
_atom_site_label
_atom_site_fract_x
_atom_site_fract_y
_atom_site_fract_z
Si Si1 0.082191 0.832132 0.227619
Si Si2 0.653700 0.279876 0.552132
Si Si3 0.807759 0.379331 0.880592
Si Si4 0.465521 0.833284 0.618701
Si Si5 0.876290 0.368922 0.300026
Si Si6 0.879502 0.715394 0.305077
Si Si7 0.206201 0.959485 0.651875
Si Si8 0.912660 0.685836 0.814190
O O1 0.987201 0.730004 0.248427
O O2 0.207222 0.707223 0.397903
O O3 0.180057 0.752849 0.174303
O O4 0.942785 0.144816 0.073634
O O5 0.500000 0.500000 0.500000
O O6 0.586250 0.289465 0.423369
O O7 0.763520 0.970670 0.715282
O O8 0.628818 0.587165 0.802431
O O9 0.845897 0.562696 0.789312
O O10 0.318743 0.991525 0.603556
O O11 0.500000 0.000000 0.500000
O O12 0.797753 0.634098 0.245707
O O13 0.763158 0.303764 0.268542
O O14 0.970066 0.328956 0.232091
O O15 0.024063 0.163229 0.489194
O O16 0.000000 0.500000 0.500000
O O17 0.782794 0.978273 0.251754
O O18 0.000000 0.500000 0.000000
#
# Coordination Sequence:
#
# PCOD9107260 Si02
#       8
#     2   2   2   2   2   2   2   2
#     4  11  23  41  63  99 128 170 227 275 335 403
#     4  12  24  37  63  99 135 167 219 284 336 391
#     4  11  23  40  65  92 134 173 214 280 341 398
#     4  12  24  42  64  94 134 172 219 279 337 399
#     4  10  20  40  63  95 131 172 223 277 332 400
#     4  10  22  37  66  94 126 175 224 272 328 409
#     4  10  22  38  62  95 127 169 226 276 334 391
#     4  12  22  40  68  99 132 177 226 275 337 408
#
# _framework density 21.751671999999999
#
# number of rings (size 3 to 8) (size 9 to 14) (size 15 to 20)
#    0.000    1.000    6.250    0.750    5.250    0.000 
#    0.000    0.625    0.000    0.750    0.000    0.000 
#    0.000    0.000    0.000    0.000    0.000    0.000 
#
# Total GULP energy -89070.498591 kJ/mol
# GULP energy per Si atom -5566.906162 kJ/mol
# Density = 2.170216 g / cm^3
# Si number density = 21.751672 Si / 1000 Ang^3
#
#
#
# Elastic Constant Matrix: (Units=GPa)
#
#
# Indices 1 2 3 4 5 6 
#
# 1 85.8784 35.2076 21.1908 -3.2507 1.5172 6.7460
# 2 35.2076 144.3399 18.3741 1.3602 1.4738 7.4231
# 3 21.1908 18.3741 49.0835 -12.2068 5.8104 -6.9239
# 4 -3.2507 1.3602 -12.2068 25.7572 0.6367 -0.6617
# 5 1.5172 1.4738 5.8104 0.6367 24.1674 -2.5762
# 6 6.7460 7.4231 -6.9239 -0.6617 -2.5762 31.2383
#
#
#
# Elastic Compliance Matrix: (Units=1/GPa)
#
#
# Indices 1 2 3 4 5 6 
#
# 1 0.014459 -0.002539 -0.006142 -0.001060 0.000339 -0.003875
# 2 -0.002539 0.008015 -0.002725 -0.002090 0.000169 -0.001990
# 3 -0.006142 -0.002725 0.029304 0.013616 -0.005971 0.008265
# 4 -0.001060 -0.002090 0.013616 0.045461 -0.003809 0.004392
# 5 0.000339 0.000169 -0.005971 -0.003809 0.043100 0.002037
# 6 -0.003875 -0.001990 0.008265 0.004392 0.002037 0.035415
#
#
# Mechanical properties :
#
#
# Convention : Reuss Voigt Hill
#
# Bulk Modulus (GPa) = 34.52309 47.64966 41.08638
# Shear Modulus (GPa) = 24.01296 29.86786 26.94041
#
# Velocity S-wave (km/s) = 3.32619 3.70960 3.52311
# Velocity P-wave (km/s) = 5.53691 6.34838 5.95648
#
# Compressibility (1/GPa) = 0.02896612
#
# Stress axis : x y z
#
# Youngs Moduli (GPa) = 69.15962 124.77192 34.12470
#
# Poissons Ratio (x) = 0.31682 0.20960
# Poissons Ratio (y) = 0.17561 0.09297
# Poissons Ratio (z) = 0.42480 0.33994
#
# Static dielectric constant tensor:
#      x y z
#    x 1.790230 0.010650 -0.015130 
#    y 0.010650 1.947060 -0.027700 
#    z -0.015130 -0.027700 1.790580 
# 
# From -- ./inp_files/494408.got.cif
#   From: 2010.05.17/outbox.cif.g08.bks.cpg/sg2_248_cif.got.tgz:494408.got - 2010.06.03 11:33:40.
