data_PCOD9107616
_publ_section_title
;
Structure prediction by ZEFSAII (Michael W. Deem and Ramdas Pophale) SiO2 
 PCOD9107616
Probable space group: P -1
;
_chemical_formula_sum "Si O2"
_cell_formula_units_Z 16
_cell_length_a 29.292985
_cell_length_b 18.458119
_cell_length_c 22.506067
_cell_angle_alpha 17.198517
_cell_angle_beta 168.991975
_cell_angle_gamma 163.226459
_cell_volume 643.673293
_symmetry_space_group_name_H-M "P -1"
_symmetry_group_IT_number 2
_symmetry_cell_setting 'triclinic'
loop_
_space_group_symop_operation_xyz
x,y,z
-x,-y,-z
loop_
_atom_site_type_symbol
_atom_site_label
_atom_site_fract_x
_atom_site_fract_y
_atom_site_fract_z
Si Si1 0.071891 0.968254 0.338094
Si Si2 0.405427 0.755678 0.141767
Si Si3 0.203925 0.615920 0.565876
Si Si4 0.392533 0.292867 0.677363
Si Si5 0.331634 0.337379 0.169255
Si Si6 0.105029 0.809060 0.822916
Si Si7 0.391001 0.933089 0.660501
Si Si8 0.582529 0.073144 0.614842
O O1 0.308685 0.112261 0.570202
O O2 0.894409 0.673768 0.359179
O O3 0.186460 0.920766 0.459081
O O4 0.879963 0.125796 0.962132
O O5 0.444908 0.589121 0.266541
O O6 0.317730 0.980478 0.823629
O O7 0.221975 0.665448 0.035388
O O8 0.417768 0.815219 0.642672
O O9 0.316178 0.664576 0.737942
O O10 0.958235 0.707909 0.180558
O O11 0.560549 0.382581 0.880841
O O12 0.137828 0.350588 0.321970
O O13 0.375754 0.148402 0.424543
O O14 0.493775 0.300735 0.349725
O O15 0.335668 0.972243 0.032597
O O16 0.000000 0.000000 0.500000
O O17 0.500000 0.000000 0.500000
#
# Coordination Sequence:
#
# PCOD9107616 Si02
#       8
#     2   2   2   2   2   2   2   2
#     4  11  21  41  63  93 125 164 220 265 317 385
#     4   9  20  39  63  92 123 166 218 270 311 377
#     4  11  22  41  67  92 124 172 219 257 323 395
#     4  10  20  40  65  88 129 168 215 263 323 381
#     4  11  23  42  64  94 130 173 209 262 338 386
#     4   9  20  40  61  92 126 169 215 266 318 378
#     4  10  22  39  65  91 131 166 209 272 325 383
#     4  11  24  42  59  95 135 166 207 270 328 386
#
# _framework density 24.857330000000001
#
# number of rings (size 3 to 8) (size 9 to 14) (size 15 to 20)
#    0.000    1.750    1.250    3.750    3.500    0.500 
#    4.500    1.250    0.000    0.000    0.000    0.000 
#    0.000    0.000    0.000    0.000    0.000    0.000 
#
# Total GULP energy -89491.387211 kJ/mol
# GULP energy per Si atom -5593.211701 kJ/mol
# Density = 2.480075 g / cm^3
# Si number density = 24.857330 Si / 1000 Ang^3
#
#
#
# Elastic Constant Matrix: (Units=GPa)
#
#
# Indices 1 2 3 4 5 6 
#
# 1 134.8100 19.7911 63.4358 7.9959 28.8269 -33.4292
# 2 19.7911 61.5823 24.4636 9.0150 5.3733 -24.3444
# 3 63.4358 24.4636 164.4525 26.3420 8.9973 -15.5056
# 4 7.9959 9.0150 26.3420 39.9992 6.8679 -7.6494
# 5 28.8269 5.3733 8.9973 6.8679 54.5748 -3.8304
# 6 -33.4292 -24.3444 -15.5056 -7.6494 -3.8304 35.8164
#
#
#
# Elastic Compliance Matrix: (Units=1/GPa)
#
#
# Indices 1 2 3 4 5 6 
#
# 1 0.013303 0.002369 -0.004514 0.003133 -0.006061 0.012093
# 2 0.002369 0.023331 -0.002635 -0.000494 -0.001885 0.016621
# 3 -0.004514 -0.002635 0.008639 -0.005081 0.001636 -0.003174
# 4 0.003133 -0.000494 -0.005081 0.029736 -0.004068 0.006304
# 5 -0.006061 -0.001885 0.001636 -0.004068 0.021617 -0.004787
# 6 0.012093 0.016621 -0.003174 0.006304 -0.004787 0.049965
#
#
# Mechanical properties :
#
#
# Convention : Reuss Voigt Hill
#
# Bulk Modulus (GPa) = 28.00070 64.02509 46.01289
# Shear Modulus (GPa) = 29.75186 42.95505 36.35345
#
# Velocity S-wave (km/s) = 3.46338 4.16151 3.82839
# Velocity P-wave (km/s) = 5.22326 6.99313 6.17196
#
# Compressibility (1/GPa) = 0.03571339
#
# Stress axis : x y z
#
# Youngs Moduli (GPa) = 75.16926 42.86071 115.75348
#
# Poissons Ratio (x) = -0.10153 0.52251
# Poissons Ratio (y) = -0.17806 0.30501
# Poissons Ratio (z) = 0.33931 0.11294
#
# Static dielectric constant tensor:
#      x y z
#    x 1.985780 0.021760 0.016520 
#    y 0.021760 2.084930 -0.062860 
#    z 0.016520 -0.062860 1.962230 
# 
# From -- ./inp_files/218718.got.cif
#   From: 2010.05.17/outbox.cif.g08.bks.cpg/sg2_110_cif.got.tgz:218718.got - 2010.06.03 11:33:40.
