data_PCOD9107735
_publ_section_title
;
Structure prediction by ZEFSAII (Michael W. Deem and Ramdas Pophale) SiO2 
 PCOD9107735
Probable space group: P -1
;
_chemical_formula_sum "Si O2"
_cell_formula_units_Z 16
_cell_length_a 19.812332
_cell_length_b 8.765675
_cell_length_c 15.784553
_cell_angle_alpha 140.914145
_cell_angle_beta 28.408582
_cell_angle_gamma 143.592970
_cell_volume 751.068958
_symmetry_space_group_name_H-M "P -1"
_symmetry_group_IT_number 2
_symmetry_cell_setting 'triclinic'
loop_
_space_group_symop_operation_xyz
x,y,z
-x,-y,-z
loop_
_atom_site_type_symbol
_atom_site_label
_atom_site_fract_x
_atom_site_fract_y
_atom_site_fract_z
Si Si1 0.587326 0.595527 0.032772
Si Si2 0.842876 0.935849 0.249893
Si Si3 0.676927 0.075218 0.244143
Si Si4 0.945627 0.729017 0.685099
Si Si5 0.431932 0.214306 0.192434
Si Si6 0.927194 0.886192 0.441391
Si Si7 0.034030 0.655905 0.866614
Si Si8 0.453357 0.318852 0.619028
O O1 0.760741 0.601794 0.854358
O O2 0.500000 0.500000 0.000000
O O3 0.615887 0.895921 0.152605
O O4 0.476760 0.410995 0.147536
O O5 0.657409 0.814623 0.395461
O O6 0.905384 0.156094 0.201435
O O7 0.938569 0.089883 0.291847
O O8 0.876196 0.681223 0.075457
O O9 0.616531 0.878870 0.307940
O O10 0.859339 0.205008 0.110476
O O11 0.615996 0.303306 0.415949
O O12 0.000000 0.500000 0.500000
O O13 0.971185 0.917925 0.658316
O O14 0.247962 0.125038 0.372789
O O15 0.520200 0.392720 0.252725
O O16 0.500000 0.000000 0.000000
O O17 0.943719 0.609451 0.290724
O O18 0.000000 0.000000 0.500000
#
# Coordination Sequence:
#
# PCOD9107735 Si02
#       8
#     2   2   2   2   2   2   2   2
#     4  11  24  42  66  92 123 170 211 260 315 381
#     4  10  22  38  66  97 126 170 209 267 319 383
#     4   9  17  37  62  90 121 159 215 253 306 378
#     4  12  26  44  63  96 134 166 213 268 322 378
#     4  11  24  43  65  93 127 166 213 263 314 378
#     4  12  26  43  67  94 129 174 213 265 320 382
#     4  10  20  40  65  94 127 166 220 255 320 383
#     4   9  19  35  64  91 120 165 207 257 310 379
#
# _framework density 21.302972
#
# number of rings (size 3 to 8) (size 9 to 14) (size 15 to 20)
#    0.000    1.500    2.500    2.250    7.000    0.500 
#    0.000    0.625    0.000    0.000    0.000    0.000 
#    0.000    0.000    0.000    0.000    0.000    0.000 
#
# Total GULP energy -89247.612079 kJ/mol
# GULP energy per Si atom -5577.975755 kJ/mol
# Density = 2.125449 g / cm^3
# Si number density = 21.302972 Si / 1000 Ang^3
#
#
#
# Elastic Constant Matrix: (Units=GPa)
#
#
# Indices 1 2 3 4 5 6 
#
# 1 96.5904 16.5310 -12.0748 14.6205 13.7348 37.1300
# 2 16.5310 45.9511 17.0945 27.9716 1.1233 15.1944
# 3 -12.0748 17.0945 73.2774 31.6454 -11.6328 2.9929
# 4 14.6205 27.9716 31.6454 55.6465 4.0616 3.6370
# 5 13.7348 1.1233 -11.6328 4.0616 29.3099 6.8195
# 6 37.1300 15.1944 2.9929 3.6370 6.8195 36.7234
#
#
#
# Elastic Compliance Matrix: (Units=1/GPa)
#
#
# Indices 1 2 3 4 5 6 
#
# 1 0.020771 0.002852 0.007898 -0.009939 -0.000260 -0.021791
# 2 0.002852 0.038008 0.001736 -0.020037 0.004780 -0.017654
# 3 0.007898 0.001736 0.023802 -0.016535 0.010520 -0.010960
# 4 -0.009939 -0.020037 -0.016535 0.039683 -0.010768 0.017757
# 5 -0.000260 0.004780 0.010520 -0.010768 0.041885 -0.009284
# 6 -0.021791 -0.017654 -0.010960 0.017757 -0.009284 0.057426
#
#
# Mechanical properties :
#
#
# Convention : Reuss Voigt Hill
#
# Bulk Modulus (GPa) = 9.29772 28.76893 19.03333
# Shear Modulus (GPa) = 21.50973 37.28716 29.39845
#
# Velocity S-wave (km/s) = 3.18103 4.18823 3.71889
# Velocity P-wave (km/s) = 4.22681 6.07637 5.23394
#
# Compressibility (1/GPa) = 0.10755321
#
# Stress axis : x y z
#
# Youngs Moduli (GPa) = 48.14510 26.31004 42.01343
#
# Poissons Ratio (x) = -0.07503 -0.33184
# Poissons Ratio (y) = -0.13729 -0.07295
# Poissons Ratio (z) = -0.38027 -0.04568
#
# Static dielectric constant tensor:
#      x y z
#    x 1.697150 -0.005670 0.002380 
#    y -0.005670 1.770400 0.014890 
#    z 0.002380 0.014890 1.770930 
# 
# From -- ./inp_files/537680.got.cif
#   From: 2010.05.17/outbox.cif.g08.bks.cpg/sg2_269_cif.got.tgz:537680.got - 2010.06.03 11:33:40.
