data_PCOD9107328
_publ_section_title
;
Structure prediction by ZEFSAII (Michael W. Deem and Ramdas Pophale) SiO2 
 PCOD9107328
Probable space group: P -1
;
_chemical_formula_sum "Si O2"
_cell_formula_units_Z 16
_cell_length_a 20.604124
_cell_length_b 5.217416
_cell_length_c 7.187780
_cell_angle_alpha 74.947259
_cell_angle_beta 64.094262
_cell_angle_gamma 74.686476
_cell_volume 661.025810
_symmetry_space_group_name_H-M "P -1"
_symmetry_group_IT_number 2
_symmetry_cell_setting 'triclinic'
loop_
_space_group_symop_operation_xyz
x,y,z
-x,-y,-z
loop_
_atom_site_type_symbol
_atom_site_label
_atom_site_fract_x
_atom_site_fract_y
_atom_site_fract_z
Si Si1 0.231853 0.969056 0.985688
Si Si2 0.597065 0.497836 0.799936
Si Si3 0.244917 0.781287 0.439230
Si Si4 0.471685 0.880706 0.301048
Si Si5 0.831997 0.673837 0.461140
Si Si6 0.397917 0.865415 0.784032
Si Si7 0.151523 0.506739 0.104003
Si Si8 0.993578 0.708817 0.136679
O O1 0.175641 0.248190 0.993154
O O2 0.236915 0.883189 0.214698
O O3 0.198386 0.739859 0.964509
O O4 0.314173 0.993873 0.825037
O O5 0.673982 0.390923 0.619661
O O6 0.572869 0.818892 0.750634
O O7 0.540999 0.334638 0.796688
O O8 0.605691 0.376643 0.020533
O O9 0.188032 0.578567 0.577443
O O10 0.225770 0.049269 0.535767
O O11 0.440192 0.790432 0.552414
O O12 0.554404 0.930608 0.218952
O O13 0.827136 0.589010 0.697149
O O14 0.914200 0.719939 0.321752
O O15 0.065081 0.612956 0.189780
O O16 0.000000 0.500000 0.000000
O O17 0.000000 0.000000 0.000000
#
# Coordination Sequence:
#
# PCOD9107328 Si02
#       8
#     2   2   2   2   2   2   2   2
#     4   9  20  38  64  89 118 158 203 257 313 354
#     4  11  23  43  65  97 133 174 221 271 329 383
#     4   9  19  37  63  90 119 156 207 256 305 365
#     4  11  25  41  66 100 128 177 226 258 339 392
#     4  10  20  40  64  85 116 162 202 250 299 365
#     4  10  24  44  66  95 138 170 218 283 316 391
#     4  10  21  41  64  87 113 159 211 240 302 383
#     4  12  25  41  57  90 125 156 190 249 310 359
#
# _framework density 24.204803999999999
#
# number of rings (size 3 to 8) (size 9 to 14) (size 15 to 20)
#    0.000    1.750    0.000    3.375    0.000    8.000 
#   13.500    5.000    0.000    0.000    0.000    0.000 
#    0.000    0.000    0.000    0.000    0.000    0.000 
#
# Total GULP energy -89625.680881 kJ/mol
# GULP energy per Si atom -5601.605055 kJ/mol
# Density = 2.414971 g / cm^3
# Si number density = 24.204804 Si / 1000 Ang^3
#
#
#
# Elastic Constant Matrix: (Units=GPa)
#
#
# Indices 1 2 3 4 5 6 
#
# 1 74.2173 31.1331 20.2851 -4.1119 -18.6781 -18.1319
# 2 31.1331 151.9228 27.4684 -5.1600 -12.4986 -1.4111
# 3 20.2851 27.4684 105.6162 -17.7660 -10.0528 -12.4213
# 4 -4.1119 -5.1600 -17.7660 23.2487 -6.8965 -6.3273
# 5 -18.6781 -12.4986 -10.0528 -6.8965 56.1137 13.5178
# 6 -18.1319 -1.4111 -12.4213 -6.3273 13.5178 33.2847
#
#
#
# Elastic Compliance Matrix: (Units=1/GPa)
#
#
# Indices 1 2 3 4 5 6 
#
# 1 0.018470 -0.003129 -0.000225 0.006121 0.003892 0.009428
# 2 -0.003129 0.007554 -0.001666 -0.000563 0.000867 -0.002465
# 3 -0.000225 -0.001666 0.012763 0.011519 0.001804 0.006027
# 4 0.006121 -0.000563 0.011519 0.059297 0.007443 0.015859
# 5 0.003892 0.000867 0.001804 0.007443 0.021642 -0.004544
# 6 0.009428 -0.002465 0.006027 0.015859 -0.004544 0.042185
#
#
# Mechanical properties :
#
#
# Convention : Reuss Voigt Hill
#
# Bulk Modulus (GPa) = 34.78529 54.39217 44.58873
# Shear Modulus (GPa) = 27.54341 39.38741 33.46541
#
# Velocity S-wave (km/s) = 3.37698 4.03830 3.72236
# Velocity P-wave (km/s) = 5.44130 6.65314 6.07750
#
# Compressibility (1/GPa) = 0.02874778
#
# Stress axis : x y z
#
# Youngs Moduli (GPa) = 54.14277 132.38116 78.35242
#
# Poissons Ratio (x) = 0.41417 0.01762
# Poissons Ratio (y) = 0.16939 0.13052
# Poissons Ratio (z) = 0.01217 0.22053
#
# Static dielectric constant tensor:
#      x y z
#    x 1.941240 -0.029900 0.029390 
#    y -0.029900 1.893270 0.004680 
#    z 0.029390 0.004680 1.947270 
# 
# From -- ./inp_files/141439.got.cif
#   From: 2010.05.17/outbox.cif.g08.bks.cpg/sg2_71_cif.got.tgz:141439.got - 2010.06.03 11:33:40.
