data_PCOD9107695
_publ_section_title
;
Structure prediction by ZEFSAII (Michael W. Deem and Ramdas Pophale) SiO2 
 PCOD9107695
Probable space group: P -1
;
_chemical_formula_sum "Si O2"
_cell_formula_units_Z 14
_cell_length_a 11.241237
_cell_length_b 11.786430
_cell_length_c 15.629758
_cell_angle_alpha 145.760360
_cell_angle_beta 39.202444
_cell_angle_gamma 129.276118
_cell_volume 736.296889
_symmetry_space_group_name_H-M "P -1"
_symmetry_group_IT_number 2
_symmetry_cell_setting 'triclinic'
loop_
_space_group_symop_operation_xyz
x,y,z
-x,-y,-z
loop_
_atom_site_type_symbol
_atom_site_label
_atom_site_fract_x
_atom_site_fract_y
_atom_site_fract_z
Si Si1 0.115932 0.420981 0.611266
Si Si2 0.486249 0.726041 0.114342
Si Si3 0.899910 0.045703 0.492851
Si Si4 0.626233 0.865863 0.955007
Si Si5 0.508083 0.313761 0.258805
Si Si6 0.892832 0.806956 0.910571
Si Si7 0.133306 0.412163 0.796762
O O1 0.340810 0.414179 0.470472
O O2 0.065701 0.434289 0.748865
O O3 0.039488 0.213435 0.484015
O O4 0.013287 0.608267 0.740311
O O5 0.302050 0.842377 0.320852
O O6 0.484251 0.756455 0.031614
O O7 0.500000 0.500000 0.000000
O O8 0.691042 0.812517 0.075189
O O9 0.863923 0.828008 0.337582
O O10 0.000000 0.000000 0.500000
O O11 0.591811 0.108020 0.127079
O O12 0.588781 0.773175 0.826645
O O13 0.828538 0.817754 0.854203
O O14 0.669608 0.469827 0.241349
O O15 0.000000 0.000000 0.000000
O O16 0.000000 0.500000 0.000000
#
# Coordination Sequence:
#
# PCOD9107695 Si02
#       7
#     2   2   2   2   2   2   2
#     4  11  23  41  67  92 129 177 214 268 333 389
#     4  10  20  40  65  92 128 173 215 257 331 385
#     4  10  21  38  63  92 126 167 217 264 320 385
#     4   9  22  38  65  92 129 173 211 267 327 386
#     4  11  23  40  66  95 132 167 221 269 323 392
#     4  10  22  38  64  92 130 170 217 260 324 397
#     4  11  26  38  66  99 133 166 226 279 323 378
#
# _framework density 19.014068999999999
#
# number of rings (size 3 to 8) (size 9 to 14) (size 15 to 20)
#    0.857    0.857    1.429    3.000   10.000    0.571 
#    0.000    0.000    0.000    2.571    0.000    0.000 
#    0.000    0.000    0.000    0.000    0.000    0.000 
#
# Total GULP energy -77955.833371 kJ/mol
# GULP energy per Si atom -5568.273812 kJ/mol
# Density = 1.897079 g / cm^3
# Si number density = 19.014069 Si / 1000 Ang^3
#
#
#
# Elastic Constant Matrix: (Units=GPa)
#
#
# Indices 1 2 3 4 5 6 
#
# 1 89.2354 53.0474 53.7786 18.3454 -17.1584 0.1337
# 2 53.0474 143.6650 70.1502 14.1325 -14.3279 17.7646
# 3 53.7786 70.1502 123.7179 8.1648 -22.5190 -2.2891
# 4 18.3454 14.1325 8.1648 39.2092 -3.8666 -3.0181
# 5 -17.1584 -14.3279 -22.5190 -3.8666 28.0938 -1.0064
# 6 0.1337 17.7646 -2.2891 -3.0181 -1.0064 35.4382
#
#
#
# Elastic Compliance Matrix: (Units=1/GPa)
#
#
# Indices 1 2 3 4 5 6 
#
# 1 0.018211 -0.003553 -0.004620 -0.005717 0.004858 0.001065
# 2 -0.003553 0.011749 -0.005267 -0.002060 -0.000913 -0.006418
# 3 -0.004620 -0.005267 0.014155 0.002031 0.006259 0.003923
# 4 -0.005717 -0.002060 0.002031 0.028900 0.001196 0.003681
# 5 0.004858 -0.000913 0.006259 0.001196 0.043356 0.002177
# 6 0.001065 -0.006418 0.003923 0.003681 0.002177 0.032060
#
#
# Mechanical properties :
#
#
# Convention : Reuss Voigt Hill
#
# Bulk Modulus (GPa) = 58.01871 78.95230 68.48551
# Shear Modulus (GPa) = 27.61587 32.52437 30.07012
#
# Velocity S-wave (km/s) = 3.81516 4.14036 3.98108
# Velocity P-wave (km/s) = 7.07015 8.02932 7.56495
#
# Compressibility (1/GPa) = 0.01723582
#
# Stress axis : x y z
#
# Youngs Moduli (GPa) = 54.91315 85.11056 70.64582
#
# Poissons Ratio (x) = 0.30241 0.32638
# Poissons Ratio (y) = 0.19511 0.37206
# Poissons Ratio (z) = 0.25370 0.44824
#
# Static dielectric constant tensor:
#      x y z
#    x 1.661580 -0.028710 0.034470 
#    y -0.028710 1.531540 0.086880 
#    z 0.034470 0.086880 1.587810 
# 
# From -- ./inp_files/519311.got.cif
#   From: 2010.05.17/outbox.cif.g08.bks.cpg/sg2_260_cif.got.tgz:519311.got - 2010.06.03 11:33:40.
