data_PCOD9107854
_publ_section_title
;
Structure prediction by ZEFSAII (Michael W. Deem and Ramdas Pophale) SiO2 
 PCOD9107854
Probable space group: P -1
;
_chemical_formula_sum "Si O2"
_cell_formula_units_Z 12
_cell_length_a 16.295390
_cell_length_b 8.037584
_cell_length_c 16.430469
_cell_angle_alpha 87.523518
_cell_angle_beta 17.725116
_cell_angle_gamma 95.675597
_cell_volume 581.045292
_symmetry_space_group_name_H-M "P -1"
_symmetry_group_IT_number 2
_symmetry_cell_setting 'triclinic'
loop_
_space_group_symop_operation_xyz
x,y,z
-x,-y,-z
loop_
_atom_site_type_symbol
_atom_site_label
_atom_site_fract_x
_atom_site_fract_y
_atom_site_fract_z
Si Si1 0.100602 0.411280 0.554703
Si Si2 0.330158 0.337942 0.504540
Si Si3 0.195262 0.973331 0.743888
Si Si4 0.017638 0.550744 0.886669
Si Si5 0.317315 0.423967 0.088176
Si Si6 0.149666 0.866919 0.354453
O O1 0.172104 0.324797 0.568096
O O2 0.813850 0.451331 0.835619
O O3 0.989240 0.270755 0.587092
O O4 0.426405 0.580807 0.212586
O O5 0.247412 0.480908 0.632342
O O6 0.231520 0.136271 0.643474
O O7 0.692054 0.429672 0.156372
O O8 0.082128 0.767178 0.815823
O O9 0.500000 0.000000 0.500000
O O10 0.000000 0.000000 0.000000
O O11 0.000000 0.500000 0.000000
O O12 0.994930 0.256107 0.425255
O O13 0.500000 0.500000 0.000000
O O14 0.000000 0.000000 0.500000
O O15 0.500000 0.000000 0.000000
#
# Coordination Sequence:
#
# PCOD9107854 Si02
#       6
#     2   2   2   2   2   2
#     4  11  23  42  63  93 130 170 212 275 338 375
#     4  12  25  44  65  97 141 169 223 290 330 388
#     4  12  23  41  69  97 129 175 226 275 328 404
#     4  12  23  42  71  95 128 182 230 264 335 411
#     4  10  20  40  66  85 121 173 212 247 320 410
#     4  11  21  38  65  94 123 163 214 262 314 399
#
# _framework density 20.652435000000001
#
# number of rings (size 3 to 8) (size 9 to 14) (size 15 to 20)
#    0.000    0.667    3.333    7.500    0.000    0.000 
#    9.000    0.000    0.000    0.000    0.000    0.000 
#    0.000    0.000    0.000    0.000    0.000    0.000 
#
# Total GULP energy -66853.151842 kJ/mol
# GULP energy per Si atom -5571.095987 kJ/mol
# Density = 2.060543 g / cm^3
# Si number density = 20.652435 Si / 1000 Ang^3
#
#
#
# Elastic Constant Matrix: (Units=GPa)
#
#
# Indices 1 2 3 4 5 6 
#
# 1 81.6049 11.3174 31.8514 -6.0128 -2.3271 -34.9031
# 2 11.3174 106.3002 37.5422 0.0799 6.9446 -25.5677
# 3 31.8514 37.5422 137.5933 12.4124 -9.5840 -17.6675
# 4 -6.0128 0.0799 12.4124 48.5172 -8.1575 -2.8645
# 5 -2.3271 6.9446 -9.5840 -8.1575 31.5709 7.3743
# 6 -34.9031 -25.5677 -17.6675 -2.8645 7.3743 33.4775
#
#
#
# Elastic Compliance Matrix: (Units=1/GPa)
#
#
# Indices 1 2 3 4 5 6 
#
# 1 0.028354 0.007751 -0.005248 0.005573 -0.007928 0.034935
# 2 0.007751 0.015281 -0.004190 0.001787 -0.008152 0.019489
# 3 -0.005248 -0.004190 0.009532 -0.002717 0.003828 -0.004717
# 4 0.005573 0.001787 -0.002717 0.022994 0.003514 0.006935
# 5 -0.007928 -0.008152 0.003828 0.003514 0.039847 -0.020948
# 6 0.034935 0.019489 -0.004717 0.006935 -0.020948 0.083896
#
#
# Mechanical properties :
#
#
# Convention : Reuss Voigt Hill
#
# Bulk Modulus (GPa) = 20.08328 54.10225 37.09277
# Shear Modulus (GPa) = 22.74015 39.03226 30.88620
#
# Velocity S-wave (km/s) = 3.32186 4.35208 3.87140
# Velocity P-wave (km/s) = 4.94556 7.17688 6.16304
#
# Compressibility (1/GPa) = 0.04979266
#
# Stress axis : x y z
#
# Youngs Moduli (GPa) = 35.26847 65.44199 104.90978
#
# Poissons Ratio (x) = -0.50724 0.55054
# Poissons Ratio (y) = -0.27337 0.43960
# Poissons Ratio (z) = 0.18508 0.27422
#
# Static dielectric constant tensor:
#      x y z
#    x 1.724600 -0.040480 0.007300 
#    y -0.040480 1.812180 -0.046920 
#    z 0.007300 -0.046920 1.770540 
# 
# From -- ./inp_files/528557.got.cif
#   From: 2010.05.17/outbox.cif.g08.bks.cpg/sg2_265_cif.got.tgz:528557.got - 2010.06.03 11:33:40.
