data_PCOD9107878
_publ_section_title
;
Structure prediction by ZEFSAII (Michael W. Deem and Ramdas Pophale) SiO2 
 PCOD9107878
Probable space group: P -1
;
_chemical_formula_sum "Si O2"
_cell_formula_units_Z 16
_cell_length_a 10.693850
_cell_length_b 14.235956
_cell_length_c 8.106967
_cell_angle_alpha 43.861530
_cell_angle_beta 131.569725
_cell_angle_gamma 105.322236
_cell_volume 582.653938
_symmetry_space_group_name_H-M "P -1"
_symmetry_group_IT_number 2
_symmetry_cell_setting 'triclinic'
loop_
_space_group_symop_operation_xyz
x,y,z
-x,-y,-z
loop_
_atom_site_type_symbol
_atom_site_label
_atom_site_fract_x
_atom_site_fract_y
_atom_site_fract_z
Si Si1 0.854810 0.934945 0.502755
Si Si2 0.195974 0.462587 0.642820
Si Si3 0.734882 0.108676 0.736590
Si Si4 0.465984 0.203560 0.767814
Si Si5 0.362910 0.619928 0.426543
Si Si6 0.656182 0.825200 0.672451
Si Si7 0.890730 0.785710 0.410251
Si Si8 0.267605 0.626982 0.793715
O O1 0.813027 0.885940 0.707531
O O2 0.930949 0.795510 0.625032
O O3 0.000000 0.000000 0.500000
O O4 0.642785 0.042767 0.130068
O O5 0.220409 0.542565 0.398469
O O6 0.285422 0.540270 0.748276
O O7 0.000000 0.500000 0.500000
O O8 0.292336 0.290320 0.987791
O O9 0.715146 0.228097 0.716848
O O10 0.554397 0.075784 0.602883
O O11 0.738758 0.209871 0.457337
O O12 0.875761 0.942459 0.117650
O O13 0.570208 0.310253 0.755646
O O14 0.370817 0.235212 0.459570
O O15 0.306447 0.222057 0.734101
O O16 0.555083 0.484939 0.815719
O O17 0.067192 0.655836 0.652405
#
# Coordination Sequence:
#
# PCOD9107878 Si02
#       8
#     2   2   2   2   2   2   2   2
#     4  11  22  35  59  88 111 146 190 236 278 332
#     4  11  22  36  58  87 113 147 190 236 276 333
#     4  10  16  35  61  80 105 148 201 220 263 334
#     4  10  19  36  59  79 109 153 195 217 271 345
#     4  10  19  35  59  79 109 152 195 218 270 342
#     4  10  17  36  61  79 105 151 200 219 264 335
#     4  11  21  36  58  86 113 145 189 239 275 333
#     4  11  21  35  58  88 110 148 191 233 279 330
#
# _framework density 27.460553000000001
#
# number of rings (size 3 to 8) (size 9 to 14) (size 15 to 20)
#    0.000    1.500    7.500    1.875    1.750    0.500 
#    0.000    1.250    0.000    3.000    0.000    0.000 
#    0.000    0.000    0.000    0.000    0.000    0.000 
#
# Total GULP energy -89140.645312 kJ/mol
# GULP energy per Si atom -5571.290332 kJ/mol
# Density = 2.739805 g / cm^3
# Si number density = 27.460553 Si / 1000 Ang^3
#
#
#
# Elastic Constant Matrix: (Units=GPa)
#
#
# Indices 1 2 3 4 5 6 
#
# 1 130.3803 49.6188 51.9438 -13.9593 16.6437 49.9668
# 2 49.6188 84.0320 9.6553 -11.1275 -2.8107 25.1506
# 3 51.9438 9.6553 130.6932 -14.3978 9.6996 6.7216
# 4 -13.9593 -11.1275 -14.3978 22.9352 14.8281 -5.1135
# 5 16.6437 -2.8107 9.6996 14.8281 46.2573 -5.7780
# 6 49.9668 25.1506 6.7216 -5.1135 -5.7780 70.1340
#
#
#
# Elastic Compliance Matrix: (Units=1/GPa)
#
#
# Indices 1 2 3 4 5 6 
#
# 1 0.018101 -0.006130 -0.004368 0.009684 -0.010376 -0.010428
# 2 -0.006130 0.016274 0.001632 0.004002 0.001417 -0.001217
# 3 -0.004368 0.001632 0.010027 0.006268 -0.002211 0.001840
# 4 0.009684 0.004002 0.006268 0.072486 -0.028541 -0.006002
# 5 -0.010376 0.001417 -0.002211 -0.028541 0.036048 0.007985
# 6 -0.010428 -0.001217 0.001840 -0.006002 0.007985 0.022168
#
#
# Mechanical properties :
#
#
# Convention : Reuss Voigt Hill
#
# Bulk Modulus (GPa) = 37.49517 63.06013 50.27765
# Shear Modulus (GPa) = 24.78646 43.45781 34.12213
#
# Velocity S-wave (km/s) = 3.00762 3.98245 3.52886
# Velocity P-wave (km/s) = 5.07394 6.64532 5.91207
#
# Compressibility (1/GPa) = 0.02667010
#
# Stress axis : x y z
#
# Youngs Moduli (GPa) = 55.24691 61.44927 99.73211
#
# Poissons Ratio (x) = 0.37667 0.43562
# Poissons Ratio (y) = 0.33865 -0.16279
# Poissons Ratio (z) = 0.24132 -0.10030
#
# Static dielectric constant tensor:
#      x y z
#    x 2.271090 0.036690 -0.029760 
#    y 0.036690 2.319320 0.029530 
#    z -0.029760 0.029530 2.288140 
# 
# From -- ./inp_files/186660.got.cif
#   From: 2010.05.17/outbox.cif.g08.bks.cpg/sg2_94_cif.got.tgz:186660.got - 2010.06.03 11:33:40.
