data_PCOD9107798
_publ_section_title
;
Structure prediction by ZEFSAII (Michael W. Deem and Ramdas Pophale) SiO2 
 PCOD9107798
Probable space group: P -1
;
_chemical_formula_sum "Si O2"
_cell_formula_units_Z 14
_cell_length_a 7.690278
_cell_length_b 9.124477
_cell_length_c 14.904710
_cell_angle_alpha 38.422429
_cell_angle_beta 81.670676
_cell_angle_gamma 70.611395
_cell_volume 601.135020
_symmetry_space_group_name_H-M "P -1"
_symmetry_group_IT_number 2
_symmetry_cell_setting 'triclinic'
loop_
_space_group_symop_operation_xyz
x,y,z
-x,-y,-z
loop_
_atom_site_type_symbol
_atom_site_label
_atom_site_fract_x
_atom_site_fract_y
_atom_site_fract_z
Si Si1 0.915799 0.795872 0.338436
Si Si2 0.636422 0.789881 0.025518
Si Si3 0.014455 0.846126 0.982037
Si Si4 0.513188 0.813939 0.291433
Si Si5 0.308479 0.004779 0.579883
Si Si6 0.564434 0.538719 0.877270
Si Si7 0.451545 0.694976 0.551202
O O1 0.720188 0.818922 0.292827
O O2 0.000000 0.500000 0.500000
O O3 0.011731 0.945805 0.195524
O O4 0.866391 0.942192 0.366910
O O5 0.853033 0.726599 0.059244
O O6 0.608565 0.921779 0.867394
O O7 0.554644 0.571177 0.127756
O O8 0.500000 0.000000 0.000000
O O9 0.217152 0.626725 0.064995
O O10 0.000000 0.000000 0.000000
O O11 0.424633 0.768326 0.412889
O O12 0.528133 0.595183 0.322616
O O13 0.488445 0.823972 0.711193
O O14 0.305166 0.874377 0.547605
O O15 0.357697 0.261479 0.450004
O O16 0.500000 0.500000 0.000000
#
# Coordination Sequence:
#
# PCOD9107798 Si02
#       7
#     2   2   2   2   2   2   2
#     4  11  24  44  66  99 141 181 237 292 344 421
#     4  12  24  43  71 101 140 185 235 288 348 419
#     4  12  26  43  73 107 135 188 241 286 352 421
#     4  10  20  40  65  97 134 178 231 283 343 410
#     4  10  21  40  64  95 141 183 221 286 358 403
#     4  12  23  46  67 101 146 179 228 293 350 416
#     4   9  20  35  64  97 120 181 232 261 346 418
#
# _framework density 23.289276000000001
#
# number of rings (size 3 to 8) (size 9 to 14) (size 15 to 20)
#    0.000    1.143    4.286    1.714    6.000    1.714 
#    0.000    0.714    0.000    0.000    0.000    0.000 
#    0.000    0.000    0.000    0.000    0.000    0.000 
#
# Total GULP energy -78176.224680 kJ/mol
# GULP energy per Si atom -5584.016049 kJ/mol
# Density = 2.323627 g / cm^3
# Si number density = 23.289276 Si / 1000 Ang^3
#
#
#
# Elastic Constant Matrix: (Units=GPa)
#
#
# Indices 1 2 3 4 5 6 
#
# 1 117.7038 27.2844 2.2282 -14.9438 -3.7253 -8.5687
# 2 27.2844 168.5036 12.1482 13.5280 -12.0091 -0.1507
# 3 2.2282 12.1482 51.6010 -1.9236 -7.6199 -2.1866
# 4 -14.9438 13.5280 -1.9236 44.8983 0.4492 -9.0859
# 5 -3.7253 -12.0091 -7.6199 0.4492 30.6883 -5.0307
# 6 -8.5687 -0.1507 -2.1866 -9.0859 -5.0307 42.2728
#
#
#
# Elastic Compliance Matrix: (Units=1/GPa)
#
#
# Indices 1 2 3 4 5 6 
#
# 1 0.009745 -0.001895 0.000468 0.004445 0.000995 0.003067
# 2 -0.001895 0.006711 -0.001350 -0.002896 0.001969 -0.000818
# 3 0.000468 -0.001350 0.020568 0.001826 0.004959 0.002137
# 4 0.004445 -0.002896 0.001826 0.026043 0.000569 0.006651
# 5 0.000995 0.001969 0.004959 0.000569 0.035489 0.004811
# 6 0.003067 -0.000818 0.002137 0.006651 0.004811 0.026387
#
#
# Mechanical properties :
#
#
# Convention : Reuss Voigt Hill
#
# Bulk Modulus (GPa) = 31.77576 46.79220 39.28398
# Shear Modulus (GPa) = 35.46424 43.31507 39.38965
#
# Velocity S-wave (km/s) = 3.90650 4.31730 4.11703
# Velocity P-wave (km/s) = 5.83277 6.70727 6.28525
#
# Compressibility (1/GPa) = 0.03147053
#
# Stress axis : x y z
#
# Youngs Moduli (GPa) = 102.61214 149.01276 48.61914
#
# Poissons Ratio (x) = 0.28237 -0.02275
# Poissons Ratio (y) = 0.19444 0.06563
# Poissons Ratio (z) = -0.04802 0.20115
#
# Static dielectric constant tensor:
#      x y z
#    x 1.570230 -0.447480 0.123650 
#    y -0.447480 1.416400 0.313890 
#    z 0.123650 0.313890 1.871280 
# 
# From -- ./inp_files/494237.got.cif
#   From: 2010.05.17/outbox.cif.g08.bks.cpg/sg2_248_cif.got.tgz:494237.got - 2010.06.03 11:33:40.
