data_PCOD9107116
_publ_section_title
;
Structure prediction by ZEFSAII (Michael W. Deem and Ramdas Pophale) SiO2 
 PCOD9107116
Probable space group: P -1
;
_chemical_formula_sum "Si O2"
_cell_formula_units_Z 10
_cell_length_a 11.030430
_cell_length_b 12.736249
_cell_length_c 11.076398
_cell_angle_alpha 34.123178
_cell_angle_beta 144.974844
_cell_angle_gamma 148.361484
_cell_volume 422.072365
_symmetry_space_group_name_H-M "P -1"
_symmetry_group_IT_number 2
_symmetry_cell_setting 'triclinic'
loop_
_space_group_symop_operation_xyz
x,y,z
-x,-y,-z
loop_
_atom_site_type_symbol
_atom_site_label
_atom_site_fract_x
_atom_site_fract_y
_atom_site_fract_z
Si Si1 0.732555 0.001657 0.456999
Si Si2 0.426013 0.638497 0.725804
Si Si3 0.004327 0.567292 0.617778
Si Si4 0.599606 0.756816 0.342200
Si Si5 0.748296 0.121777 0.945647
O O1 0.669519 0.857025 0.663573
O O2 0.741905 0.866697 0.479246
O O3 0.940492 0.257454 0.400464
O O4 0.473918 0.991080 0.226387
O O5 0.240292 0.680172 0.612925
O O6 0.249355 0.504615 0.593494
O O7 0.500000 0.500000 0.000000
O O8 0.972528 0.341920 0.857840
O O9 0.500000 0.500000 0.500000
O O10 0.355862 0.778155 0.135190
O O11 0.758205 0.926098 0.202320
#
# Coordination Sequence:
#
# PCOD9107116 Si02
#       5
#     2   2   2   2   2
#     4   9  19  37  60  85 122 164 194 252 306 348
#     4  10  22  39  59  91 122 158 203 254 303 363
#     4  10  20  40  63  86 125 159 201 249 310 360
#     4   9  18  38  60  87 128 157 199 256 295 358
#     4   8  19  38  59  88 124 160 195 253 309 345
#
# _framework density 23.692620999999999
#
# number of rings (size 3 to 8) (size 9 to 14) (size 15 to 20)
#    1.200    1.600    0.000    0.600    0.000    3.200 
#    3.600    1.000    0.000    0.000    0.000    0.000 
#    0.000    0.000    0.000    0.000    0.000    0.000 
#
# Total GULP energy -55785.691932 kJ/mol
# GULP energy per Si atom -5578.569193 kJ/mol
# Density = 2.363870 g / cm^3
# Si number density = 23.692621 Si / 1000 Ang^3
#
#
#
# Elastic Constant Matrix: (Units=GPa)
#
#
# Indices 1 2 3 4 5 6 
#
# 1 39.6131 34.5122 22.9521 -13.4901 -9.8426 4.0390
# 2 34.5122 164.7766 69.7152 -31.4000 -10.2437 -24.4155
# 3 22.9521 69.7152 135.5994 -42.5842 -17.6750 -1.9741
# 4 -13.4901 -31.4000 -42.5842 30.9018 10.7299 -3.5373
# 5 -9.8426 -10.2437 -17.6750 10.7299 39.0849 -9.8550
# 6 4.0390 -24.4155 -1.9741 -3.5373 -9.8550 37.3933
#
#
#
# Elastic Compliance Matrix: (Units=1/GPa)
#
#
# Indices 1 2 3 4 5 6 
#
# 1 0.034969 -0.006904 -0.000078 0.006127 0.003573 -0.006768
# 2 -0.006904 0.010883 -0.002581 0.005230 0.000622 0.008374
# 3 -0.000078 -0.002581 0.014034 0.016301 0.001423 0.000981
# 4 0.006127 0.005230 0.016301 0.065732 -0.005657 0.008341
# 5 0.003573 0.000622 0.001423 -0.005657 0.030779 0.007672
# 6 -0.006768 0.008374 0.000981 0.008341 0.007672 0.035804
#
#
# Mechanical properties :
#
#
# Convention : Reuss Voigt Hill
#
# Bulk Modulus (GPa) = 24.53432 66.03867 45.28649
# Shear Modulus (GPa) = 22.23064 35.66330 28.94697
#
# Velocity S-wave (km/s) = 3.06648 3.88396 3.49918
# Velocity P-wave (km/s) = 4.78701 6.93161 5.95662
#
# Compressibility (1/GPa) = 0.04075923
#
# Stress axis : x y z
#
# Youngs Moduli (GPa) = 28.59668 91.88490 71.25672
#
# Poissons Ratio (x) = 0.63441 0.00555
# Poissons Ratio (y) = 0.19744 0.18392
# Poissons Ratio (z) = 0.00223 0.23717
#
# Static dielectric constant tensor:
#      x y z
#    x 2.045140 0.044200 0.029820 
#    y 0.044200 1.868340 0.021070 
#    z 0.029820 0.021070 1.919940 
# 
# From -- ./inp_files/23019.got.cif
#   From: 2010.05.17/outbox.cif.g08.bks.cpg/sg2_12_cif.got.tgz:23019.got - 2010.06.03 11:33:40.
