data_PCOD9107901
_publ_section_title
;
Structure prediction by ZEFSAII (Michael W. Deem and Ramdas Pophale) SiO2 
 PCOD9107901
Probable space group: P -1
;
_chemical_formula_sum "Si O2"
_cell_formula_units_Z 14
_cell_length_a 8.275406
_cell_length_b 20.558001
_cell_length_c 21.299081
_cell_angle_alpha 166.424039
_cell_angle_beta 55.902164
_cell_angle_gamma 125.891977
_cell_volume 688.243699
_symmetry_space_group_name_H-M "P -1"
_symmetry_group_IT_number 2
_symmetry_cell_setting 'triclinic'
loop_
_space_group_symop_operation_xyz
x,y,z
-x,-y,-z
loop_
_atom_site_type_symbol
_atom_site_label
_atom_site_fract_x
_atom_site_fract_y
_atom_site_fract_z
Si Si1 0.387309 0.249829 0.745773
Si Si2 0.387270 0.253503 0.077493
Si Si3 0.671068 0.497952 0.139215
Si Si4 0.876204 0.338925 0.433842
Si Si5 0.237933 0.121839 0.204139
Si Si6 0.403493 0.601931 0.706235
Si Si7 0.060596 0.952298 0.370008
O O1 0.398674 0.359104 0.773707
O O2 0.149509 0.138349 0.705297
O O3 0.500000 0.000000 0.500000
O O4 0.500000 0.500000 0.000000
O O5 0.488246 0.314819 0.045549
O O6 0.219035 0.436259 0.296633
O O7 0.550741 0.361818 0.196987
O O8 0.295541 0.922003 0.796533
O O9 0.790848 0.746632 0.391973
O O10 0.818540 0.296194 0.896236
O O11 0.000000 0.500000 0.500000
O O12 0.025291 0.190038 0.300890
O O13 0.326587 0.286824 0.402356
O O14 0.389101 0.264591 0.249857
O O15 0.251419 0.796573 0.900421
O O16 0.000000 0.000000 0.500000
#
# Coordination Sequence:
#
# PCOD9107901 Si02
#       7
#     2   2   2   2   2   2   2
#     4  11  21  38  66  98 123 159 203 249 300 368
#     4  12  25  41  62  90 126 165 210 265 321 363
#     4  11  23  42  62  92 129 167 207 254 309 373
#     4  12  24  40  62  90 121 168 215 262 316 378
#     4  10  21  37  59  84 112 148 209 261 297 361
#     4  10  21  37  59  84 112 153 200 257 308 361
#     4  10  20  40  66  90 122 165 208 241 293 381
#
# _framework density 20.341633000000002
#
# number of rings (size 3 to 8) (size 9 to 14) (size 15 to 20)
#    0.000    1.143    1.429    7.286    4.000    0.000 
#    0.000    8.571    0.000    0.000    0.000    0.000 
#    0.000    0.000    0.000    0.000    0.000    0.000 
#
# Total GULP energy -78240.526016 kJ/mol
# GULP energy per Si atom -5588.609001 kJ/mol
# Density = 2.029533 g / cm^3
# Si number density = 20.341633 Si / 1000 Ang^3
#
#
#
# Elastic Constant Matrix: (Units=GPa)
#
#
# Indices 1 2 3 4 5 6 
#
# 1 109.1972 33.7671 39.6247 -6.6706 -8.0258 3.7583
# 2 33.7671 93.5848 34.5535 2.2468 -3.7996 1.2651
# 3 39.6247 34.5535 138.8481 0.7588 -7.9227 8.1496
# 4 -6.6706 2.2468 0.7588 22.4153 12.4261 1.2878
# 5 -8.0258 -3.7996 -7.9227 12.4261 47.9062 -5.3106
# 6 3.7583 1.2651 8.1496 1.2878 -5.3106 18.3536
#
#
#
# Elastic Compliance Matrix: (Units=1/GPa)
#
#
# Indices 1 2 3 4 5 6 
#
# 1 0.011309 -0.003281 -0.002349 0.003778 0.000124 -0.001275
# 2 -0.003281 0.012789 -0.002251 -0.002784 0.000954 0.001261
# 3 -0.002349 -0.002251 0.008655 -0.001049 0.000810 -0.002899
# 4 0.003778 -0.002784 -0.001049 0.054779 -0.014887 -0.008267
# 5 0.000124 0.000954 0.000810 -0.014887 0.025861 0.008077
# 6 -0.001275 0.001261 -0.002899 -0.008267 0.008077 0.058864
#
#
# Mechanical properties :
#
#
# Convention : Reuss Voigt Hill
#
# Bulk Modulus (GPa) = 58.85875 61.94675 60.40275
# Shear Modulus (GPa) = 25.81548 33.31400 29.56474
#
# Velocity S-wave (km/s) = 3.56630 4.05127 3.81650
# Velocity P-wave (km/s) = 6.77908 7.23899 7.01281
#
# Compressibility (1/GPa) = 0.01698983
#
# Stress axis : x y z
#
# Youngs Moduli (GPa) = 88.42647 78.19241 115.54334
#
# Poissons Ratio (x) = 0.25658 0.27146
# Poissons Ratio (y) = 0.29016 0.26004
# Poissons Ratio (z) = 0.20775 0.17598
#
# Static dielectric constant tensor:
#      x y z
#    x 1.740180 0.017910 0.019690 
#    y 0.017910 1.737060 0.018250 
#    z 0.019690 0.018250 1.703350 
# 
# From -- ./inp_files/357916.got.cif
#   From: 2010.05.17/outbox.cif.g08.bks.cpg/sg2_179_cif.got.tgz:357916.got - 2010.06.03 11:33:40.
