data_PCOD9107460
_publ_section_title
;
Structure prediction by ZEFSAII (Michael W. Deem and Ramdas Pophale) SiO2 
 PCOD9107460
Probable space group: P -1
;
_chemical_formula_sum "Si O2"
_cell_formula_units_Z 16
_cell_length_a 17.212503
_cell_length_b 11.944528
_cell_length_c 10.801838
_cell_angle_alpha 57.636622
_cell_angle_beta 148.360860
_cell_angle_gamma 102.628133
_cell_volume 831.268171
_symmetry_space_group_name_H-M "P -1"
_symmetry_group_IT_number 2
_symmetry_cell_setting 'triclinic'
loop_
_space_group_symop_operation_xyz
x,y,z
-x,-y,-z
loop_
_atom_site_type_symbol
_atom_site_label
_atom_site_fract_x
_atom_site_fract_y
_atom_site_fract_z
Si Si1 0.082417 0.713500 0.548909
Si Si2 0.706221 0.890395 0.325453
Si Si3 0.299422 0.545618 0.696835
Si Si4 0.751150 0.361661 0.696758
Si Si5 0.592802 0.535617 0.713775
Si Si6 0.195220 0.402839 0.201168
Si Si7 0.978487 0.975891 0.629227
Si Si8 0.151384 0.343082 0.566738
O O1 0.179066 0.639675 0.594993
O O2 0.935241 0.680919 0.414880
O O3 0.008541 0.896171 0.351368
O O4 0.236297 0.623045 0.913612
O O5 0.784077 0.746858 0.614486
O O6 0.794701 0.991272 0.396278
O O7 0.759692 0.807603 0.312468
O O8 0.500000 0.000000 0.000000
O O9 0.213364 0.642781 0.397011
O O10 0.286744 0.392997 0.755276
O O11 0.500000 0.500000 0.000000
O O12 0.554747 0.396894 0.422459
O O13 0.770580 0.495584 0.711864
O O14 0.878249 0.200591 0.033893
O O15 0.500000 0.500000 0.500000
O O16 0.660074 0.640277 0.684178
O O17 0.009153 0.518080 0.814577
O O18 0.000000 0.000000 0.500000
#
# Coordination Sequence:
#
# PCOD9107460 Si02
#       8
#     2   2   2   2   2   2   2   2
#     4  11  24  42  63  96 131 172 214 260 323 389
#     4  12  25  35  63 100 130 161 201 278 335 371
#     4  12  25  41  68  93 129 176 225 261 303 396
#     4  11  21  39  67  92 130 171 215 266 323 376
#     4   9  19  34  64  91 122 163 210 271 312 369
#     4  10  20  40  64  93 125 164 224 264 323 376
#     4  12  24  41  66  99 133 161 212 272 340 378
#     4  11  22  45  67  92 128 173 217 265 321 381
#
# _framework density 19.247699000000001
#
# number of rings (size 3 to 8) (size 9 to 14) (size 15 to 20)
#    0.000    1.000    5.000    3.000    7.000    0.500 
#    0.000    0.000    0.000    0.750    0.000    0.000 
#    0.000    0.000    0.000    0.000    0.000    0.000 
#
# Total GULP energy -89351.785475 kJ/mol
# GULP energy per Si atom -5584.486592 kJ/mol
# Density = 1.920389 g / cm^3
# Si number density = 19.247699 Si / 1000 Ang^3
#
#
#
# Elastic Constant Matrix: (Units=GPa)
#
#
# Indices 1 2 3 4 5 6 
#
# 1 136.0278 36.2145 23.8002 -1.8050 1.3200 15.1489
# 2 36.2145 71.3147 13.2191 10.0081 -3.3354 19.7329
# 3 23.8002 13.2191 55.9714 4.1719 4.0014 16.0932
# 4 -1.8050 10.0081 4.1719 24.8907 9.5600 5.5629
# 5 1.3200 -3.3354 4.0014 9.5600 33.9078 5.7511
# 6 15.1489 19.7329 16.0932 5.5629 5.7511 37.3918
#
#
#
# Elastic Compliance Matrix: (Units=1/GPa)
#
#
# Indices 1 2 3 4 5 6 
#
# 1 0.009185 -0.004604 -0.002879 0.003633 -0.001432 -0.000372
# 2 -0.004604 0.020247 -0.000196 -0.008929 0.006128 -0.008349
# 3 -0.002879 -0.000196 0.021508 -0.001782 -0.000650 -0.007622
# 4 0.003633 -0.008929 -0.001782 0.050273 -0.014780 -0.001199
# 5 -0.001432 0.006128 -0.000650 -0.014780 0.035346 -0.005611
# 6 -0.000372 -0.008349 -0.007622 -0.001199 -0.005611 0.035623
#
#
# Mechanical properties :
#
#
# Convention : Reuss Voigt Hill
#
# Bulk Modulus (GPa) = 28.10572 45.53126 36.81849
# Shear Modulus (GPa) = 25.07535 31.91007 28.49271
#
# Velocity S-wave (km/s) = 3.61331 4.07610 3.85166
# Velocity P-wave (km/s) = 5.66055 6.77197 6.24105
#
# Compressibility (1/GPa) = 0.03557994
#
# Stress axis : x y z
#
# Youngs Moduli (GPa) = 108.87848 49.39090 46.49500
#
# Poissons Ratio (x) = 0.22740 0.13388
# Poissons Ratio (y) = 0.50129 0.00911
# Poissons Ratio (z) = 0.31351 0.00968
#
# Static dielectric constant tensor:
#      x y z
#    x 1.733160 0.011080 0.013260 
#    y 0.011080 1.665560 0.025880 
#    z 0.013260 0.025880 1.672060 
# 
# From -- ./inp_files/259112.got.cif
#   From: 2010.05.17/outbox.cif.g08.bks.cpg/sg2_130_cif.got.tgz:259112.got - 2010.06.03 11:33:40.
