data_PCOD9107453
_publ_section_title
;
Structure prediction by ZEFSAII (Michael W. Deem and Ramdas Pophale) SiO2 
 PCOD9107453
Probable space group: P -1
;
_chemical_formula_sum "Si O2"
_cell_formula_units_Z 15
_cell_length_a 7.781835
_cell_length_b 15.039506
_cell_length_c 6.693423
_cell_angle_alpha 102.036783
_cell_angle_beta 112.722576
_cell_angle_gamma 110.446180
_cell_volume 621.282144
_symmetry_space_group_name_H-M "P -1"
_symmetry_group_IT_number 2
_symmetry_cell_setting 'triclinic'
loop_
_space_group_symop_operation_xyz
x,y,z
-x,-y,-z
loop_
_atom_site_type_symbol
_atom_site_label
_atom_site_fract_x
_atom_site_fract_y
_atom_site_fract_z
Si Si1 0.593158 0.350122 0.716781
Si Si2 0.424530 0.976297 0.230460
Si Si3 0.810758 0.835054 0.406233
Si Si4 0.213500 0.017799 0.841033
Si Si5 0.500000 0.500000 0.000000
Si Si6 0.935433 0.398306 0.552835
Si Si7 0.157476 0.729976 0.930990
Si Si8 0.175429 0.330248 0.915136
O O1 0.373115 0.243649 0.570280
O O2 0.740970 0.375234 0.600725
O O3 0.537911 0.439564 0.794123
O O4 0.729800 0.328076 0.935397
O O5 0.640194 0.022380 0.222930
O O6 0.500000 0.000000 0.500000
O O7 0.289478 0.852907 0.078811
O O8 0.283036 0.025372 0.103948
O O9 0.733614 0.878829 0.206234
O O10 0.908816 0.772661 0.301670
O O11 0.976665 0.932894 0.649022
O O12 0.573452 0.607680 0.947395
O O13 0.879322 0.305570 0.329613
O O14 0.000000 0.500000 0.500000
O O15 0.132877 0.408948 0.786320
O O16 0.939182 0.690974 0.937735
#
# Coordination Sequence:
#
# PCOD9107453 Si02
#       8
#     2   2   2   2   1   2   2   2
#     4  10  22  41  66  96 138 177 224 283 346 410
#     4  11  23  42  68 100 134 187 233 287 341 419
#     4  10  20  44  66 102 138 180 225 295 348 408
#     4  10  22  41  68  95 139 175 235 284 347 411
#     4  10  20  40  64  92 132 172 214 286 348 398
#     4  11  23  41  68  99 132 182 234 276 344 433
#     4  11  22  42  66  95 131 182 225 280 340 418
#     4  10  22  40  66  91 136 173 223 284 344 408
#
# _framework density 24.143619999999999
#
# number of rings (size 3 to 8) (size 9 to 14) (size 15 to 20)
#    0.000    1.600    1.333    3.200    0.000    5.333 
#    0.000   27.333    0.000    0.000    0.000    0.000 
#    0.000    0.000    0.000    0.000    0.000    0.000 
#
# Total GULP energy -83674.259977 kJ/mol
# GULP energy per Si atom -5578.283998 kJ/mol
# Density = 2.408867 g / cm^3
# Si number density = 24.143620 Si / 1000 Ang^3
#
#
#
# Elastic Constant Matrix: (Units=GPa)
#
#
# Indices 1 2 3 4 5 6 
#
# 1 77.4836 25.1514 26.2998 -16.7149 -34.4393 7.3945
# 2 25.1514 118.8423 54.5529 -6.8168 -7.3197 5.4540
# 3 26.2998 54.5529 115.1256 -19.7871 -9.8234 3.0990
# 4 -16.7149 -6.8168 -19.7871 31.3416 -4.2603 5.0693
# 5 -34.4393 -7.3197 -9.8234 -4.2603 30.8961 -7.1606
# 6 7.3945 5.4540 3.0990 5.0693 -7.1606 29.8177
#
#
#
# Elastic Compliance Matrix: (Units=1/GPa)
#
#
# Indices 1 2 3 4 5 6 
#
# 1 0.044212 -0.005269 0.002375 0.031548 0.052440 -0.003018
# 2 -0.005269 0.011467 -0.005448 -0.004392 -0.005690 -0.000844
# 3 0.002375 -0.005448 0.012899 0.009263 0.006517 -0.000943
# 4 0.031548 -0.004392 0.009263 0.060825 0.043640 -0.007844
# 5 0.052440 -0.005690 0.006517 0.043640 0.098388 0.003567
# 6 -0.003018 -0.000844 -0.000943 -0.007844 0.003567 0.036728
#
#
# Mechanical properties :
#
#
# Convention : Reuss Voigt Hill
#
# Bulk Modulus (GPa) = 19.27018 58.16220 38.71619
# Shear Modulus (GPa) = 16.75041 32.10756 24.42899
#
# Velocity S-wave (km/s) = 2.63683 3.65068 3.18436
# Velocity P-wave (km/s) = 4.15564 6.47397 5.43974
#
# Compressibility (1/GPa) = 0.05189366
#
# Stress axis : x y z
#
# Youngs Moduli (GPa) = 22.61837 87.20984 77.52825
#
# Poissons Ratio (x) = 0.45951 -0.18412
# Poissons Ratio (y) = 0.11918 0.42234
# Poissons Ratio (z) = -0.05372 0.47508
#
# Static dielectric constant tensor:
#      x y z
#    x 1.713520 -0.133950 -0.092280 
#    y -0.133950 1.901010 -0.085820 
#    z -0.092280 -0.085820 1.889480 
# 
# From -- ./inp_files/39055.got.cif
#   From: 2010.05.17/outbox.cif.g08.bks.cpg/sg2_20_cif.got.tgz:39055.got - 2010.06.03 11:33:40.
