data_PCOD9107289
_publ_section_title
;
Structure prediction by ZEFSAII (Michael W. Deem and Ramdas Pophale) SiO2 
 PCOD9107289
Probable space group: P -1
;
_chemical_formula_sum "Si O2"
_cell_formula_units_Z 14
_cell_length_a 13.913688
_cell_length_b 10.392973
_cell_length_c 10.850539
_cell_angle_alpha 108.291588
_cell_angle_beta 111.895106
_cell_angle_gamma 25.467473
_cell_volume 624.993036
_symmetry_space_group_name_H-M "P -1"
_symmetry_group_IT_number 2
_symmetry_cell_setting 'triclinic'
loop_
_space_group_symop_operation_xyz
x,y,z
-x,-y,-z
loop_
_atom_site_type_symbol
_atom_site_label
_atom_site_fract_x
_atom_site_fract_y
_atom_site_fract_z
Si Si1 0.702637 0.204511 0.876632
Si Si2 0.293637 0.196812 0.369874
Si Si3 0.808710 0.391304 0.939052
Si Si4 0.255561 0.790340 0.532932
Si Si5 0.931001 0.271602 0.677576
Si Si6 0.920061 0.816689 0.639394
Si Si7 0.588656 0.695651 0.163085
O O1 0.718875 0.344051 0.902028
O O2 0.492159 0.367012 0.882055
O O3 0.737965 0.099575 0.727793
O O4 0.932614 0.900033 0.971982
O O5 0.147194 0.495169 0.345569
O O6 0.137812 0.272347 0.393234
O O7 0.500000 0.000000 0.500000
O O8 0.401141 0.001309 0.239848
O O9 0.835695 0.384148 0.804955
O O10 0.645205 0.664709 0.037967
O O11 0.500000 0.500000 0.500000
O O12 0.176552 0.729020 0.449680
O O13 0.124019 0.059637 0.472735
O O14 0.199118 0.912267 0.680286
O O15 0.172892 0.559235 0.728600
#
# Coordination Sequence:
#
# PCOD9107289 Si02
#       7
#     2   2   2   2   2   2   2
#     4   9  19  38  64  97 127 171 215 269 323 387
#     4  11  24  43  65  97 131 179 219 263 329 388
#     4  10  20  40  63  99 132 169 217 270 328 381
#     4  11  24  43  64  94 128 171 216 277 331 379
#     4  11  25  41  63  98 134 163 219 277 320 387
#     4  10  21  42  67  93 128 169 224 266 318 398
#     4  10  22  39  69  94 131 178 219 260 323 399
#
# _framework density 22.400248999999999
#
# number of rings (size 3 to 8) (size 9 to 14) (size 15 to 20)
#    0.000    1.714    1.429    2.143    0.000    8.571 
#    0.000    6.429    0.000    0.000    0.000    0.000 
#    0.000    0.000    0.000    0.000    0.000    0.000 
#
# Total GULP energy -78077.605415 kJ/mol
# GULP energy per Si atom -5576.971815 kJ/mol
# Density = 2.234927 g / cm^3
# Si number density = 22.400249 Si / 1000 Ang^3
#
#
#
# Elastic Constant Matrix: (Units=GPa)
#
#
# Indices 1 2 3 4 5 6 
#
# 1 174.1174 59.9905 49.8250 -2.3447 -2.3420 -6.8387
# 2 59.9905 82.5646 40.0090 27.0917 -15.5976 -3.3380
# 3 49.8250 40.0090 96.2726 31.9039 -18.2467 4.0363
# 4 -2.3447 27.0917 31.9039 32.3407 -14.8987 0.5964
# 5 -2.3420 -15.5976 -18.2467 -14.8987 28.9639 -0.8561
# 6 -6.8387 -3.3380 4.0363 0.5964 -0.8561 35.5103
#
#
#
# Elastic Compliance Matrix: (Units=1/GPa)
#
#
# Indices 1 2 3 4 5 6 
#
# 1 0.011759 -0.010437 -0.007464 0.016555 -0.000802 0.001835
# 2 -0.010437 0.027028 0.002968 -0.025099 0.002691 0.000680
# 3 -0.007464 0.002968 0.021136 -0.022634 0.002575 -0.003119
# 4 0.016555 -0.025099 -0.022634 0.082939 0.016296 0.002402
# 5 -0.000802 0.002691 0.002575 0.016296 0.045934 0.000640
# 6 0.001835 0.000680 -0.003119 0.002402 0.000640 0.028908
#
#
# Mechanical properties :
#
#
# Convention : Reuss Voigt Hill
#
# Bulk Modulus (GPa) = 33.26781 72.51151 52.88966
# Shear Modulus (GPa) = 19.41091 32.90496 26.15794
#
# Velocity S-wave (km/s) = 2.94691 3.83685 3.42095
# Velocity P-wave (km/s) = 5.14420 7.21593 6.26628
#
# Compressibility (1/GPa) = 0.03005909
#
# Stress axis : x y z
#
# Youngs Moduli (GPa) = 85.04047 36.99839 47.31269
#
# Poissons Ratio (x) = 0.38614 0.35312
# Poissons Ratio (y) = 0.88755 -0.14044
# Poissons Ratio (z) = 0.63470 -0.10982
#
# Static dielectric constant tensor:
#      x y z
#    x 1.907650 -0.115790 -0.016340 
#    y -0.115790 1.942140 0.035730 
#    z -0.016340 0.035730 1.909210 
# 
# From -- ./inp_files/419543.got.cif
#   From: 2010.05.17/outbox.cif.g08.bks.cpg/sg2_210_cif.got.tgz:419543.got - 2010.06.03 11:33:40.
