data_PCOD9107187
_publ_section_title
;
Structure prediction by ZEFSAII (Michael W. Deem and Ramdas Pophale) SiO2 
 PCOD9107187
Probable space group: P -1
;
_chemical_formula_sum "Si O2"
_cell_formula_units_Z 14
_cell_length_a 14.510960
_cell_length_b 13.911068
_cell_length_c 7.980512
_cell_angle_alpha 43.722880
_cell_angle_beta 137.608678
_cell_angle_gamma 149.387616
_cell_volume 534.991808
_symmetry_space_group_name_H-M "P -1"
_symmetry_group_IT_number 2
_symmetry_cell_setting 'triclinic'
loop_
_space_group_symop_operation_xyz
x,y,z
-x,-y,-z
loop_
_atom_site_type_symbol
_atom_site_label
_atom_site_fract_x
_atom_site_fract_y
_atom_site_fract_z
Si Si1 0.882441 0.712513 0.270121
Si Si2 0.757811 0.581091 0.831994
Si Si3 0.255339 0.949466 0.304582
Si Si4 0.676986 0.314653 0.312603
Si Si5 0.937633 0.104943 0.351899
Si Si6 0.422098 0.086126 0.715833
Si Si7 0.554318 0.479067 0.340523
O O1 0.811624 0.513098 0.354119
O O2 0.678520 0.630852 0.163855
O O3 0.047452 0.875907 0.150405
O O4 0.982808 0.792862 0.487646
O O5 0.666299 0.575653 0.545224
O O6 0.656831 0.606497 0.805730
O O7 0.980201 0.740519 0.879639
O O8 0.708467 0.393192 0.066742
O O9 0.256196 0.794454 0.427450
O O10 0.445463 0.158706 0.222401
O O11 0.314840 0.966105 0.555150
O O12 0.712894 0.948341 0.276989
O O13 0.000000 0.000000 0.500000
O O14 0.545709 0.305390 0.542417
O O15 0.500000 0.000000 0.000000
#
# Coordination Sequence:
#
# PCOD9107187 Si02
#       7
#     2   2   2   2   2   2   2
#     4  10  22  41  67  90 127 175 209 270 325 385
#     4  10  22  39  64  95 127 174 211 271 327 388
#     4  10  23  42  64  92 136 169 215 272 319 393
#     4  11  22  43  64  92 131 175 216 262 331 389
#     4  10  21  42  67  96 133 168 218 274 324 386
#     4  11  21  38  67  96 125 170 220 267 321 383
#     4  10  20  40  63  90 130 163 215 271 323 373
#
# _framework density 26.168624999999999
#
# number of rings (size 3 to 8) (size 9 to 14) (size 15 to 20)
#    0.000    1.714    2.857    1.286    0.000    1.714 
#    7.714    5.714    0.000    0.000    0.000    0.000 
#    0.000    0.000    0.000    0.000    0.000    0.000 
#
# Total GULP energy -78033.277415 kJ/mol
# GULP energy per Si atom -5573.805530 kJ/mol
# Density = 2.610906 g / cm^3
# Si number density = 26.168625 Si / 1000 Ang^3
#
#
#
# Elastic Constant Matrix: (Units=GPa)
#
#
# Indices 1 2 3 4 5 6 
#
# 1 119.4517 48.0428 18.6013 -11.8753 -13.7420 16.1616
# 2 48.0428 115.4036 25.3119 -19.3887 -3.8913 14.0485
# 3 18.6013 25.3119 57.3081 -6.0275 -2.2396 7.4377
# 4 -11.8753 -19.3887 -6.0275 31.3172 -6.9039 -13.0398
# 5 -13.7420 -3.8913 -2.2396 -6.9039 41.5423 -9.3882
# 6 16.1616 14.0485 7.4377 -13.0398 -9.3882 73.9253
#
#
#
# Elastic Compliance Matrix: (Units=1/GPa)
#
#
# Indices 1 2 3 4 5 6 
#
# 1 0.010726 -0.003615 -0.001453 0.001963 0.003289 -0.000748
# 2 -0.003615 0.011870 -0.003466 0.005410 0.000609 -0.000085
# 3 -0.001453 -0.003466 0.019650 0.000779 0.000194 -0.000839
# 4 0.001963 0.005410 0.000779 0.041189 0.009614 0.006951
# 5 0.003289 0.000609 0.000194 0.009614 0.027813 0.004374
# 6 -0.000748 -0.000085 -0.000839 0.006951 0.004374 0.015573
#
#
# Mechanical properties :
#
#
# Convention : Reuss Voigt Hill
#
# Bulk Modulus (GPa) = 39.71436 52.89727 46.30581
# Shear Modulus (GPa) = 32.83391 42.70412 37.76902
#
# Velocity S-wave (km/s) = 3.54602 4.04404 3.80319
# Velocity P-wave (km/s) = 5.65464 6.48564 6.08435
#
# Compressibility (1/GPa) = 0.02517981
#
# Stress axis : x y z
#
# Youngs Moduli (GPa) = 93.22743 84.24534 50.89006
#
# Poissons Ratio (x) = 0.30455 0.07394
# Poissons Ratio (y) = 0.33702 0.17636
# Poissons Ratio (z) = 0.13545 0.29196
#
# Static dielectric constant tensor:
#      x y z
#    x 2.120100 0.033730 0.012650 
#    y 0.033730 2.483450 0.012990 
#    z 0.012650 0.012990 2.071760 
# 
# From -- ./inp_files/314731.got.cif
#   From: 2010.05.17/outbox.cif.g08.bks.cpg/sg2_158_cif.got.tgz:314731.got - 2010.06.03 11:33:40.
