data_PCOD9107988
_publ_section_title
;
Structure prediction by ZEFSAII (Michael W. Deem and Ramdas Pophale) SiO2 
 PCOD9107988
Probable space group: P -1
;
_chemical_formula_sum "Si O2"
_cell_formula_units_Z 14
_cell_length_a 7.259500
_cell_length_b 7.488274
_cell_length_c 18.624853
_cell_angle_alpha 50.343259
_cell_angle_beta 50.156466
_cell_angle_gamma 59.060732
_cell_volume 588.919892
_symmetry_space_group_name_H-M "P -1"
_symmetry_group_IT_number 2
_symmetry_cell_setting 'triclinic'
loop_
_space_group_symop_operation_xyz
x,y,z
-x,-y,-z
loop_
_atom_site_type_symbol
_atom_site_label
_atom_site_fract_x
_atom_site_fract_y
_atom_site_fract_z
Si Si1 0.182749 0.546988 0.339553
Si Si2 0.126640 0.419766 0.776610
Si Si3 0.567546 0.368322 0.942556
Si Si4 0.541132 0.773941 0.758374
Si Si5 0.428409 0.742045 0.578454
Si Si6 0.330890 0.233915 0.620797
Si Si7 0.477769 0.943123 0.158540
O O1 0.230512 0.344474 0.318015
O O2 0.358666 0.438752 0.387796
O O3 0.279457 0.783441 0.231321
O O4 0.901930 0.646782 0.397914
O O5 0.184809 0.685767 0.692635
O O6 0.263850 0.336946 0.689474
O O7 0.273912 0.244578 0.842886
O O8 0.852588 0.376842 0.857234
O O9 0.433460 0.544779 0.870099
O O10 0.500000 0.500000 0.000000
O O11 0.507857 0.116119 0.041383
O O12 0.376755 0.956601 0.700241
O O13 0.579940 0.913544 0.787272
O O14 0.438068 0.720783 0.494492
O O15 0.500000 0.000000 0.500000
#
# Coordination Sequence:
#
# PCOD9107988 Si02
#       7
#     2   2   2   2   2   2   2
#     4  11  22  43  65  95 135 165 214 266 319 380
#     4  10  21  40  67  91 126 173 207 267 320 377
#     4  10  20  40  66  93 128 167 218 261 321 381
#     4  10  21  41  62  95 131 165 219 260 309 389
#     4  11  23  40  65  95 128 165 219 260 322 384
#     4  11  22  42  65  92 133 170 212 264 316 384
#     4   9  22  39  68  94 129 170 216 259 323 384
#
# _framework density 23.772331999999999
#
# number of rings (size 3 to 8) (size 9 to 14) (size 15 to 20)
#    0.000    1.714    2.857    1.286    0.000    2.857 
#    0.000    5.000    0.000    0.000    0.000    0.000 
#    0.000    0.000    0.000    0.000    0.000    0.000 
#
# Total GULP energy -77972.126639 kJ/mol
# GULP energy per Si atom -5569.437617 kJ/mol
# Density = 2.371823 g / cm^3
# Si number density = 23.772332 Si / 1000 Ang^3
#
#
#
# Elastic Constant Matrix: (Units=GPa)
#
#
# Indices 1 2 3 4 5 6 
#
# 1 49.5968 29.3572 19.1879 -0.7159 2.6187 -1.3220
# 2 29.3572 94.8924 58.1749 -11.2011 -2.7085 8.2112
# 3 19.1879 58.1749 149.9162 -30.7271 7.1207 -7.1999
# 4 -0.7159 -11.2011 -30.7271 41.1379 4.1378 11.4134
# 5 2.6187 -2.7085 7.1207 4.1378 31.5150 -5.6252
# 6 -1.3220 8.2112 -7.1999 11.4134 -5.6252 43.6996
#
#
#
# Elastic Compliance Matrix: (Units=1/GPa)
#
#
# Indices 1 2 3 4 5 6 
#
# 1 0.025289 -0.008188 -0.000379 -0.002626 -0.001896 0.002683
# 2 -0.008188 0.017156 -0.005681 0.001261 0.002485 -0.004417
# 3 -0.000379 -0.005681 0.010439 0.006422 -0.003544 0.000643
# 4 -0.002626 0.001261 0.006422 0.032497 -0.006933 -0.008638
# 5 -0.001896 0.002485 -0.003544 -0.006933 0.034737 0.005174
# 6 0.002683 -0.004417 0.000643 -0.008638 0.005174 0.026823
#
#
# Mechanical properties :
#
#
# Convention : Reuss Voigt Hill
#
# Bulk Modulus (GPa) = 41.00252 56.42727 48.71489
# Shear Modulus (GPa) = 27.23817 35.78285 31.51051
#
# Velocity S-wave (km/s) = 3.38863 3.88394 3.64471
# Velocity P-wave (km/s) = 5.70928 6.62581 6.18455
#
# Compressibility (1/GPa) = 0.02438875
#
# Stress axis : x y z
#
# Youngs Moduli (GPa) = 39.54221 58.28783 95.79567
#
# Poissons Ratio (x) = 0.47725 0.03629
# Poissons Ratio (y) = 0.32377 0.54423
# Poissons Ratio (z) = 0.01498 0.33114
#
# Static dielectric constant tensor:
#      x y z
#    x 2.324590 0.351150 0.022860 
#    y 0.351150 2.245850 -0.034020 
#    z 0.022860 -0.034020 1.914320 
# 
# From -- ./inp_files/186344.got.cif
#   From: 2010.05.17/outbox.cif.g08.bks.cpg/sg2_94_cif.got.tgz:186344.got - 2010.06.03 11:33:40.
