data_PCOD9107063
_publ_section_title
;
Structure prediction by ZEFSAII (Michael W. Deem and Ramdas Pophale) SiO2 
 PCOD9107063
Probable space group: P -1
;
_chemical_formula_sum "Si O2"
_cell_formula_units_Z 16
_cell_length_a 9.280681
_cell_length_b 8.855674
_cell_length_c 28.926999
_cell_angle_alpha 137.026747
_cell_angle_beta 27.259839
_cell_angle_gamma 131.815911
_cell_volume 741.253283
_symmetry_space_group_name_H-M "P -1"
_symmetry_group_IT_number 2
_symmetry_cell_setting 'triclinic'
loop_
_space_group_symop_operation_xyz
x,y,z
-x,-y,-z
loop_
_atom_site_type_symbol
_atom_site_label
_atom_site_fract_x
_atom_site_fract_y
_atom_site_fract_z
Si Si1 0.982534 0.494520 0.558646
Si Si2 0.677321 0.129247 0.623094
Si Si3 0.631612 0.300933 0.351597
Si Si4 0.319875 0.470105 0.220538
Si Si5 0.192892 0.649146 0.118309
Si Si6 0.622093 0.869613 0.791152
Si Si7 0.142031 0.735490 0.825377
Si Si8 0.519716 0.236642 0.023776
O O1 0.315981 0.436736 0.473220
O O2 0.000000 0.500000 0.500000
O O3 0.728242 0.302211 0.605294
O O4 0.871169 0.727876 0.660679
O O5 0.638552 0.290431 0.714252
O O6 0.418279 0.928237 0.656999
O O7 0.000000 0.000000 0.500000
O O8 0.683814 0.257208 0.272025
O O9 0.945627 0.425667 0.308916
O O10 0.434865 0.280640 0.180326
O O11 0.474100 0.426800 0.117257
O O12 0.910555 0.508500 0.191412
O O13 0.254650 0.884106 0.177409
O O14 0.500000 0.500000 0.000000
O O15 0.176542 0.703933 0.080786
O O16 0.321733 0.877589 0.845035
O O17 0.789299 0.793344 0.927077
O O18 0.500000 0.000000 0.000000
#
# Coordination Sequence:
#
# PCOD9107063 Si02
#       8
#     2   2   2   2   2   2   2   2
#     4  10  20  40  62  95 130 161 205 256 306 374
#     4   9  21  38  65  90 126 165 207 252 307 366
#     4  10  21  42  65  91 130 169 205 254 310 370
#     4  10  22  40  67  94 125 165 212 255 310 374
#     4  10  23  42  64  90 126 164 210 261 316 367
#     4  11  22  40  66  92 128 163 211 257 312 369
#     4  10  23  40  66  92 125 167 208 254 320 370
#     4  10  20  43  64  89 126 160 209 265 309 368
#
# _framework density 21.585065
#
# number of rings (size 3 to 8) (size 9 to 14) (size 15 to 20)
#    0.000    2.000    2.500    0.000    0.000   11.500 
#    0.000    3.750    0.000    0.000    0.000    0.000 
#    0.000    0.000    0.000    0.000    0.000    0.000 
#
# Total GULP energy -89296.651880 kJ/mol
# GULP energy per Si atom -5581.040742 kJ/mol
# Density = 2.153594 g / cm^3
# Si number density = 21.585065 Si / 1000 Ang^3
#
#
#
# Elastic Constant Matrix: (Units=GPa)
#
#
# Indices 1 2 3 4 5 6 
#
# 1 90.4087 11.0300 29.8528 -2.3889 5.5909 -6.2725
# 2 11.0300 87.8234 36.2940 18.2491 21.9447 -15.2707
# 3 29.8528 36.2940 73.4567 13.7082 11.0869 -10.3756
# 4 -2.3889 18.2491 13.7082 30.5435 -1.9195 6.3759
# 5 5.5909 21.9447 11.0869 -1.9195 35.3763 2.0062
# 6 -6.2725 -15.2707 -10.3756 6.3759 2.0062 26.4549
#
#
#
# Elastic Compliance Matrix: (Units=1/GPa)
#
#
# Indices 1 2 3 4 5 6 
#
# 1 0.013157 0.000059 -0.006100 0.003762 0.000008 -0.000146
# 2 0.000059 0.023069 -0.003632 -0.016656 -0.015053 0.017062
# 3 -0.006100 -0.003632 0.021461 -0.009801 -0.004470 0.007575
# 4 0.003762 -0.016656 -0.009801 0.054088 0.017270 -0.026912
# 5 0.000008 -0.015053 -0.004470 0.017270 0.040946 -0.017707
# 6 -0.000146 0.017062 0.007575 -0.026912 -0.017707 0.058414
#
#
# Mechanical properties :
#
#
# Convention : Reuss Voigt Hill
#
# Bulk Modulus (GPa) = 26.08209 45.11581 35.59895
# Shear Modulus (GPa) = 20.55414 30.10906 25.33160
#
# Velocity S-wave (km/s) = 3.08918 3.73889 3.42946
# Velocity P-wave (km/s) = 4.98334 6.29173 5.67537
#
# Compressibility (1/GPa) = 0.03834049
#
# Stress axis : x y z
#
# Youngs Moduli (GPa) = 76.00698 43.34841 46.59654
#
# Poissons Ratio (x) = -0.00257 0.28425
# Poissons Ratio (y) = -0.00451 0.16925
# Poissons Ratio (z) = 0.46366 0.15745
#
# Static dielectric constant tensor:
#      x y z
#    x 1.824970 -0.026270 -0.006970 
#    y -0.026270 1.762030 -0.037190 
#    z -0.006970 -0.037190 1.825970 
# 
# From -- ./inp_files/622391.got.cif
#   From: 2010.05.17/outbox.cif.g08.bks.cpg/sg2_312_cif.got.tgz:622391.got - 2010.06.03 11:33:40.
