data_PCOD9107536
_publ_section_title
;
Structure prediction by ZEFSAII (Michael W. Deem and Ramdas Pophale) SiO2 
 PCOD9107536
Probable space group: P -1
;
_chemical_formula_sum "Si O2"
_cell_formula_units_Z 12
_cell_length_a 19.323837
_cell_length_b 15.900181
_cell_length_c 12.117660
_cell_angle_alpha 153.095913
_cell_angle_beta 27.696838
_cell_angle_gamma 159.881921
_cell_volume 551.149969
_symmetry_space_group_name_H-M "P -1"
_symmetry_group_IT_number 2
_symmetry_cell_setting 'triclinic'
loop_
_space_group_symop_operation_xyz
x,y,z
-x,-y,-z
loop_
_atom_site_type_symbol
_atom_site_label
_atom_site_fract_x
_atom_site_fract_y
_atom_site_fract_z
Si Si1 0.546564 0.059134 0.711833
Si Si2 0.442004 0.273282 0.964218
Si Si3 0.776179 0.885345 0.140290
Si Si4 0.915753 0.506206 0.242731
Si Si5 0.665848 0.281655 0.033040
Si Si6 0.805758 0.734465 0.524665
O O1 0.700546 0.016213 0.450278
O O2 0.307554 0.770078 0.726098
O O3 0.557566 0.183719 0.728386
O O4 0.591535 0.230951 0.953895
O O5 0.608305 0.578123 0.051985
O O6 0.339494 0.241618 0.187492
O O7 0.265728 0.113575 0.929886
O O8 0.000000 0.000000 0.000000
O O9 0.884690 0.690743 0.469669
O O10 0.000000 0.500000 0.000000
O O11 0.106783 0.617090 0.179178
O O12 0.694032 0.491634 0.313341
O O13 0.500000 0.000000 0.000000
O O14 0.000000 0.000000 0.500000
#
# Coordination Sequence:
#
# PCOD9107536 Si02
#       6
#     2   2   2   2   2   2
#     4  12  24  45  72 104 141 188 240 291 355 423
#     4  11  25  46  70 102 141 185 237 291 359 419
#     4  11  27  48  71 100 138 185 246 301 344 416
#     4  10  20  40  64  97 146 183 221 283 351 416
#     4  11  22  39  67 102 142 189 232 279 352 429
#     4  11  23  42  67 105 145 185 226 292 358 427
#
# _framework density 21.772658
#
# number of rings (size 3 to 8) (size 9 to 14) (size 15 to 20)
#    0.000    1.000    5.000    2.500    2.333    4.000 
#    0.000    0.000    0.000    0.000    0.000    0.000 
#    0.000    0.000    0.000    0.000    0.000    0.000 
#
# Total GULP energy -66969.100648 kJ/mol
# GULP energy per Si atom -5580.758387 kJ/mol
# Density = 2.172310 g / cm^3
# Si number density = 21.772658 Si / 1000 Ang^3
#
#
#
# Elastic Constant Matrix: (Units=GPa)
#
#
# Indices 1 2 3 4 5 6 
#
# 1 151.2027 34.1487 37.6769 -3.4595 -6.4207 15.4092
# 2 34.1487 84.2599 23.4488 0.4871 10.1814 11.8145
# 3 37.6769 23.4488 73.4833 -11.0159 9.6843 9.3380
# 4 -3.4595 0.4871 -11.0159 28.6310 11.1451 -13.5069
# 5 -6.4207 10.1814 9.6843 11.1451 41.9059 2.8071
# 6 15.4092 11.8145 9.3380 -13.5069 2.8071 35.8234
#
#
#
# Elastic Compliance Matrix: (Units=1/GPa)
#
#
# Indices 1 2 3 4 5 6 
#
# 1 0.008686 -0.002262 -0.004416 -0.003979 0.004205 -0.003669
# 2 -0.002262 0.014457 -0.003078 -0.002656 -0.002185 -0.003823
# 3 -0.004416 -0.003078 0.019159 0.011065 -0.007479 0.002679
# 4 -0.003979 -0.002656 0.011065 0.056902 -0.019173 0.022660
# 5 0.004205 -0.002185 -0.007479 -0.019173 0.032462 -0.008911
# 6 -0.003669 -0.003823 0.002679 0.022660 -0.008911 0.039297
#
#
# Mechanical properties :
#
#
# Convention : Reuss Voigt Hill
#
# Bulk Modulus (GPa) = 43.87933 55.49939 49.68936
# Shear Modulus (GPa) = 25.24319 35.51684 30.38002
#
# Velocity S-wave (km/s) = 3.40869 4.04327 3.73946
# Velocity P-wave (km/s) = 5.97406 6.88063 6.44331
#
# Compressibility (1/GPa) = 0.02278978
#
# Stress axis : x y z
#
# Youngs Moduli (GPa) = 115.12227 69.17181 52.19457
#
# Poissons Ratio (x) = 0.15647 0.23051
# Poissons Ratio (y) = 0.26041 0.16065
# Poissons Ratio (z) = 0.50842 0.21290
#
# Static dielectric constant tensor:
#      x y z
#    x 1.982440 0.033710 0.061670 
#    y 0.033710 1.749350 -0.026160 
#    z 0.061670 -0.026160 2.076350 
# 
# From -- ./inp_files/466007.got.cif
#   From: 2010.05.17/outbox.cif.g08.bks.cpg/sg2_234_cif.got.tgz:466007.got - 2010.06.03 11:33:40.
