data_PCOD9107420
_publ_section_title
;
Structure prediction by ZEFSAII (Michael W. Deem and Ramdas Pophale) SiO2 
 PCOD9107420
Probable space group: P -1
;
_chemical_formula_sum "Si O2"
_cell_formula_units_Z 12
_cell_length_a 8.779073
_cell_length_b 7.981892
_cell_length_c 12.305793
_cell_angle_alpha 118.531966
_cell_angle_beta 38.563716
_cell_angle_gamma 119.380264
_cell_volume 461.340768
_symmetry_space_group_name_H-M "P -1"
_symmetry_group_IT_number 2
_symmetry_cell_setting 'triclinic'
loop_
_space_group_symop_operation_xyz
x,y,z
-x,-y,-z
loop_
_atom_site_type_symbol
_atom_site_label
_atom_site_fract_x
_atom_site_fract_y
_atom_site_fract_z
Si Si1 0.034156 0.953484 0.629114
Si Si2 0.269244 0.306960 0.091181
Si Si3 0.454322 0.310072 0.543825
Si Si4 0.138972 0.817758 0.856313
Si Si5 0.479601 0.026326 0.147634
Si Si6 0.285406 0.617616 0.352239
O O1 0.229275 0.832152 0.437910
O O2 0.919829 0.845519 0.770594
O O3 0.180065 0.173050 0.641345
O O4 0.796795 0.935878 0.675836
O O5 0.369263 0.487091 0.170059
O O6 0.089037 0.351279 0.109538
O O7 0.460268 0.175781 0.907414
O O8 0.500000 0.500000 0.500000
O O9 0.646711 0.179812 0.352646
O O10 0.534486 0.371829 0.640873
O O11 0.298507 0.811449 0.874401
O O12 0.000000 0.000000 0.000000
O O13 0.500000 0.000000 0.000000
O O14 0.000000 0.500000 0.500000
#
# Coordination Sequence:
#
# PCOD9107420 Si02
#       6
#     2   2   2   2   2   2
#     4  10  21  41  64  95 123 171 203 253 317 366
#     4   9  19  40  67  94 124 165 205 255 314 371
#     4  12  26  40  62  95 130 163 213 259 306 368
#     4  10  21  39  63  92 125 168 207 252 310 374
#     4   9  20  37  65  94 126 164 204 255 316 371
#     4  10  20  40  64  91 123 163 205 256 311 368
#
# _framework density 26.011140000000001
#
# number of rings (size 3 to 8) (size 9 to 14) (size 15 to 20)
#    0.000    2.000    3.333    0.500    7.000    0.667 
#    0.000    2.500    0.000    4.000    0.000    0.000 
#    0.000    0.000    0.000    0.000    0.000    0.000 
#
# Total GULP energy -67049.796876 kJ/mol
# GULP energy per Si atom -5587.483073 kJ/mol
# Density = 2.595194 g / cm^3
# Si number density = 26.011140 Si / 1000 Ang^3
#
#
#
# Elastic Constant Matrix: (Units=GPa)
#
#
# Indices 1 2 3 4 5 6 
#
# 1 224.0274 63.9161 35.0256 13.3692 -21.2390 53.8172
# 2 63.9161 140.4383 2.1170 0.8610 -13.2611 18.7423
# 3 35.0256 2.1170 136.6543 25.1381 -0.7123 9.1888
# 4 13.3692 0.8610 25.1381 32.8639 9.6073 2.8087
# 5 -21.2390 -13.2611 -0.7123 9.6073 47.0498 7.5637
# 6 53.8172 18.7423 9.1888 2.8087 7.5637 48.2960
#
#
#
# Elastic Compliance Matrix: (Units=1/GPa)
#
#
# Indices 1 2 3 4 5 6 
#
# 1 0.007830 -0.001936 -0.000782 -0.003279 0.005000 -0.008418
# 2 -0.001936 0.008355 0.000513 -0.000216 0.001765 -0.001446
# 3 -0.000782 0.000513 0.008824 -0.006797 0.001448 -0.000838
# 4 -0.003279 -0.000216 -0.006797 0.039647 -0.010441 0.004360
# 5 0.005000 0.001765 0.001448 -0.010441 0.027815 -0.010281
# 6 -0.008418 -0.001446 -0.000838 0.004360 -0.010281 0.032163
#
#
# Mechanical properties :
#
#
# Convention : Reuss Voigt Hill
#
# Bulk Modulus (GPa) = 48.54424 78.13749 63.34087
# Shear Modulus (GPa) = 36.78882 52.31269 44.55076
#
# Velocity S-wave (km/s) = 3.76486 4.48947 4.14304
# Velocity P-wave (km/s) = 6.13207 7.54844 6.87682
#
# Compressibility (1/GPa) = 0.02059976
#
# Stress axis : x y z
#
# Youngs Moduli (GPa) = 127.71106 119.68756 113.32203
#
# Poissons Ratio (x) = 0.23175 0.08859
# Poissons Ratio (y) = 0.24729 -0.05814
# Poissons Ratio (z) = 0.09983 -0.06141
#
# Static dielectric constant tensor:
#      x y z
#    x 2.190980 -0.029980 0.070630 
#    y -0.029980 2.126520 -0.077090 
#    z 0.070630 -0.077090 2.139010 
# 
# From -- ./inp_files/493759.got.cif
#   From: 2010.05.17/outbox.cif.g08.bks.cpg/sg2_247_cif.got.tgz:493759.got - 2010.06.03 11:33:40.
