data_PCOD9107914
_publ_section_title
;
Structure prediction by ZEFSAII (Michael W. Deem and Ramdas Pophale) SiO2 
 PCOD9107914
Probable space group: P -1
;
_chemical_formula_sum "Si O2"
_cell_formula_units_Z 12
_cell_length_a 10.066697
_cell_length_b 9.611939
_cell_length_c 9.021700
_cell_angle_alpha 67.563493
_cell_angle_beta 123.513060
_cell_angle_gamma 118.873637
_cell_volume 629.384918
_symmetry_space_group_name_H-M "P -1"
_symmetry_group_IT_number 2
_symmetry_cell_setting 'triclinic'
loop_
_space_group_symop_operation_xyz
x,y,z
-x,-y,-z
loop_
_atom_site_type_symbol
_atom_site_label
_atom_site_fract_x
_atom_site_fract_y
_atom_site_fract_z
Si Si1 0.511237 0.146444 0.336572
Si Si2 0.167885 0.616541 0.977754
Si Si3 0.040391 0.157843 0.793337
Si Si4 0.357108 0.400826 0.070524
Si Si5 0.224250 0.928232 0.069644
Si Si6 0.099175 0.667438 0.576158
O O1 0.416764 0.275485 0.253695
O O2 0.706357 0.253846 0.389389
O O3 0.500000 0.000000 0.500000
O O4 0.410777 0.056198 0.165149
O O5 0.111804 0.647595 0.766335
O O6 0.302948 0.526909 0.080819
O O7 0.233613 0.777282 0.049338
O O8 0.000000 0.500000 0.000000
O O9 0.875270 0.116275 0.815550
O O10 0.997386 0.216830 0.586854
O O11 0.190511 0.295255 0.917180
O O12 0.106663 0.010402 0.880180
O O13 0.500000 0.500000 0.000000
O O14 0.000000 0.500000 0.500000
#
# Coordination Sequence:
#
# PCOD9107914 Si02
#       6
#     2   2   2   2   2   2
#     4  11  23  40  70  95 129 171 225 266 321 395
#     4  12  24  40  67  96 134 169 222 275 324 383
#     4  10  20  40  66  90 128 175 216 256 332 399
#     4  11  21  42  66  94 127 180 219 258 330 395
#     4  10  22  40  64  95 131 169 213 269 332 383
#     4  12  22  40  69  96 127 176 226 263 323 402
#
# _framework density 19.066233
#
# number of rings (size 3 to 8) (size 9 to 14) (size 15 to 20)
#    0.000    1.000    6.667    0.000    0.000    1.333 
#    0.000    0.833    3.667    0.000    0.000    0.000 
#    0.000    0.000    0.000    0.000    0.000    0.000 
#
# Total GULP energy -66970.021879 kJ/mol
# GULP energy per Si atom -5580.835157 kJ/mol
# Density = 1.902284 g / cm^3
# Si number density = 19.066233 Si / 1000 Ang^3
#
#
#
# Elastic Constant Matrix: (Units=GPa)
#
#
# Indices 1 2 3 4 5 6 
#
# 1 95.3258 61.9839 34.7461 -8.4601 15.8816 -3.3510
# 2 61.9839 136.4324 36.3048 -5.5945 15.0535 -18.9593
# 3 34.7461 36.3048 124.0878 -35.8505 13.4415 -8.1892
# 4 -8.4601 -5.5945 -35.8505 38.4965 8.0300 13.3886
# 5 15.8816 15.0535 13.4415 8.0300 22.2041 -2.6614
# 6 -3.3510 -18.9593 -8.1892 13.3886 -2.6614 48.8314
#
#
#
# Elastic Compliance Matrix: (Units=1/GPa)
#
#
# Indices 1 2 3 4 5 6 
#
# 1 0.017113 -0.006881 -0.000221 0.005938 -0.010033 -0.003709
# 2 -0.006881 0.011503 -0.002188 -0.003541 0.000281 0.004613
# 3 -0.000221 -0.002188 0.015495 0.018649 -0.014986 -0.004196
# 4 0.005938 -0.003541 0.018649 0.056898 -0.035556 -0.015378
# 5 -0.010033 0.000281 -0.014986 -0.035556 0.075242 0.010757
# 6 -0.003709 0.004613 -0.004196 -0.015378 0.010757 0.026114
#
#
# Mechanical properties :
#
#
# Convention : Reuss Voigt Hill
#
# Bulk Modulus (GPa) = 39.16727 69.10173 54.13450
# Shear Modulus (GPa) = 21.79064 36.76049 29.27557
#
# Velocity S-wave (km/s) = 3.38434 4.39571 3.92275
# Velocity P-wave (km/s) = 5.98824 7.87938 6.99799
#
# Compressibility (1/GPa) = 0.02553152
#
# Stress axis : x y z
#
# Youngs Moduli (GPa) = 58.43379 86.93534 64.53708
#
# Poissons Ratio (x) = 0.59820 0.01428
# Poissons Ratio (y) = 0.40208 0.14118
# Poissons Ratio (z) = 0.01293 0.19018
#
# Static dielectric constant tensor:
#      x y z
#    x 1.650990 0.016210 -0.000870 
#    y 0.016210 1.689880 -0.049420 
#    z -0.000870 -0.049420 1.659260 
# 
# From -- ./inp_files/145154.got.cif
#   From: 2010.05.17/outbox.cif.g08.bks.cpg/sg2_73_cif.got.tgz:145154.got - 2010.06.03 11:33:40.
