data_PCOD9107871
_publ_section_title
;
Structure prediction by ZEFSAII (Michael W. Deem and Ramdas Pophale) SiO2 
 PCOD9107871
Probable space group: P -1
;
_chemical_formula_sum "Si O2"
_cell_formula_units_Z 16
_cell_length_a 9.696391
_cell_length_b 11.096683
_cell_length_c 9.044973
_cell_angle_alpha 83.329527
_cell_angle_beta 120.980880
_cell_angle_gamma 71.830905
_cell_volume 745.650018
_symmetry_space_group_name_H-M "P -1"
_symmetry_group_IT_number 2
_symmetry_cell_setting 'triclinic'
loop_
_space_group_symop_operation_xyz
x,y,z
-x,-y,-z
loop_
_atom_site_type_symbol
_atom_site_label
_atom_site_fract_x
_atom_site_fract_y
_atom_site_fract_z
Si Si1 0.981171 0.211892 0.627971
Si Si2 0.043390 0.675178 0.992982
Si Si3 0.567938 0.354262 0.472846
Si Si4 0.886149 0.727104 0.574439
Si Si5 0.629034 0.509969 0.945490
Si Si6 0.956046 0.560186 0.235452
Si Si7 0.505097 0.106924 0.611711
Si Si8 0.136183 0.044200 0.988761
O O1 0.985011 0.224676 0.451599
O O2 0.074651 0.308060 0.710157
O O3 0.782203 0.283781 0.575352
O O4 0.093311 0.067137 0.786940
O O5 0.928767 0.712924 0.774675
O O6 0.940031 0.804822 0.015085
O O7 0.244283 0.629448 0.050675
O O8 0.051171 0.562737 0.131412
O O9 0.500000 0.500000 0.500000
O O10 0.480113 0.388958 0.257636
O O11 0.521634 0.238802 0.535865
O O12 0.685711 0.834181 0.422730
O O13 0.921069 0.573370 0.587540
O O14 0.500000 0.500000 0.000000
O O15 0.773657 0.551706 0.094080
O O16 0.500000 0.000000 0.500000
O O17 0.666812 0.037853 0.826812
O O18 0.000000 0.000000 0.000000
#
# Coordination Sequence:
#
# PCOD9107871 Si02
#       8
#     2   2   2   2   2   2   2   2
#     4  11  24  41  64  94 134 169 212 276 334 379
#     4  10  20  40  66  87 126 171 214 257 327 388
#     4  12  24  43  70 100 128 171 227 267 320 394
#     4  11  21  39  64  97 127 166 218 271 327 378
#     4  11  23  38  63  98 131 162 214 275 329 375
#     4  10  21  41  65  92 129 173 212 266 327 394
#     4  12  25  43  71  96 127 175 228 266 314 407
#     4  11  23  45  64  89 126 174 220 260 324 390
#
# _framework density 21.457788999999998
#
# number of rings (size 3 to 8) (size 9 to 14) (size 15 to 20)
#    0.000    1.000    2.500    7.125    1.750    1.500 
#    0.000    3.750    0.000    0.000    0.000    0.000 
#    0.000    0.000    0.000    0.000    0.000    0.000 
#
# Total GULP energy -89192.840399 kJ/mol
# GULP energy per Si atom -5574.552525 kJ/mol
# Density = 2.140895 g / cm^3
# Si number density = 21.457789 Si / 1000 Ang^3
#
#
#
# Elastic Constant Matrix: (Units=GPa)
#
#
# Indices 1 2 3 4 5 6 
#
# 1 122.9217 12.6292 39.2174 -11.6191 -7.8945 -13.3647
# 2 12.6292 42.2994 15.6913 -11.3979 -3.4819 3.1174
# 3 39.2174 15.6913 107.9072 -33.5171 5.3953 -5.7251
# 4 -11.6191 -11.3979 -33.5171 29.2344 0.8116 3.2329
# 5 -7.8945 -3.4819 5.3953 0.8116 49.3905 -7.9648
# 6 -13.3647 3.1174 -5.7251 3.2329 -7.9648 24.3147
#
#
#
# Elastic Compliance Matrix: (Units=1/GPa)
#
#
# Indices 1 2 3 4 5 6 
#
# 1 0.010287 -0.002418 -0.003828 -0.002020 0.002940 0.006295
# 2 -0.002418 0.027709 -0.000365 0.010093 0.000447 -0.006163
# 3 -0.003828 -0.000365 0.016055 0.016989 -0.002911 -0.001489
# 4 -0.002020 0.010093 0.016989 0.057717 -0.003585 -0.007253
# 5 0.002940 0.000447 -0.002911 -0.003585 0.022533 0.008731
# 6 0.006295 -0.006163 -0.001489 -0.007253 0.008731 0.048851
#
#
# Mechanical properties :
#
#
# Convention : Reuss Voigt Hill
#
# Bulk Modulus (GPa) = 24.49176 45.35601 34.92389
# Shear Modulus (GPa) = 23.81142 34.29396 29.05269
#
# Velocity S-wave (km/s) = 3.33481 4.00209 3.68359
# Velocity P-wave (km/s) = 5.12510 6.52218 5.86539
#
# Compressibility (1/GPa) = 0.04083006
#
# Stress axis : x y z
#
# Youngs Moduli (GPa) = 97.20877 36.08957 62.28677
#
# Poissons Ratio (x) = 0.08725 0.23841
# Poissons Ratio (y) = 0.23502 0.02273
# Poissons Ratio (z) = 0.37208 0.01317
#
# Static dielectric constant tensor:
#      x y z
#    x 1.801710 -0.016010 -0.028450 
#    y -0.016010 1.828050 0.050340 
#    z -0.028450 0.050340 1.848720 
# 
# From -- ./inp_files/186050.got.cif
#   From: 2010.05.17/outbox.cif.g08.bks.cpg/sg2_94_cif.got.tgz:186050.got - 2010.06.03 11:33:40.
