data_PCOD9107336
_publ_section_title
;
Structure prediction by ZEFSAII (Michael W. Deem and Ramdas Pophale) SiO2 
 PCOD9107336
Probable space group: P -1
;
_chemical_formula_sum "Si O2"
_cell_formula_units_Z 11
_cell_length_a 15.215602
_cell_length_b 8.629794
_cell_length_c 7.511610
_cell_angle_alpha 88.855256
_cell_angle_beta 48.225936
_cell_angle_gamma 52.228894
_cell_volume 437.693924
_symmetry_space_group_name_H-M "P -1"
_symmetry_group_IT_number 2
_symmetry_cell_setting 'triclinic'
loop_
_space_group_symop_operation_xyz
x,y,z
-x,-y,-z
loop_
_atom_site_type_symbol
_atom_site_label
_atom_site_fract_x
_atom_site_fract_y
_atom_site_fract_z
Si Si1 0.876296 0.956243 0.293202
Si Si2 0.545538 0.591090 0.068871
Si Si3 0.849958 0.760939 0.908885
Si Si4 0.277740 0.288056 0.264593
Si Si5 0.817796 0.151610 0.987584
Si Si6 0.000000 0.500000 0.000000
O O1 0.017176 0.671626 0.043144
O O2 0.988051 0.944911 0.287155
O O3 0.671109 0.103478 0.635468
O O4 0.809631 0.133366 0.211823
O O5 0.500000 0.500000 0.000000
O O6 0.701858 0.549465 0.786708
O O7 0.637104 0.428921 0.131404
O O8 0.789933 0.723824 0.824894
O O9 0.086003 0.468043 0.650254
O O10 0.830171 0.963278 0.899680
O O11 0.776289 0.782783 0.196584
O O12 0.500000 0.000000 0.000000
#
# Coordination Sequence:
#
# PCOD9107336 Si02
#       6
#     2   2   2   2   2   1
#     4  10  22  41  63  88 120 156 200 245 293 352
#     4  12  24  38  62  92 121 156 197 245 299 353
#     4  10  22  40  61  86 120 157 199 245 293 353
#     4  11  23  39  59  87 122 159 198 243 296 353
#     4  10  22  41  62  87 119 158 198 245 296 348
#     4  10  20  40  64  86 116 156 198 244 292 344
#
# _framework density 25.131716999999998
#
# number of rings (size 3 to 8) (size 9 to 14) (size 15 to 20)
#    0.000    1.455    0.000    4.909    0.000    5.818 
#    0.000   21.818    0.000    0.000    0.000    0.000 
#    0.000    0.000    0.000    0.000    0.000    0.000 
#
# Total GULP energy -61299.362567 kJ/mol
# GULP energy per Si atom -5572.669324 kJ/mol
# Density = 2.507452 g / cm^3
# Si number density = 25.131717 Si / 1000 Ang^3
#
#
#
# Elastic Constant Matrix: (Units=GPa)
#
#
# Indices 1 2 3 4 5 6 
#
# 1 199.8038 43.1178 37.6283 4.7712 -11.9719 7.4979
# 2 43.1178 98.8533 15.7112 5.8262 -20.5895 8.0726
# 3 37.6283 15.7112 78.0849 12.5196 -19.3316 -1.1143
# 4 4.7712 5.8262 12.5196 38.4912 2.4224 1.5953
# 5 -11.9719 -20.5895 -19.3316 2.4224 39.7800 6.7631
# 6 7.4979 8.0726 -1.1143 1.5953 6.7631 36.2553
#
#
#
# Elastic Compliance Matrix: (Units=1/GPa)
#
#
# Indices 1 2 3 4 5 6 
#
# 1 0.005977 -0.002278 -0.002663 0.000537 -0.000584 -0.000726
# 2 -0.002278 0.012901 0.000522 -0.002131 0.006986 -0.003595
# 3 -0.002663 0.000522 0.016903 -0.005743 0.008084 -0.000301
# 4 0.000537 -0.002131 -0.005743 0.028449 -0.005457 -0.000047
# 5 -0.000584 0.006986 0.008084 -0.005457 0.034081 -0.007304
# 6 -0.000726 -0.003595 -0.000301 -0.000047 -0.007304 0.029888
#
#
# Mechanical properties :
#
#
# Convention : Reuss Voigt Hill
#
# Bulk Modulus (GPa) = 37.11556 63.29518 50.20537
# Shear Modulus (GPa) = 34.24229 41.59094 37.91662
#
# Velocity S-wave (km/s) = 3.69523 4.07248 3.88843
# Velocity P-wave (km/s) = 5.74515 6.88139 6.33878
#
# Compressibility (1/GPa) = 0.02694288
#
# Stress axis : x y z
#
# Youngs Moduli (GPa) = 167.29545 77.51387 59.16246
#
# Poissons Ratio (x) = 0.17657 0.15755
# Poissons Ratio (y) = 0.38109 -0.03088
# Poissons Ratio (z) = 0.44551 -0.04045
#
# Static dielectric constant tensor:
#      x y z
#    x 2.089400 -0.022640 0.096230 
#    y -0.022640 2.085300 -0.067560 
#    z 0.096230 -0.067560 2.151710 
# 
# From -- ./inp_files/17062.got.cif
#   From: 2010.05.17/outbox.cif.g08.bks.cpg/sg2_9_cif.got.tgz:17062.got - 2010.06.03 11:33:40.
