data_PCOD9107148
_publ_section_title
;
Structure prediction by ZEFSAII (Michael W. Deem and Ramdas Pophale) SiO2 
 PCOD9107148
Probable space group: P -1
;
_chemical_formula_sum "Si O2"
_cell_formula_units_Z 16
_cell_length_a 23.402879
_cell_length_b 13.738699
_cell_length_c 20.507402
_cell_angle_alpha 156.393976
_cell_angle_beta 162.618157
_cell_angle_gamma 32.161824
_cell_volume 766.989500
_symmetry_space_group_name_H-M "P -1"
_symmetry_group_IT_number 2
_symmetry_cell_setting 'triclinic'
loop_
_space_group_symop_operation_xyz
x,y,z
-x,-y,-z
loop_
_atom_site_type_symbol
_atom_site_label
_atom_site_fract_x
_atom_site_fract_y
_atom_site_fract_z
Si Si1 0.187981 0.175831 0.605928
Si Si2 0.226003 0.628427 0.306123
Si Si3 0.094311 0.796042 0.790551
Si Si4 0.881518 0.459566 0.009499
Si Si5 0.464177 0.627904 0.107326
Si Si6 0.737766 0.799683 0.155056
Si Si7 0.125551 0.022981 0.216457
Si Si8 0.684086 0.367521 0.452765
O O1 0.162176 0.237756 0.690674
O O2 0.986493 0.104101 0.301450
O O3 0.269503 0.928322 0.538694
O O4 0.341065 0.408329 0.883723
O O5 0.235678 0.561311 0.199507
O O6 0.341207 0.569605 0.459672
O O7 0.000000 0.500000 0.000000
O O8 0.000000 0.500000 0.500000
O O9 0.997775 0.889469 0.805586
O O10 0.325080 0.820579 0.062433
O O11 0.819980 0.227800 0.850051
O O12 0.856353 0.709421 0.170918
O O13 0.109951 0.467052 0.246760
O O14 0.673663 0.770642 0.449373
O O15 0.500000 0.500000 0.000000
O O16 0.718473 0.085855 0.310022
O O17 0.513850 0.634271 0.803021
O O18 0.000000 0.000000 0.000000
#
# Coordination Sequence:
#
# PCOD9107148 Si02
#       8
#     2   2   2   2   2   2   2   2
#     4  10  20  40  63  89 120 166 211 248 309 381
#     4   9  18  38  65  87 120 158 201 259 310 369
#     4  10  21  42  66  84 124 165 217 253 311 374
#     4  11  22  39  62  88 127 156 203 256 320 359
#     4  11  22  41  67  88 122 168 222 253 302 386
#     4  10  22  38  63  92 122 156 209 249 314 381
#     4  12  27  41  61 100 132 163 211 271 315 367
#     4   9  21  41  62  88 121 163 200 255 308 379
#
# _framework density 20.860782
#
# number of rings (size 3 to 8) (size 9 to 14) (size 15 to 20)
#    0.000    1.750    3.750    0.375    5.250    2.000 
#    0.000    0.000    8.250    0.000    0.000    0.000 
#    0.000    0.000    0.000    0.000    0.000    0.000 
#
# Total GULP energy -89239.689919 kJ/mol
# GULP energy per Si atom -5577.480620 kJ/mol
# Density = 2.081330 g / cm^3
# Si number density = 20.860782 Si / 1000 Ang^3
#
#
#
# Elastic Constant Matrix: (Units=GPa)
#
#
# Indices 1 2 3 4 5 6 
#
# 1 118.6286 38.7201 37.2300 -14.1786 -39.5060 3.7983
# 2 38.7201 40.4478 22.7023 -4.8553 -0.4947 -1.5388
# 3 37.2300 22.7023 115.5382 -14.8438 -10.7877 3.9354
# 4 -14.1786 -4.8553 -14.8438 33.6332 3.0652 7.4185
# 5 -39.5060 -0.4947 -10.7877 3.0652 38.4301 -3.1794
# 6 3.7983 -1.5388 3.9354 7.4185 -3.1794 22.1010
#
#
#
# Elastic Compliance Matrix: (Units=1/GPa)
#
#
# Indices 1 2 3 4 5 6 
#
# 1 0.025000 -0.022883 -0.000388 0.005767 0.024486 -0.004234
# 2 -0.022883 0.049000 -0.005189 -0.004103 -0.023504 0.006265
# 3 -0.000388 -0.005189 0.010653 0.004362 0.001897 -0.003383
# 4 0.005767 -0.004103 0.004362 0.036257 0.003068 -0.013782
# 5 0.024486 -0.023504 0.001897 0.003068 0.051190 0.000152
# 6 -0.004234 0.006265 -0.003383 -0.013782 0.000152 0.051661
#
#
# Mechanical properties :
#
#
# Convention : Reuss Voigt Hill
#
# Bulk Modulus (GPa) = 36.06114 52.43548 44.24831
# Shear Modulus (GPa) = 17.24581 30.56368 23.90474
#
# Velocity S-wave (km/s) = 2.87838 3.83185 3.38881
# Velocity P-wave (km/s) = 5.32643 6.69088 6.04726
#
# Compressibility (1/GPa) = 0.02773068
#
# Stress axis : x y z
#
# Youngs Moduli (GPa) = 40.00063 20.40812 93.87380
#
# Poissons Ratio (x) = 0.46701 0.03642
# Poissons Ratio (y) = 0.91535 0.48716
# Poissons Ratio (z) = 0.01552 0.10591
#
# Static dielectric constant tensor:
#      x y z
#    x 1.821550 0.161710 0.015880 
#    y 0.161710 2.068600 0.045560 
#    z 0.015880 0.045560 1.777170 
# 
# From -- ./inp_files/398235.got.cif
#   From: 2010.05.17/outbox.cif.g08.bks.cpg/sg2_200_cif.got.tgz:398235.got - 2010.06.03 11:33:40.
