data_PCOD9107119
_publ_section_title
;
Structure prediction by ZEFSAII (Michael W. Deem and Ramdas Pophale) SiO2 
 PCOD9107119
Probable space group: P -1
;
_chemical_formula_sum "Si O2"
_cell_formula_units_Z 16
_cell_length_a 15.434429
_cell_length_b 9.536079
_cell_length_c 14.808383
_cell_angle_alpha 94.364838
_cell_angle_beta 27.832212
_cell_angle_gamma 113.108625
_cell_volume 726.092262
_symmetry_space_group_name_H-M "P -1"
_symmetry_group_IT_number 2
_symmetry_cell_setting 'triclinic'
loop_
_space_group_symop_operation_xyz
x,y,z
-x,-y,-z
loop_
_atom_site_type_symbol
_atom_site_label
_atom_site_fract_x
_atom_site_fract_y
_atom_site_fract_z
Si Si1 0.237742 0.531995 0.817603
Si Si2 0.173682 0.296726 0.390123
Si Si3 0.461702 0.369807 0.630766
Si Si4 0.435383 0.125278 0.333244
Si Si5 0.091242 0.208964 0.667446
Si Si6 0.474292 0.123447 0.747098
Si Si7 0.703684 0.341991 0.732736
Si Si8 0.631748 0.916147 0.808766
O O1 0.223978 0.356151 0.842022
O O2 0.456374 0.647018 0.542919
O O3 0.338563 0.663846 0.820066
O O4 0.000000 0.500000 0.000000
O O5 0.089821 0.269212 0.570490
O O6 0.354062 0.521589 0.208022
O O7 0.311006 0.220352 0.253964
O O8 0.908738 0.139736 0.570262
O O9 0.701766 0.591940 0.456677
O O10 0.440897 0.229982 0.711518
O O11 0.189248 0.098911 0.563827
O O12 0.491515 0.119668 0.176434
O O13 0.409254 0.962484 0.399312
O O14 0.812568 0.062945 0.961743
O O15 0.649000 0.263488 0.677957
O O16 0.000000 0.500000 0.500000
O O17 0.534692 0.163033 0.950375
#
# Coordination Sequence:
#
# PCOD9107119 Si02
#       8
#     2   2   2   2   2   2   2   2
#     4  10  22  45  70  96 129 169 213 272 333 390
#     4  10  20  40  63  86 126 174 217 262 317 381
#     4  10  23  43  70  99 127 168 219 266 331 393
#     4  10  24  41  64  98 129 172 221 268 324 388
#     4  10  21  43  66  91 133 172 214 268 326 380
#     4  12  24  41  67  97 134 172 215 271 324 385
#     4  12  25  36  59  98 131 173 223 262 320 387
#     4  10  22  41  62  89 131 173 214 266 317 379
#
# _framework density 22.035765999999999
#
# number of rings (size 3 to 8) (size 9 to 14) (size 15 to 20)
#    0.000    1.500    2.500    1.875    1.750    3.500 
#    2.250    8.750    0.000    0.000    0.000    0.000 
#    0.000    0.000    0.000    0.000    0.000    0.000 
#
# Total GULP energy -89371.607032 kJ/mol
# GULP energy per Si atom -5585.725440 kJ/mol
# Density = 2.198561 g / cm^3
# Si number density = 22.035766 Si / 1000 Ang^3
#
#
#
# Elastic Constant Matrix: (Units=GPa)
#
#
# Indices 1 2 3 4 5 6 
#
# 1 118.8818 23.1822 21.2407 5.3571 7.4321 -17.5803
# 2 23.1822 99.9275 8.8052 3.4626 4.6716 -41.8064
# 3 21.2407 8.8052 31.9573 -3.1725 0.4042 -16.6607
# 4 5.3571 3.4626 -3.1725 27.5120 -9.2142 1.0891
# 5 7.4321 4.6716 0.4042 -9.2142 32.8594 2.6368
# 6 -17.5803 -41.8064 -16.6607 1.0891 2.6368 44.3120
#
#
#
# Elastic Compliance Matrix: (Units=1/GPa)
#
#
# Indices 1 2 3 4 5 6 
#
# 1 0.010274 -0.001203 -0.006398 -0.003681 -0.003172 0.000815
# 2 -0.001203 0.018161 0.005429 -0.003852 -0.004989 0.019090
# 3 -0.006398 0.005429 0.044557 0.004929 -0.000033 0.019217
# 4 -0.003681 -0.003852 0.004929 0.042932 0.013769 -0.005116
# 5 -0.003172 -0.004989 -0.000033 0.013769 0.036401 -0.008482
# 6 0.000815 0.019090 0.019217 -0.005116 -0.008482 0.048756
#
#
# Mechanical properties :
#
#
# Convention : Reuss Voigt Hill
#
# Bulk Modulus (GPa) = 14.56719 39.69142 27.12931
# Shear Modulus (GPa) = 21.90020 34.10593 28.00307
#
# Velocity S-wave (km/s) = 3.15596 3.93842 3.56870
# Velocity P-wave (km/s) = 4.46152 6.22357 5.41470
#
# Compressibility (1/GPa) = 0.06864740
#
# Stress axis : x y z
#
# Youngs Moduli (GPa) = 97.33218 55.06268 22.44330
#
# Poissons Ratio (x) = 0.06624 0.14359
# Poissons Ratio (y) = 0.11709 -0.12183
# Poissons Ratio (z) = 0.62271 -0.29891
#
# Static dielectric constant tensor:
#      x y z
#    x 1.836900 -0.036550 -0.003830 
#    y -0.036550 1.860860 0.034590 
#    z -0.003830 0.034590 1.790780 
# 
# From -- ./inp_files/315222.got.cif
#   From: 2010.05.17/outbox.cif.g08.bks.cpg/sg2_158_cif.got.tgz:315222.got - 2010.06.03 11:33:40.
