data_PCOD9107947
_publ_section_title
;
Structure prediction by ZEFSAII (Michael W. Deem and Ramdas Pophale) SiO2 
 PCOD9107947
Probable space group: P -1
;
_chemical_formula_sum "Si O2"
_cell_formula_units_Z 16
_cell_length_a 17.306455
_cell_length_b 8.280876
_cell_length_c 9.667717
_cell_angle_alpha 115.987464
_cell_angle_beta 143.986100
_cell_angle_gamma 60.134690
_cell_volume 704.761505
_symmetry_space_group_name_H-M "P -1"
_symmetry_group_IT_number 2
_symmetry_cell_setting 'triclinic'
loop_
_space_group_symop_operation_xyz
x,y,z
-x,-y,-z
loop_
_atom_site_type_symbol
_atom_site_label
_atom_site_fract_x
_atom_site_fract_y
_atom_site_fract_z
Si Si1 0.789559 0.064262 0.349320
Si Si2 0.813114 0.399077 0.680584
Si Si3 0.126115 0.830710 0.068783
Si Si4 0.502355 0.435265 0.323727
Si Si5 0.020472 0.285688 0.409833
Si Si6 0.636824 0.388722 0.071822
Si Si7 0.628655 0.047465 0.383751
Si Si8 0.223811 0.330387 0.493607
O O1 0.858941 0.211694 0.582490
O O2 0.702395 0.178475 0.140434
O O3 0.684387 0.030952 0.301004
O O4 0.901352 0.865978 0.421270
O O5 0.649688 0.429814 0.469497
O O6 0.831337 0.580850 0.699527
O O7 0.870070 0.348015 0.895932
O O8 0.105966 0.777373 0.861783
O O9 0.263840 0.885182 0.334846
O O10 0.000000 0.000000 0.000000
O O11 0.500000 0.500000 0.500000
O O12 0.495249 0.220759 0.244014
O O13 0.397149 0.569508 0.121279
O O14 0.118071 0.260418 0.406110
O O15 0.000000 0.500000 0.500000
O O16 0.743949 0.501178 0.313698
O O17 0.500000 0.500000 0.000000
O O18 0.639384 0.841947 0.377897
#
# Coordination Sequence:
#
# PCOD9107947 Si02
#       8
#     2   2   2   2   2   2   2   2
#     4   8  16  34  56  79 110 148 195 230 272 364
#     4   9  18  34  59  82 109 147 208 228 269 367
#     4  10  16  35  62  74 110 162 185 231 298 340
#     4  10  20  36  57  82 114 155 188 234 299 342
#     4  11  22  37  56  88 122 147 191 251 293 330
#     4  11  18  36  63  82 113 158 188 238 297 338
#     4   9  18  34  56  86 107 147 204 229 276 363
#     4  10  20  34  57  91 111 143 210 239 263 362
#
# _framework density 22.702714
#
# number of rings (size 3 to 8) (size 9 to 14) (size 15 to 20)
#    0.000    2.500    7.500    0.000    0.000    3.000 
#    0.000    4.375    2.750    0.000    0.000    0.000 
#    0.000    0.000    0.000    0.000    0.000    0.000 
#
# Total GULP energy -89166.768418 kJ/mol
# GULP energy per Si atom -5572.923026 kJ/mol
# Density = 2.265104 g / cm^3
# Si number density = 22.702714 Si / 1000 Ang^3
#
#
#
# Elastic Constant Matrix: (Units=GPa)
#
#
# Indices 1 2 3 4 5 6 
#
# 1 26.5402 16.3327 4.2599 -7.0268 1.2500 -0.1967
# 2 16.3327 172.2600 56.4362 -45.8622 -23.6414 -0.8183
# 3 4.2599 56.4362 115.0804 -34.0850 -20.7699 -6.0955
# 4 -7.0268 -45.8622 -34.0850 52.6152 9.7154 -6.4011
# 5 1.2500 -23.6414 -20.7699 9.7154 29.3697 -2.8733
# 6 -0.1967 -0.8183 -6.0955 -6.4011 -2.8733 26.5645
#
#
#
# Elastic Compliance Matrix: (Units=1/GPa)
#
#
# Indices 1 2 3 4 5 6 
#
# 1 0.041205 -0.003893 0.000417 0.003494 -0.005699 0.000506
# 2 -0.003893 0.008783 -0.001667 0.005441 0.004418 0.001648
# 3 0.000417 -0.001667 0.012730 0.006349 0.006037 0.005056
# 4 0.003494 0.005441 0.006349 0.029418 -0.000157 0.008722
# 5 -0.005699 0.004418 0.006037 -0.000157 0.042762 0.006067
# 6 0.000506 0.001648 0.005056 0.008722 0.006067 0.041617
#
#
# Mechanical properties :
#
#
# Convention : Reuss Voigt Hill
#
# Bulk Modulus (GPa) = 19.07262 51.99313 35.53288
# Shear Modulus (GPa) = 24.47647 37.50001 30.98824
#
# Velocity S-wave (km/s) = 3.28705 4.06863 3.69854
# Velocity P-wave (km/s) = 4.77761 6.70992 5.82446
#
# Compressibility (1/GPa) = 0.05243119
#
# Stress axis : x y z
#
# Youngs Moduli (GPa) = 24.26915 113.85392 78.55723
#
# Poissons Ratio (x) = 0.44323 -0.03275
# Poissons Ratio (y) = 0.09448 0.13096
# Poissons Ratio (z) = -0.01012 0.18980
#
# Static dielectric constant tensor:
#      x y z
#    x 1.909310 -0.007440 0.048620 
#    y -0.007440 1.934490 -0.042930 
#    z 0.048620 -0.042930 1.892290 
# 
# From -- ./inp_files/342045.got.cif
#   From: 2010.05.17/outbox.cif.g08.bks.cpg/sg2_172_cif.got.tgz:342045.got - 2010.06.03 11:33:40.
