data_PCOD9107830
_publ_section_title
;
Structure prediction by ZEFSAII (Michael W. Deem and Ramdas Pophale) SiO2 
 PCOD9107830
Probable space group: P -1
;
_chemical_formula_sum "Si O2"
_cell_formula_units_Z 16
_cell_length_a 10.561430
_cell_length_b 11.739755
_cell_length_c 7.486515
_cell_angle_alpha 77.289257
_cell_angle_beta 48.465484
_cell_angle_gamma 60.504196
_cell_volume 596.659474
_symmetry_space_group_name_H-M "P -1"
_symmetry_group_IT_number 2
_symmetry_cell_setting 'triclinic'
loop_
_space_group_symop_operation_xyz
x,y,z
-x,-y,-z
loop_
_atom_site_type_symbol
_atom_site_label
_atom_site_fract_x
_atom_site_fract_y
_atom_site_fract_z
Si Si1 0.067475 0.237696 0.176009
Si Si2 0.772148 0.046593 0.042340
Si Si3 0.568758 0.822053 0.941873
Si Si4 0.401102 0.886658 0.449693
Si Si5 0.220493 0.281838 0.683130
Si Si6 0.329232 0.644152 0.602764
Si Si7 0.228933 0.455036 0.319970
Si Si8 0.863089 0.281320 0.854692
O O1 0.842764 0.321963 0.387239
O O2 0.219811 0.195873 0.206152
O O3 0.118356 0.323849 0.956906
O O4 0.101226 0.100532 0.100036
O O5 0.760749 0.044278 0.270387
O O6 0.558957 0.105970 0.135174
O O7 0.842273 0.151631 0.872630
O O8 0.435035 0.908907 0.203703
O O9 0.633934 0.665439 0.899555
O O10 0.596019 0.852686 0.383514
O O11 0.408155 0.745938 0.462983
O O12 0.274313 0.382836 0.495952
O O13 0.080354 0.254792 0.694970
O O14 0.500000 0.500000 0.500000
O O15 0.232370 0.676466 0.876396
O O16 0.241389 0.586396 0.212454
O O17 0.000000 0.500000 0.500000
#
# Coordination Sequence:
#
# PCOD9107830 Si02
#       8
#     2   2   2   2   2   2   2   2
#     4  10  24  44  70  99 142 189 230 287 348 424
#     4  11  23  46  69 101 145 184 232 285 351 417
#     4  11  23  43  68 106 139 183 239 288 346 416
#     4  10  22  41  67 101 134 180 237 286 347 410
#     4   9  19  40  64  97 131 179 229 278 346 402
#     4  10  21  41  66 104 138 181 234 291 350 409
#     4  10  20  40  66 101 136 177 236 286 347 404
#     4   9  21  38  69  99 136 184 227 289 354 412
#
# _framework density 26.815967000000001
#
# number of rings (size 3 to 8) (size 9 to 14) (size 15 to 20)
#    0.000    2.000    1.250    1.125    0.000    9.000 
#    9.000    8.125    0.000    0.000    0.000    0.000 
#    0.000    0.000    0.000    0.000    0.000    0.000 
#
# Total GULP energy -89434.581305 kJ/mol
# GULP energy per Si atom -5589.661332 kJ/mol
# Density = 2.675493 g / cm^3
# Si number density = 26.815967 Si / 1000 Ang^3
#
#
#
# Elastic Constant Matrix: (Units=GPa)
#
#
# Indices 1 2 3 4 5 6 
#
# 1 120.3814 58.5114 46.3289 -1.4782 2.5883 -15.4702
# 2 58.5114 170.4123 48.8381 -3.8931 0.0456 -10.5692
# 3 46.3289 48.8381 78.1030 -5.3115 25.0445 2.6492
# 4 -1.4782 -3.8931 -5.3115 35.2691 -2.7427 -4.5029
# 5 2.5883 0.0456 25.0445 -2.7427 42.0862 -3.1392
# 6 -15.4702 -10.5692 2.6492 -4.5029 -3.1392 39.0494
#
#
#
# Elastic Compliance Matrix: (Units=1/GPa)
#
#
# Indices 1 2 3 4 5 6 
#
# 1 0.012938 -0.001737 -0.008217 0.000180 0.004525 0.005597
# 2 -0.001737 0.008084 -0.005134 0.000586 0.003355 0.002185
# 3 -0.008217 -0.005134 0.026203 0.000855 -0.015591 -0.007577
# 4 0.000180 0.000586 0.000855 0.029151 0.001653 0.003666
# 5 0.004525 0.003355 -0.015591 0.001653 0.033359 0.006631
# 6 0.005597 0.002185 -0.007577 0.003666 0.006631 0.029887
#
#
# Mechanical properties :
#
#
# Convention : Reuss Voigt Hill
#
# Bulk Modulus (GPa) = 58.65863 75.13929 66.89896
# Shear Modulus (GPa) = 28.49304 37.62883 33.06094
#
# Velocity S-wave (km/s) = 3.26320 3.75003 3.51505
# Velocity P-wave (km/s) = 6.00999 6.84335 6.44016
#
# Compressibility (1/GPa) = 0.01704779
#
# Stress axis : x y z
#
# Youngs Moduli (GPa) = 77.29320 123.69855 38.16405
#
# Poissons Ratio (x) = 0.21491 0.31358
# Poissons Ratio (y) = 0.13429 0.19595
# Poissons Ratio (z) = 0.63508 0.63512
#
# Static dielectric constant tensor:
#      x y z
#    x 2.164020 0.035520 -0.017740 
#    y 0.035520 2.087640 -0.016550 
#    z -0.017740 -0.016550 2.217180 
# 
# From -- ./inp_files/262355.got.cif
#   From: 2010.05.17/outbox.cif.g08.bks.cpg/sg2_132_cif.got.tgz:262355.got - 2010.06.03 11:33:40.
