data_PCOD9107101
_publ_section_title
;
Structure prediction by ZEFSAII (Michael W. Deem and Ramdas Pophale) SiO2 
 PCOD9107101
Probable space group: P -1
;
_chemical_formula_sum "Si O2"
_cell_formula_units_Z 16
_cell_length_a 14.072415
_cell_length_b 10.671037
_cell_length_c 12.980249
_cell_angle_alpha 47.983921
_cell_angle_beta 117.635536
_cell_angle_gamma 149.364838
_cell_volume 704.871628
_symmetry_space_group_name_H-M "P -1"
_symmetry_group_IT_number 2
_symmetry_cell_setting 'triclinic'
loop_
_space_group_symop_operation_xyz
x,y,z
-x,-y,-z
loop_
_atom_site_type_symbol
_atom_site_label
_atom_site_fract_x
_atom_site_fract_y
_atom_site_fract_z
Si Si1 0.853989 0.670752 0.206280
Si Si2 0.108440 0.665202 0.115729
Si Si3 0.290901 0.787775 0.923363
Si Si4 0.369596 0.309125 0.857763
Si Si5 0.561366 0.486172 0.435034
Si Si6 0.764251 0.655921 0.934266
Si Si7 0.352410 0.718199 0.307848
Si Si8 0.382614 0.927814 0.574839
O O1 0.682877 0.564808 0.223324
O O2 0.825223 0.433979 0.335312
O O3 0.825139 0.675526 0.068614
O O4 0.046666 0.982682 0.191620
O O5 0.181532 0.622761 0.254925
O O6 0.877498 0.362834 0.153752
O O7 0.217534 0.752206 0.016878
O O8 0.197434 0.968925 0.007844
O O9 0.506412 0.121723 0.808983
O O10 0.268956 0.556232 0.032150
O O11 0.372928 0.302110 0.738444
O O12 0.568179 0.506974 0.901615
O O13 0.500000 0.500000 0.500000
O O14 0.707235 0.533536 0.527170
O O15 0.400022 0.149942 0.484665
O O16 0.506249 0.001871 0.308119
O O17 0.500000 0.000000 0.500000
#
# Coordination Sequence:
#
# PCOD9107101 Si02
#       8
#     2   2   2   2   2   2   2   2
#     4  11  21  41  57  91 126 157 202 258 300 365
#     4  11  23  36  65  93 124 158 203 255 309 365
#     4  11  21  38  60  94 123 157 204 255 308 361
#     4  12  22  39  64  91 122 164 204 252 310 362
#     4  10  23  39  65  92 120 162 211 249 301 370
#     4  11  23  35  62  92 122 158 204 257 304 363
#     4  10  21  41  64  86 124 165 201 251 308 363
#     4  10  20  40  63  84 124 167 202 248 303 361
#
# _framework density 22.699169000000001
#
# number of rings (size 3 to 8) (size 9 to 14) (size 15 to 20)
#    0.750    0.500    5.000    1.500    1.750    0.000 
#    0.000    3.125    0.000    3.000    0.000    0.000 
#    0.000    0.000    0.000    0.000    0.000    0.000 
#
# Total GULP energy -89157.551702 kJ/mol
# GULP energy per Si atom -5572.346981 kJ/mol
# Density = 2.264750 g / cm^3
# Si number density = 22.699169 Si / 1000 Ang^3
#
#
#
# Elastic Constant Matrix: (Units=GPa)
#
#
# Indices 1 2 3 4 5 6 
#
# 1 79.2735 15.3913 0.8582 -1.6779 -0.5396 -13.9559
# 2 15.3913 60.4608 22.0447 8.2102 14.6911 18.5170
# 3 0.8582 22.0447 62.6611 0.4446 13.7875 4.5102
# 4 -1.6779 8.2102 0.4446 16.3548 -5.5886 8.4001
# 5 -0.5396 14.6911 13.7875 -5.5886 27.3246 5.9384
# 6 -13.9559 18.5170 4.5102 8.4001 5.9384 40.5022
#
#
#
# Elastic Compliance Matrix: (Units=1/GPa)
#
#
# Indices 1 2 3 4 5 6 
#
# 1 0.015589 -0.007846 0.001394 0.002292 0.002563 0.007952
# 2 -0.007846 0.029286 -0.006397 -0.014571 -0.013394 -0.010395
# 3 0.001394 -0.006397 0.019589 -0.000872 -0.007128 0.002450
# 4 0.002292 -0.014571 -0.000872 0.086158 0.029111 -0.014589
# 5 0.002563 -0.013394 -0.007128 0.029111 0.054761 -0.006266
# 6 0.007952 -0.010395 0.002450 -0.014589 -0.006266 0.035854
#
#
# Mechanical properties :
#
#
# Convention : Reuss Voigt Hill
#
# Bulk Modulus (GPa) = 25.79632 30.99823 28.39727
# Shear Modulus (GPa) = 17.86628 27.77640 22.82134
#
# Velocity S-wave (km/s) = 2.80856 3.50190 3.17422
# Velocity P-wave (km/s) = 4.68043 5.48059 5.09624
#
# Compressibility (1/GPa) = 0.03876523
#
# Stress axis : x y z
#
# Youngs Moduli (GPa) = 64.14868 34.14584 51.05030
#
# Poissons Ratio (x) = 0.26792 -0.07117
# Poissons Ratio (y) = 0.50333 0.32657
# Poissons Ratio (z) = -0.08944 0.21843
#
# Static dielectric constant tensor:
#      x y z
#    x 1.919790 -0.039380 -0.045250 
#    y -0.039380 1.848320 -0.052430 
#    z -0.045250 -0.052430 1.932840 
# 
# From -- ./inp_files/532347.got.cif
#   From: 2010.05.17/outbox.cif.g08.bks.cpg/sg2_267_cif.got.tgz:532347.got - 2010.06.03 11:33:40.
