data_PCOD9107996
_publ_section_title
;
Structure prediction by ZEFSAII (Michael W. Deem and Ramdas Pophale) SiO2 
 PCOD9107996
Probable space group: P -1
;
_chemical_formula_sum "Si O2"
_cell_formula_units_Z 11
_cell_length_a 6.871197
_cell_length_b 9.824064
_cell_length_c 11.533195
_cell_angle_alpha 139.271131
_cell_angle_beta 126.555456
_cell_angle_gamma 66.357849
_cell_volume 406.159534
_symmetry_space_group_name_H-M "P -1"
_symmetry_group_IT_number 2
_symmetry_cell_setting 'triclinic'
loop_
_space_group_symop_operation_xyz
x,y,z
-x,-y,-z
loop_
_atom_site_type_symbol
_atom_site_label
_atom_site_fract_x
_atom_site_fract_y
_atom_site_fract_z
Si Si1 0.792516 0.552943 0.146066
Si Si2 0.204551 0.899795 0.080392
Si Si3 0.364686 0.315386 0.040922
Si Si4 0.825575 0.331440 0.467745
Si Si5 0.500000 0.000000 0.000000
Si Si6 0.417997 0.315655 0.511017
O O1 0.915471 0.664610 0.373595
O O2 0.500000 0.500000 0.000000
O O3 0.875036 0.321150 0.031658
O O4 0.837027 0.684498 0.128684
O O5 0.318701 0.073353 0.322315
O O6 0.424085 0.841777 0.028216
O O7 0.000000 0.000000 0.000000
O O8 0.351950 0.212458 0.095361
O O9 0.465953 0.553355 0.255186
O O10 0.749061 0.131590 0.233959
O O11 0.635374 0.322781 0.500185
O O12 0.788397 0.544632 0.522219
#
# Coordination Sequence:
#
# PCOD9107996 Si02
#       6
#     2   2   2   2   1   2
#     4  10  23  42  63  97 136 165 208 268 325 379
#     4  11  21  41  65  91 131 175 211 258 319 388
#     4  10  23  40  63  97 126 165 217 261 322 370
#     4  10  20  40  67  94 129 167 216 269 309 379
#     4  10  20  40  66  94 120 168 220 256 314 374
#     4  10  21  39  66  93 126 168 223 261 308 381
#
# _framework density 27.082955999999999
#
# number of rings (size 3 to 8) (size 9 to 14) (size 15 to 20)
#    0.000    1.818    3.636    0.000    0.000    2.909 
#    3.273    0.000    0.000    0.000    0.000    0.000 
#    0.000    0.000    0.000    0.000    0.000    0.000 
#
# Total GULP energy -61332.476238 kJ/mol
# GULP energy per Si atom -5575.679658 kJ/mol
# Density = 2.702131 g / cm^3
# Si number density = 27.082956 Si / 1000 Ang^3
#
#
#
# Elastic Constant Matrix: (Units=GPa)
#
#
# Indices 1 2 3 4 5 6 
#
# 1 76.3804 -4.4673 -8.6781 -1.0995 -5.1659 -22.4740
# 2 -4.4673 123.3741 37.7532 -19.2384 0.1447 -0.6434
# 3 -8.6781 37.7532 234.5039 -6.0750 -24.6607 2.2075
# 4 -1.0995 -19.2384 -6.0750 56.0938 3.0531 -2.5473
# 5 -5.1659 0.1447 -24.6607 3.0531 30.1677 -3.7644
# 6 -22.4740 -0.6434 2.2075 -2.5473 -3.7644 41.9623
#
#
#
# Elastic Compliance Matrix: (Units=1/GPa)
#
#
# Indices 1 2 3 4 5 6 
#
# 1 0.016229 0.000456 0.000946 0.000739 0.004611 0.009108
# 2 0.000456 0.009069 -0.001522 0.003057 -0.001454 0.000518
# 3 0.000946 -0.001522 0.004991 -0.000172 0.004341 0.000600
# 4 0.000739 0.003057 -0.000172 0.019034 -0.001774 0.001448
# 5 0.004611 -0.001454 0.004341 -0.001774 0.038366 0.005553
# 6 0.009108 0.000518 0.000600 0.001448 0.005553 0.029271
#
#
# Mechanical properties :
#
#
# Convention : Reuss Voigt Hill
#
# Bulk Modulus (GPa) = 33.28097 53.71932 43.50014
# Shear Modulus (GPa) = 39.30328 52.95481 46.12904
#
# Velocity S-wave (km/s) = 3.81362 4.42665 4.13152
# Velocity P-wave (km/s) = 5.63088 6.78271 6.23346
#
# Compressibility (1/GPa) = 0.03004720
#
# Stress axis : x y z
#
# Youngs Moduli (GPa) = 61.61903 110.26942 200.37190
#
# Poissons Ratio (x) = -0.05025 -0.18947
# Poissons Ratio (y) = -0.02808 0.30491
# Poissons Ratio (z) = -0.05827 0.16780
#
# Static dielectric constant tensor:
#      x y z
#    x 1.539940 -0.811590 0.152930 
#    y -0.811590 1.289720 0.030330 
#    z 0.152930 0.030330 2.047660 
# 
# From -- ./inp_files/145043.got.cif
#   From: 2010.05.17/outbox.cif.g08.bks.cpg/sg2_73_cif.got.tgz:145043.got - 2010.06.03 11:33:40.
