data_PCOD9107171
_publ_section_title
;
Structure prediction by ZEFSAII (Michael W. Deem and Ramdas Pophale) SiO2 
 PCOD9107171
Probable space group: P -1
;
_chemical_formula_sum "Si O2"
_cell_formula_units_Z 12
_cell_length_a 11.372861
_cell_length_b 8.119089
_cell_length_c 5.295612
_cell_angle_alpha 107.169833
_cell_angle_beta 84.585078
_cell_angle_gamma 84.861920
_cell_volume 461.548253
_symmetry_space_group_name_H-M "P -1"
_symmetry_group_IT_number 2
_symmetry_cell_setting 'triclinic'
loop_
_space_group_symop_operation_xyz
x,y,z
-x,-y,-z
loop_
_atom_site_type_symbol
_atom_site_label
_atom_site_fract_x
_atom_site_fract_y
_atom_site_fract_z
Si Si1 0.982690 0.709831 0.615795
Si Si2 0.329010 0.560824 0.737441
Si Si3 0.527918 0.768367 0.678341
Si Si4 0.709722 0.138203 0.471909
Si Si5 0.915361 0.345668 0.932988
Si Si6 0.254840 0.063881 0.123645
O O1 0.046057 0.765786 0.878596
O O2 0.000000 0.500000 0.500000
O O3 0.845827 0.783633 0.704526
O O4 0.045317 0.761518 0.372678
O O5 0.441739 0.664474 0.825666
O O6 0.385168 0.371356 0.561485
O O7 0.277984 0.667569 0.544966
O O8 0.220548 0.570670 0.958296
O O9 0.431792 0.863011 0.547777
O O10 0.385320 0.124246 0.138835
O O11 0.744049 0.080417 0.720456
O O12 0.765412 0.006217 0.183415
O O13 0.000000 0.500000 0.000000
#
# Coordination Sequence:
#
# PCOD9107171 Si02
#       6
#     2   2   2   2   2   2
#     4  10  22  38  64  90 119 163 216 258 301 375
#     4   9  21  42  67  97 129 168 213 265 316 373
#     4   9  20  42  68  95 131 168 213 260 315 386
#     4  10  24  41  64  99 133 163 209 262 326 377
#     4  10  20  40  63  90 121 161 213 261 304 368
#     4  12  22  43  67  96 127 172 209 260 325 379
#
# _framework density 25.999448000000001
#
# number of rings (size 3 to 8) (size 9 to 14) (size 15 to 20)
#    1.000    1.000    0.000    4.000    0.000    2.667 
#    0.000   11.667    0.000    0.000    0.000    0.000 
#    0.000    0.000    0.000    0.000    0.000    0.000 
#
# Total GULP energy -67099.945656 kJ/mol
# GULP energy per Si atom -5591.662138 kJ/mol
# Density = 2.594027 g / cm^3
# Si number density = 25.999448 Si / 1000 Ang^3
#
#
#
# Elastic Constant Matrix: (Units=GPa)
#
#
# Indices 1 2 3 4 5 6 
#
# 1 118.4794 7.9517 42.6356 4.0979 -45.6616 1.1944
# 2 7.9517 61.8450 37.2858 26.4870 -14.5012 -13.8925
# 3 42.6356 37.2858 191.3556 -2.6931 -17.8751 -23.2245
# 4 4.0979 26.4870 -2.6931 37.3779 -18.7368 -12.6390
# 5 -45.6616 -14.5012 -17.8751 -18.7368 46.4764 6.5547
# 6 1.1944 -13.8925 -23.2245 -12.6390 6.5547 42.5094
#
#
#
# Elastic Compliance Matrix: (Units=1/GPa)
#
#
# Indices 1 2 3 4 5 6 
#
# 1 0.015727 0.000337 -0.002165 0.005762 0.017397 -0.002484
# 2 0.000337 0.028719 -0.006176 -0.021833 -0.001857 -0.000203
# 3 -0.002165 -0.006176 0.007627 0.007161 0.001180 0.004156
# 4 0.005762 -0.021833 0.007161 0.057141 0.023226 0.010023
# 5 0.017397 -0.001857 0.001180 0.023226 0.047979 -0.000944
# 6 -0.002484 -0.000203 0.004156 0.010023 -0.000944 0.028924
#
#
# Mechanical properties :
#
#
# Convention : Reuss Voigt Hill
#
# Bulk Modulus (GPa) = 27.72831 60.82513 44.27672
# Shear Modulus (GPa) = 23.34819 44.19322 33.77070
#
# Velocity S-wave (km/s) = 2.99996 4.12731 3.60794
# Velocity P-wave (km/s) = 4.76317 6.79400 5.86712
#
# Compressibility (1/GPa) = 0.03606422
#
# Stress axis : x y z
#
# Youngs Moduli (GPa) = 63.58325 34.81972 131.11000
#
# Poissons Ratio (x) = -0.01172 0.28386
# Poissons Ratio (y) = -0.02140 0.80979
# Poissons Ratio (z) = 0.13766 0.21506
#
# Static dielectric constant tensor:
#      x y z
#    x 2.384690 0.500780 -0.298810 
#    y 0.500780 2.976530 -0.660780 
#    z -0.298810 -0.660780 2.474290 
# 
# From -- ./inp_files/75574.got.cif
#   From: 2010.05.17/outbox.cif.g08.bks.cpg/sg2_38_cif.got.tgz:75574.got - 2010.06.03 11:33:40.
