data_PCOD9107929
_publ_section_title
;
Structure prediction by ZEFSAII (Michael W. Deem and Ramdas Pophale) SiO2 
 PCOD9107929
Probable space group: P -1
;
_chemical_formula_sum "Si O2"
_cell_formula_units_Z 12
_cell_length_a 5.510836
_cell_length_b 16.608575
_cell_length_c 10.252587
_cell_angle_alpha 139.646279
_cell_angle_beta 101.160563
_cell_angle_gamma 103.702550
_cell_volume 474.608608
_symmetry_space_group_name_H-M "P -1"
_symmetry_group_IT_number 2
_symmetry_cell_setting 'triclinic'
loop_
_space_group_symop_operation_xyz
x,y,z
-x,-y,-z
loop_
_atom_site_type_symbol
_atom_site_label
_atom_site_fract_x
_atom_site_fract_y
_atom_site_fract_z
Si Si1 0.686591 0.928388 0.800296
Si Si2 0.219019 0.152575 0.795392
Si Si3 0.427929 0.759724 0.813860
Si Si4 0.577346 0.399306 0.718458
Si Si5 0.049802 0.258215 0.121720
Si Si6 0.233408 0.535253 0.883796
O O1 0.435474 0.843392 0.786559
O O2 0.601718 0.786125 0.525613
O O3 0.780857 0.078107 0.916188
O O4 0.000000 0.000000 0.000000
O O5 0.524239 0.287130 0.916891
O O6 0.073414 0.236355 0.942740
O O7 0.328461 0.119713 0.899651
O O8 0.000000 0.000000 0.500000
O O9 0.095621 0.664096 0.732307
O O10 0.612835 0.684510 0.717151
O O11 0.715531 0.469956 0.962907
O O12 0.343075 0.439732 0.711186
O O13 0.879029 0.468096 0.744425
#
# Coordination Sequence:
#
# PCOD9107929 Si02
#       6
#     2   2   2   2   2   2
#     4  10  20  40  66  91 122 156 208 252 294 359
#     4  10  22  39  62  90 120 160 201 253 298 355
#     4   9  21  35  56  91 117 150 197 241 309 340
#     4  10  23  42  62  88 119 164 200 250 300 359
#     4   9  20  35  57  89 117 149 193 251 295 345
#     4  10  23  42  61  88 123 159 204 243 307 359
#
# _framework density 25.283991
#
# number of rings (size 3 to 8) (size 9 to 14) (size 15 to 20)
#    1.000    1.333    0.000    1.500    2.333    6.000 
#    6.000    1.667    0.000    0.000    0.000    0.000 
#    0.000    0.000    0.000    0.000    0.000    0.000 
#
# Total GULP energy -66890.859924 kJ/mol
# GULP energy per Si atom -5574.238327 kJ/mol
# Density = 2.522644 g / cm^3
# Si number density = 25.283991 Si / 1000 Ang^3
#
#
#
# Elastic Constant Matrix: (Units=GPa)
#
#
# Indices 1 2 3 4 5 6 
#
# 1 204.9430 27.8691 64.4985 1.5877 -26.8583 24.8704
# 2 27.8691 52.6351 14.3617 7.0011 -4.5297 19.4037
# 3 64.4985 14.3617 87.4218 16.2104 -6.7340 -2.1765
# 4 1.5877 7.0011 16.2104 36.1813 2.0741 -0.9921
# 5 -26.8583 -4.5297 -6.7340 2.0741 32.1473 -1.6899
# 6 24.8704 19.4037 -2.1765 -0.9921 -1.6899 41.5029
#
#
#
# Elastic Compliance Matrix: (Units=1/GPa)
#
#
# Indices 1 2 3 4 5 6 
#
# 1 0.008029 -0.000835 -0.005892 0.002040 0.004989 -0.004478
# 2 -0.000835 0.025135 -0.002922 -0.003939 0.001886 -0.011422
# 3 -0.005892 -0.002922 0.017607 -0.006859 -0.000908 0.005619
# 4 0.002040 -0.003939 -0.006859 0.031540 -0.002274 0.000921
# 5 0.004989 0.001886 -0.000908 -0.002274 0.035364 -0.002533
# 6 -0.004478 -0.011422 0.005619 0.000921 -0.002533 0.032332
#
#
# Mechanical properties :
#
#
# Convention : Reuss Voigt Hill
#
# Bulk Modulus (GPa) = 31.77237 62.05096 46.91166
# Shear Modulus (GPa) = 27.80964 37.85102 32.83033
#
# Velocity S-wave (km/s) = 3.32006 3.87335 3.60733
# Velocity P-wave (km/s) = 5.22403 6.67822 5.99538
#
# Compressibility (1/GPa) = 0.03147388
#
# Stress axis : x y z
#
# Youngs Moduli (GPa) = 124.55625 39.78561 56.79441
#
# Poissons Ratio (x) = 0.03320 0.33461
# Poissons Ratio (y) = 0.10395 0.16596
# Poissons Ratio (z) = 0.73385 0.11626
#
# Static dielectric constant tensor:
#      x y z
#    x 2.142230 -0.002060 -0.131600 
#    y -0.002060 2.078180 0.006420 
#    z -0.131600 0.006420 2.001910 
# 
# From -- ./inp_files/370189.got.cif
#   From: 2010.05.17/outbox.cif.g08.bks.cpg/sg2_186_cif.got.tgz:370189.got - 2010.06.03 11:33:40.
