data_PCOD9107127
_publ_section_title
;
Structure prediction by ZEFSAII (Michael W. Deem and Ramdas Pophale) SiO2 
 PCOD9107127
Probable space group: P -1
;
_chemical_formula_sum "Si O2"
_cell_formula_units_Z 14
_cell_length_a 9.240849
_cell_length_b 12.843102
_cell_length_c 12.410822
_cell_angle_alpha 45.435689
_cell_angle_beta 52.713346
_cell_angle_gamma 87.201938
_cell_volume 624.436957
_symmetry_space_group_name_H-M "P -1"
_symmetry_group_IT_number 2
_symmetry_cell_setting 'triclinic'
loop_
_space_group_symop_operation_xyz
x,y,z
-x,-y,-z
loop_
_atom_site_type_symbol
_atom_site_label
_atom_site_fract_x
_atom_site_fract_y
_atom_site_fract_z
Si Si1 0.376972 0.241428 0.188401
Si Si2 0.725099 0.024684 0.759143
Si Si3 0.709641 0.990374 0.038470
Si Si4 0.097468 0.455322 0.332402
Si Si5 0.567589 0.614200 0.724778
Si Si6 0.578114 0.417119 0.412578
Si Si7 0.136487 0.376595 0.678076
O O1 0.314066 0.219155 0.358577
O O2 0.249713 0.071720 0.281705
O O3 0.665756 0.355073 0.971789
O O4 0.374224 0.405712 0.023989
O O5 0.455794 0.951536 0.932086
O O6 0.909120 0.257830 0.493924
O O7 0.227194 0.399295 0.387674
O O8 0.557185 0.783341 0.315897
O O9 0.757962 0.979481 0.898553
O O10 0.945650 0.155798 0.882552
O O11 0.946202 0.508841 0.408037
O O12 0.441804 0.625152 0.674338
O O13 0.407277 0.469257 0.460636
O O14 0.833215 0.585903 0.232820
#
# Coordination Sequence:
#
# PCOD9107127 Si02
#       7
#     2   2   2   2   2   2   2
#     4   9  21  42  64  86 118 155 209 248 282 353
#     4  11  22  35  66  90 118 157 204 242 297 354
#     4  11  23  38  57  96 123 155 196 246 300 364
#     4  10  20  40  63  87 117 160 202 243 289 363
#     4   9  21  43  64  85 121 157 205 243 295 349
#     4  11  24  39  59  93 124 156 193 250 304 355
#     4  11  23  39  61  88 129 153 195 244 308 352
#
# _framework density 22.420196000000001
#
# number of rings (size 3 to 8) (size 9 to 14) (size 15 to 20)
#    0.857    0.857    2.857    1.286    4.000    2.857 
#    0.000    1.429    0.000    0.000    0.000    0.000 
#    0.000    0.000    0.000    0.000    0.000    0.000 
#
# Total GULP energy -78003.573646 kJ/mol
# GULP energy per Si atom -5571.683832 kJ/mol
# Density = 2.236917 g / cm^3
# Si number density = 22.420196 Si / 1000 Ang^3
#
#
#
# Elastic Constant Matrix: (Units=GPa)
#
#
# Indices 1 2 3 4 5 6 
#
# 1 123.1997 60.1314 27.3587 -4.2112 -8.2937 34.7292
# 2 60.1314 141.4835 26.2462 -24.3311 10.7757 32.8249
# 3 27.3587 26.2462 53.2276 -16.5200 -6.3120 13.5149
# 4 -4.2112 -24.3311 -16.5200 35.3326 6.8294 -9.3362
# 5 -8.2937 10.7757 -6.3120 6.8294 29.3815 -2.4206
# 6 34.7292 32.8249 13.5149 -9.3362 -2.4206 42.2512
#
#
#
# Elastic Compliance Matrix: (Units=1/GPa)
#
#
# Indices 1 2 3 4 5 6 
#
# 1 0.013643 -0.004956 -0.004152 -0.006741 0.005751 -0.007196
# 2 -0.004956 0.012253 -0.001036 0.007951 -0.008279 -0.003832
# 3 -0.004152 -0.001036 0.025093 0.009688 0.002220 -0.001541
# 4 -0.006741 0.007951 0.009688 0.041031 -0.011892 0.004650
# 5 0.005751 -0.008279 0.002220 -0.011892 0.042000 0.000774
# 6 -0.007196 -0.003832 -0.001541 0.004650 0.000774 0.034125
#
#
# Mechanical properties :
#
#
# Convention : Reuss Voigt Hill
#
# Bulk Modulus (GPa) = 32.57056 60.59816 46.58436
# Shear Modulus (GPa) = 25.16777 35.00469 30.08623
#
# Velocity S-wave (km/s) = 3.35408 3.95562 3.66720
# Velocity P-wave (km/s) = 5.43679 6.92457 6.22528
#
# Compressibility (1/GPa) = 0.03070257
#
# Stress axis : x y z
#
# Youngs Moduli (GPa) = 73.29774 81.61026 39.85099
#
# Poissons Ratio (x) = 0.40446 0.16545
# Poissons Ratio (y) = 0.36326 0.04128
# Poissons Ratio (z) = 0.30432 0.08454
#
# Static dielectric constant tensor:
#      x y z
#    x 1.868800 0.038030 -0.029530 
#    y 0.038030 1.957490 0.053030 
#    z -0.029530 0.053030 1.867170 
# 
# From -- ./inp_files/267536.got.cif
#   From: 2010.05.17/outbox.cif.g08.bks.cpg/sg2_134_cif.got.tgz:267536.got - 2010.06.03 11:33:40.
