data_PCOD9107629
_publ_section_title
;
Structure prediction by ZEFSAII (Michael W. Deem and Ramdas Pophale) SiO2 
 PCOD9107629
Probable space group: P -1
;
_chemical_formula_sum "Si O2"
_cell_formula_units_Z 16
_cell_length_a 14.807462
_cell_length_b 9.093085
_cell_length_c 14.645396
_cell_angle_alpha 76.894424
_cell_angle_beta 29.345860
_cell_angle_gamma 95.243672
_cell_volume 749.038784
_symmetry_space_group_name_H-M "P -1"
_symmetry_group_IT_number 2
_symmetry_cell_setting 'triclinic'
loop_
_space_group_symop_operation_xyz
x,y,z
-x,-y,-z
loop_
_atom_site_type_symbol
_atom_site_label
_atom_site_fract_x
_atom_site_fract_y
_atom_site_fract_z
Si Si1 0.888630 0.728128 0.393068
Si Si2 0.330838 0.229407 0.246613
Si Si3 0.773466 0.126613 0.227070
Si Si4 0.970610 0.783622 0.650971
Si Si5 0.870097 0.424455 0.721025
Si Si6 0.824409 0.569112 0.276991
Si Si7 0.373211 0.240590 0.680492
Si Si8 0.077640 0.148728 0.114860
O O1 0.713712 0.689756 0.634748
O O2 0.818988 0.592005 0.386646
O O3 0.090074 0.726581 0.260248
O O4 0.977936 0.931327 0.247069
O O5 0.204867 0.246812 0.269255
O O6 0.598992 0.331226 0.975804
O O7 0.196029 0.003021 0.411772
O O8 0.901336 0.155242 0.205559
O O9 0.500000 0.000000 0.500000
O O10 0.776072 0.976905 0.183864
O O11 0.922211 0.317343 0.008254
O O12 0.998627 0.618899 0.638159
O O13 0.880550 0.765795 0.834496
O O14 0.000000 0.500000 0.500000
O O15 0.649299 0.356809 0.421755
O O16 0.710275 0.666662 0.324239
O O17 0.308150 0.255634 0.837604
#
# Coordination Sequence:
#
# PCOD9107629 Si02
#       8
#     2   2   2   2   2   2   2   2
#     4  11  22  43  67  97 134 175 220 273 330 395
#     4  10  24  46  67  94 134 172 218 278 332 395
#     4  11  22  40  65  93 137 169 210 275 325 385
#     4  10  23  45  67  98 129 173 223 272 333 390
#     4  12  26  43  67  99 134 174 222 274 334 392
#     4  10  21  38  63  95 118 169 220 252 326 389
#     4  10  20  40  65  89 125 169 214 265 321 386
#     4  10  21  43  68  93 130 175 220 266 333 389
#
# _framework density 21.360709
#
# number of rings (size 3 to 8) (size 9 to 14) (size 15 to 20)
#    0.000    1.500    3.750    1.125    1.750    4.000 
#    2.250    0.000    0.000    0.000    0.000    0.000 
#    0.000    0.000    0.000    0.000    0.000    0.000 
#
# Total GULP energy -89255.891693 kJ/mol
# GULP energy per Si atom -5578.493231 kJ/mol
# Density = 2.131209 g / cm^3
# Si number density = 21.360709 Si / 1000 Ang^3
#
#
#
# Elastic Constant Matrix: (Units=GPa)
#
#
# Indices 1 2 3 4 5 6 
#
# 1 90.5170 14.8888 52.4262 13.6857 24.7828 16.2292
# 2 14.8888 50.1064 17.3913 10.3665 2.0336 -1.3001
# 3 52.4262 17.3913 141.9577 22.1532 -10.6393 1.3120
# 4 13.6857 10.3665 22.1532 26.8616 6.6545 1.0434
# 5 24.7828 2.0336 -10.6393 6.6545 25.5763 5.5832
# 6 16.2292 -1.3001 1.3120 1.0434 5.5832 23.9349
#
#
#
# Elastic Compliance Matrix: (Units=1/GPa)
#
#
# Indices 1 2 3 4 5 6 
#
# 1 0.030738 -0.004517 -0.014348 0.006939 -0.034456 -0.012566
# 2 -0.004517 0.022740 0.000383 -0.007920 0.003982 0.003693
# 3 -0.014348 0.000383 0.015753 -0.011572 0.022533 0.004134
# 4 0.006939 -0.007920 -0.011572 0.052352 -0.024285 -0.001118
# 5 -0.034456 0.003982 0.022533 -0.024285 0.087192 0.003064
# 6 -0.012566 0.003693 0.004134 -0.001118 0.003064 0.049609
#
#
# Mechanical properties :
#
#
# Convention : Reuss Voigt Hill
#
# Bulk Modulus (GPa) = 30.99196 50.22153 40.60674
# Shear Modulus (GPa) = 16.33434 28.46622 22.40028
#
# Velocity S-wave (km/s) = 2.76830 3.65450 3.24183
# Velocity P-wave (km/s) = 4.97578 6.43190 5.75012
#
# Compressibility (1/GPa) = 0.03226643
#
# Stress axis : x y z
#
# Youngs Moduli (GPa) = 32.53261 43.97591 63.48136
#
# Poissons Ratio (x) = 0.19864 0.91081
# Poissons Ratio (y) = 0.14695 -0.02429
# Poissons Ratio (z) = 0.46677 -0.01683
#
# Static dielectric constant tensor:
#      x y z
#    x 1.781610 0.007200 0.009630 
#    y 0.007200 1.808720 0.011800 
#    z 0.009630 0.011800 1.813650 
# 
# From -- ./inp_files/529533.got.cif
#   From: 2010.05.17/outbox.cif.g08.bks.cpg/sg2_265_cif.got.tgz:529533.got - 2010.06.03 11:33:40.
