data_PCOD9107503
_publ_section_title
;
Structure prediction by ZEFSAII (Michael W. Deem and Ramdas Pophale) SiO2 
 PCOD9107503
Probable space group: P -1
;
_chemical_formula_sum "Si O2"
_cell_formula_units_Z 16
_cell_length_a 19.880442
_cell_length_b 12.094813
_cell_length_c 14.721173
_cell_angle_alpha 27.262412
_cell_angle_beta 28.995259
_cell_angle_gamma 47.382247
_cell_volume 701.033057
_symmetry_space_group_name_H-M "P -1"
_symmetry_group_IT_number 2
_symmetry_cell_setting 'triclinic'
loop_
_space_group_symop_operation_xyz
x,y,z
-x,-y,-z
loop_
_atom_site_type_symbol
_atom_site_label
_atom_site_fract_x
_atom_site_fract_y
_atom_site_fract_z
Si Si1 0.135249 0.655041 0.650585
Si Si2 0.673168 0.117964 0.173077
Si Si3 0.209151 0.982481 0.608104
Si Si4 0.664318 0.578831 0.506153
Si Si5 0.920469 0.637341 0.555118
Si Si6 0.060542 0.356411 0.269984
Si Si7 0.542406 0.292238 0.046463
Si Si8 0.330006 0.208920 0.097747
O O1 0.198602 0.451015 0.686133
O O2 0.062008 0.765972 0.576959
O O3 0.288323 0.922434 0.307908
O O4 0.000000 0.500000 0.000000
O O5 0.712140 0.874271 0.278291
O O6 0.500000 0.000000 0.500000
O O7 0.666781 0.247454 0.990117
O O8 0.763019 0.360951 0.959517
O O9 0.115523 0.154459 0.614079
O O10 0.370582 0.048413 0.418419
O O11 0.263069 0.097888 0.358545
O O12 0.103824 0.670135 0.975151
O O13 0.611916 0.388966 0.795205
O O14 0.505799 0.446723 0.728281
O O15 0.995598 0.737401 0.491865
O O16 0.000000 0.500000 0.500000
O O17 0.216031 0.317140 0.108255
O O18 0.500000 0.500000 0.000000
#
# Coordination Sequence:
#
# PCOD9107503 Si02
#       8
#     2   2   2   2   2   2   2   2
#     4  12  26  48  71  97 136 181 228 291 343 392
#     4  12  22  42  67 100 138 176 219 271 334 402
#     4  10  20  40  64  95 129 173 223 265 333 402
#     4  11  26  42  70 104 133 176 232 278 332 411
#     4  11  26  38  61  98 142 172 214 273 328 409
#     4  11  24  42  71  93 132 181 223 272 345 402
#     4  11  20  38  67  96 133 176 216 271 333 391
#     4  10  22  48  69  94 129 171 230 288 334 392
#
# _framework density 22.823459
#
# number of rings (size 3 to 8) (size 9 to 14) (size 15 to 20)
#    0.000    1.000    3.750    3.750    3.500    0.500 
#    2.250    0.625    0.000    0.000    0.000    0.000 
#    0.000    0.000    0.000    0.000    0.000    0.000 
#
# Total GULP energy -89246.841876 kJ/mol
# GULP energy per Si atom -5577.927617 kJ/mol
# Density = 2.277151 g / cm^3
# Si number density = 22.823459 Si / 1000 Ang^3
#
#
#
# Elastic Constant Matrix: (Units=GPa)
#
#
# Indices 1 2 3 4 5 6 
#
# 1 103.2114 7.3384 2.6966 5.2276 -8.1387 -4.4543
# 2 7.3384 120.0963 9.5105 -0.3761 10.5420 -11.6994
# 3 2.6966 9.5105 44.2115 -6.1041 1.6120 -2.1728
# 4 5.2276 -0.3761 -6.1041 41.3486 2.3461 0.1399
# 5 -8.1387 10.5420 1.6120 2.3461 24.7877 -8.1985
# 6 -4.4543 -11.6994 -2.1728 0.1399 -8.1985 28.0457
#
#
#
# Elastic Compliance Matrix: (Units=1/GPa)
#
#
# Indices 1 2 3 4 5 6 
#
# 1 0.010343 -0.000738 -0.000751 -0.001707 0.004810 0.002691
# 2 -0.000738 0.009030 -0.001641 0.000101 -0.003123 0.002609
# 3 -0.000751 -0.001641 0.023595 0.003630 -0.001211 0.000652
# 4 -0.001707 0.000101 0.003630 0.025145 -0.003591 -0.001123
# 5 0.004810 -0.003123 -0.001211 -0.003591 0.048118 0.013452
# 6 0.002691 0.002609 0.000652 -0.001123 0.013452 0.041160
#
#
# Mechanical properties :
#
#
# Convention : Reuss Voigt Hill
#
# Bulk Modulus (GPa) = 27.24248 34.06781 30.65514
# Shear Modulus (GPa) = 28.42731 35.36798 31.89764
#
# Velocity S-wave (km/s) = 3.53304 3.94081 3.74248
# Velocity P-wave (km/s) = 5.34838 5.97208 5.66881
#
# Compressibility (1/GPa) = 0.03670738
#
# Stress axis : x y z
#
# Youngs Moduli (GPa) = 96.68483 110.73777 42.38226
#
# Poissons Ratio (x) = 0.08172 0.03183
# Poissons Ratio (y) = 0.07135 0.06957
# Poissons Ratio (z) = 0.07260 0.18177
#
# Static dielectric constant tensor:
#      x y z
#    x 0.829480 0.233960 0.276090 
#    y 0.233960 1.888030 -0.050660 
#    z 0.276090 -0.050660 1.690400 
# 
# From -- ./inp_files/541055.got.cif
#   From: 2010.05.17/outbox.cif.g08.bks.cpg/sg2_271_cif.got.tgz:541055.got - 2010.06.03 11:33:40.
