data_PCOD9107412
_publ_section_title
;
Structure prediction by ZEFSAII (Michael W. Deem and Ramdas Pophale) SiO2 
 PCOD9107412
Probable space group: P -1
;
_chemical_formula_sum "Si O2"
_cell_formula_units_Z 16
_cell_length_a 14.482965
_cell_length_b 11.597211
_cell_length_c 7.335616
_cell_angle_alpha 77.126066
_cell_angle_beta 102.733332
_cell_angle_gamma 148.056411
_cell_volume 634.325540
_symmetry_space_group_name_H-M "P -1"
_symmetry_group_IT_number 2
_symmetry_cell_setting 'triclinic'
loop_
_space_group_symop_operation_xyz
x,y,z
-x,-y,-z
loop_
_atom_site_type_symbol
_atom_site_label
_atom_site_fract_x
_atom_site_fract_y
_atom_site_fract_z
Si Si1 0.145067 0.656662 0.762070
Si Si2 0.784900 0.525584 0.164588
Si Si3 0.290778 0.303339 0.474153
Si Si4 0.753052 0.239882 0.803527
Si Si5 0.110722 0.017733 0.142316
Si Si6 0.682499 0.426650 0.742437
Si Si7 0.410086 0.174684 0.218232
Si Si8 0.303130 0.074121 0.631672
O O1 0.233216 0.630942 0.729907
O O2 0.940203 0.419511 0.729080
O O3 0.186768 0.835207 0.668857
O O4 0.203348 0.714924 0.978708
O O5 0.610885 0.413610 0.181903
O O6 0.964843 0.769607 0.227754
O O7 0.789951 0.536567 0.939833
O O8 0.500000 0.500000 0.500000
O O9 0.258547 0.409842 0.431376
O O10 0.221010 0.117090 0.624306
O O11 0.209005 0.190336 0.282749
O O12 0.682811 0.295703 0.707909
O O13 0.628710 0.000992 0.789651
O O14 0.265790 0.106457 0.083135
O O15 0.000000 0.000000 0.000000
O O16 0.479535 0.240646 0.766255
O O17 0.369155 0.145186 0.425081
#
# Coordination Sequence:
#
# PCOD9107412 Si02
#       8
#     2   2   2   2   2   2   2   2
#     4  10  21  39  63  94 127 170 215 270 326 383
#     4  11  22  40  70  96 127 170 222 271 321 380
#     4   9  20  41  66  88 134 175 207 263 330 384
#     4  10  21  38  65  94 125 164 225 271 318 382
#     4  11  22  42  68  96 133 169 221 274 315 385
#     4  10  20  40  64  90 126 173 215 269 318 381
#     4  11  24  41  63 101 130 168 215 269 334 386
#     4  10  22  40  61  90 132 171 210 265 332 391
#
# _framework density 25.223642000000002
#
# number of rings (size 3 to 8) (size 9 to 14) (size 15 to 20)
#    0.000    1.750    2.500    1.500    0.000    5.000 
#    4.500    0.625    5.500    0.000    0.000    0.000 
#    0.000    0.000    0.000    0.000    0.000    0.000 
#
# Total GULP energy -89398.987445 kJ/mol
# GULP energy per Si atom -5587.436715 kJ/mol
# Density = 2.516623 g / cm^3
# Si number density = 25.223642 Si / 1000 Ang^3
#
#
#
# Elastic Constant Matrix: (Units=GPa)
#
#
# Indices 1 2 3 4 5 6 
#
# 1 127.2461 30.8572 33.2171 -16.4806 42.4910 -13.0162
# 2 30.8572 96.8481 12.3995 13.4439 8.6093 -8.6853
# 3 33.2171 12.3995 71.3479 6.3686 16.6015 -9.6828
# 4 -16.4806 13.4439 6.3686 34.0082 -4.3203 7.8497
# 5 42.4910 8.6093 16.6015 -4.3203 38.2401 -11.8382
# 6 -13.0162 -8.6853 -9.6828 7.8497 -11.8382 48.6109
#
#
#
# Elastic Compliance Matrix: (Units=1/GPa)
#
#
# Indices 1 2 3 4 5 6 
#
# 1 0.015885 -0.004703 -0.004366 0.009105 -0.014423 -0.002439
# 2 -0.004703 0.012929 0.000563 -0.007910 0.002090 0.002949
# 3 -0.004366 0.000563 0.017573 -0.006635 -0.002779 0.002826
# 4 0.009105 -0.007910 -0.006635 0.039493 -0.003310 -0.007480
# 5 -0.014423 0.002090 -0.002779 -0.003310 0.044833 0.007411
# 6 -0.002439 0.002949 0.002826 -0.007480 0.007411 0.024021
#
#
# Mechanical properties :
#
#
# Convention : Reuss Voigt Hill
#
# Bulk Modulus (GPa) = 34.04323 49.82108 41.93215
# Shear Modulus (GPa) = 27.54258 38.76972 33.15615
#
# Velocity S-wave (km/s) = 3.30803 3.92476 3.62952
# Velocity P-wave (km/s) = 5.30251 6.35082 5.85019
#
# Compressibility (1/GPa) = 0.02937442
#
# Stress axis : x y z
#
# Youngs Moduli (GPa) = 62.95256 77.34819 56.90499
#
# Poissons Ratio (x) = 0.36375 0.24845
# Poissons Ratio (y) = 0.29605 -0.03202
# Poissons Ratio (z) = 0.27485 -0.04352
#
# Static dielectric constant tensor:
#      x y z
#    x 2.064200 -0.020770 0.016780 
#    y -0.020770 1.964720 -0.035920 
#    z 0.016780 -0.035920 2.065070 
# 
# From -- ./inp_files/307122.got.cif
#   From: 2010.05.17/outbox.cif.g08.bks.cpg/sg2_154_cif.got.tgz:307122.got - 2010.06.03 11:33:40.
