data_PCOD9107662
_publ_section_title
;
Structure prediction by ZEFSAII (Michael W. Deem and Ramdas Pophale) SiO2 
 PCOD9107662
Probable space group: P -1
;
_chemical_formula_sum "Si O2"
_cell_formula_units_Z 14
_cell_length_a 6.046920
_cell_length_b 15.414106
_cell_length_c 9.215376
_cell_angle_alpha 98.818877
_cell_angle_beta 53.914483
_cell_angle_gamma 70.261995
_cell_volume 579.096018
_symmetry_space_group_name_H-M "P -1"
_symmetry_group_IT_number 2
_symmetry_cell_setting 'triclinic'
loop_
_space_group_symop_operation_xyz
x,y,z
-x,-y,-z
loop_
_atom_site_type_symbol
_atom_site_label
_atom_site_fract_x
_atom_site_fract_y
_atom_site_fract_z
Si Si1 0.515380 0.294155 0.039081
Si Si2 0.732358 0.931690 0.023217
Si Si3 0.399264 0.888548 0.660586
Si Si4 0.771176 0.809543 0.222769
Si Si5 0.360048 0.360292 0.781370
Si Si6 0.469292 0.492897 0.183071
Si Si7 0.973563 0.701385 0.561006
O O1 0.506348 0.384167 0.165369
O O2 0.235729 0.283506 0.213574
O O3 0.446155 0.331078 0.909660
O O4 0.888253 0.199972 0.881108
O O5 0.675976 0.849366 0.105226
O O6 0.675247 0.011097 0.195139
O O7 0.095648 0.878838 0.810190
O O8 0.500000 0.000000 0.000000
O O9 0.481784 0.887259 0.460433
O O10 0.728264 0.791304 0.572094
O O11 0.832384 0.694443 0.197020
O O12 0.286653 0.478205 0.827460
O O13 0.700541 0.297834 0.545793
O O14 0.124702 0.588426 0.397741
O O15 0.500000 0.500000 0.000000
#
# Coordination Sequence:
#
# PCOD9107662 Si02
#       7
#     2   2   2   2   2   2   2
#     4  11  20  39  67  90 134 173 213 254 317 375
#     4  11  28  44  67  94 127 163 218 272 320 387
#     4  11  24  45  66  95 125 170 212 265 323 384
#     4  12  24  42  69  96 128 172 211 265 325 381
#     4   9  23  36  62  97 129 168 208 262 309 379
#     4   8  17  37  62  94 129 173 209 254 312 373
#     4  10  20  40  65  90 131 169 211 258 314 375
#
# _framework density 24.175609999999999
#
# number of rings (size 3 to 8) (size 9 to 14) (size 15 to 20)
#    0.857    0.857    2.857    0.857    4.000    1.143 
#    0.000    0.000    0.000    3.429    0.000    0.000 
#    0.000    0.000    0.000    0.000    0.000    0.000 
#
# Total GULP energy -78149.006775 kJ/mol
# GULP energy per Si atom -5582.071913 kJ/mol
# Density = 2.412059 g / cm^3
# Si number density = 24.175610 Si / 1000 Ang^3
#
#
#
# Elastic Constant Matrix: (Units=GPa)
#
#
# Indices 1 2 3 4 5 6 
#
# 1 36.5258 8.1848 39.4076 -0.8826 -7.2964 12.5356
# 2 8.1848 59.2873 26.3604 -10.6386 9.1170 5.3595
# 3 39.4076 26.3604 180.7375 -15.3547 -2.1390 18.0185
# 4 -0.8826 -10.6386 -15.3547 42.3791 9.0220 -5.5428
# 5 -7.2964 9.1170 -2.1390 9.0220 40.1023 2.1036
# 6 12.5356 5.3595 18.0185 -5.5428 2.1036 25.7675
#
#
#
# Elastic Compliance Matrix: (Units=1/GPa)
#
#
# Indices 1 2 3 4 5 6 
#
# 1 0.045277 -0.004235 -0.007970 -0.007834 0.011493 -0.018196
# 2 -0.004235 0.020247 -0.001692 0.005954 -0.006849 0.000872
# 3 -0.007970 -0.001692 0.007766 0.002392 -0.001158 -0.000592
# 4 -0.007834 0.005954 0.002392 0.028861 -0.009558 0.007889
# 5 0.011493 -0.006849 -0.001158 -0.009558 0.031090 -0.007951
# 6 -0.018196 0.000872 -0.000592 0.007889 -0.007951 0.050239
#
#
# Mechanical properties :
#
#
# Convention : Reuss Voigt Hill
#
# Bulk Modulus (GPa) = 21.98011 47.16181 34.57096
# Shear Modulus (GPa) = 22.08099 35.15631 28.61865
#
# Velocity S-wave (km/s) = 3.02546 3.81754 3.44435
# Velocity P-wave (km/s) = 4.61694 6.24355 5.49081
#
# Compressibility (1/GPa) = 0.04549567
#
# Stress axis : x y z
#
# Youngs Moduli (GPa) = 22.08629 49.39113 128.76771
#
# Poissons Ratio (x) = 0.20919 1.02627
# Poissons Ratio (y) = 0.09354 0.21783
# Poissons Ratio (z) = 0.17603 0.08355
#
# Static dielectric constant tensor:
#      x y z
#    x 1.954160 0.066840 -0.006700 
#    y 0.066840 1.982000 0.028360 
#    z -0.006700 0.028360 1.941870 
# 
# From -- ./inp_files/54735.got.cif
#   From: 2010.05.17/outbox.cif.g08.bks.cpg/sg2_28_cif.got.tgz:54735.got - 2010.06.03 11:33:40.
