data_PCOD9107584
_publ_section_title
;
Structure prediction by ZEFSAII (Michael W. Deem and Ramdas Pophale) SiO2 
 PCOD9107584
Probable space group: P -1
;
_chemical_formula_sum "Si O2"
_cell_formula_units_Z 14
_cell_length_a 15.158711
_cell_length_b 7.987056
_cell_length_c 8.799306
_cell_angle_alpha 105.064269
_cell_angle_beta 66.659410
_cell_angle_gamma 145.751919
_cell_volume 545.766456
_symmetry_space_group_name_H-M "P -1"
_symmetry_group_IT_number 2
_symmetry_cell_setting 'triclinic'
loop_
_space_group_symop_operation_xyz
x,y,z
-x,-y,-z
loop_
_atom_site_type_symbol
_atom_site_label
_atom_site_fract_x
_atom_site_fract_y
_atom_site_fract_z
Si Si1 0.226798 0.164601 0.275025
Si Si2 0.077065 0.442669 0.122709
Si Si3 0.203856 0.388237 0.779089
Si Si4 0.748493 0.012391 0.061094
Si Si5 0.440763 0.259276 0.375673
Si Si6 0.958812 0.774444 0.607807
Si Si7 0.350442 0.907120 0.618589
O O1 0.358996 0.238145 0.287016
O O2 0.196468 0.327638 0.346900
O O3 0.255217 0.165601 0.077962
O O4 0.057676 0.862080 0.411661
O O5 0.192113 0.761418 0.050995
O O6 0.091877 0.446244 0.291917
O O7 0.127303 0.340783 0.977434
O O8 0.891491 0.206456 0.136173
O O9 0.388897 0.592972 0.737031
O O10 0.219556 0.585332 0.711571
O O11 0.093132 0.086851 0.690652
O O12 0.604754 0.887479 0.230256
O O13 0.500000 0.500000 0.500000
O O14 0.321750 0.966419 0.494814
O O15 0.500000 0.000000 0.500000
#
# Coordination Sequence:
#
# PCOD9107584 Si02
#       7
#     2   2   2   2   2   2   2
#     4  11  24  39  58  97 126 154 205 262 297 355
#     4  10  21  39  65  90 119 169 197 249 310 362
#     4  10  20  40  65  86 119 163 210 239 303 373
#     4  10  21  39  64  94 122 152 215 251 297 366
#     4  11  22  41  63  87 122 166 207 244 309 367
#     4  11  22  40  62  90 130 158 200 253 307 357
#     4   9  21  41  65  87 118 168 201 248 306 369
#
# _framework density 25.651999
#
# number of rings (size 3 to 8) (size 9 to 14) (size 15 to 20)
#    0.000    1.714    2.857    1.286    0.000    0.571 
#    5.143    9.286    0.000    0.000    0.000    0.000 
#    0.000    0.000    0.000    0.000    0.000    0.000 
#
# Total GULP energy -78248.080597 kJ/mol
# GULP energy per Si atom -5589.148614 kJ/mol
# Density = 2.559361 g / cm^3
# Si number density = 25.651999 Si / 1000 Ang^3
#
#
#
# Elastic Constant Matrix: (Units=GPa)
#
#
# Indices 1 2 3 4 5 6 
#
# 1 164.5941 29.5732 43.8778 -11.0765 10.6921 9.1815
# 2 29.5732 42.5596 24.1732 4.9285 9.3172 1.2635
# 3 43.8778 24.1732 130.3293 0.6514 -16.5001 4.3554
# 4 -11.0765 4.9285 0.6514 34.2857 -9.1788 8.4347
# 5 10.6921 9.3172 -16.5001 -9.1788 60.9457 -7.9514
# 6 9.1815 1.2635 4.3554 8.4347 -7.9514 31.0919
#
#
#
# Elastic Compliance Matrix: (Units=1/GPa)
#
#
# Indices 1 2 3 4 5 6 
#
# 1 0.007880 -0.004530 -0.001858 0.003731 -0.001043 -0.003162
# 2 -0.004530 0.031939 -0.005230 -0.008021 -0.006546 0.001274
# 3 -0.001858 -0.005230 0.009757 0.000987 0.003933 0.000133
# 4 0.003731 -0.008021 0.000987 0.035081 0.004926 -0.009171
# 5 -0.001043 -0.006546 0.003933 0.004926 0.019891 0.003774
# 6 -0.003162 0.001274 0.000133 -0.009171 0.003774 0.036479
#
#
# Mechanical properties :
#
#
# Convention : Reuss Voigt Hill
#
# Bulk Modulus (GPa) = 37.96507 59.19239 48.57873
# Shear Modulus (GPa) = 28.89466 41.25526 35.07496
#
# Velocity S-wave (km/s) = 3.35984 4.01467 3.70177
# Velocity P-wave (km/s) = 5.46659 6.67947 6.10323
#
# Compressibility (1/GPa) = 0.02634000
#
# Stress axis : x y z
#
# Youngs Moduli (GPa) = 126.90468 31.30983 102.49096
#
# Poissons Ratio (x) = 0.14183 0.19041
# Poissons Ratio (y) = 0.57488 0.53603
# Poissons Ratio (z) = 0.23576 0.16375
#
# Static dielectric constant tensor:
#      x y z
#    x 2.215760 0.130450 -0.055000 
#    y 0.130450 2.247160 -0.070200 
#    z -0.055000 -0.070200 2.053270 
# 
# From -- ./inp_files/270126.got.cif
#   From: 2010.05.17/outbox.cif.g08.bks.cpg/sg2_136_cif.got.tgz:270126.got - 2010.06.03 11:33:40.
