data_PCOD9107033
_publ_section_title
;
Structure prediction by ZEFSAII (Michael W. Deem and Ramdas Pophale) SiO2 
 PCOD9107033
Probable space group: P -1
;
_chemical_formula_sum "Si O2"
_cell_formula_units_Z 16
_cell_length_a 8.485440
_cell_length_b 8.921883
_cell_length_c 12.027778
_cell_angle_alpha 52.525936
_cell_angle_beta 73.914787
_cell_angle_gamma 72.773784
_cell_volume 684.581343
_symmetry_space_group_name_H-M "P -1"
_symmetry_group_IT_number 2
_symmetry_cell_setting 'triclinic'
loop_
_space_group_symop_operation_xyz
x,y,z
-x,-y,-z
loop_
_atom_site_type_symbol
_atom_site_label
_atom_site_fract_x
_atom_site_fract_y
_atom_site_fract_z
Si Si1 0.098295 0.217940 0.500061
Si Si2 0.020894 0.288407 0.946818
Si Si3 0.759721 0.610012 0.941892
Si Si4 0.285585 0.705494 0.503014
Si Si5 0.750801 0.411936 0.676444
Si Si6 0.604660 0.916006 0.663349
Si Si7 0.053446 0.112276 0.799469
Si Si8 0.420066 0.616476 0.751187
O O1 0.122720 0.438171 0.404969
O O2 0.232718 0.123314 0.428978
O O3 0.131661 0.133389 0.655119
O O4 0.910402 0.205194 0.508510
O O5 0.142062 0.300332 0.020771
O O6 0.107451 0.236132 0.834896
O O7 0.891649 0.486330 0.888532
O O8 0.928903 0.107600 0.069936
O O9 0.664745 0.462173 0.091420
O O10 0.644959 0.777280 0.823857
O O11 0.312424 0.582360 0.440826
O O12 0.315178 0.613352 0.660269
O O13 0.407110 0.864051 0.401497
O O14 0.596365 0.481631 0.754576
O O15 0.857834 0.206279 0.777485
O O16 0.460608 0.829186 0.667752
#
# Coordination Sequence:
#
# PCOD9107033 Si02
#       8
#     2   2   2   2   2   2   2   2
#     4  10  22  37  69  89 126 160 211 252 316 360
#     4  10  23  38  63  96 123 157 212 264 294 372
#     4  11  24  40  65  87 129 164 209 248 320 361
#     4  11  22  39  65  95 123 161 213 258 302 365
#     4  10  22  41  63  91 130 161 204 256 315 370
#     4  11  24  43  60  93 131 165 204 258 311 369
#     4  10  20  40  62  93 126 160 203 260 312 356
#     4  11  25  40  63  88 130 169 207 248 314 372
#
# _framework density 23.371946999999999
#
# number of rings (size 3 to 8) (size 9 to 14) (size 15 to 20)
#    0.000    1.500    0.000    6.000    8.750    0.000 
#    0.000    3.750    0.000    0.000    0.000    0.000 
#    0.000    0.000    0.000    0.000    0.000    0.000 
#
# Total GULP energy -89535.260649 kJ/mol
# GULP energy per Si atom -5595.953791 kJ/mol
# Density = 2.331875 g / cm^3
# Si number density = 23.371947 Si / 1000 Ang^3
#
#
#
# Elastic Constant Matrix: (Units=GPa)
#
#
# Indices 1 2 3 4 5 6 
#
# 1 45.1899 38.3701 12.1320 11.9728 6.0798 20.0057
# 2 38.3701 82.8675 15.9728 7.8268 -4.5005 20.5974
# 3 12.1320 15.9728 85.7961 12.5799 9.3128 13.7490
# 4 11.9728 7.8268 12.5799 33.4778 0.9362 2.5668
# 5 6.0798 -4.5005 9.3128 0.9362 39.0053 0.7844
# 6 20.0057 20.5974 13.7490 2.5668 0.7844 37.2776
#
#
#
# Elastic Compliance Matrix: (Units=1/GPa)
#
#
# Indices 1 2 3 4 5 6 
#
# 1 0.048714 -0.018387 0.001890 -0.012368 -0.009555 -0.015628
# 2 -0.018387 0.021459 -0.002128 0.002309 0.005824 -0.001486
# 3 0.001890 -0.002128 0.013596 -0.004846 -0.003580 -0.004444
# 4 -0.012368 0.002309 -0.004846 0.035149 0.002414 0.004678
# 5 -0.009555 0.005824 -0.003580 0.002414 0.028546 0.002463
# 6 -0.015628 -0.001486 -0.004444 0.004678 0.002463 0.037299
#
#
# Mechanical properties :
#
#
# Convention : Reuss Voigt Hill
#
# Bulk Modulus (GPa) = 21.49628 38.53370 30.01499
# Shear Modulus (GPa) = 21.05093 31.77738 26.41416
#
# Velocity S-wave (km/s) = 3.00441 3.69133 3.36544
# Velocity P-wave (km/s) = 4.61007 5.88989 5.28883
#
# Compressibility (1/GPa) = 0.04651969
#
# Stress axis : x y z
#
# Youngs Moduli (GPa) = 20.52781 46.60113 73.55172
#
# Poissons Ratio (x) = 0.85684 -0.13899
# Poissons Ratio (y) = 0.37744 0.15650
# Poissons Ratio (z) = -0.03879 0.09916
#
# Static dielectric constant tensor:
#      x y z
#    x 1.872710 0.003360 0.021000 
#    y 0.003360 1.895310 -0.002890 
#    z 0.021000 -0.002890 1.877390 
# 
# From -- ./inp_files/188568.got.cif
#   From: 2010.05.17/outbox.cif.g08.bks.cpg/sg2_95_cif.got.tgz:188568.got - 2010.06.03 11:33:40.
