data_PCOD9107486
_publ_section_title
;
Structure prediction by ZEFSAII (Michael W. Deem and Ramdas Pophale) SiO2 
 PCOD9107486
Probable space group: P -1
;
_chemical_formula_sum "Si O2"
_cell_formula_units_Z 16
_cell_length_a 11.346906
_cell_length_b 7.756827
_cell_length_c 17.067170
_cell_angle_alpha 109.777210
_cell_angle_beta 27.527249
_cell_angle_gamma 112.469183
_cell_volume 641.559402
_symmetry_space_group_name_H-M "P -1"
_symmetry_group_IT_number 2
_symmetry_cell_setting 'triclinic'
loop_
_space_group_symop_operation_xyz
x,y,z
-x,-y,-z
loop_
_atom_site_type_symbol
_atom_site_label
_atom_site_fract_x
_atom_site_fract_y
_atom_site_fract_z
Si Si1 0.207007 0.582207 0.642793
Si Si2 0.584909 0.596086 0.155637
Si Si3 0.613830 0.792820 0.534462
Si Si4 0.513385 0.848911 0.379271
Si Si5 0.451060 0.967145 0.115982
Si Si6 0.069164 0.066593 0.059384
Si Si7 0.149908 0.572806 0.290148
Si Si8 0.328269 0.268918 0.334525
O O1 0.323000 0.684351 0.668362
O O2 0.217630 0.362975 0.609752
O O3 0.427064 0.690132 0.469428
O O4 0.955003 0.579226 0.737333
O O5 0.503844 0.748935 0.285365
O O6 0.356290 0.516552 0.218399
O O7 0.587729 0.418066 0.181022
O O8 0.822194 0.711490 0.985003
O O9 0.630168 0.825117 0.622062
O O10 0.662372 0.993123 0.496275
O O11 0.801112 0.967668 0.242301
O O12 0.295210 0.760326 0.191841
O O13 0.281374 0.112265 0.272168
O O14 0.703571 0.990266 0.028813
O O15 0.500000 0.000000 0.000000
O O16 0.000000 0.000000 0.000000
O O17 0.908035 0.623589 0.490322
#
# Coordination Sequence:
#
# PCOD9107486 Si02
#       8
#     2   2   2   2   2   2   2   2
#     4  10  22  39  61 100 132 163 223 275 324 385
#     4  10  20  40  64  94 130 168 221 270 324 397
#     4  10  21  38  63  94 130 167 219 272 322 386
#     4  11  20  40  63  92 130 176 214 272 327 385
#     4  11  25  45  65  96 135 172 220 279 334 392
#     4   9  21  41  62  88 128 173 215 262 324 399
#     4  10  21  42  66  92 134 168 215 274 327 397
#     4  11  21  41  68  98 123 174 224 270 327 392
#
# _framework density 24.939233999999999
#
# number of rings (size 3 to 8) (size 9 to 14) (size 15 to 20)
#    0.000    1.750    2.500    3.375    0.000    4.000 
#    6.750    3.125    0.000    0.000    0.000    0.000 
#    0.000    0.000    0.000    0.000    0.000    0.000 
#
# Total GULP energy -89289.947018 kJ/mol
# GULP energy per Si atom -5580.621689 kJ/mol
# Density = 2.488247 g / cm^3
# Si number density = 24.939234 Si / 1000 Ang^3
#
#
#
# Elastic Constant Matrix: (Units=GPa)
#
#
# Indices 1 2 3 4 5 6 
#
# 1 117.9521 4.8479 35.6182 -3.4088 -0.7137 18.7230
# 2 4.8479 32.3910 4.1824 -17.0777 8.9337 -5.7612
# 3 35.6182 4.1824 49.9287 -18.9873 6.3314 5.5318
# 4 -3.4088 -17.0777 -18.9873 40.2073 8.4946 10.3840
# 5 -0.7137 8.9337 6.3314 8.4946 42.3001 -4.6290
# 6 18.7230 -5.7612 5.5318 10.3840 -4.6290 44.6736
#
#
#
# Elastic Compliance Matrix: (Units=1/GPa)
#
#
# Indices 1 2 3 4 5 6 
#
# 1 0.012299 -0.005599 -0.011164 -0.006850 0.004166 -0.002470
# 2 -0.005599 0.053314 0.015783 0.034847 -0.021044 -0.003013
# 3 -0.011164 0.015783 0.041216 0.030599 -0.016626 -0.007225
# 4 -0.006850 0.034847 0.030599 0.062593 -0.026122 -0.013680
# 5 0.004166 -0.021044 -0.016626 -0.026122 0.036708 0.007474
# 6 -0.002470 -0.003013 -0.007225 -0.013680 0.007474 0.027880
#
#
# Mechanical properties :
#
#
# Convention : Reuss Voigt Hill
#
# Bulk Modulus (GPa) = 9.53585 32.17433 20.85509
# Shear Modulus (GPa) = 18.45511 35.81109 27.13310
#
# Velocity S-wave (km/s) = 2.72325 3.79348 3.30202
# Velocity P-wave (km/s) = 3.70406 5.66714 4.78730
#
# Compressibility (1/GPa) = 0.10486737
#
# Stress axis : x y z
#
# Youngs Moduli (GPa) = 81.30875 18.75682 24.26231
#
# Poissons Ratio (x) = 0.10502 0.27087
# Poissons Ratio (y) = 0.45526 -0.38292
# Poissons Ratio (z) = 0.90775 -0.29603
#
# Static dielectric constant tensor:
#      x y z
#    x 2.035750 -0.013960 -0.014380 
#    y -0.013960 1.994450 0.088870 
#    z -0.014380 0.088870 2.058700 
# 
# From -- ./inp_files/566066.got.cif
#   From: 2010.05.17/outbox.cif.g08.bks.cpg/sg2_284_cif.got.tgz:566066.got - 2010.06.03 11:33:40.
