data_PCOD9107048
_publ_section_title
;
Structure prediction by ZEFSAII (Michael W. Deem and Ramdas Pophale) SiO2 
 PCOD9107048
Probable space group: P -1
;
_chemical_formula_sum "Si O2"
_cell_formula_units_Z 16
_cell_length_a 19.967114
_cell_length_b 5.318789
_cell_length_c 11.658837
_cell_angle_alpha 119.792875
_cell_angle_beta 36.852774
_cell_angle_gamma 115.370379
_cell_volume 643.322462
_symmetry_space_group_name_H-M "P -1"
_symmetry_group_IT_number 2
_symmetry_cell_setting 'triclinic'
loop_
_space_group_symop_operation_xyz
x,y,z
-x,-y,-z
loop_
_atom_site_type_symbol
_atom_site_label
_atom_site_fract_x
_atom_site_fract_y
_atom_site_fract_z
Si Si1 0.902766 0.669119 0.113866
Si Si2 0.174943 0.780973 0.558217
Si Si3 0.572096 0.274433 0.284206
Si Si4 0.473431 0.383886 0.219235
Si Si5 0.687617 0.753244 0.981214
Si Si6 0.206335 0.320263 0.965364
Si Si7 0.289665 0.744309 0.613761
Si Si8 0.747410 0.839980 0.668781
O O1 0.885596 0.608983 0.987910
O O2 0.789400 0.534358 0.301130
O O3 0.912023 0.008638 0.215589
O O4 0.000000 0.500000 0.000000
O O5 0.277205 0.837718 0.519592
O O6 0.170478 0.431776 0.495116
O O7 0.199675 0.905817 0.426650
O O8 0.500000 0.500000 0.500000
O O9 0.509356 0.189761 0.232053
O O10 0.687409 0.461695 0.150511
O O11 0.616233 0.976809 0.202517
O O12 0.592773 0.495199 0.026251
O O13 0.413506 0.644253 0.425867
O O14 0.374924 0.254387 0.241944
O O15 0.794876 0.682892 0.895322
O O16 0.726055 0.903383 0.844785
O O17 0.239172 0.003832 0.808834
#
# Coordination Sequence:
#
# PCOD9107048 Si02
#       8
#     2   2   2   2   2   2   2   2
#     4  11  22  41  73 101 121 154 208 273 338 395
#     4  10  22  41  65  93 128 167 204 269 323 367
#     4  11  22  34  57  86 129 171 220 261 315 365
#     4  10  21  35  57  89 123 175 220 256 304 359
#     4  11  24  37  56  92 128 185 218 255 303 375
#     4  10  22  37  58  89 130 164 208 261 327 372
#     4  10  20  40  62  94 129 165 204 273 323 375
#     4  11  24  40  63  89 136 176 222 256 303 374
#
# _framework density 24.870888999999998
#
# number of rings (size 3 to 8) (size 9 to 14) (size 15 to 20)
#    0.000    1.500    2.500    3.375    8.750    4.500 
#    0.000    0.000    0.000    1.500    0.000    0.000 
#    0.000    0.000    0.000    0.000    0.000    0.000 
#
# Total GULP energy -89203.252290 kJ/mol
# GULP energy per Si atom -5575.203268 kJ/mol
# Density = 2.481428 g / cm^3
# Si number density = 24.870889 Si / 1000 Ang^3
#
#
#
# Elastic Constant Matrix: (Units=GPa)
#
#
# Indices 1 2 3 4 5 6 
#
# 1 172.9636 24.6289 36.6849 -9.1337 9.6474 -45.8305
# 2 24.6289 77.2025 6.8011 -1.7872 -5.0631 -9.5573
# 3 36.6849 6.8011 55.7316 10.4765 0.8809 -8.3105
# 4 -9.1337 -1.7872 10.4765 44.7658 -12.2244 -1.6382
# 5 9.6474 -5.0631 0.8809 -12.2244 29.5769 7.3439
# 6 -45.8305 -9.5573 -8.3105 -1.6382 7.3439 36.4313
#
#
#
# Elastic Compliance Matrix: (Units=1/GPa)
#
#
# Indices 1 2 3 4 5 6 
#
# 1 0.011394 -0.001779 -0.005532 0.002320 -0.006372 0.013994
# 2 -0.001779 0.013914 -0.000732 0.001307 0.003369 0.000624
# 3 -0.005532 -0.000732 0.022695 -0.006913 -0.001355 -0.002012
# 4 0.002320 0.001307 -0.006913 0.027470 0.010844 0.000734
# 5 -0.006372 0.003369 -0.001355 0.010844 0.044965 -0.016018
# 6 0.013994 0.000624 -0.002012 0.000734 -0.016018 0.048020
#
#
# Mechanical properties :
#
#
# Convention : Reuss Voigt Hill
#
# Bulk Modulus (GPa) = 31.33306 49.12528 40.22917
# Shear Modulus (GPa) = 25.61703 38.00697 31.81200
#
# Velocity S-wave (km/s) = 3.21284 3.91342 3.58031
# Velocity P-wave (km/s) = 5.13700 6.34152 5.77077
#
# Compressibility (1/GPa) = 0.03191517
#
# Stress axis : x y z
#
# Youngs Moduli (GPa) = 87.76425 71.87211 44.06335
#
# Poissons Ratio (x) = 0.12789 0.24375
# Poissons Ratio (y) = 0.15617 0.03227
# Poissons Ratio (z) = 0.48549 0.05264
#
# Static dielectric constant tensor:
#      x y z
#    x 2.001480 0.021260 0.066860 
#    y 0.021260 2.122520 0.056130 
#    z 0.066860 0.056130 2.057810 
# 
# From -- ./inp_files/78687.got.cif
#   From: 2010.05.17/outbox.cif.g08.bks.cpg/sg2_40_cif.got.tgz:78687.got - 2010.06.03 11:33:40.
