data_PCOD9107557
_publ_section_title
;
Structure prediction by ZEFSAII (Michael W. Deem and Ramdas Pophale) SiO2 
 PCOD9107557
Probable space group: P -1
;
_chemical_formula_sum "Si O2"
_cell_formula_units_Z 16
_cell_length_a 9.440530
_cell_length_b 12.978984
_cell_length_c 11.246966
_cell_angle_alpha 34.642527
_cell_angle_beta 70.408465
_cell_angle_gamma 86.659523
_cell_volume 674.355499
_symmetry_space_group_name_H-M "P -1"
_symmetry_group_IT_number 2
_symmetry_cell_setting 'triclinic'
loop_
_space_group_symop_operation_xyz
x,y,z
-x,-y,-z
loop_
_atom_site_type_symbol
_atom_site_label
_atom_site_fract_x
_atom_site_fract_y
_atom_site_fract_z
Si Si1 0.646806 0.522751 0.025807
Si Si2 0.190438 0.517663 0.430520
Si Si3 0.249401 0.832467 0.295981
Si Si4 0.190799 0.114923 0.869337
Si Si5 0.245788 0.952972 0.762483
Si Si6 0.592913 0.132562 0.539660
Si Si7 0.108130 0.500412 0.215804
Si Si8 0.817366 0.947013 0.562089
O O1 0.801226 0.521963 0.906347
O O2 0.706227 0.742656 0.851833
O O3 0.500000 0.500000 0.000000
O O4 0.596269 0.344166 0.301625
O O5 0.286980 0.719024 0.281969
O O6 0.219458 0.342223 0.653336
O O7 0.217597 0.499024 0.301310
O O8 0.000000 0.500000 0.500000
O O9 0.383179 0.884607 0.311133
O O10 0.074195 0.672554 0.551137
O O11 0.227865 0.019088 0.067499
O O12 0.264400 0.059589 0.782732
O O13 0.000000 0.000000 0.000000
O O14 0.430337 0.966000 0.684508
O O15 0.202598 0.070760 0.558121
O O16 0.116688 0.724550 0.008855
O O17 0.749752 0.109845 0.459996
O O18 0.000000 0.000000 0.500000
#
# Coordination Sequence:
#
# PCOD9107557 Si02
#       8
#     2   2   2   2   2   2   2   2
#     4  12  25  45  72  99 140 188 229 279 355 420
#     4  10  20  40  65 101 132 172 224 289 340 396
#     4  11  25  43  67 103 136 181 231 289 342 406
#     4  12  22  41  73 101 138 180 239 283 343 415
#     4  12  25  46  73  98 142 188 223 289 354 409
#     4  12  28  48  67 103 150 183 228 289 352 417
#     4  11  21  42  72  98 132 177 232 284 340 399
#     4  12  27  45  73 109 135 182 240 286 346 415
#
# _framework density 23.726357
#
# number of rings (size 3 to 8) (size 9 to 14) (size 15 to 20)
#    0.000    0.500    6.250    3.375    3.500    2.500 
#    0.000    0.625    0.000    0.000    0.000    0.000 
#    0.000    0.000    0.000    0.000    0.000    0.000 
#
# Total GULP energy -89516.985920 kJ/mol
# GULP energy per Si atom -5594.811620 kJ/mol
# Density = 2.367235 g / cm^3
# Si number density = 23.726357 Si / 1000 Ang^3
#
#
#
# Elastic Constant Matrix: (Units=GPa)
#
#
# Indices 1 2 3 4 5 6 
#
# 1 114.5750 20.3381 35.1145 1.9946 20.3676 16.7315
# 2 20.3381 48.7084 16.3283 7.7825 13.7228 9.3284
# 3 35.1145 16.3283 138.9168 -18.1419 39.2957 5.4622
# 4 1.9946 7.7825 -18.1419 37.0925 -6.6921 8.5823
# 5 20.3676 13.7228 39.2957 -6.6921 41.9343 3.7602
# 6 16.7315 9.3284 5.4622 8.5823 3.7602 33.8273
#
#
#
# Elastic Compliance Matrix: (Units=1/GPa)
#
#
# Indices 1 2 3 4 5 6 
#
# 1 0.010689 -0.002361 -0.001569 -0.000404 -0.002656 -0.003985
# 2 -0.002361 0.025452 -0.001156 -0.006235 -0.006796 -0.003327
# 3 -0.001569 -0.001156 0.010589 0.004241 -0.008034 -0.000798
# 4 -0.000404 -0.006235 0.004241 0.032871 0.004187 -0.007571
# 5 -0.002656 -0.006796 -0.008034 0.004187 0.035605 -0.000535
# 6 -0.003985 -0.003327 -0.000798 -0.007571 -0.000535 0.034559
#
#
# Mechanical properties :
#
#
# Convention : Reuss Voigt Hill
#
# Bulk Modulus (GPa) = 27.35470 49.52910 38.44190
# Shear Modulus (GPa) = 29.04903 37.93211 33.49057
#
# Velocity S-wave (km/s) = 3.50285 4.00275 3.76112
# Velocity P-wave (km/s) = 5.28339 6.50255 5.92441
#
# Compressibility (1/GPa) = 0.03655678
#
# Stress axis : x y z
#
# Youngs Moduli (GPa) = 93.55423 39.29022 94.43898
#
# Poissons Ratio (x) = 0.09277 0.14820
# Poissons Ratio (y) = 0.22090 0.10916
# Poissons Ratio (z) = 0.14681 0.04541
#
# Static dielectric constant tensor:
#      x y z
#    x 1.938970 -0.038890 -0.103250 
#    y -0.038890 1.871680 0.099090 
#    z -0.103250 0.099090 1.978990 
# 
# From -- ./inp_files/398146.got.cif
#   From: 2010.05.17/outbox.cif.g08.bks.cpg/sg2_200_cif.got.tgz:398146.got - 2010.06.03 11:33:40.
