data_PCOD9107452
_publ_section_title
;
Structure prediction by ZEFSAII (Michael W. Deem and Ramdas Pophale) SiO2 
 PCOD9107452
Probable space group: P -1
;
_chemical_formula_sum "Si O2"
_cell_formula_units_Z 14
_cell_length_a 8.486172
_cell_length_b 20.620226
_cell_length_c 20.203257
_cell_angle_alpha 20.633197
_cell_angle_beta 152.232319
_cell_angle_gamma 147.710107
_cell_volume 577.175046
_symmetry_space_group_name_H-M "P -1"
_symmetry_group_IT_number 2
_symmetry_cell_setting 'triclinic'
loop_
_space_group_symop_operation_xyz
x,y,z
-x,-y,-z
loop_
_atom_site_type_symbol
_atom_site_label
_atom_site_fract_x
_atom_site_fract_y
_atom_site_fract_z
Si Si1 0.430113 0.363538 0.409894
Si Si2 0.623185 0.374177 0.107026
Si Si3 0.006145 0.878897 0.865325
Si Si4 0.549806 0.679425 0.052388
Si Si5 0.077228 0.044765 0.874312
Si Si6 0.555190 0.586182 0.366152
Si Si7 0.634283 0.031922 0.209219
O O1 0.596507 0.519877 0.273956
O O2 0.568239 0.417075 0.482537
O O3 0.469186 0.151143 0.611841
O O4 0.024827 0.372317 0.255395
O O5 0.390983 0.181498 0.216309
O O6 0.500000 0.500000 0.000000
O O7 0.523250 0.415306 0.954770
O O8 0.143094 0.990873 0.873438
O O9 0.072714 0.984472 0.720186
O O10 0.227843 0.700083 0.118938
O O11 0.264669 0.791448 0.875500
O O12 0.824776 0.858813 0.975361
O O13 0.114099 0.267554 0.662052
O O14 0.327464 0.050007 0.026168
O O15 0.500000 0.500000 0.500000
#
# Coordination Sequence:
#
# PCOD9107452 Si02
#       7
#     2   2   2   2   2   2   2
#     4  12  24  40  68  95 129 176 211 266 318 382
#     4  11  23  45  68  92 125 173 224 265 318 379
#     4  10  20  40  64  92 131 170 209 270 313 371
#     4  11  24  44  66  92 134 173 209 270 324 376
#     4  10  21  40  65  92 138 169 205 271 318 381
#     4  11  20  37  65  98 129 163 214 260 319 380
#     4  11  22  41  64  99 133 165 215 260 330 382
#
# _framework density 24.256073000000001
#
# number of rings (size 3 to 8) (size 9 to 14) (size 15 to 20)
#    0.000    1.143    4.286    4.286    0.000    1.714 
#    5.143    1.429    0.000    0.000    0.000    0.000 
#    0.000    0.000    0.000    0.000    0.000    0.000 
#
# Total GULP energy -78006.780531 kJ/mol
# GULP energy per Si atom -5571.912895 kJ/mol
# Density = 2.420087 g / cm^3
# Si number density = 24.256073 Si / 1000 Ang^3
#
#
#
# Elastic Constant Matrix: (Units=GPa)
#
#
# Indices 1 2 3 4 5 6 
#
# 1 112.1716 42.7375 31.4079 -1.2935 -37.8641 -12.4971
# 2 42.7375 99.5643 26.8491 -8.4883 -5.4188 4.3957
# 3 31.4079 26.8491 102.4127 -31.3152 -19.3245 2.6201
# 4 -1.2935 -8.4883 -31.3152 26.4013 3.7429 1.5804
# 5 -37.8641 -5.4188 -19.3245 3.7429 44.1939 -17.1796
# 6 -12.4971 4.3957 2.6201 1.5804 -17.1796 58.8995
#
#
#
# Elastic Compliance Matrix: (Units=1/GPa)
#
#
# Indices 1 2 3 4 5 6 
#
# 1 0.021523 -0.008448 -0.003653 -0.009710 0.021221 0.011810
# 2 -0.008448 0.014154 -0.001347 0.004071 -0.008530 -0.005386
# 3 -0.003653 -0.001347 0.017957 0.020442 0.002301 -0.001351
# 4 -0.009710 0.004071 0.020442 0.064384 -0.007081 -0.007066
# 5 0.021221 -0.008530 0.002301 -0.007081 0.048951 0.019505
# 6 0.011810 -0.005386 -0.001351 -0.007066 0.019505 0.025825
#
#
# Mechanical properties :
#
#
# Convention : Reuss Voigt Hill
#
# Bulk Modulus (GPa) = 37.39868 57.34862 47.37365
# Shear Modulus (GPa) = 21.87204 40.10920 30.99062
#
# Velocity S-wave (km/s) = 3.00611 4.07083 3.57829
# Velocity P-wave (km/s) = 5.24411 6.76682 6.05353
#
# Compressibility (1/GPa) = 0.02673891
#
# Stress axis : x y z
#
# Youngs Moduli (GPa) = 46.46103 70.65229 55.68799
#
# Poissons Ratio (x) = 0.59687 0.20343
# Poissons Ratio (y) = 0.39250 0.07500
# Poissons Ratio (z) = 0.16972 0.09515
#
# Static dielectric constant tensor:
#      x y z
#    x 2.043340 0.069160 0.069270 
#    y 0.069160 1.955380 0.028910 
#    z 0.069270 0.028910 1.957970 
# 
# From -- ./inp_files/319980.got.cif
#   From: 2010.05.17/outbox.cif.g08.bks.cpg/sg2_160_cif.got.tgz:319980.got - 2010.06.03 11:33:40.
