data_PCOD9107104
_publ_section_title
;
Structure prediction by ZEFSAII (Michael W. Deem and Ramdas Pophale) SiO2 
 PCOD9107104
Probable space group: P -1
;
_chemical_formula_sum "Si O2"
_cell_formula_units_Z 16
_cell_length_a 6.927336
_cell_length_b 9.870131
_cell_length_c 15.725828
_cell_angle_alpha 115.995506
_cell_angle_beta 93.900931
_cell_angle_gamma 127.232491
_cell_volume 680.967209
_symmetry_space_group_name_H-M "P -1"
_symmetry_group_IT_number 2
_symmetry_cell_setting 'triclinic'
loop_
_space_group_symop_operation_xyz
x,y,z
-x,-y,-z
loop_
_atom_site_type_symbol
_atom_site_label
_atom_site_fract_x
_atom_site_fract_y
_atom_site_fract_z
Si Si1 0.697910 0.272946 0.353096
Si Si2 0.181330 0.326193 0.573151
Si Si3 0.713987 0.563347 0.955299
Si Si4 0.324761 0.980525 0.412981
Si Si5 0.712898 0.323361 0.768416
Si Si6 0.909897 0.063269 0.335030
Si Si7 0.867720 0.003265 0.826813
Si Si8 0.285015 0.385226 0.218728
O O1 0.856717 0.516273 0.406658
O O2 0.858307 0.202573 0.332508
O O3 0.445744 0.133014 0.240879
O O4 0.545292 0.191224 0.419106
O O5 0.477292 0.477096 0.666504
O O6 0.951454 0.131940 0.575471
O O7 0.143908 0.219480 0.454173
O O8 0.500000 0.500000 0.000000
O O9 0.742181 0.402638 0.886509
O O10 0.613557 0.572716 0.863930
O O11 0.993261 0.789033 0.058816
O O12 0.204130 0.794820 0.288767
O O13 0.500000 0.000000 0.500000
O O14 0.851448 0.525277 0.768028
O O15 0.385572 0.140331 0.690762
O O16 0.988488 0.972545 0.249426
O O17 0.890025 0.858285 0.838210
#
# Coordination Sequence:
#
# PCOD9107104 Si02
#       8
#     2   2   2   2   2   2   2   2
#     4  10  25  40  58  98 123 161 217 241 315 372
#     4  11  23  41  61  91 133 162 200 260 307 375
#     4  10  20  40  63  85 121 158 211 261 301 365
#     4  11  22  38  62  86 129 167 198 256 309 365
#     4   9  21  38  55  94 111 158 213 234 318 362
#     4  11  22  40  62  93 126 165 201 252 311 368
#     4  11  22  41  67  86 126 166 202 265 308 358
#     4   9  23  38  62  93 116 160 215 244 315 374
#
# _framework density 23.495992000000001
#
# number of rings (size 3 to 8) (size 9 to 14) (size 15 to 20)
#    0.750    1.000    3.750    0.750    5.250    3.500 
#    0.000    3.750    0.000    3.750    0.000    0.000 
#    0.000    0.000    0.000    0.000    0.000    0.000 
#
# Total GULP energy -89218.662037 kJ/mol
# GULP energy per Si atom -5576.166377 kJ/mol
# Density = 2.344251 g / cm^3
# Si number density = 23.495992 Si / 1000 Ang^3
#
#
#
# Elastic Constant Matrix: (Units=GPa)
#
#
# Indices 1 2 3 4 5 6 
#
# 1 67.8540 12.0893 21.0233 4.7879 -17.1138 -15.3481
# 2 12.0893 76.5759 25.8179 -0.6257 -5.8200 -21.6608
# 3 21.0233 25.8179 140.1951 14.3645 -13.7235 -5.3034
# 4 4.7879 -0.6257 14.3645 32.2760 5.5564 -2.0546
# 5 -17.1138 -5.8200 -13.7235 5.5564 31.1000 3.4491
# 6 -15.3481 -21.6608 -5.3034 -2.0546 3.4491 27.0423
#
#
#
# Elastic Compliance Matrix: (Units=1/GPa)
#
#
# Indices 1 2 3 4 5 6 
#
# 1 0.020151 0.000999 -0.001479 -0.003383 0.010073 0.010405
# 2 0.000999 0.018152 -0.003141 0.002445 0.000503 0.014612
# 3 -0.001479 -0.003141 0.008635 -0.004438 0.003472 -0.002442
# 4 -0.003383 0.002445 -0.004438 0.035436 -0.010042 0.003141
# 5 0.010073 0.000503 0.003472 -0.010042 0.041029 0.000805
# 6 0.010405 0.014612 -0.002442 0.003141 0.000805 0.054246
#
#
# Mechanical properties :
#
#
# Convention : Reuss Voigt Hill
#
# Bulk Modulus (GPa) = 25.19252 44.72066 34.95659
# Shear Modulus (GPa) = 25.23683 33.12996 29.18339
#
# Velocity S-wave (km/s) = 3.28089 3.75911 3.52811
# Velocity P-wave (km/s) = 5.00975 6.15758 5.61308
#
# Compressibility (1/GPa) = 0.03969433
#
# Stress axis : x y z
#
# Youngs Moduli (GPa) = 49.62587 55.09116 115.80178
#
# Poissons Ratio (x) = -0.05501 0.17131
# Poissons Ratio (y) = -0.04956 0.36374
# Poissons Ratio (z) = 0.07341 0.17305
#
# Static dielectric constant tensor:
#      x y z
#    x 2.001960 -0.067070 -0.020120 
#    y -0.067070 1.981090 -0.016680 
#    z -0.020120 -0.016680 1.888410 
# 
# From -- ./inp_files/499317.got.cif
#   From: 2010.05.17/outbox.cif.g08.bks.cpg/sg2_250_cif.got.tgz:499317.got - 2010.06.03 11:33:40.
