data_PCOD9107989
_publ_section_title
;
Structure prediction by ZEFSAII (Michael W. Deem and Ramdas Pophale) SiO2 
 PCOD9107989
Probable space group: P -1
;
_chemical_formula_sum "Si O2"
_cell_formula_units_Z 10
_cell_length_a 11.237063
_cell_length_b 8.785382
_cell_length_c 7.871205
_cell_angle_alpha 133.374875
_cell_angle_beta 96.046924
_cell_angle_gamma 59.513860
_cell_volume 448.596423
_symmetry_space_group_name_H-M "P -1"
_symmetry_group_IT_number 2
_symmetry_cell_setting 'triclinic'
loop_
_space_group_symop_operation_xyz
x,y,z
-x,-y,-z
loop_
_atom_site_type_symbol
_atom_site_label
_atom_site_fract_x
_atom_site_fract_y
_atom_site_fract_z
Si Si1 0.889884 0.557038 0.376674
Si Si2 0.356236 0.805286 0.688568
Si Si3 0.561161 0.827504 0.542290
Si Si4 0.768708 0.250675 0.051954
Si Si5 0.864460 0.983271 0.500465
O O1 0.717645 0.761785 0.571463
O O2 0.891468 0.307248 0.142462
O O3 0.000000 0.500000 0.500000
O O4 0.910797 0.692290 0.324130
O O5 0.500000 0.500000 0.500000
O O6 0.438669 0.935265 0.753058
O O7 0.251617 0.884498 0.896863
O O8 0.253296 0.872024 0.559340
O O9 0.614985 0.545499 0.261981
O O10 0.500000 0.000000 0.500000
O O11 0.794565 0.124278 0.777987
O O12 0.000000 0.000000 0.500000
#
# Coordination Sequence:
#
# PCOD9107989 Si02
#       5
#     2   2   2   2   2
#     4  10  22  41  63  91 133 165 213 264 306 377
#     4  10  20  40  66  93 129 163 208 264 313 377
#     4   9  18  41  66  91 129 163 206 264 314 379
#     4   9  23  42  66  94 128 163 218 257 319 375
#     4  12  25  41  68  92 128 175 212 260 317 373
#
# _framework density 22.291751000000001
#
# number of rings (size 3 to 8) (size 9 to 14) (size 15 to 20)
#    1.200    0.800    2.000    1.200    0.000    7.200 
#    0.000    7.000    0.000    0.000    0.000    0.000 
#    0.000    0.000    0.000    0.000    0.000    0.000 
#
# Total GULP energy -55716.131699 kJ/mol
# GULP energy per Si atom -5571.613170 kJ/mol
# Density = 2.224101 g / cm^3
# Si number density = 22.291751 Si / 1000 Ang^3
#
#
#
# Elastic Constant Matrix: (Units=GPa)
#
#
# Indices 1 2 3 4 5 6 
#
# 1 150.9180 67.8641 44.7478 -28.1104 -20.1827 -1.9719
# 2 67.8641 115.8992 47.7818 -45.1784 -7.8126 -6.0976
# 3 44.7478 47.7818 124.0061 -35.3493 -10.4162 6.8535
# 4 -28.1104 -45.1784 -35.3493 36.0537 4.3429 3.7595
# 5 -20.1827 -7.8126 -10.4162 4.3429 35.7644 -16.4174
# 6 -1.9719 -6.0976 6.8535 3.7595 -16.4174 51.9350
#
#
#
# Elastic Compliance Matrix: (Units=1/GPa)
#
#
# Indices 1 2 3 4 5 6 
#
# 1 0.009872 -0.005113 -0.001552 -0.000980 0.004848 0.001583
# 2 -0.005113 0.019643 0.000117 0.020829 -0.000958 0.000286
# 3 -0.001552 0.000117 0.011773 0.010693 0.000223 -0.002302
# 4 -0.000980 0.020829 0.010693 0.064367 -0.002791 -0.004545
# 5 0.004848 -0.000958 0.000223 -0.002791 0.036266 0.011708
# 6 0.001583 0.000286 -0.002302 -0.004545 0.011708 0.023682
#
#
# Mechanical properties :
#
#
# Convention : Reuss Voigt Hill
#
# Bulk Modulus (GPa) = 35.46906 79.06786 57.26846
# Shear Modulus (GPa) = 26.58217 40.11260 33.34738
#
# Velocity S-wave (km/s) = 3.45696 4.24658 3.87195
# Velocity P-wave (km/s) = 5.64623 7.71953 6.76280
#
# Compressibility (1/GPa) = 0.02819359
#
# Stress axis : x y z
#
# Youngs Moduli (GPa) = 101.30039 50.90788 84.93868
#
# Poissons Ratio (x) = 0.26027 0.13182
# Poissons Ratio (y) = 0.51790 -0.00996
# Poissons Ratio (z) = 0.15722 -0.00597
#
# Static dielectric constant tensor:
#      x y z
#    x 1.905530 0.061500 -0.016200 
#    y 0.061500 1.864850 0.058840 
#    z -0.016200 0.058840 1.884000 
# 
# From -- ./inp_files/61186.got.cif
#   From: 2010.05.17/outbox.cif.g08.bks.cpg/sg2_31_cif.got.tgz:61186.got - 2010.06.03 11:33:40.
