data_PCOD9107602
_publ_section_title
;
Structure prediction by ZEFSAII (Michael W. Deem and Ramdas Pophale) SiO2 
 PCOD9107602
Probable space group: P -1
;
_chemical_formula_sum "Si O2"
_cell_formula_units_Z 16
_cell_length_a 9.333326
_cell_length_b 11.863880
_cell_length_c 14.814970
_cell_angle_alpha 113.643822
_cell_angle_beta 54.384753
_cell_angle_gamma 69.451224
_cell_volume 756.893844
_symmetry_space_group_name_H-M "P -1"
_symmetry_group_IT_number 2
_symmetry_cell_setting 'triclinic'
loop_
_space_group_symop_operation_xyz
x,y,z
-x,-y,-z
loop_
_atom_site_type_symbol
_atom_site_label
_atom_site_fract_x
_atom_site_fract_y
_atom_site_fract_z
Si Si1 0.655195 0.607192 0.308668
Si Si2 0.566771 0.920836 0.175957
Si Si3 0.823382 0.785656 0.338394
Si Si4 0.834549 0.064710 0.988062
Si Si5 0.214914 0.286094 0.312629
Si Si6 0.947989 0.265535 0.947412
Si Si7 0.978592 0.298707 0.222880
Si Si8 0.233779 0.957792 0.444087
O O1 0.816919 0.641457 0.296329
O O2 0.683076 0.501147 0.349806
O O3 0.366744 0.817209 0.437973
O O4 0.795403 0.452975 0.124813
O O5 0.733753 0.914836 0.184410
O O6 0.287685 0.135592 0.305947
O O7 0.478893 0.851701 0.245534
O O8 0.784809 0.794200 0.970995
O O9 0.025672 0.709989 0.157037
O O10 0.882950 0.843785 0.418674
O O11 0.500000 0.000000 0.500000
O O12 0.821858 0.199660 0.983745
O O13 0.001477 0.857862 0.818436
O O14 0.517153 0.187633 0.156421
O O15 0.000000 0.000000 0.000000
O O16 0.078834 0.310281 0.279127
O O17 0.000000 0.500000 0.500000
O O18 0.000000 0.000000 0.500000
#
# Coordination Sequence:
#
# PCOD9107602 Si02
#       8
#     2   2   2   2   2   2   2   2
#     4  10  21  40  66  91 124 168 223 251 320 393
#     4  10  20  40  65  87 130 174 207 261 331 376
#     4  10  21  37  62  93 125 168 206 258 327 381
#     4  11  20  42  66  97 126 172 222 262 320 382
#     4  11  25  41  66  96 133 167 217 269 328 381
#     4  11  20  38  72  93 124 171 221 268 308 393
#     4  10  23  41  69  92 126 174 212 264 321 397
#     4  11  25  41  62  94 134 167 213 271 328 379
#
# _framework density 21.139028
#
# number of rings (size 3 to 8) (size 9 to 14) (size 15 to 20)
#    0.000    1.500    6.250    1.875    3.500    3.000 
#    0.000    2.500    0.000    0.000    0.000    0.000 
#    0.000    0.000    0.000    0.000    0.000    0.000 
#
# Total GULP energy -89224.582349 kJ/mol
# GULP energy per Si atom -5576.536397 kJ/mol
# Density = 2.109091 g / cm^3
# Si number density = 21.139028 Si / 1000 Ang^3
#
#
#
# Elastic Constant Matrix: (Units=GPa)
#
#
# Indices 1 2 3 4 5 6 
#
# 1 132.4987 23.0385 28.9442 1.8783 22.1309 4.9373
# 2 23.0385 61.6929 20.2569 21.7614 6.0117 5.6598
# 3 28.9442 20.2569 40.2558 14.6053 20.9268 5.9381
# 4 1.8783 21.7614 14.6053 27.9626 -0.2123 2.4564
# 5 22.1309 6.0117 20.9268 -0.2123 33.7043 5.6880
# 6 4.9373 5.6598 5.9381 2.4564 5.6880 41.7635
#
#
#
# Elastic Compliance Matrix: (Units=1/GPa)
#
#
# Indices 1 2 3 4 5 6 
#
# 1 0.009707 -0.003188 -0.006225 0.005054 -0.001931 0.000135
# 2 -0.003188 0.024755 -0.003999 -0.016831 0.000301 -0.001460
# 3 -0.006225 -0.003999 0.056904 -0.026326 -0.030509 -0.001109
# 4 0.005054 -0.016831 -0.026326 0.062440 0.016506 -0.000494
# 5 -0.001931 0.000301 -0.030509 0.016506 0.050492 -0.003322
# 6 0.000135 -0.001460 -0.001109 -0.000494 -0.003322 0.024766
#
#
# Mechanical properties :
#
#
# Convention : Reuss Voigt Hill
#
# Bulk Modulus (GPa) = 15.49372 42.10297 28.79835
# Shear Modulus (GPa) = 18.02437 31.49993 24.76215
#
# Velocity S-wave (km/s) = 2.92320 3.86441 3.42628
# Velocity P-wave (km/s) = 4.32883 6.31442 5.41344
#
# Compressibility (1/GPa) = 0.06454226
#
# Stress axis : x y z
#
# Youngs Moduli (GPa) = 103.01529 40.39655 17.57332
#
# Poissons Ratio (x) = 0.12878 0.10939
# Poissons Ratio (y) = 0.32841 0.07028
# Poissons Ratio (z) = 0.64126 0.16155
#
# Static dielectric constant tensor:
#      x y z
#    x 1.753250 -0.005520 -0.012250 
#    y -0.005520 1.842840 0.018490 
#    z -0.012250 0.018490 1.832570 
# 
# From -- ./inp_files/499880.got.cif
#   From: 2010.05.17/outbox.cif.g08.bks.cpg/sg2_250_cif.got.tgz:499880.got - 2010.06.03 11:33:40.
