data_PCOD9107856
_publ_section_title
;
Structure prediction by ZEFSAII (Michael W. Deem and Ramdas Pophale) SiO2 
 PCOD9107856
Probable space group: P -1
;
_chemical_formula_sum "Si O2"
_cell_formula_units_Z 14
_cell_length_a 9.047989
_cell_length_b 9.066061
_cell_length_c 9.643868
_cell_angle_alpha 132.433720
_cell_angle_beta 98.085748
_cell_angle_gamma 91.644978
_cell_volume 569.729883
_symmetry_space_group_name_H-M "P -1"
_symmetry_group_IT_number 2
_symmetry_cell_setting 'triclinic'
loop_
_space_group_symop_operation_xyz
x,y,z
-x,-y,-z
loop_
_atom_site_type_symbol
_atom_site_label
_atom_site_fract_x
_atom_site_fract_y
_atom_site_fract_z
Si Si1 0.380026 0.731116 0.563201
Si Si2 0.774281 0.297031 0.070389
Si Si3 0.489453 0.388520 0.204860
Si Si4 0.805219 0.958543 0.330259
Si Si5 0.807019 0.924232 0.017054
Si Si6 0.938207 0.260776 0.778489
Si Si7 0.923927 0.547609 0.720625
O O1 0.463423 0.613653 0.384821
O O2 0.459454 0.707864 0.705310
O O3 0.353571 0.955976 0.660754
O O4 0.212884 0.590468 0.461678
O O5 0.850446 0.254330 0.907752
O O6 0.748793 0.083909 0.012914
O O7 0.618354 0.380864 0.104373
O O8 0.898628 0.447245 0.274209
O O9 0.332931 0.245243 0.055974
O O10 0.861778 0.078047 0.552928
O O11 0.882047 0.755756 0.220231
O O12 0.880879 0.025902 0.231688
O O13 0.906691 0.782238 0.862517
O O14 0.906508 0.458034 0.817662
#
# Coordination Sequence:
#
# PCOD9107856 Si02
#       7
#     2   2   2   2   2   2   2
#     4   9  20  41  61  89 124 169 198 250 316 361
#     4  12  22  37  66 101 119 158 214 264 294 368
#     4  10  22  40  62  90 132 161 204 257 309 364
#     4  10  20  40  66  85 127 167 201 247 319 366
#     4  11  22  39  68  91 125 165 209 250 310 367
#     4  10  23  41  63  93 130 159 202 261 316 360
#     4  10  22  40  66  90 129 163 203 255 315 367
#
# _framework density 24.573045
#
# number of rings (size 3 to 8) (size 9 to 14) (size 15 to 20)
#    0.000    1.714    2.857    1.286    0.000    0.571 
#    0.000   12.857    0.000    0.000    0.000    0.000 
#    0.000    0.000    0.000    0.000    0.000    0.000 
#
# Total GULP energy -77960.573248 kJ/mol
# GULP energy per Si atom -5568.612375 kJ/mol
# Density = 2.451712 g / cm^3
# Si number density = 24.573045 Si / 1000 Ang^3
#
#
#
# Elastic Constant Matrix: (Units=GPa)
#
#
# Indices 1 2 3 4 5 6 
#
# 1 113.5616 12.7236 28.7289 0.6618 -20.2868 -13.2818
# 2 12.7236 36.6142 11.8380 -1.5884 -13.5587 -17.6077
# 3 28.7289 11.8380 101.8671 -1.8386 -23.1497 -0.8938
# 4 0.6618 -1.5884 -1.8386 28.0857 -6.3948 -7.7074
# 5 -20.2868 -13.5587 -23.1497 -6.3948 43.3855 3.3192
# 6 -13.2818 -17.6077 -0.8938 -7.7074 3.3192 43.3234
#
#
#
# Elastic Compliance Matrix: (Units=1/GPa)
#
#
# Indices 1 2 3 4 5 6 
#
# 1 0.010332 -0.000041 -0.002018 0.001304 0.003700 0.003058
# 2 -0.000041 0.041176 -0.001708 0.009761 0.012037 0.017501
# 3 -0.002018 -0.001708 0.011766 0.001562 0.005122 -0.001185
# 4 0.001304 0.009761 0.001562 0.041479 0.009764 0.011030
# 5 0.003700 0.012037 0.005122 0.009764 0.032300 0.005394
# 6 0.003058 0.017501 -0.001185 0.011030 0.005394 0.032657
#
#
# Mechanical properties :
#
#
# Convention : Reuss Voigt Hill
#
# Bulk Modulus (GPa) = 17.94059 39.84709 28.89384
# Shear Modulus (GPa) = 25.53316 36.20908 30.87112
#
# Velocity S-wave (km/s) = 3.22696 3.84282 3.54828
# Velocity P-wave (km/s) = 4.60447 5.99505 5.34518
#
# Compressibility (1/GPa) = 0.05573952
#
# Stress axis : x y z
#
# Youngs Moduli (GPa) = 96.78832 24.28620 84.99041
#
# Poissons Ratio (x) = 0.00099 0.17150
# Poissons Ratio (y) = 0.00395 0.14519
# Poissons Ratio (z) = 0.19531 0.04149
#
# Static dielectric constant tensor:
#      x y z
#    x 2.026770 -0.021380 0.022430 
#    y -0.021380 1.951100 0.020260 
#    z 0.022430 0.020260 2.045230 
# 
# From -- ./inp_files/160194.got.cif
#   From: 2010.05.17/outbox.cif.g08.bks.cpg/sg2_81_cif.got.tgz:160194.got - 2010.06.03 11:33:40.
