data_PCOD9107448
_publ_section_title
;
Structure prediction by ZEFSAII (Michael W. Deem and Ramdas Pophale) SiO2 
 PCOD9107448
Probable space group: P -1
;
_chemical_formula_sum "Si O2"
_cell_formula_units_Z 16
_cell_length_a 12.209835
_cell_length_b 11.013243
_cell_length_c 18.344769
_cell_angle_alpha 132.924412
_cell_angle_beta 26.654046
_cell_angle_gamma 144.674654
_cell_volume 628.749531
_symmetry_space_group_name_H-M "P -1"
_symmetry_group_IT_number 2
_symmetry_cell_setting 'triclinic'
loop_
_space_group_symop_operation_xyz
x,y,z
-x,-y,-z
loop_
_atom_site_type_symbol
_atom_site_label
_atom_site_fract_x
_atom_site_fract_y
_atom_site_fract_z
Si Si1 0.326956 0.347502 0.771428
Si Si2 0.462286 0.730818 0.604361
Si Si3 0.089085 0.313972 0.744898
Si Si4 0.067961 0.464377 0.265066
Si Si5 0.125162 0.905032 0.939538
Si Si6 0.110656 0.909292 0.674992
Si Si7 0.041005 0.672964 0.492903
Si Si8 0.513674 0.233653 0.974993
O O1 0.111384 0.316799 0.820059
O O2 0.680894 0.566531 0.645398
O O3 0.324411 0.146535 0.676244
O O4 0.171922 0.304339 0.925501
O O5 0.346964 0.560460 0.667602
O O6 0.802698 0.811845 0.409660
O O7 0.339471 0.859348 0.753505
O O8 0.243209 0.593676 0.609588
O O9 0.764769 0.235017 0.870451
O O10 0.964660 0.259134 0.287059
O O11 0.303164 0.546438 0.090754
O O12 0.195635 0.656995 0.323872
O O13 0.324332 0.058200 0.952266
O O14 0.000000 0.000000 0.000000
O O15 0.221272 0.880258 0.521070
O O16 0.760567 0.825216 0.833457
O O17 0.000000 0.500000 0.500000
#
# Coordination Sequence:
#
# PCOD9107448 Si02
#       8
#     2   2   2   2   2   2   2   2
#     4  11  24  45  62  99 137 167 227 270 326 402
#     4  10  21  43  65  95 130 174 219 265 337 387
#     4  10  23  43  65  89 135 182 217 266 322 399
#     4  10  20  40  64  92 129 167 220 279 329 395
#     4  11  26  42  67 103 129 170 221 281 342 388
#     4  10  23  40  64  96 130 174 218 280 338 377
#     4  10  23  39  63  97 128 173 219 273 336 392
#     4  10  23  42  64  92 131 170 221 272 321 405
#
# _framework density 25.447336
#
# number of rings (size 3 to 8) (size 9 to 14) (size 15 to 20)
#    0.000    1.750    1.250    1.875    7.000    6.000 
#    4.500    0.000    0.000    0.000    0.000    0.000 
#    0.000    0.000    0.000    0.000    0.000    0.000 
#
# Total GULP energy -89469.578905 kJ/mol
# GULP energy per Si atom -5591.848682 kJ/mol
# Density = 2.538942 g / cm^3
# Si number density = 25.447336 Si / 1000 Ang^3
#
#
#
# Elastic Constant Matrix: (Units=GPa)
#
#
# Indices 1 2 3 4 5 6 
#
# 1 161.7806 20.0342 53.7587 11.5169 -9.0262 -6.9562
# 2 20.0342 66.7006 17.4295 13.7095 9.4305 -3.4448
# 3 53.7587 17.4295 119.3797 11.6743 11.4403 -2.3496
# 4 11.5169 13.7095 11.6743 43.3740 6.0908 5.3313
# 5 -9.0262 9.4305 11.4403 6.0908 59.4842 3.2587
# 6 -6.9562 -3.4448 -2.3496 5.3313 3.2587 44.3117
#
#
#
# Elastic Compliance Matrix: (Units=1/GPa)
#
#
# Indices 1 2 3 4 5 6 
#
# 1 0.007704 -0.001471 -0.003332 -0.001090 0.002106 0.000895
# 2 -0.001471 0.017095 -0.001125 -0.004598 -0.002343 0.001764
# 3 -0.003332 -0.001125 0.010383 -0.001276 -0.002208 0.000256
# 4 -0.001090 -0.004598 -0.001276 0.025811 -0.001638 -0.003581
# 5 0.002106 -0.002343 -0.002208 -0.001638 0.018155 -0.001107
# 6 0.000895 0.001764 0.000256 -0.003581 -0.001107 0.023371
#
#
# Mechanical properties :
#
#
# Convention : Reuss Voigt Hill
#
# Bulk Modulus (GPa) = 42.86902 58.92284 50.89593
# Shear Modulus (GPa) = 40.93303 46.54320 43.73812
#
# Velocity S-wave (km/s) = 4.01501 4.28132 4.15030
# Velocity P-wave (km/s) = 6.19488 6.90251 6.55825
#
# Compressibility (1/GPa) = 0.02332687
#
# Stress axis : x y z
#
# Youngs Moduli (GPa) = 129.80057 58.49500 96.31379
#
# Poissons Ratio (x) = 0.08604 0.32094
# Poissons Ratio (y) = 0.19092 0.10832
# Poissons Ratio (z) = 0.43252 0.06579
#
# Static dielectric constant tensor:
#      x y z
#    x 1.955470 -0.025950 0.004070 
#    y -0.025950 2.138920 -0.026550 
#    z 0.004070 -0.026550 2.108180 
# 
# From -- ./inp_files/434023.got.cif
#   From: 2010.05.17/outbox.cif.g08.bks.cpg/sg2_218_cif.got.tgz:434023.got - 2010.06.03 11:33:40.
