data_PCOD9107894
_publ_section_title
;
Structure prediction by ZEFSAII (Michael W. Deem and Ramdas Pophale) SiO2 
 PCOD9107894
Probable space group: P -1
;
_chemical_formula_sum "Si O2"
_cell_formula_units_Z 16
_cell_length_a 15.674308
_cell_length_b 15.002448
_cell_length_c 10.716463
_cell_angle_alpha 32.651971
_cell_angle_beta 108.651288
_cell_angle_gamma 132.813245
_cell_volume 768.261311
_symmetry_space_group_name_H-M "P -1"
_symmetry_group_IT_number 2
_symmetry_cell_setting 'triclinic'
loop_
_space_group_symop_operation_xyz
x,y,z
-x,-y,-z
loop_
_atom_site_type_symbol
_atom_site_label
_atom_site_fract_x
_atom_site_fract_y
_atom_site_fract_z
Si Si1 0.302255 0.757983 0.901946
Si Si2 0.931989 0.726005 0.826685
Si Si3 0.919199 0.351322 0.926538
Si Si4 0.250726 0.414487 0.885722
Si Si5 0.215135 0.003735 0.238339
Si Si6 0.578863 0.090100 0.795906
Si Si7 0.469148 0.270001 0.211650
Si Si8 0.167732 0.819665 0.176366
O O1 0.440753 0.862689 0.902696
O O2 0.364069 0.008358 0.561763
O O3 0.201989 0.509937 0.052086
O O4 0.194902 0.674663 0.055566
O O5 0.877309 0.661307 0.021554
O O6 0.000000 0.000000 0.500000
O O7 0.047733 0.744319 0.847068
O O8 0.845149 0.153389 0.005619
O O9 0.079300 0.678587 0.592542
O O10 0.332314 0.622425 0.561872
O O11 0.369213 0.573877 0.868939
O O12 0.201513 0.159163 0.119527
O O13 0.203638 0.004727 0.082343
O O14 0.372946 0.150750 0.181086
O O15 0.702224 0.127322 0.813985
O O16 0.500000 0.000000 0.000000
O O17 0.500000 0.500000 0.000000
O O18 0.000000 0.500000 0.500000
#
# Coordination Sequence:
#
# PCOD9107894 Si02
#       8
#     2   2   2   2   2   2   2   2
#     4  11  23  40  68  94 130 178 215 274 340 391
#     4  12  26  41  66 101 134 170 226 283 329 397
#     4  11  22  42  64  91 130 174 224 269 334 394
#     4  10  23  40  62  97 132 166 225 275 328 389
#     4  10  20  40  66  89 126 176 216 272 332 394
#     4  11  23  45  68  96 137 171 223 276 330 397
#     4   9  20  35  63  89 122 165 214 263 329 387
#     4  10  22  41  68  94 125 176 221 264 327 403
#
# _framework density 20.826248
#
# number of rings (size 3 to 8) (size 9 to 14) (size 15 to 20)
#    0.000    1.500    2.500    2.625    5.250    1.000 
#    2.250    3.750    0.000    0.000    0.000    0.000 
#    0.000    0.000    0.000    0.000    0.000    0.000 
#
# Total GULP energy -89219.831229 kJ/mol
# GULP energy per Si atom -5576.239452 kJ/mol
# Density = 2.077885 g / cm^3
# Si number density = 20.826248 Si / 1000 Ang^3
#
#
#
# Elastic Constant Matrix: (Units=GPa)
#
#
# Indices 1 2 3 4 5 6 
#
# 1 89.6246 31.9377 4.0460 -11.6735 -11.8930 16.4278
# 2 31.9377 138.4308 29.0992 -21.9783 -2.0639 5.4753
# 3 4.0460 29.0992 65.5773 -13.9608 4.1076 7.8195
# 4 -11.6735 -21.9783 -13.9608 24.4327 -1.3311 -1.1152
# 5 -11.8930 -2.0639 4.1076 -1.3311 11.3931 8.1404
# 6 16.4278 5.4753 7.8195 -1.1152 8.1404 37.4603
#
#
#
# Elastic Compliance Matrix: (Units=1/GPa)
#
#
# Indices 1 2 3 4 5 6 
#
# 1 0.020419 -0.002434 0.001698 0.009595 0.032645 -0.015761
# 2 -0.002434 0.009267 -0.002849 0.005592 0.000567 0.000351
# 3 0.001698 -0.002849 0.018815 0.008730 -0.001956 -0.003571
# 4 0.009595 0.005592 0.008730 0.056253 0.021486 -0.009842
# 5 0.032645 0.000567 -0.001956 0.021486 0.159468 -0.048004
# 6 -0.015761 0.000351 -0.003571 -0.009842 -0.048004 0.044440
#
#
# Mechanical properties :
#
#
# Convention : Reuss Voigt Hill
#
# Bulk Modulus (GPa) = 24.19514 47.08872 35.64193
# Shear Modulus (GPa) = 15.16948 29.89387 22.53168
#
# Velocity S-wave (km/s) = 2.70178 3.79277 3.29278
# Velocity P-wave (km/s) = 4.62339 6.46835 5.62206
#
# Compressibility (1/GPa) = 0.04133062
#
# Stress axis : x y z
#
# Youngs Moduli (GPa) = 48.97361 107.91394 53.14796
#
# Poissons Ratio (x) = 0.26269 -0.09023
# Poissons Ratio (y) = 0.11922 0.15140
# Poissons Ratio (z) = -0.08314 0.30741
#
# Static dielectric constant tensor:
#      x y z
#    x 1.775540 0.009330 -0.036560 
#    y 0.009330 1.773210 0.021370 
#    z -0.036560 0.021370 1.711220 
# 
# From -- ./inp_files/455404.got.cif
#   From: 2010.05.17/outbox.cif.g08.bks.cpg/sg2_228_cif.got.tgz:455404.got - 2010.06.03 11:33:40.
