data_PCOD9107419
_publ_section_title
;
Structure prediction by ZEFSAII (Michael W. Deem and Ramdas Pophale) SiO2 
 PCOD9107419
Probable space group: P -1
;
_chemical_formula_sum "Si O2"
_cell_formula_units_Z 16
_cell_length_a 9.910790
_cell_length_b 29.384360
_cell_length_c 13.127115
_cell_angle_alpha 19.744732
_cell_angle_beta 46.429990
_cell_angle_gamma 37.944068
_cell_volume 767.840287
_symmetry_space_group_name_H-M "P -1"
_symmetry_group_IT_number 2
_symmetry_cell_setting 'triclinic'
loop_
_space_group_symop_operation_xyz
x,y,z
-x,-y,-z
loop_
_atom_site_type_symbol
_atom_site_label
_atom_site_fract_x
_atom_site_fract_y
_atom_site_fract_z
Si Si1 0.645164 0.863802 0.126729
Si Si2 0.565928 0.041208 0.186744
Si Si3 0.638529 0.633340 0.277052
Si Si4 0.003114 0.141599 0.533724
Si Si5 0.122935 0.736018 0.054661
Si Si6 0.331207 0.886351 0.740256
Si Si7 0.507291 0.636511 0.647237
Si Si8 0.934921 0.367433 0.907728
O O1 0.629726 0.710961 0.481373
O O2 0.905013 0.801077 0.104165
O O3 0.500000 0.000000 0.000000
O O4 0.517818 0.935831 0.932878
O O5 0.422760 0.993801 0.429800
O O6 0.827036 0.902141 0.369526
O O7 0.517098 0.212256 0.891903
O O8 0.679997 0.456932 0.623219
O O9 0.887047 0.586250 0.277477
O O10 0.540301 0.724148 0.028289
O O11 0.751555 0.211652 0.555054
O O12 0.971427 0.278281 0.184011
O O13 0.133836 0.984521 0.721369
O O14 0.038201 0.743255 0.968345
O O15 0.228673 0.838044 0.805659
O O16 0.679439 0.528417 0.695396
O O17 0.500000 0.500000 0.000000
#
# Coordination Sequence:
#
# PCOD9107419 Si02
#       8
#     2   2   2   2   2   2   2   2
#     4  12  25  41  59  90 127 161 200 255 316 355
#     4  11  22  40  67  87 122 166 207 249 301 374
#     4  11  19  40  63  92 119 164 202 250 301 360
#     4  10  20  40  64  91 122 163 204 251 300 366
#     4  12  24  37  64  96 128 156 204 263 302 357
#     4  11  22  38  64  96 126 158 203 252 311 361
#     4  10  23  39  64  89 118 163 206 247 294 371
#     4  11  19  39  68  90 119 161 211 244 301 361
#
# _framework density 20.837668000000001
#
# number of rings (size 3 to 8) (size 9 to 14) (size 15 to 20)
#    0.000    1.000    5.000    3.000    0.000    4.500 
#    0.000    2.500    0.000    3.000    0.000    0.000 
#    0.000    0.000    0.000    0.000    0.000    0.000 
#
# Total GULP energy -89249.454259 kJ/mol
# GULP energy per Si atom -5578.090891 kJ/mol
# Density = 2.079024 g / cm^3
# Si number density = 20.837668 Si / 1000 Ang^3
#
#
#
# Elastic Constant Matrix: (Units=GPa)
#
#
# Indices 1 2 3 4 5 6 
#
# 1 70.8497 16.1761 16.7127 -5.7378 0.8599 -3.2344
# 2 16.1761 97.8288 14.0086 -24.1160 -2.7963 -12.0592
# 3 16.7127 14.0086 86.9695 -5.6686 8.2086 -1.8308
# 4 -5.7378 -24.1160 -5.6686 33.2193 0.0259 0.5614
# 5 0.8599 -2.7963 8.2086 0.0259 38.7350 -4.4128
# 6 -3.2344 -12.0592 -1.8308 0.5614 -4.4128 37.8230
#
#
#
# Elastic Compliance Matrix: (Units=1/GPa)
#
#
# Indices 1 2 3 4 5 6 
#
# 1 0.015241 -0.001872 -0.002574 0.000824 0.000138 0.000586
# 2 -0.001872 0.013556 -0.001301 0.009224 0.001765 0.004168
# 3 -0.002574 -0.001301 0.012501 0.000752 -0.002728 -0.000359
# 4 0.000824 0.009224 0.000752 0.037025 0.000758 0.002587
# 5 0.000138 0.001765 -0.002728 0.000758 0.026925 0.003572
# 6 0.000586 0.004168 -0.000359 0.002587 0.003572 0.028179
#
#
# Mechanical properties :
#
#
# Convention : Reuss Voigt Hill
#
# Bulk Modulus (GPa) = 33.55410 38.82697 36.19054
# Shear Modulus (GPa) = 32.28775 35.87218 34.07997
#
# Velocity S-wave (km/s) = 3.94063 4.15361 4.04852
# Velocity P-wave (km/s) = 6.06978 6.45576 6.26574
#
# Compressibility (1/GPa) = 0.02980262
#
# Stress axis : x y z
#
# Youngs Moduli (GPa) = 65.61310 73.76898 79.99053
#
# Poissons Ratio (x) = 0.13811 0.20591
# Poissons Ratio (y) = 0.12284 0.10410
# Poissons Ratio (z) = 0.16890 0.09600
#
# Static dielectric constant tensor:
#      x y z
#    x 1.745240 0.008330 0.039280 
#    y 0.008330 1.806710 0.005510 
#    z 0.039280 0.005510 1.816170 
# 
# From -- ./inp_files/509178.got.cif
#   From: 2010.05.17/outbox.cif.g08.bks.cpg/sg2_255_cif.got.tgz:509178.got - 2010.06.03 11:33:40.
