data_PCOD9107224
_publ_section_title
;
Structure prediction by ZEFSAII (Michael W. Deem and Ramdas Pophale) SiO2 
 PCOD9107224
Probable space group: P -1
;
_chemical_formula_sum "Si O2"
_cell_formula_units_Z 16
_cell_length_a 10.810637
_cell_length_b 10.179267
_cell_length_c 23.187806
_cell_angle_alpha 41.215478
_cell_angle_beta 45.544053
_cell_angle_gamma 27.013522
_cell_volume 759.745945
_symmetry_space_group_name_H-M "P -1"
_symmetry_group_IT_number 2
_symmetry_cell_setting 'triclinic'
loop_
_space_group_symop_operation_xyz
x,y,z
-x,-y,-z
loop_
_atom_site_type_symbol
_atom_site_label
_atom_site_fract_x
_atom_site_fract_y
_atom_site_fract_z
Si Si1 0.846432 0.116125 0.951259
Si Si2 0.137165 0.137260 0.188849
Si Si3 0.302588 0.433894 0.240289
Si Si4 0.623912 0.457689 0.534924
Si Si5 0.396515 0.475006 0.824813
Si Si6 0.104307 0.740270 0.650090
Si Si7 0.760526 0.706533 0.343739
Si Si8 0.705079 0.579110 0.004278
O O1 0.776113 0.385537 0.853372
O O2 0.558884 0.254308 0.001597
O O3 0.063055 0.798283 0.947671
O O4 0.000000 0.000000 0.000000
O O5 0.910658 0.226435 0.195034
O O6 0.031045 0.222354 0.260278
O O7 0.425431 0.776618 0.201457
O O8 0.166281 0.336186 0.090850
O O9 0.462634 0.453535 0.219756
O O10 0.021112 0.612346 0.301441
O O11 0.504092 0.067248 0.288654
O O12 0.500000 0.500000 0.500000
O O13 0.394276 0.595506 0.609922
O O14 0.683328 0.637074 0.446363
O O15 0.896372 0.089820 0.577739
O O16 0.392913 0.324416 0.929533
O O17 0.150476 0.520926 0.661999
#
# Coordination Sequence:
#
# PCOD9107224 Si02
#       8
#     2   2   2   2   2   2   2   2
#     4  11  24  42  59  91 138 169 194 266 320 368
#     4  12  24  41  67  92 125 165 216 275 297 370
#     4  11  23  40  65  92 122 172 215 251 302 386
#     4  10  20  40  63  92 131 163 195 255 325 386
#     4  11  23  43  63  88 127 171 221 255 309 351
#     4  11  23  39  64 100 129 155 203 264 335 359
#     4  11  21  39  68  94 125 161 210 254 310 406
#     4  11  23  42  64  91 122 172 225 250 310 367
#
# _framework density 21.059670000000001
#
# number of rings (size 3 to 8) (size 9 to 14) (size 15 to 20)
#    0.000    1.000    0.000   10.125    1.750    0.000 
#    2.250    0.000    0.000   15.000    0.000    0.000 
#    0.000    0.000    0.000    0.000    0.000    0.000 
#
# Total GULP energy -89487.846981 kJ/mol
# GULP energy per Si atom -5592.990436 kJ/mol
# Density = 2.101174 g / cm^3
# Si number density = 21.059670 Si / 1000 Ang^3
#
#
#
# Elastic Constant Matrix: (Units=GPa)
#
#
# Indices 1 2 3 4 5 6 
#
# 1 23.5626 12.9413 29.1337 0.0053 -3.9741 -6.7528
# 2 12.9413 138.2055 42.4384 -10.5690 -8.4001 -3.0200
# 3 29.1337 42.4384 115.9168 16.5944 -15.2718 5.5716
# 4 0.0053 -10.5690 16.5944 43.1455 -1.4364 0.0747
# 5 -3.9741 -8.4001 -15.2718 -1.4364 26.5911 8.2994
# 6 -6.7528 -3.0200 5.5716 0.0747 8.2994 35.7527
#
#
#
# Elastic Compliance Matrix: (Units=1/GPa)
#
#
# Indices 1 2 3 4 5 6 
#
# 1 0.072902 0.000357 -0.021380 0.008047 -0.006660 0.018660
# 2 0.000357 0.008697 -0.003797 0.003602 0.000412 0.001291
# 3 -0.021380 -0.003797 0.018015 -0.007561 0.008382 -0.009096
# 4 0.008047 0.003602 -0.007561 0.026909 -0.001583 0.003314
# 5 -0.006660 0.000412 0.008382 -0.001583 0.045559 -0.013102
# 6 0.018660 0.001291 -0.009096 0.003314 -0.013102 0.036055
#
#
# Mechanical properties :
#
#
# Convention : Reuss Voigt Hill
#
# Bulk Modulus (GPa) = 20.01078 49.63462 34.82270
# Shear Modulus (GPa) = 18.21937 33.97597 26.09767
#
# Velocity S-wave (km/s) = 2.94450 4.02097 3.52408
# Velocity P-wave (km/s) = 4.59159 6.72141 5.75587
#
# Compressibility (1/GPa) = 0.04997307
#
# Stress axis : x y z
#
# Youngs Moduli (GPa) = 13.71712 114.98362 55.51083
#
# Poissons Ratio (x) = -0.04105 1.18681
# Poissons Ratio (y) = -0.00490 0.21079
# Poissons Ratio (z) = 0.29327 0.43663
#
# Static dielectric constant tensor:
#      x y z
#    x 1.775280 0.015620 -0.010860 
#    y 0.015620 1.764410 0.021030 
#    z -0.010860 0.021030 1.785260 
# 
# From -- ./inp_files/610347.got.cif
#   From: 2010.05.17/outbox.cif.g08.bks.cpg/sg2_306_cif.got.tgz:610347.got - 2010.06.03 11:33:40.
