data_PCOD9107928
_publ_section_title
;
Structure prediction by ZEFSAII (Michael W. Deem and Ramdas Pophale) SiO2 
 PCOD9107928
Probable space group: P -1
;
_chemical_formula_sum "Si O2"
_cell_formula_units_Z 12
_cell_length_a 7.921480
_cell_length_b 9.129500
_cell_length_c 16.696028
_cell_angle_alpha 33.993683
_cell_angle_beta 49.356150
_cell_angle_gamma 48.296677
_cell_volume 489.406272
_symmetry_space_group_name_H-M "P -1"
_symmetry_group_IT_number 2
_symmetry_cell_setting 'triclinic'
loop_
_space_group_symop_operation_xyz
x,y,z
-x,-y,-z
loop_
_atom_site_type_symbol
_atom_site_label
_atom_site_fract_x
_atom_site_fract_y
_atom_site_fract_z
Si Si1 0.347744 0.268930 0.859424
Si Si2 0.839398 0.926588 0.849917
Si Si3 0.716311 0.026856 0.662147
Si Si4 0.693247 0.175329 0.164103
Si Si5 0.084966 0.576959 0.655211
Si Si6 0.730559 0.297408 0.917985
O O1 0.625973 0.201275 0.811909
O O2 0.247721 0.489104 0.722699
O O3 0.215684 0.298917 0.971362
O O4 0.314181 0.983705 0.965871
O O5 0.798729 0.895598 0.782687
O O6 0.095678 0.931718 0.791463
O O7 0.778893 0.310125 0.505428
O O8 0.452630 0.032112 0.723164
O O9 0.868272 0.828255 0.638219
O O10 0.496682 0.442214 0.137707
O O11 0.779959 0.274177 0.008990
O O12 0.953897 0.348970 0.783070
#
# Coordination Sequence:
#
# PCOD9107928 Si02
#       6
#     2   2   2   2   2   2
#     4  11  23  38  62  98 127 160 206 262 311 359
#     4  11  24  39  64  96 125 163 210 258 305 367
#     4  10  23  45  65  90 126 167 209 250 312 374
#     4  10  21  41  67  90 121 168 210 254 303 367
#     4  10  22  42  68  89 127 170 199 257 319 364
#     4  10  20  40  66  91 121 167 207 253 309 366
#
# _framework density 24.519504999999999
#
# number of rings (size 3 to 8) (size 9 to 14) (size 15 to 20)
#    0.000    1.667    3.333    0.500    0.000    4.667 
#    0.000   12.500    0.000    0.000    0.000    0.000 
#    0.000    0.000    0.000    0.000    0.000    0.000 
#
# Total GULP energy -67132.289695 kJ/mol
# GULP energy per Si atom -5594.357475 kJ/mol
# Density = 2.446370 g / cm^3
# Si number density = 24.519505 Si / 1000 Ang^3
#
#
#
# Elastic Constant Matrix: (Units=GPa)
#
#
# Indices 1 2 3 4 5 6 
#
# 1 183.8677 31.8756 57.3637 5.7323 -17.4095 -38.1304
# 2 31.8756 66.1346 20.3406 4.1620 -16.5497 -14.1009
# 3 57.3637 20.3406 118.7599 7.5164 -16.6200 -6.2778
# 4 5.7323 4.1620 7.5164 29.0770 -1.5168 3.6054
# 5 -17.4095 -16.5497 -16.6200 -1.5168 26.6630 3.9983
# 6 -38.1304 -14.1009 -6.2778 3.6054 3.9983 47.6545
#
#
#
# Elastic Compliance Matrix: (Units=1/GPa)
#
#
# Indices 1 2 3 4 5 6 
#
# 1 0.007938 -0.001228 -0.003025 -0.001209 0.001635 0.005544
# 2 -0.001228 0.019505 -0.001000 -0.002267 0.009954 0.003994
# 3 -0.003025 -0.001000 0.010659 -0.001606 0.004188 -0.001542
# 4 -0.001209 -0.002267 -0.001606 0.035906 -0.000476 -0.004526
# 5 0.001635 0.009954 0.004188 -0.000476 0.047202 0.000881
# 6 0.005544 0.003994 -0.001542 -0.004526 0.000881 0.026667
#
#
# Mechanical properties :
#
#
# Convention : Reuss Voigt Hill
#
# Bulk Modulus (GPa) = 36.23840 65.32467 50.78154
# Shear Modulus (GPa) = 29.83611 37.95772 33.89691
#
# Velocity S-wave (km/s) = 3.49210 3.93881 3.72216
# Velocity P-wave (km/s) = 5.57415 6.88371 6.26325
#
# Compressibility (1/GPa) = 0.02759503
#
# Stress axis : x y z
#
# Youngs Moduli (GPa) = 125.98339 51.26839 93.81601
#
# Poissons Ratio (x) = 0.06297 0.28383
# Poissons Ratio (y) = 0.15473 0.09381
# Poissons Ratio (z) = 0.38114 0.05126
#
# Static dielectric constant tensor:
#      x y z
#    x 1.990670 0.007490 -0.028300 
#    y 0.007490 2.059280 0.004510 
#    z -0.028300 0.004510 1.959910 
# 
# From -- ./inp_files/196252.got.cif
#   From: 2010.05.17/outbox.cif.g08.bks.cpg/sg2_99_cif.got.tgz:196252.got - 2010.06.03 11:33:40.
