data_PCOD9107611
_publ_section_title
;
Structure prediction by ZEFSAII (Michael W. Deem and Ramdas Pophale) SiO2 
 PCOD9107611
Probable space group: P -1
;
_chemical_formula_sum "Si O2"
_cell_formula_units_Z 16
_cell_length_a 19.893619
_cell_length_b 9.258876
_cell_length_c 19.854637
_cell_angle_alpha 133.876696
_cell_angle_beta 160.234934
_cell_angle_gamma 36.718608
_cell_volume 704.655804
_symmetry_space_group_name_H-M "P -1"
_symmetry_group_IT_number 2
_symmetry_cell_setting 'triclinic'
loop_
_space_group_symop_operation_xyz
x,y,z
-x,-y,-z
loop_
_atom_site_type_symbol
_atom_site_label
_atom_site_fract_x
_atom_site_fract_y
_atom_site_fract_z
Si Si1 0.849397 0.826726 0.168001
Si Si2 0.272196 0.309928 0.566949
Si Si3 0.250807 0.426620 0.910812
Si Si4 0.326654 0.742903 0.178588
Si Si5 0.663469 0.827395 0.852856
Si Si6 0.948271 0.742081 0.972455
Si Si7 0.640587 0.711251 0.566752
Si Si8 0.658502 0.354270 0.169672
O O1 0.736811 0.803677 0.122161
O O2 0.103290 0.542546 0.303766
O O3 0.871344 0.052862 0.263316
O O4 0.671012 0.890940 0.957152
O O5 0.454700 0.293204 0.675793
O O6 0.241106 0.506284 0.655758
O O7 0.016182 0.396299 0.320560
O O8 0.404894 0.042901 0.643438
O O9 0.262914 0.567178 0.032039
O O10 0.462331 0.372433 0.042167
O O11 0.437748 0.678597 0.337478
O O12 0.095719 0.035250 0.041209
O O13 0.863393 0.833969 0.998549
O O14 0.787567 0.532561 0.869634
O O15 0.740588 0.713947 0.735446
O O16 0.500000 0.000000 0.500000
O O17 0.500000 0.500000 0.000000
#
# Coordination Sequence:
#
# PCOD9107611 Si02
#       8
#     2   2   2   2   2   2   2   2
#     4  11  21  40  65  95 128 164 211 263 310 371
#     4  10  20  40  65  88 126 167 206 260 312 373
#     4  11  24  40  65  95 126 163 213 261 311 373
#     4   9  18  37  61  89 127 167 204 256 316 367
#     4   9  17  34  62  88 126 165 206 258 312 366
#     4   8  16  31  63  90 119 170 212 249 308 376
#     4   9  17  35  64  95 123 167 209 254 314 372
#     4  11  24  44  66  92 127 168 211 257 320 373
#
# _framework density 22.706122000000001
#
# number of rings (size 3 to 8) (size 9 to 14) (size 15 to 20)
#    0.000    2.250    2.500    0.375    0.000    1.000 
#    2.250    6.250    0.000    0.000    0.000    0.000 
#    0.000    0.000    0.000    0.000    0.000    0.000 
#
# Total GULP energy -89213.767304 kJ/mol
# GULP energy per Si atom -5575.860457 kJ/mol
# Density = 2.265444 g / cm^3
# Si number density = 22.706122 Si / 1000 Ang^3
#
#
#
# Elastic Constant Matrix: (Units=GPa)
#
#
# Indices 1 2 3 4 5 6 
#
# 1 52.7809 15.6407 14.7515 -11.4451 -13.7147 8.5387
# 2 15.6407 100.4442 22.8025 -21.2763 -8.6303 -2.3737
# 3 14.7515 22.8025 91.5370 -11.4959 -15.9891 -1.8023
# 4 -11.4451 -21.2763 -11.4959 24.8183 2.7067 -6.8149
# 5 -13.7147 -8.6303 -15.9891 2.7067 29.8843 -3.5589
# 6 8.5387 -2.3737 -1.8023 -6.8149 -3.5589 33.3307
#
#
#
# Elastic Compliance Matrix: (Units=1/GPa)
#
#
# Indices 1 2 3 4 5 6 
#
# 1 0.024233 -0.001230 -0.001154 0.007545 0.009006 -0.003854
# 2 -0.001230 0.012959 -0.001273 0.010720 0.001951 0.003569
# 3 -0.001154 -0.001273 0.013083 0.004460 0.005992 0.002464
# 4 0.007545 0.010720 0.004460 0.057602 0.005084 0.011392
# 5 0.009006 0.001951 0.005992 0.005084 0.041334 0.003609
# 6 -0.003854 0.003569 0.002464 0.011392 0.003609 0.034092
#
#
# Mechanical properties :
#
#
# Convention : Reuss Voigt Hill
#
# Bulk Modulus (GPa) = 23.27681 39.01686 31.14683
# Shear Modulus (GPa) = 24.39772 30.37782 27.38777
#
# Velocity S-wave (km/s) = 3.28151 3.66166 3.47678
# Velocity P-wave (km/s) = 4.96300 5.92433 5.46484
#
# Compressibility (1/GPa) = 0.04296122
#
# Stress axis : x y z
#
# Youngs Moduli (GPa) = 41.26582 77.16652 76.43619
#
# Poissons Ratio (x) = 0.09495 0.08820
# Poissons Ratio (y) = 0.05078 0.09727
# Poissons Ratio (z) = 0.04762 0.09819
#
# Static dielectric constant tensor:
#      x y z
#    x 1.907770 -0.032870 0.023970 
#    y -0.032870 1.872290 -0.011020 
#    z 0.023970 -0.011020 1.826080 
# 
# From -- ./inp_files/601194.got.cif
#   From: 2010.05.17/outbox.cif.g08.bks.cpg/sg2_301_cif.got.tgz:601194.got - 2010.06.03 11:33:40.
