data_PCOD9107488
_publ_section_title
;
Structure prediction by ZEFSAII (Michael W. Deem and Ramdas Pophale) SiO2 
 PCOD9107488
Probable space group: P -1
;
_chemical_formula_sum "Si O2"
_cell_formula_units_Z 14
_cell_length_a 8.977667
_cell_length_b 9.054950
_cell_length_c 12.260321
_cell_angle_alpha 111.893279
_cell_angle_beta 46.203921
_cell_angle_gamma 127.453997
_cell_volume 569.085689
_symmetry_space_group_name_H-M "P -1"
_symmetry_group_IT_number 2
_symmetry_cell_setting 'triclinic'
loop_
_space_group_symop_operation_xyz
x,y,z
-x,-y,-z
loop_
_atom_site_type_symbol
_atom_site_label
_atom_site_fract_x
_atom_site_fract_y
_atom_site_fract_z
Si Si1 0.749827 0.449741 0.555836
Si Si2 0.484595 0.307317 0.976640
Si Si3 0.857615 0.215363 0.295075
Si Si4 0.204968 0.209866 0.303211
Si Si5 0.403205 0.981517 0.166771
Si Si6 0.924458 0.313065 0.053729
Si Si7 0.729823 0.826968 0.162589
O O1 0.706529 0.302107 0.443692
O O2 0.762592 0.643703 0.580804
O O3 0.532605 0.346039 0.722644
O O4 0.000000 0.500000 0.500000
O O5 0.257607 0.164690 0.973669
O O6 0.657012 0.227851 0.833926
O O7 0.500000 0.500000 0.000000
O O8 0.433389 0.286439 0.125714
O O9 0.989001 0.347597 0.159545
O O10 0.010396 0.204045 0.315723
O O11 0.734054 0.006021 0.255527
O O12 0.186748 0.020566 0.298843
O O13 0.638706 0.154956 0.153031
O O14 0.500000 0.000000 0.000000
O O15 0.000000 0.500000 0.000000
O O16 0.076757 0.223379 0.907193
#
# Coordination Sequence:
#
# PCOD9107488 Si02
#       7
#     2   2   2   2   2   2   2
#     4  10  23  41  66  95 131 179 225 265 324 409
#     4  11  20  34  66  98 124 170 217 271 326 380
#     4  11  23  42  67  97 135 177 218 270 333 395
#     4  10  20  40  64  94 131 173 215 266 328 391
#     4  10  22  38  60  98 136 165 211 277 327 386
#     4  12  25  40  66 104 132 169 219 282 333 387
#     4  12  21  41  67  96 129 171 227 272 327 388
#
# _framework density 24.600864999999999
#
# number of rings (size 3 to 8) (size 9 to 14) (size 15 to 20)
#    0.000    1.143    4.286    3.429    2.000    0.000 
#    0.000    2.857    0.000    1.714    0.000    0.000 
#    0.000    0.000    0.000    0.000    0.000    0.000 
#
# Total GULP energy -78000.442269 kJ/mol
# GULP energy per Si atom -5571.460162 kJ/mol
# Density = 2.454487 g / cm^3
# Si number density = 24.600865 Si / 1000 Ang^3
#
#
#
# Elastic Constant Matrix: (Units=GPa)
#
#
# Indices 1 2 3 4 5 6 
#
# 1 79.3770 45.7106 16.8934 18.3069 -5.8231 -20.5002
# 2 45.7106 186.3666 50.9099 58.6288 -7.8269 -35.1567
# 3 16.8934 50.9099 80.6244 38.4286 -9.2706 -9.3359
# 4 18.3069 58.6288 38.4286 65.7958 -1.4461 -12.2682
# 5 -5.8231 -7.8269 -9.2706 -1.4461 20.5255 9.7832
# 6 -20.5002 -35.1567 -9.3359 -12.2682 9.7832 44.2594
#
#
#
# Elastic Compliance Matrix: (Units=1/GPa)
#
#
# Indices 1 2 3 4 5 6 
#
# 1 0.015636 -0.002450 -0.000659 -0.000884 0.000895 0.004715
# 2 -0.002450 0.009006 -0.002258 -0.005249 -0.000669 0.004235
# 3 -0.000659 -0.002258 0.018978 -0.009162 0.008026 -0.002409
# 4 -0.000884 -0.005249 -0.009162 0.025691 -0.005445 0.001813
# 5 0.000895 -0.000669 0.008026 -0.005445 0.058044 -0.012763
# 6 0.004715 0.004235 -0.002409 0.001813 -0.012763 0.030958
#
#
# Mechanical properties :
#
#
# Convention : Reuss Voigt Hill
#
# Bulk Modulus (GPa) = 30.40847 63.71065 47.05956
# Shear Modulus (GPa) = 27.77643 41.63974 34.70809
#
# Velocity S-wave (km/s) = 3.36383 4.11860 3.76020
# Velocity P-wave (km/s) = 5.24163 6.96930 6.16627
#
# Compressibility (1/GPa) = 0.03288557
#
# Stress axis : x y z
#
# Youngs Moduli (GPa) = 63.95329 111.04064 52.69343
#
# Poissons Ratio (x) = 0.27207 0.03474
# Poissons Ratio (y) = 0.15670 0.11897
# Poissons Ratio (z) = 0.04216 0.25070
#
# Static dielectric constant tensor:
#      x y z
#    x 2.136010 0.024130 0.005240 
#    y 0.024130 2.082130 -0.029610 
#    z 0.005240 -0.029610 2.002530 
# 
# From -- ./inp_files/237263.got.cif
#   From: 2010.05.17/outbox.cif.g08.bks.cpg/sg2_119_cif.got.tgz:237263.got - 2010.06.03 11:33:40.
