data_PCOD9107249
_publ_section_title
;
Structure prediction by ZEFSAII (Michael W. Deem and Ramdas Pophale) SiO2 
 PCOD9107249
Probable space group: P -1
;
_chemical_formula_sum "Si O2"
_cell_formula_units_Z 16
_cell_length_a 12.135711
_cell_length_b 14.961748
_cell_length_c 20.469189
_cell_angle_alpha 153.651218
_cell_angle_beta 157.747636
_cell_angle_gamma 33.425879
_cell_volume 624.365688
_symmetry_space_group_name_H-M "P -1"
_symmetry_group_IT_number 2
_symmetry_cell_setting 'triclinic'
loop_
_space_group_symop_operation_xyz
x,y,z
-x,-y,-z
loop_
_atom_site_type_symbol
_atom_site_label
_atom_site_fract_x
_atom_site_fract_y
_atom_site_fract_z
Si Si1 0.345449 0.685110 0.251793
Si Si2 0.567482 0.852415 0.356667
Si Si3 0.268496 0.261214 0.325986
Si Si4 0.556372 0.075847 0.173217
Si Si5 0.311457 0.312898 0.076547
Si Si6 0.034323 0.987166 0.911827
Si Si7 0.156774 0.782439 0.447535
Si Si8 0.827366 0.571719 0.219964
O O1 0.536923 0.699421 0.300334
O O2 0.998937 0.647325 0.032680
O O3 0.366278 0.918918 0.438466
O O4 0.432888 0.503934 0.230294
O O5 0.243576 0.866196 0.157212
O O6 0.800646 0.774773 0.381510
O O7 0.614952 0.281519 0.525135
O O8 0.075182 0.428805 0.293354
O O9 0.113642 0.216201 0.279744
O O10 0.224742 0.060431 0.125650
O O11 0.655922 0.203441 0.373368
O O12 0.733133 0.869615 0.119069
O O13 0.525481 0.216617 0.185340
O O14 0.238558 0.994027 0.965917
O O15 0.914265 0.624190 0.228348
O O16 0.000000 0.000000 0.500000
O O17 0.500000 0.500000 0.000000
#
# Coordination Sequence:
#
# PCOD9107249 Si02
#       8
#     2   2   2   2   2   2   2   2
#     4  10  23  40  65  96 134 179 232 276 344 408
#     4  11  22  41  62  97 139 179 222 286 334 412
#     4  10  23  41  66  96 136 177 232 273 341 410
#     4  10  22  40  69  96 139 175 229 289 345 409
#     4  10  21  42  66  98 130 180 228 281 345 415
#     4  10  20  40  63  94 134 180 217 281 342 402
#     4  11  25  44  68 101 138 179 226 287 347 413
#     4  12  25  41  68 100 137 179 230 280 343 417
#
# _framework density 25.626007999999999
#
# number of rings (size 3 to 8) (size 9 to 14) (size 15 to 20)
#    0.000    1.500    2.500    1.875    5.250    1.000 
#    0.000    5.625    0.000    0.000    0.000    0.000 
#    0.000    0.000    0.000    0.000    0.000    0.000 
#
# Total GULP energy -89488.630731 kJ/mol
# GULP energy per Si atom -5593.039421 kJ/mol
# Density = 2.556768 g / cm^3
# Si number density = 25.626008 Si / 1000 Ang^3
#
#
#
# Elastic Constant Matrix: (Units=GPa)
#
#
# Indices 1 2 3 4 5 6 
#
# 1 95.3032 26.6607 35.5770 13.6623 38.9962 4.4825
# 2 26.6607 105.5528 22.8367 14.6781 38.8766 6.1684
# 3 35.5770 22.8367 119.7685 12.0796 32.4343 9.3229
# 4 13.6623 14.6781 12.0796 34.5292 1.8087 18.3164
# 5 38.9962 38.8766 32.4343 1.8087 61.5036 6.4668
# 6 4.4825 6.1684 9.3229 18.3164 6.4668 45.7294
#
#
#
# Elastic Compliance Matrix: (Units=1/GPa)
#
#
# Indices 1 2 3 4 5 6 
#
# 1 0.015732 0.000747 -0.001729 -0.006947 -0.009631 0.002854
# 2 0.000747 0.013385 0.000191 -0.006653 -0.009052 0.002027
# 3 -0.001729 0.000191 0.010289 -0.002614 -0.004343 -0.000293
# 4 -0.006947 -0.006653 -0.002614 0.043896 0.010480 -0.016953
# 5 -0.009631 -0.009052 -0.004343 0.010480 0.030646 -0.005481
# 6 0.002854 0.002027 -0.000293 -0.016953 -0.005481 0.028940
#
#
# Mechanical properties :
#
#
# Convention : Reuss Voigt Hill
#
# Bulk Modulus (GPa) = 26.43912 54.53039 40.48476
# Shear Modulus (GPa) = 31.83150 44.05578 37.94364
#
# Velocity S-wave (km/s) = 3.52825 4.15080 3.85212
# Velocity P-wave (km/s) = 5.19016 6.65565 5.96806
#
# Compressibility (1/GPa) = 0.03782274
#
# Stress axis : x y z
#
# Youngs Moduli (GPa) = 63.56632 74.71157 97.19033
#
# Poissons Ratio (x) = -0.05580 0.16803
# Poissons Ratio (y) = -0.04748 -0.01853
# Poissons Ratio (z) = 0.10990 -0.01424
#
# Static dielectric constant tensor:
#      x y z
#    x 2.034560 0.033670 -0.035300 
#    y 0.033670 1.969950 -0.005530 
#    z -0.035300 -0.005530 2.200510 
# 
# From -- ./inp_files/619775.got.cif
#   From: 2010.05.17/outbox.cif.g08.bks.cpg/sg2_310_cif.got.tgz:619775.got - 2010.06.03 11:33:40.
