data_PCOD9107869
_publ_section_title
;
Structure prediction by ZEFSAII (Michael W. Deem and Ramdas Pophale) SiO2 
 PCOD9107869
Probable space group: P -1
;
_chemical_formula_sum "Si O2"
_cell_formula_units_Z 16
_cell_length_a 11.114393
_cell_length_b 13.975823
_cell_length_c 9.473560
_cell_angle_alpha 92.994068
_cell_angle_beta 104.627397
_cell_angle_gamma 29.101085
_cell_volume 646.627367
_symmetry_space_group_name_H-M "P -1"
_symmetry_group_IT_number 2
_symmetry_cell_setting 'triclinic'
loop_
_space_group_symop_operation_xyz
x,y,z
-x,-y,-z
loop_
_atom_site_type_symbol
_atom_site_label
_atom_site_fract_x
_atom_site_fract_y
_atom_site_fract_z
Si Si1 0.520098 0.966127 0.312092
Si Si2 0.371710 0.266858 0.230905
Si Si3 0.582184 0.446972 0.189098
Si Si4 0.607886 0.072001 0.978311
Si Si5 0.244165 0.856435 0.159395
Si Si6 0.176647 0.601376 0.214592
Si Si7 0.127883 0.622031 0.520637
Si Si8 0.608729 0.137494 0.571754
O O1 0.427929 0.942198 0.380746
O O2 0.822496 0.790106 0.433256
O O3 0.314908 0.198009 0.264791
O O4 0.529082 0.917376 0.153340
O O5 0.478085 0.180664 0.098973
O O6 0.151917 0.502247 0.192596
O O7 0.600977 0.142860 0.402663
O O8 0.369431 0.668569 0.210862
O O9 0.469109 0.425624 0.216673
O O10 0.835759 0.329302 0.332941
O O11 0.500000 0.500000 0.000000
O O12 0.588117 0.181527 0.886380
O O13 0.923032 0.823484 0.075559
O O14 0.153761 0.969960 0.284090
O O15 0.000000 0.000000 0.000000
O O16 0.176047 0.634237 0.380344
O O17 0.345912 0.383516 0.564671
#
# Coordination Sequence:
#
# PCOD9107869 Si02
#       8
#     2   2   2   2   2   2   2   2
#     4  11  22  42  65  92 132 167 212 258 317 376
#     4  11  23  41  64  94 127 168 216 252 319 378
#     4  11  23  42  66  96 125 162 220 262 314 379
#     4  11  23  43  65  95 129 169 210 261 315 377
#     4  10  20  40  66  87 124 167 207 259 320 365
#     4  11  23  43  65  94 130 168 208 264 317 370
#     4  10  22  42  66  91 130 171 204 265 321 373
#     4   9  22  40  63  92 126 166 212 263 311 376
#
# _framework density 24.743772
#
# number of rings (size 3 to 8) (size 9 to 14) (size 15 to 20)
#    0.000    1.500    2.500    2.250    0.000    1.500 
#    4.500    1.250    0.000    0.000    0.000    0.000 
#    0.000    0.000    0.000    0.000    0.000    0.000 
#
# Total GULP energy -89266.497924 kJ/mol
# GULP energy per Si atom -5579.156120 kJ/mol
# Density = 2.468745 g / cm^3
# Si number density = 24.743772 Si / 1000 Ang^3
#
#
#
# Elastic Constant Matrix: (Units=GPa)
#
#
# Indices 1 2 3 4 5 6 
#
# 1 82.1631 23.1243 42.4908 1.8057 8.1527 13.0796
# 2 23.1243 51.1882 22.4462 24.7962 11.2289 21.1250
# 3 42.4908 22.4462 202.0532 31.5250 20.2923 -8.1496
# 4 1.8057 24.7962 31.5250 41.3074 3.7700 2.0797
# 5 8.1527 11.2289 20.2923 3.7700 43.8724 -6.2743
# 6 13.0796 21.1250 -8.1496 2.0797 -6.2743 37.3828
#
#
#
# Elastic Compliance Matrix: (Units=1/GPa)
#
#
# Indices 1 2 3 4 5 6 
#
# 1 0.016757 -0.008489 -0.003816 0.007406 -0.000147 -0.002334
# 2 -0.008489 0.049811 0.000830 -0.027702 -0.012838 -0.025611
# 3 -0.003816 0.000830 0.006791 -0.005464 -0.001840 0.002342
# 4 0.007406 -0.027702 -0.005464 0.043612 0.005988 0.010451
# 5 -0.000147 -0.012838 -0.001840 0.005988 0.028056 0.011280
# 6 -0.002334 -0.025611 0.002342 0.010451 0.011280 0.043862
#
#
# Mechanical properties :
#
#
# Convention : Reuss Voigt Hill
#
# Bulk Modulus (GPa) = 19.83719 56.83635 38.33677
# Shear Modulus (GPa) = 21.86829 41.00207 31.43518
#
# Velocity S-wave (km/s) = 2.97609 4.07512 3.56817
# Velocity P-wave (km/s) = 4.45465 6.72027 5.70114
#
# Compressibility (1/GPa) = 0.05041037
#
# Stress axis : x y z
#
# Youngs Moduli (GPa) = 59.67740 20.07576 147.24832
#
# Poissons Ratio (x) = 0.17042 0.56187
# Poissons Ratio (y) = 0.50659 -0.12223
# Poissons Ratio (z) = 0.22772 -0.01666
#
# Static dielectric constant tensor:
#      x y z
#    x 1.869420 0.063280 0.072200 
#    y 0.063280 2.048980 -0.124880 
#    z 0.072200 -0.124880 2.119530 
# 
# From -- ./inp_files/273465.got.cif
#   From: 2010.05.17/outbox.cif.g08.bks.cpg/sg2_137_cif.got.tgz:273465.got - 2010.06.03 11:33:40.
