data_PCOD9107497
_publ_section_title
;
Structure prediction by ZEFSAII (Michael W. Deem and Ramdas Pophale) SiO2 
 PCOD9107497
Probable space group: P -1
;
_chemical_formula_sum "Si O2"
_cell_formula_units_Z 16
_cell_length_a 10.540394
_cell_length_b 20.112738
_cell_length_c 8.867702
_cell_angle_alpha 88.371968
_cell_angle_beta 87.571017
_cell_angle_gamma 24.906026
_cell_volume 790.756504
_symmetry_space_group_name_H-M "P -1"
_symmetry_group_IT_number 2
_symmetry_cell_setting 'triclinic'
loop_
_space_group_symop_operation_xyz
x,y,z
-x,-y,-z
loop_
_atom_site_type_symbol
_atom_site_label
_atom_site_fract_x
_atom_site_fract_y
_atom_site_fract_z
Si Si1 0.769215 0.598539 0.829876
Si Si2 0.482502 0.076905 0.086256
Si Si3 0.621059 0.872540 0.559812
Si Si4 0.124325 0.551941 0.898345
Si Si5 0.619533 0.254501 0.440676
Si Si6 0.286872 0.908163 0.024129
Si Si7 0.701520 0.082430 0.635849
Si Si8 0.662743 0.484424 0.405422
O O1 0.633697 0.643274 0.674936
O O2 0.043429 0.521622 0.811569
O O3 0.791023 0.523234 0.941281
O O4 0.531330 0.758811 0.914792
O O5 0.494597 0.072409 0.266132
O O6 0.162624 0.265245 0.059405
O O7 0.750782 0.997458 0.024561
O O8 0.500000 0.000000 0.000000
O O9 0.482933 0.881724 0.458369
O O10 0.982164 0.691778 0.560480
O O11 0.500000 0.000000 0.500000
O O12 0.325492 0.502777 0.778147
O O13 0.673326 0.166490 0.551505
O O14 0.504699 0.372846 0.525751
O O15 0.950222 0.107253 0.359970
O O16 0.399692 0.857882 0.192416
O O17 0.000000 0.000000 0.000000
O O18 0.500000 0.500000 0.500000
#
# Coordination Sequence:
#
# PCOD9107497 Si02
#       8
#     2   2   2   2   2   2   2   2
#     4  10  20  40  64  95 120 164 211 271 318 379
#     4  10  22  40  65  92 125 168 213 262 323 390
#     4  11  24  43  66  93 129 172 217 262 322 392
#     4   9  21  40  65  88 127 161 212 262 323 379
#     4  11  23  38  62  94 129 164 215 266 321 374
#     4  11  21  38  63  94 126 164 212 266 318 376
#     4  11  23  39  65  95 131 168 214 264 328 382
#     4  11  24  43  62  91 131 171 215 266 323 384
#
# _framework density 20.233789000000002
#
# number of rings (size 3 to 8) (size 9 to 14) (size 15 to 20)
#    0.000    1.500    1.250    4.500    1.750    7.000 
#    2.250    0.625    0.000    0.000    0.000    0.000 
#    0.000    0.000    0.000    0.000    0.000    0.000 
#
# Total GULP energy -89154.585666 kJ/mol
# GULP energy per Si atom -5572.161604 kJ/mol
# Density = 2.018774 g / cm^3
# Si number density = 20.233789 Si / 1000 Ang^3
#
#
#
# Elastic Constant Matrix: (Units=GPa)
#
#
# Indices 1 2 3 4 5 6 
#
# 1 132.8907 28.7669 48.2988 8.6513 -7.0433 14.6538
# 2 28.7669 44.0194 -6.0383 -0.5366 -1.8274 26.1325
# 3 48.2988 -6.0383 73.1490 -3.7352 -5.1079 4.4635
# 4 8.6513 -0.5366 -3.7352 31.0196 5.7802 0.7665
# 5 -7.0433 -1.8274 -5.1079 5.7802 36.8505 2.9023
# 6 14.6538 26.1325 4.4635 0.7665 2.9023 34.9702
#
#
#
# Elastic Compliance Matrix: (Units=1/GPa)
#
#
# Indices 1 2 3 4 5 6 
#
# 1 0.014805 -0.015391 -0.011717 -0.006137 0.000865 0.006856
# 2 -0.015391 0.060166 0.018373 0.007704 0.004642 -0.041411
# 3 -0.011717 0.018373 0.024134 0.006426 0.001970 -0.012205
# 4 -0.006137 0.007704 0.006426 0.035932 -0.005193 -0.004362
# 5 0.000865 0.004642 0.001970 -0.005193 0.029123 -0.006386
# 6 0.006856 -0.041411 -0.012205 -0.004362 -0.006386 0.058851
#
#
# Mechanical properties :
#
#
# Convention : Reuss Voigt Hill
#
# Bulk Modulus (GPa) = 12.24957 43.56822 27.90890
# Shear Modulus (GPa) = 18.67821 32.50353 25.59087
#
# Velocity S-wave (km/s) = 3.04158 4.01234 3.56020
# Velocity P-wave (km/s) = 4.28977 6.56082 5.54285
#
# Compressibility (1/GPa) = 0.08163550
#
# Stress axis : x y z
#
# Youngs Moduli (GPa) = 67.54701 16.62068 41.43476
#
# Poissons Ratio (x) = 0.25581 0.48549
# Poissons Ratio (y) = 1.03962 -0.76130
# Poissons Ratio (z) = 0.79144 -0.30538
#
# Static dielectric constant tensor:
#      x y z
#    x 1.781720 -0.057660 -0.090020 
#    y -0.057660 1.734250 -0.001810 
#    z -0.090020 -0.001810 1.682380 
# 
# From -- ./inp_files/217681.got.cif
#   From: 2010.05.17/outbox.cif.g08.bks.cpg/sg2_109_cif.got.tgz:217681.got - 2010.06.03 11:33:40.
