data_PCOD9107341
_publ_section_title
;
Structure prediction by ZEFSAII (Michael W. Deem and Ramdas Pophale) SiO2 
 PCOD9107341
Probable space group: P -1
;
_chemical_formula_sum "Si O2"
_cell_formula_units_Z 14
_cell_length_a 18.102281
_cell_length_b 9.425224
_cell_length_c 5.089748
_cell_angle_alpha 41.682835
_cell_angle_beta 117.842006
_cell_angle_gamma 117.905837
_cell_volume 500.036822
_symmetry_space_group_name_H-M "P -1"
_symmetry_group_IT_number 2
_symmetry_cell_setting 'triclinic'
loop_
_space_group_symop_operation_xyz
x,y,z
-x,-y,-z
loop_
_atom_site_type_symbol
_atom_site_label
_atom_site_fract_x
_atom_site_fract_y
_atom_site_fract_z
Si Si1 0.558630 0.198031 0.473614
Si Si2 0.126798 0.135843 0.530726
Si Si3 0.853498 0.384505 0.345315
Si Si4 0.987980 0.257099 0.436588
Si Si5 0.579395 0.678426 0.605792
Si Si6 0.687889 0.761793 0.157858
Si Si7 0.743187 0.301390 0.789372
O O1 0.508413 0.245313 0.586811
O O2 0.652968 0.158211 0.744626
O O3 0.500000 0.000000 0.500000
O O4 0.568037 0.423741 0.014980
O O5 0.221403 0.097844 0.795823
O O6 0.078194 0.185481 0.647912
O O7 0.072866 0.932167 0.567696
O O8 0.132566 0.360436 0.064854
O O9 0.939544 0.291101 0.578386
O O10 0.812272 0.353521 0.602255
O O11 0.787175 0.257205 0.195143
O O12 0.000000 0.500000 0.000000
O O13 0.618051 0.714342 0.335104
O O14 0.646296 0.808442 0.749973
O O15 0.714661 0.530015 0.477787
#
# Coordination Sequence:
#
# PCOD9107341 Si02
#       7
#     2   2   2   2   2   2   2
#     4  10  22  39  60  88 121 157 197 243 297 350
#     4   9  18  36  62  88 118 157 196 240 294 349
#     4  10  21  40  62  86 118 156 197 243 292 345
#     4   9  19  37  61  91 123 154 194 242 293 351
#     4  10  23  41  61  87 120 155 197 247 292 345
#     4  10  20  40  64  86 117 157 198 243 293 345
#     4  10  21  39  62  87 119 155 197 247 291 344
#
# _framework density 27.997941999999998
#
# number of rings (size 3 to 8) (size 9 to 14) (size 15 to 20)
#    0.000    2.286    0.000    3.429    0.000    8.571 
#    0.000   25.714    0.000   36.857    0.000    0.000 
#    0.000    0.000    0.000    0.000    0.000    0.000 
#
# Total GULP energy -78601.011880 kJ/mol
# GULP energy per Si atom -5614.357991 kJ/mol
# Density = 2.793422 g / cm^3
# Si number density = 27.997942 Si / 1000 Ang^3
#
#
#
# Elastic Constant Matrix: (Units=GPa)
#
#
# Indices 1 2 3 4 5 6 
#
# 1 222.9530 55.8048 42.5028 5.1976 -2.5001 -18.6456
# 2 55.8048 185.5002 46.1836 -8.0231 -29.7597 25.2956
# 3 42.5028 46.1836 117.6220 -25.9252 -1.3272 -10.0301
# 4 5.1976 -8.0231 -25.9252 56.3904 -2.6974 -5.8311
# 5 -2.5001 -29.7597 -1.3272 -2.6974 29.3157 7.9390
# 6 -18.6456 25.2956 -10.0301 -5.8311 7.9390 63.9820
#
#
#
# Elastic Compliance Matrix: (Units=1/GPa)
#
#
# Indices 1 2 3 4 5 6 
#
# 1 0.005456 -0.002126 -0.001231 -0.001240 -0.002523 0.002438
# 2 -0.002126 0.009490 -0.003401 -0.000141 0.010986 -0.006281
# 3 -0.001231 -0.003401 0.011714 0.005232 -0.003558 0.003740
# 4 -0.001240 -0.000141 0.005232 0.020524 0.001273 0.002227
# 5 -0.002523 0.010986 -0.003558 0.001273 0.048117 -0.011491
# 6 0.002438 -0.006281 0.003740 0.002227 -0.011491 0.021038
#
#
# Mechanical properties :
#
#
# Convention : Reuss Voigt Hill
#
# Bulk Modulus (GPa) = 76.07297 90.56196 83.31747
# Shear Modulus (GPa) = 37.24800 55.37653 46.31226
#
# Velocity S-wave (km/s) = 3.65140 4.45216 4.07151
# Velocity P-wave (km/s) = 6.70872 7.67106 7.20597
#
# Compressibility (1/GPa) = 0.01314527
#
# Stress axis : x y z
#
# Youngs Moduli (GPa) = 183.26928 105.37592 85.36960
#
# Poissons Ratio (x) = 0.22400 0.10508
# Poissons Ratio (y) = 0.38958 0.29032
# Poissons Ratio (z) = 0.22559 0.35835
#
# Static dielectric constant tensor:
#      x y z
#    x 2.155770 0.063380 0.012980 
#    y 0.063380 2.300550 -0.027350 
#    z 0.012980 -0.027350 2.147390 
# 
# From -- ./inp_files/104425.got.cif
#   From: 2010.05.17/outbox.cif.g08.bks.cpg/sg2_53_cif.got.tgz:104425.got - 2010.06.03 11:33:40.
