data_PCOD9107711
_publ_section_title
;
Structure prediction by ZEFSAII (Michael W. Deem and Ramdas Pophale) SiO2 
 PCOD9107711
Probable space group: P -1
;
_chemical_formula_sum "Si O2"
_cell_formula_units_Z 16
_cell_length_a 8.713016
_cell_length_b 11.368775
_cell_length_c 10.685025
_cell_angle_alpha 121.673515
_cell_angle_beta 65.551375
_cell_angle_gamma 136.700662
_cell_volume 616.844439
_symmetry_space_group_name_H-M "P -1"
_symmetry_group_IT_number 2
_symmetry_cell_setting 'triclinic'
loop_
_space_group_symop_operation_xyz
x,y,z
-x,-y,-z
loop_
_atom_site_type_symbol
_atom_site_label
_atom_site_fract_x
_atom_site_fract_y
_atom_site_fract_z
Si Si1 0.807542 0.121376 0.942922
Si Si2 0.303798 0.433984 0.839554
Si Si3 0.127347 0.971601 0.540092
Si Si4 0.068549 0.092761 0.166395
Si Si5 0.023719 0.648517 0.729656
Si Si6 0.535520 0.269890 0.678365
Si Si7 0.674474 0.263786 0.876359
Si Si8 0.890031 0.564056 0.325369
O O1 0.652913 0.132013 0.912140
O O2 0.051158 0.262674 0.871608
O O3 0.749333 0.927718 0.869022
O O4 0.863789 0.221784 0.112220
O O5 0.450374 0.380542 0.790124
O O6 0.301888 0.469881 0.713140
O O7 0.374671 0.610326 0.985709
O O8 0.030599 0.766826 0.446441
O O9 0.086576 0.000624 0.710884
O O10 0.395343 0.128576 0.533574
O O11 0.000000 0.000000 0.500000
O O12 0.070602 0.259829 0.248347
O O13 0.000000 0.000000 0.000000
O O14 0.798865 0.434748 0.668259
O O15 0.183105 0.595752 0.644822
O O16 0.522910 0.167996 0.750860
O O17 0.935902 0.406583 0.821317
#
# Coordination Sequence:
#
# PCOD9107711 Si02
#       8
#     2   2   2   2   2   2   2   2
#     4  10  16  35  57  84 120 165 193 245 308 365
#     4  11  16  32  59  90 117 153 206 257 293 352
#     4  12  23  41  64  90 123 165 210 250 301 369
#     4  10  23  40  65  88 125 166 204 244 312 376
#     4  10  21  37  58  89 122 160 203 250 309 363
#     4  11  22  33  61  96 118 156 213 264 290 349
#     4  10  19  30  58  94 120 150 208 258 303 347
#     4  10  19  34  58  82 122 162 202 238 306 368
#
# _framework density 25.938469999999999
#
# number of rings (size 3 to 8) (size 9 to 14) (size 15 to 20)
#    0.000    1.500    6.250    1.875    0.000    2.500 
#    0.000    0.625    2.750    2.250    0.000    0.000 
#    0.000    0.000    0.000    0.000    0.000    0.000 
#
# Total GULP energy -89080.147424 kJ/mol
# GULP energy per Si atom -5567.509214 kJ/mol
# Density = 2.587943 g / cm^3
# Si number density = 25.938470 Si / 1000 Ang^3
#
#
#
# Elastic Constant Matrix: (Units=GPa)
#
#
# Indices 1 2 3 4 5 6 
#
# 1 143.9975 36.5673 22.4876 3.4826 22.3208 -59.5358
# 2 36.5673 83.2401 35.5520 12.0754 5.7102 -36.3391
# 3 22.4876 35.5520 70.8387 3.4273 9.8352 -17.6353
# 4 3.4826 12.0754 3.4273 27.6862 -5.5512 -14.0021
# 5 22.3208 5.7102 9.8352 -5.5512 46.3694 12.1877
# 6 -59.5358 -36.3391 -17.6353 -14.0021 12.1877 56.5499
#
#
#
# Elastic Compliance Matrix: (Units=1/GPa)
#
#
# Indices 1 2 3 4 5 6 
#
# 1 0.021219 0.003835 0.001207 0.007522 -0.018180 0.030961
# 2 0.003835 0.021306 -0.006538 -0.001989 -0.007755 0.016869
# 3 0.001207 -0.006538 0.018653 0.001627 -0.004667 0.004295
# 4 0.007522 -0.001989 0.001627 0.044752 -0.003344 0.018950
# 5 -0.018180 -0.007755 -0.004667 -0.003344 0.041132 -0.035271
# 6 0.030961 0.016869 0.004295 0.018950 -0.035271 0.074752
#
#
# Mechanical properties :
#
#
# Convention : Reuss Voigt Hill
#
# Bulk Modulus (GPa) = 17.18608 54.14333 35.66470
# Shear Modulus (GPa) = 20.47494 39.68573 30.08033
#
# Velocity S-wave (km/s) = 2.81261 3.91576 3.40910
# Velocity P-wave (km/s) = 4.14582 6.43143 5.41069
#
# Compressibility (1/GPa) = 0.05818664
#
# Stress axis : x y z
#
# Youngs Moduli (GPa) = 47.12761 46.93575 53.61059
#
# Poissons Ratio (x) = -0.18000 -0.06472
# Poissons Ratio (y) = -0.18074 0.35050
# Poissons Ratio (z) = -0.05689 0.30686
#
# Static dielectric constant tensor:
#      x y z
#    x 2.105820 -0.020410 0.020020 
#    y -0.020410 2.266020 -0.174530 
#    z 0.020020 -0.174530 2.118870 
# 
# From -- ./inp_files/268551.got.cif
#   From: 2010.05.17/outbox.cif.g08.bks.cpg/sg2_135_cif.got.tgz:268551.got - 2010.06.03 11:33:40.
