data_PCOD9107824
_publ_section_title
;
Structure prediction by ZEFSAII (Michael W. Deem and Ramdas Pophale) SiO2 
 PCOD9107824
Probable space group: P -1
;
_chemical_formula_sum "Si O2"
_cell_formula_units_Z 16
_cell_length_a 15.652294
_cell_length_b 8.223713
_cell_length_c 9.496635
_cell_angle_alpha 79.779865
_cell_angle_beta 54.983212
_cell_angle_gamma 40.340116
_cell_volume 564.808963
_symmetry_space_group_name_H-M "P -1"
_symmetry_group_IT_number 2
_symmetry_cell_setting 'triclinic'
loop_
_space_group_symop_operation_xyz
x,y,z
-x,-y,-z
loop_
_atom_site_type_symbol
_atom_site_label
_atom_site_fract_x
_atom_site_fract_y
_atom_site_fract_z
Si Si1 0.837098 0.189054 0.993316
Si Si2 0.663045 0.514353 0.628153
Si Si3 0.413904 0.797660 0.559287
Si Si4 0.887513 0.929476 0.406114
Si Si5 0.822635 0.684705 0.790427
Si Si6 0.302263 0.344350 0.816420
Si Si7 0.509521 0.668335 0.034669
Si Si8 0.054794 0.616484 0.780114
O O1 0.637214 0.471944 0.075417
O O2 0.977923 0.109128 0.780224
O O3 0.814241 0.329379 0.132480
O O4 0.896358 0.925409 0.962859
O O5 0.485145 0.740270 0.660756
O O6 0.611391 0.631876 0.816435
O O7 0.811019 0.443941 0.431329
O O8 0.753643 0.213343 0.583604
O O9 0.500000 0.500000 0.500000
O O10 0.504462 0.839188 0.387941
O O11 0.222803 0.014435 0.626163
O O12 0.032059 0.615491 0.384561
O O13 0.946537 0.638220 0.778564
O O14 0.717784 0.705343 0.002422
O O15 0.671804 0.993930 0.812018
O O16 0.192427 0.371637 0.807132
O O17 0.500000 0.500000 0.000000
#
# Coordination Sequence:
#
# PCOD9107824 Si02
#       8
#     2   2   2   2   2   2   2   2
#     4  10  22  41  65  91 132 175 227 258 319 393
#     4   9  22  42  68  93 131 174 221 264 319 404
#     4   9  19  38  67  99 129 167 213 261 328 395
#     4   9  21  40  66  97 127 164 213 270 330 382
#     4  11  24  42  64 100 138 170 213 279 333 382
#     4  10  22  38  67 102 136 166 210 277 336 388
#     4  12  26  44  66  92 131 182 228 266 321 391
#     4  10  20  40  66 101 129 169 215 272 335 390
#
# _framework density 28.328164000000001
#
# number of rings (size 3 to 8) (size 9 to 14) (size 15 to 20)
#    0.000    2.000    1.250    1.500    3.500   10.000 
#    0.000    3.125    2.750    0.000    0.000    0.000 
#    0.000    0.000    0.000    0.000    0.000    0.000 
#
# Total GULP energy -89579.228701 kJ/mol
# GULP energy per Si atom -5598.701794 kJ/mol
# Density = 2.826369 g / cm^3
# Si number density = 28.328164 Si / 1000 Ang^3
#
#
#
# Elastic Constant Matrix: (Units=GPa)
#
#
# Indices 1 2 3 4 5 6 
#
# 1 104.5345 17.1762 16.2264 12.4447 -17.1213 -5.5910
# 2 17.1762 163.8738 53.5580 36.6351 -8.4904 -2.5017
# 3 16.2264 53.5580 112.8818 20.0491 -6.2552 -5.8919
# 4 12.4447 36.6351 20.0491 64.2895 5.1506 -2.2703
# 5 -17.1213 -8.4904 -6.2552 5.1506 47.3291 -8.6738
# 6 -5.5910 -2.5017 -5.8919 -2.2703 -8.6738 27.0804
#
#
#
# Elastic Compliance Matrix: (Units=1/GPa)
#
#
# Indices 1 2 3 4 5 6 
#
# 1 0.010891 -0.000164 -0.000686 -0.002054 0.004668 0.003407
# 2 -0.000164 0.008013 -0.003034 -0.003695 0.001414 0.000189
# 3 -0.000686 -0.003034 0.010853 -0.001542 0.001213 0.002198
# 4 -0.002054 -0.003695 -0.001542 0.018817 -0.003793 -0.000738
# 5 0.004668 0.001414 0.001213 -0.003793 0.025321 0.009150
# 6 0.003407 0.000189 0.002198 -0.000738 0.009150 0.040995
#
#
# Mechanical properties :
#
#
# Convention : Reuss Voigt Hill
#
# Bulk Modulus (GPa) = 45.47865 61.69015 53.58440
# Shear Modulus (GPa) = 38.46519 47.36176 42.91348
#
# Velocity S-wave (km/s) = 3.68889 4.09332 3.89636
# Velocity P-wave (km/s) = 5.85089 6.64564 6.26089
#
# Compressibility (1/GPa) = 0.02198834
#
# Stress axis : x y z
#
# Youngs Moduli (GPa) = 91.81914 124.79439 92.14210
#
# Poissons Ratio (x) = 0.02048 0.06324
# Poissons Ratio (y) = 0.01507 0.27954
# Poissons Ratio (z) = 0.06302 0.37861
#
# Static dielectric constant tensor:
#      x y z
#    x 2.241980 0.083860 0.019350 
#    y 0.083860 2.294910 0.057240 
#    z 0.019350 0.057240 2.316380 
# 
# From -- ./inp_files/283054.got.cif
#   From: 2010.05.17/outbox.cif.g08.bks.cpg/sg2_142_cif.got.tgz:283054.got - 2010.06.03 11:33:40.
