data_PCOD9107041
_publ_section_title
;
Structure prediction by ZEFSAII (Michael W. Deem and Ramdas Pophale) SiO2 
 PCOD9107041
Probable space group: P -1
;
_chemical_formula_sum "Si O2"
_cell_formula_units_Z 14
_cell_length_a 14.684966
_cell_length_b 7.922898
_cell_length_c 13.012492
_cell_angle_alpha 70.227123
_cell_angle_beta 141.092291
_cell_angle_gamma 80.727399
_cell_volume 622.809787
_symmetry_space_group_name_H-M "P -1"
_symmetry_group_IT_number 2
_symmetry_cell_setting 'triclinic'
loop_
_space_group_symop_operation_xyz
x,y,z
-x,-y,-z
loop_
_atom_site_type_symbol
_atom_site_label
_atom_site_fract_x
_atom_site_fract_y
_atom_site_fract_z
Si Si1 0.261914 0.607032 0.893099
Si Si2 0.225631 0.341806 0.281741
Si Si3 0.477020 0.762736 0.612070
Si Si4 0.521553 0.726837 0.044245
Si Si5 0.861276 0.231467 0.749199
Si Si6 0.936288 0.350246 0.596795
Si Si7 0.103871 0.219061 0.542364
O O1 0.365007 0.447000 0.119723
O O2 0.343844 0.410822 0.912093
O O3 0.361462 0.706089 0.927298
O O4 0.011228 0.821525 0.623354
O O5 0.382889 0.287200 0.347520
O O6 0.199169 0.519943 0.308044
O O7 0.331533 0.057135 0.463643
O O8 0.000000 0.500000 0.000000
O O9 0.330923 0.728074 0.455077
O O10 0.350859 0.027226 0.806411
O O11 0.688516 0.560339 0.315190
O O12 0.986819 0.166483 0.768112
O O13 0.000000 0.000000 0.000000
O O14 0.983259 0.514212 0.630443
O O15 0.041706 0.233761 0.602688
#
# Coordination Sequence:
#
# PCOD9107041 Si02
#       7
#     2   2   2   2   2   2   2
#     4  10  22  37  64  95 129 169 220 269 332 403
#     4  11  26  46  71  99 131 181 233 280 342 401
#     4  11  25  47  68  99 139 177 228 283 338 407
#     4  10  20  40  62  93 131 171 216 271 336 393
#     4  12  25  47  72  99 139 183 228 287 340 402
#     4  10  23  41  61  97 134 171 226 270 332 399
#     4  10  22  40  63  96 133 174 220 273 330 404
#
# _framework density 22.478773
#
# number of rings (size 3 to 8) (size 9 to 14) (size 15 to 20)
#    0.000    1.429    2.857    1.286    4.000    1.143 
#    2.571    0.000    0.000    0.000    0.000    0.000 
#    0.000    0.000    0.000    0.000    0.000    0.000 
#
# Total GULP energy -78118.710962 kJ/mol
# GULP energy per Si atom -5579.907926 kJ/mol
# Density = 2.242761 g / cm^3
# Si number density = 22.478773 Si / 1000 Ang^3
#
#
#
# Elastic Constant Matrix: (Units=GPa)
#
#
# Indices 1 2 3 4 5 6 
#
# 1 71.1606 11.0573 0.9193 -2.9816 -16.6931 16.6019
# 2 11.0573 84.3537 25.2327 11.2277 4.7992 9.7700
# 3 0.9193 25.2327 64.6090 -1.7288 -13.4829 11.0471
# 4 -2.9816 11.2277 -1.7288 30.2888 0.2887 9.8043
# 5 -16.6931 4.7992 -13.4829 0.2887 40.7900 5.9922
# 6 16.6019 9.7700 11.0471 9.8043 5.9922 19.9383
#
#
#
# Elastic Compliance Matrix: (Units=1/GPa)
#
#
# Indices 1 2 3 4 5 6 
#
# 1 0.040533 -0.010541 0.023135 0.030565 0.035099 -0.066982
# 2 -0.010541 0.017646 -0.013013 -0.014108 -0.013275 0.018267
# 3 0.023135 -0.013013 0.037100 0.027108 0.031325 -0.056187
# 4 0.030565 -0.014108 0.027108 0.067365 0.033947 -0.076884
# 5 0.035099 -0.013275 0.031325 0.033947 0.061616 -0.075287
# 6 -0.066982 0.018267 -0.056187 -0.076884 -0.075287 0.188542
#
#
# Mechanical properties :
#
#
# Convention : Reuss Voigt Hill
#
# Bulk Modulus (GPa) = 10.58842 32.72689 21.65765
# Shear Modulus (GPa) = 11.23293 30.39769 20.81531
#
# Velocity S-wave (km/s) = 2.23785 3.68133 3.04632
# Velocity P-wave (km/s) = 3.37608 5.71491 4.69351
#
# Compressibility (1/GPa) = 0.09444283
#
# Stress axis : x y z
#
# Youngs Moduli (GPa) = 24.67118 56.66850 26.95411
#
# Poissons Ratio (x) = 0.59733 -0.62359
# Poissons Ratio (y) = 0.26005 0.35075
# Poissons Ratio (z) = -0.57078 0.73742
#
# Static dielectric constant tensor:
#      x y z
#    x 1.788410 -0.013610 0.026040 
#    y -0.013610 1.940210 -0.085450 
#    z 0.026040 -0.085450 1.916160 
# 
# From -- ./inp_files/323964.got.cif
#   From: 2010.05.17/outbox.cif.g08.bks.cpg/sg2_162_cif.got.tgz:323964.got - 2010.06.03 11:33:40.
