data_PCOD9107311
_publ_section_title
;
Structure prediction by ZEFSAII (Michael W. Deem and Ramdas Pophale) SiO2 
 PCOD9107311
Probable space group: P -1
;
_chemical_formula_sum "Si O2"
_cell_formula_units_Z 16
_cell_length_a 12.243902
_cell_length_b 25.273316
_cell_length_c 5.549879
_cell_angle_alpha 68.678661
_cell_angle_beta 64.448278
_cell_angle_gamma 25.239153
_cell_volume 659.089487
_symmetry_space_group_name_H-M "P -1"
_symmetry_group_IT_number 2
_symmetry_cell_setting 'triclinic'
loop_
_space_group_symop_operation_xyz
x,y,z
-x,-y,-z
loop_
_atom_site_type_symbol
_atom_site_label
_atom_site_fract_x
_atom_site_fract_y
_atom_site_fract_z
Si Si1 0.744144 0.664013 0.617595
Si Si2 0.324882 0.792869 0.424600
Si Si3 0.367847 0.531629 0.820315
Si Si4 0.977595 0.135167 0.023663
Si Si5 0.599502 0.616070 0.059145
Si Si6 0.395213 0.873831 0.988192
Si Si7 0.824580 0.737920 0.177673
Si Si8 0.647576 0.921959 0.242051
O O1 0.517756 0.743066 0.512428
O O2 0.926252 0.635896 0.366543
O O3 0.808266 0.575403 0.819920
O O4 0.603381 0.759435 0.798937
O O5 0.527442 0.663628 0.321668
O O6 0.235236 0.884399 0.203695
O O7 0.072485 0.867780 0.655704
O O8 0.500000 0.500000 0.500000
O O9 0.362872 0.465425 0.893281
O O10 0.500000 0.500000 0.000000
O O11 0.054841 0.673704 0.917724
O O12 0.083233 0.154211 0.890609
O O13 0.688093 0.251467 0.999019
O O14 0.186431 0.008900 0.895189
O O15 0.577467 0.826463 0.097167
O O16 0.718312 0.826323 0.328786
O O17 0.500000 0.000000 0.500000
O O18 0.500000 0.000000 0.000000
#
# Coordination Sequence:
#
# PCOD9107311 Si02
#       8
#     2   2   2   2   2   2   2   2
#     4   9  21  42  69 102 141 181 238 300 363 429
#     4   9  21  37  65 100 139 186 230 295 352 431
#     4  12  31  52  78 105 142 193 247 301 355 430
#     4  11  22  38  67  96 147 185 238 289 358 424
#     4  10  24  44  70 101 140 186 245 291 362 423
#     4  10  20  40  64 106 139 183 233 294 362 429
#     4  11  25  45  73 102 147 189 241 301 363 424
#     4  12  27  43  67 103 145 187 236 290 354 431
#
# _framework density 24.275912000000002
#
# number of rings (size 3 to 8) (size 9 to 14) (size 15 to 20)
#    0.000    1.500    1.250    1.875    8.750    7.000 
#    0.000    5.625    0.000    0.000    0.000    0.000 
#    0.000    0.000    0.000    0.000    0.000    0.000 
#
# Total GULP energy -89292.099191 kJ/mol
# GULP energy per Si atom -5580.756199 kJ/mol
# Density = 2.422066 g / cm^3
# Si number density = 24.275912 Si / 1000 Ang^3
#
#
#
# Elastic Constant Matrix: (Units=GPa)
#
#
# Indices 1 2 3 4 5 6 
#
# 1 152.0605 30.9977 59.0885 4.8541 -5.1924 32.0609
# 2 30.9977 60.8522 15.4783 5.0295 -1.5859 26.5467
# 3 59.0885 15.4783 133.4621 14.3612 -26.5550 8.1046
# 4 4.8541 5.0295 14.3612 25.5525 1.2889 -1.6876
# 5 -5.1924 -1.5859 -26.5550 1.2889 38.8566 2.3507
# 6 32.0609 26.5467 8.1046 -1.6876 2.3507 53.0703
#
#
#
# Elastic Compliance Matrix: (Units=1/GPa)
#
#
# Indices 1 2 3 4 5 6 
#
# 1 0.009305 -0.002135 -0.003983 0.000704 -0.001355 -0.003862
# 2 -0.002135 0.022398 -0.000319 -0.004547 0.001170 -0.010061
# 3 -0.003983 -0.000319 0.011389 -0.005935 0.007416 0.000309
# 4 0.000704 -0.004547 -0.005935 0.043819 -0.005868 0.004409
# 5 -0.001355 0.001170 0.007416 -0.005868 0.031014 -0.002459
# 6 -0.003862 -0.010061 0.000309 0.004409 -0.002459 0.026411
#
#
# Mechanical properties :
#
#
# Convention : Reuss Voigt Hill
#
# Bulk Modulus (GPa) = 33.09440 61.94487 47.51964
# Shear Modulus (GPa) = 29.88963 39.54989 34.71976
#
# Velocity S-wave (km/s) = 3.51272 4.04069 3.78592
# Velocity P-wave (km/s) = 5.48766 6.88055 6.22320
#
# Compressibility (1/GPa) = 0.03021659
#
# Stress axis : x y z
#
# Youngs Moduli (GPa) = 107.46993 44.64731 87.80759
#
# Poissons Ratio (x) = 0.09534 0.34973
# Poissons Ratio (y) = 0.22948 0.02802
# Poissons Ratio (z) = 0.42804 0.01425
#
# Static dielectric constant tensor:
#      x y z
#    x 1.866950 0.053640 0.022340 
#    y 0.053640 1.952040 -0.032980 
#    z 0.022340 -0.032980 2.110070 
# 
# From -- ./inp_files/84286.got.cif
#   From: 2010.05.17/outbox.cif.g08.bks.cpg/sg2_43_cif.got.tgz:84286.got - 2010.06.03 11:33:40.
