data_PCOD9107560
_publ_section_title
;
Structure prediction by ZEFSAII (Michael W. Deem and Ramdas Pophale) SiO2 
 PCOD9107560
Probable space group: P -1
;
_chemical_formula_sum "Si O2"
_cell_formula_units_Z 16
_cell_length_a 24.146816
_cell_length_b 14.061416
_cell_length_c 9.353952
_cell_angle_alpha 30.420322
_cell_angle_beta 38.296785
_cell_angle_gamma 24.593171
_cell_volume 669.263106
_symmetry_space_group_name_H-M "P -1"
_symmetry_group_IT_number 2
_symmetry_cell_setting 'triclinic'
loop_
_space_group_symop_operation_xyz
x,y,z
-x,-y,-z
loop_
_atom_site_type_symbol
_atom_site_label
_atom_site_fract_x
_atom_site_fract_y
_atom_site_fract_z
Si Si1 0.264731 0.115584 0.628297
Si Si2 0.392509 0.901234 0.951202
Si Si3 0.610076 0.266359 0.386105
Si Si4 0.924521 0.271524 0.705329
Si Si5 0.822624 0.373372 0.244706
Si Si6 0.201606 0.941072 0.481546
Si Si7 0.576987 0.990843 0.975504
Si Si8 0.862857 0.098149 0.811609
O O1 0.161648 0.447284 0.394478
O O2 0.358021 0.937936 0.533859
O O3 0.339011 0.034067 0.732763
O O4 0.196859 0.015004 0.903888
O O5 0.517314 0.567729 0.117835
O O6 0.274615 0.972885 0.184664
O O7 0.439035 0.996854 0.837852
O O8 0.739856 0.133996 0.379857
O O9 0.538139 0.263938 0.661459
O O10 0.841751 0.279827 0.746747
O O11 0.041251 0.206307 0.471259
O O12 0.000000 0.000000 0.000000
O O13 0.775678 0.303169 0.308824
O O14 0.810327 0.275905 0.543242
O O15 0.731250 0.697459 0.017680
O O16 0.977639 0.173605 0.170336
O O17 0.500000 0.000000 0.000000
#
# Coordination Sequence:
#
# PCOD9107560 Si02
#       8
#     2   2   2   2   2   2   2   2
#     4  12  26  44  70  96 140 184 212 276 349 397
#     4  11  23  45  66  97 129 176 233 271 326 403
#     4  11  25  42  65  97 132 179 226 272 333 398
#     4  11  26  43  66 104 138 171 223 277 338 408
#     4  10  20  40  65 102 129 167 222 280 319 396
#     4  10  21  41  72  91 134 168 220 282 321 390
#     4  11  23  40  70  95 128 171 227 278 334 380
#     4  10  23  41  67  97 138 171 218 270 335 393
#
# _framework density 23.906889
#
# number of rings (size 3 to 8) (size 9 to 14) (size 15 to 20)
#    0.000    1.250    1.250    4.875    7.000    1.500 
#    2.250    0.625    0.000    0.000    0.000    0.000 
#    0.000    0.000    0.000    0.000    0.000    0.000 
#
# Total GULP energy -89472.034492 kJ/mol
# GULP energy per Si atom -5592.002156 kJ/mol
# Density = 2.385248 g / cm^3
# Si number density = 23.906889 Si / 1000 Ang^3
#
#
#
# Elastic Constant Matrix: (Units=GPa)
#
#
# Indices 1 2 3 4 5 6 
#
# 1 163.7691 28.9136 29.6240 -3.9368 3.5167 23.6595
# 2 28.9136 86.5360 20.7979 -23.3563 1.9600 22.7391
# 3 29.6240 20.7979 70.4463 -1.6583 4.9190 -5.5695
# 4 -3.9368 -23.3563 -1.6583 41.5547 2.9158 -4.1090
# 5 3.5167 1.9600 4.9190 2.9158 33.2614 -1.3682
# 6 23.6595 22.7391 -5.5695 -4.1090 -1.3682 35.9731
#
#
#
# Elastic Compliance Matrix: (Units=1/GPa)
#
#
# Indices 1 2 3 4 5 6 
#
# 1 0.007572 -0.000294 -0.003490 -0.000084 -0.000480 -0.005363
# 2 -0.000294 0.018618 -0.005965 0.009163 -0.001460 -0.011508
# 3 -0.003490 -0.005965 0.018156 -0.002008 -0.001435 0.008593
# 4 -0.000084 0.009163 -0.002008 0.029049 -0.002897 -0.002840
# 5 -0.000480 -0.001460 -0.001435 -0.002897 0.030744 0.001855
# 6 -0.005363 -0.011508 0.008593 -0.002840 0.001855 0.039677
#
#
# Mechanical properties :
#
#
# Convention : Reuss Voigt Hill
#
# Bulk Modulus (GPa) = 40.24379 53.26915 46.75647
# Shear Modulus (GPa) = 29.13797 38.25221 33.69509
#
# Velocity S-wave (km/s) = 3.49493 4.00440 3.75831
# Velocity P-wave (km/s) = 5.75814 6.61140 6.19947
#
# Compressibility (1/GPa) = 0.02484856
#
# Stress axis : x y z
#
# Youngs Moduli (GPa) = 132.05857 53.71190 55.07757
#
# Poissons Ratio (x) = 0.01578 0.19222
# Poissons Ratio (y) = 0.03880 0.32854
# Poissons Ratio (z) = 0.46088 0.32040
#
# Static dielectric constant tensor:
#      x y z
#    x 1.946730 0.005560 -0.034310 
#    y 0.005560 1.959310 0.084980 
#    z -0.034310 0.084980 1.910860 
# 
# From -- ./inp_files/345843.got.cif
#   From: 2010.05.17/outbox.cif.g08.bks.cpg/sg2_173_cif.got.tgz:345843.got - 2010.06.03 11:33:40.
