data_PCOD9107413
_publ_section_title
;
Structure prediction by ZEFSAII (Michael W. Deem and Ramdas Pophale) SiO2 
 PCOD9107413
Probable space group: P -1
;
_chemical_formula_sum "Si O2"
_cell_formula_units_Z 16
_cell_length_a 22.190320
_cell_length_b 18.308786
_cell_length_c 5.565971
_cell_angle_alpha 80.198569
_cell_angle_beta 79.260342
_cell_angle_gamma 18.442964
_cell_volume 702.709093
_symmetry_space_group_name_H-M "P -1"
_symmetry_group_IT_number 2
_symmetry_cell_setting 'triclinic'
loop_
_space_group_symop_operation_xyz
x,y,z
-x,-y,-z
loop_
_atom_site_type_symbol
_atom_site_label
_atom_site_fract_x
_atom_site_fract_y
_atom_site_fract_z
Si Si1 0.774002 0.247572 0.022185
Si Si2 0.480856 0.343319 0.760222
Si Si3 0.135078 0.511461 0.343890
Si Si4 0.073379 0.354889 0.214937
Si Si5 0.456748 0.612555 0.664649
Si Si6 0.627512 0.889324 0.675774
Si Si7 0.738824 0.966944 0.125577
Si Si8 0.572703 0.739112 0.436542
O O1 0.683225 0.412230 0.176960
O O2 0.707216 0.240039 0.141092
O O3 0.652802 0.400921 0.783898
O O4 0.000000 0.000000 0.000000
O O5 0.594870 0.253649 0.511265
O O6 0.398695 0.360250 0.713522
O O7 0.621422 0.167214 0.976325
O O8 0.271949 0.301342 0.198256
O O9 0.252134 0.443968 0.413023
O O10 0.074568 0.528073 0.604615
O O11 0.942117 0.752879 0.214365
O O12 0.186840 0.270675 0.381285
O O13 0.210384 0.146396 0.069013
O O14 0.000000 0.500000 0.000000
O O15 0.500000 0.500000 0.500000
O O16 0.500000 0.000000 0.500000
O O17 0.483631 0.119712 0.734814
O O18 0.600421 0.086925 0.354980
#
# Coordination Sequence:
#
# PCOD9107413 Si02
#       8
#     2   2   2   2   2   2   2   2
#     4  10  22  45  76 105 131 172 217 263 322 400
#     4  11  23  43  68  97 139 179 211 271 331 394
#     4  11  24  43  64  93 133 177 233 284 330 393
#     4  12  22  40  67  93 122 174 234 285 336 390
#     4   9  21  44  71 104 137 166 213 260 323 396
#     4  10  20  40  64  90 127 175 228 287 330 380
#     4  12  23  42  66  90 136 178 223 273 335 391
#     4  11  24  44  62  94 137 178 223 281 339 389
#
# _framework density 22.769024999999999
#
# number of rings (size 3 to 8) (size 9 to 14) (size 15 to 20)
#    0.000    1.250    3.750    1.875    0.000    3.000 
#    0.000   26.250    0.000    0.000    0.000    0.000 
#    0.000    0.000    0.000    0.000    0.000    0.000 
#
# Total GULP energy -89199.113912 kJ/mol
# GULP energy per Si atom -5574.944620 kJ/mol
# Density = 2.271720 g / cm^3
# Si number density = 22.769025 Si / 1000 Ang^3
#
#
#
# Elastic Constant Matrix: (Units=GPa)
#
#
# Indices 1 2 3 4 5 6 
#
# 1 127.8619 73.0008 33.8688 -10.8695 25.8343 -9.8564
# 2 73.0008 152.5530 53.5568 -25.1502 -5.0688 -22.5042
# 3 33.8688 53.5568 93.6689 -9.7400 -15.6662 -5.2607
# 4 -10.8695 -25.1502 -9.7400 30.6368 4.2422 16.0460
# 5 25.8343 -5.0688 -15.6662 4.2422 38.2367 -8.0143
# 6 -9.8564 -22.5042 -5.2607 16.0460 -8.0143 45.4111
#
#
#
# Elastic Compliance Matrix: (Units=1/GPa)
#
#
# Indices 1 2 3 4 5 6 
#
# 1 0.015411 -0.006496 -0.004139 0.002767 -0.014076 -0.003815
# 2 -0.006496 0.012138 -0.003119 0.004023 0.005052 0.003714
# 3 -0.004139 -0.003119 0.015442 -0.001080 0.009109 0.001334
# 4 0.002767 0.004023 -0.001080 0.046187 -0.010182 -0.015648
# 5 -0.014076 0.005052 0.009109 -0.010182 0.043670 0.011809
# 6 -0.003815 0.003714 0.001334 -0.015648 0.011809 0.030801
#
#
# Mechanical properties :
#
#
# Convention : Reuss Voigt Hill
#
# Bulk Modulus (GPa) = 64.58921 77.21518 70.90219
# Shear Modulus (GPa) = 25.46886 37.10074 31.28480
#
# Velocity S-wave (km/s) = 3.34814 4.04101 3.71078
# Velocity P-wave (km/s) = 6.58600 7.46720 7.04040
#
# Compressibility (1/GPa) = 0.01548246
#
# Stress axis : x y z
#
# Youngs Moduli (GPa) = 64.88760 82.38825 64.75792
#
# Poissons Ratio (x) = 0.53520 0.26803
# Poissons Ratio (y) = 0.42152 0.20199
# Poissons Ratio (z) = 0.26857 0.25698
#
# Static dielectric constant tensor:
#      x y z
#    x 1.841710 0.033010 -0.010480 
#    y 0.033010 1.871570 0.032590 
#    z -0.010480 0.032590 1.966200 
# 
# From -- ./inp_files/120038.got.cif
#   From: 2010.05.17/outbox.cif.g08.bks.cpg/sg2_61_cif.got.tgz:120038.got - 2010.06.03 11:33:40.
