data_PCOD9107527
_publ_section_title
;
Structure prediction by ZEFSAII (Michael W. Deem and Ramdas Pophale) SiO2 
 PCOD9107527
Probable space group: P -1
;
_chemical_formula_sum "Si O2"
_cell_formula_units_Z 16
_cell_length_a 10.614954
_cell_length_b 12.335350
_cell_length_c 11.543012
_cell_angle_alpha 124.032306
_cell_angle_beta 72.630702
_cell_angle_gamma 146.362125
_cell_volume 646.056959
_symmetry_space_group_name_H-M "P -1"
_symmetry_group_IT_number 2
_symmetry_cell_setting 'triclinic'
loop_
_space_group_symop_operation_xyz
x,y,z
-x,-y,-z
loop_
_atom_site_type_symbol
_atom_site_label
_atom_site_fract_x
_atom_site_fract_y
_atom_site_fract_z
Si Si1 0.065353 0.854123 0.064767
Si Si2 0.441547 0.550488 0.151709
Si Si3 0.842548 0.662027 0.497619
Si Si4 0.519885 0.116877 0.671479
Si Si5 0.095298 0.590452 0.864387
Si Si6 0.637181 0.225951 0.330732
Si Si7 0.384961 0.347529 0.272611
Si Si8 0.926864 0.178700 0.712800
O O1 0.999075 0.844104 0.208774
O O2 0.272268 0.120611 0.119734
O O3 0.146921 0.772955 0.014407
O O4 0.847820 0.672666 0.925130
O O5 0.548852 0.787634 0.262417
O O6 0.483566 0.519242 0.245413
O O7 0.500000 0.500000 0.000000
O O8 0.820780 0.500656 0.466658
O O9 0.591424 0.477292 0.384140
O O10 0.825919 0.750499 0.658750
O O11 0.028344 0.824847 0.435573
O O12 0.809564 0.356973 0.765077
O O13 0.500000 0.000000 0.500000
O O14 0.355886 0.906506 0.685641
O O15 0.291035 0.741956 0.800628
O O16 0.091451 0.447865 0.843154
O O17 0.364700 0.048104 0.328628
#
# Coordination Sequence:
#
# PCOD9107527 Si02
#       8
#     2   2   2   2   2   2   2   2
#     4  11  22  41  63  93 130 176 213 259 330 397
#     4  11  25  44  63  96 137 175 221 269 321 403
#     4  10  22  42  66  97 131 165 218 282 316 384
#     4  10  22  42  66  94 127 174 224 267 326 391
#     4   9  22  38  64  94 131 161 209 280 321 388
#     4  10  20  41  64  94 125 163 215 271 328 374
#     4  11  23  42  64  93 133 175 218 261 332 392
#     4  10  20  40  64  97 127 163 216 271 332 376
#
# _framework density 24.765618
#
# number of rings (size 3 to 8) (size 9 to 14) (size 15 to 20)
#    0.000    1.750    1.250    2.250    1.750    1.500 
#   11.250    0.000    0.000    0.000    0.000    0.000 
#    0.000    0.000    0.000    0.000    0.000    0.000 
#
# Total GULP energy -89302.954380 kJ/mol
# GULP energy per Si atom -5581.434649 kJ/mol
# Density = 2.470925 g / cm^3
# Si number density = 24.765618 Si / 1000 Ang^3
#
#
#
# Elastic Constant Matrix: (Units=GPa)
#
#
# Indices 1 2 3 4 5 6 
#
# 1 52.1364 49.8163 25.0878 5.3088 -12.3462 -21.6750
# 2 49.8163 146.4662 26.0744 -11.7329 -26.5655 -27.9300
# 3 25.0878 26.0744 68.2540 14.4788 -36.2482 -11.1720
# 4 5.3088 -11.7329 14.4788 5.7220 26.6563 -14.9814
# 5 -12.3462 -26.5655 -36.2482 26.6563 27.7406 8.7737
# 6 -21.6750 -27.9300 -11.1720 -14.9814 8.7737 54.3985
#
#
#
# Elastic Compliance Matrix: (Units=1/GPa)
#
#
# Indices 1 2 3 4 5 6 
#
# 1 0.035478 -0.010191 -0.008421 -0.004698 -0.002442 0.006275
# 2 -0.010191 0.011666 0.002464 0.002838 0.006441 0.002178
# 3 -0.008421 0.002464 0.011899 0.017166 -0.004154 0.005751
# 4 -0.004698 0.002838 0.017166 -0.005902 0.029777 -0.003318
# 5 -0.002442 0.006441 -0.004154 0.029777 0.004242 0.008997
# 6 0.006275 0.002178 0.005751 -0.003318 0.008997 0.020817
#
#
# Mechanical properties :
#
#
# Convention : Reuss Voigt Hill
#
# Bulk Modulus (GPa) = 37.38562 52.09039 44.73800
# Shear Modulus (GPa) = 41.87211 28.63076 35.25144
#
# Velocity S-wave (km/s) = 4.11632 3.40379 3.77689
# Velocity P-wave (km/s) = 6.14171 6.04373 6.09292
#
# Compressibility (1/GPa) = 0.02674825
#
# Stress axis : x y z
#
# Youngs Moduli (GPa) = 28.18619 85.72162 84.04170
#
# Poissons Ratio (x) = 0.87356 0.70771
# Poissons Ratio (y) = 0.28724 -0.20710
# Poissons Ratio (z) = 0.23735 -0.21124
#
# Static dielectric constant tensor:
#      x y z
#    x 2.058290 0.016700 -0.037130 
#    y 0.016700 1.932650 -0.027700 
#    z -0.037130 -0.027700 2.028860 
# 
# From -- ./inp_files/428707.got.cif
#   From: 2010.05.17/outbox.cif.g08.bks.cpg/sg2_215_cif.got.tgz:428707.got - 2010.06.03 11:33:40.
