data_PCOD9107501
_publ_section_title
;
Structure prediction by ZEFSAII (Michael W. Deem and Ramdas Pophale) SiO2 
 PCOD9107501
Probable space group: P -1
;
_chemical_formula_sum "Si O2"
_cell_formula_units_Z 14
_cell_length_a 12.543305
_cell_length_b 16.665213
_cell_length_c 8.592665
_cell_angle_alpha 136.821212
_cell_angle_beta 48.376357
_cell_angle_gamma 155.039772
_cell_volume 518.631141
_symmetry_space_group_name_H-M "P -1"
_symmetry_group_IT_number 2
_symmetry_cell_setting 'triclinic'
loop_
_space_group_symop_operation_xyz
x,y,z
-x,-y,-z
loop_
_atom_site_type_symbol
_atom_site_label
_atom_site_fract_x
_atom_site_fract_y
_atom_site_fract_z
Si Si1 0.930794 0.372742 0.654077
Si Si2 0.445516 0.837959 0.749599
Si Si3 0.327568 0.296835 0.184744
Si Si4 0.491981 0.770672 0.274874
Si Si5 0.845359 0.653550 0.826040
Si Si6 0.129679 0.340842 0.672086
Si Si7 0.882122 0.034033 0.736699
O O1 0.148883 0.609949 0.722663
O O2 0.954148 0.284243 0.380471
O O3 0.013902 0.370469 0.731839
O O4 0.664576 0.255140 0.729032
O O5 0.538895 0.878096 0.537997
O O6 0.582753 0.834438 0.721895
O O7 0.500000 0.000000 0.000000
O O8 0.344262 0.411221 0.200928
O O9 0.144651 0.234292 0.398314
O O10 0.587227 0.451030 0.243923
O O11 0.290178 0.151977 0.918279
O O12 0.311398 0.543875 0.196267
O O13 0.995484 0.852240 0.058332
O O14 0.966644 0.198525 0.777645
O O15 0.000000 0.000000 0.500000
#
# Coordination Sequence:
#
# PCOD9107501 Si02
#       7
#     2   2   2   2   2   2   2
#     4  10  23  43  71  91 128 175 221 258 314 393
#     4  11  24  42  65 100 133 163 213 275 327 370
#     4  10  21  38  69  92 127 163 229 259 301 375
#     4  11  20  39  71  96 122 178 220 256 311 395
#     4  10  20  40  64  95 127 168 219 258 312 394
#     4  10  24  42  64  98 130 170 218 264 315 386
#     4  12  25  40  66  99 133 164 211 273 332 370
#
# _framework density 26.994136999999998
#
# number of rings (size 3 to 8) (size 9 to 14) (size 15 to 20)
#    0.000    1.429    1.429    4.714    8.000    0.571 
#    0.000    7.143    3.143    0.000    0.000    0.000 
#    0.000    0.000    0.000    0.000    0.000    0.000 
#
# Total GULP energy -78497.413309 kJ/mol
# GULP energy per Si atom -5606.958093 kJ/mol
# Density = 2.693270 g / cm^3
# Si number density = 26.994137 Si / 1000 Ang^3
#
#
#
# Elastic Constant Matrix: (Units=GPa)
#
#
# Indices 1 2 3 4 5 6 
#
# 1 183.1503 31.9543 50.5449 -10.0636 -1.1145 8.6249
# 2 31.9543 41.1340 22.0555 -7.4700 1.4528 3.2538
# 3 50.5449 22.0555 217.5173 5.2653 -12.7612 16.8984
# 4 -10.0636 -7.4700 5.2653 38.7384 12.7020 8.7924
# 5 -1.1145 1.4528 -12.7612 12.7020 48.2246 -11.3190
# 6 8.6249 3.2538 16.8984 8.7924 -11.3190 40.0945
#
#
#
# Elastic Compliance Matrix: (Units=1/GPa)
#
#
# Indices 1 2 3 4 5 6 
#
# 1 0.006627 -0.004153 -0.001107 0.001564 -0.000700 -0.001162
# 2 -0.004153 0.030528 -0.002295 0.007337 -0.004367 -0.003458
# 3 -0.001107 -0.002295 0.005303 -0.001796 0.001700 -0.000937
# 4 0.001564 0.007337 -0.001796 0.034489 -0.012381 -0.011233
# 5 -0.000700 -0.004367 0.001700 -0.012381 0.026935 0.010107
# 6 -0.001162 -0.003458 -0.000937 -0.011233 0.010107 0.031183
#
#
# Mechanical properties :
#
#
# Convention : Reuss Voigt Hill
#
# Bulk Modulus (GPa) = 36.56845 72.32342 54.44593
# Shear Modulus (GPa) = 31.38877 47.89462 39.64169
#
# Velocity S-wave (km/s) = 3.41368 4.21677 3.83630
# Velocity P-wave (km/s) = 5.39573 7.11046 6.31159
#
# Compressibility (1/GPa) = 0.02734598
#
# Stress axis : x y z
#
# Youngs Moduli (GPa) = 150.90567 32.75659 188.55835
#
# Poissons Ratio (x) = 0.13605 0.20880
# Poissons Ratio (y) = 0.62676 0.43283
# Poissons Ratio (z) = 0.16710 0.07519
#
# Static dielectric constant tensor:
#      x y z
#    x 2.102390 0.008880 0.037000 
#    y 0.008880 2.141730 0.026380 
#    z 0.037000 0.026380 2.100860 
# 
# From -- ./inp_files/160179.got.cif
#   From: 2010.05.17/outbox.cif.g08.bks.cpg/sg2_81_cif.got.tgz:160179.got - 2010.06.03 11:33:40.
