data_PCOD9107982
_publ_section_title
;
Structure prediction by ZEFSAII (Michael W. Deem and Ramdas Pophale) SiO2 
 PCOD9107982
Probable space group: P -1
;
_chemical_formula_sum "Si O2"
_cell_formula_units_Z 16
_cell_length_a 20.442685
_cell_length_b 18.068471
_cell_length_c 10.918782
_cell_angle_alpha 142.065184
_cell_angle_beta 150.935475
_cell_angle_gamma 19.864052
_cell_volume 651.992415
_symmetry_space_group_name_H-M "P -1"
_symmetry_group_IT_number 2
_symmetry_cell_setting 'triclinic'
loop_
_space_group_symop_operation_xyz
x,y,z
-x,-y,-z
loop_
_atom_site_type_symbol
_atom_site_label
_atom_site_fract_x
_atom_site_fract_y
_atom_site_fract_z
Si Si1 0.779712 0.426511 0.559912
Si Si2 0.832736 0.643002 0.573947
Si Si3 0.301416 0.684085 0.193272
Si Si4 0.811942 0.182509 0.105655
Si Si5 0.681660 0.989697 0.142459
Si Si6 0.762905 0.862507 0.377792
Si Si7 0.718325 0.566036 0.059180
Si Si8 0.482764 0.818361 0.416325
O O1 0.571168 0.543667 0.467811
O O2 0.781163 0.315863 0.320274
O O3 0.676641 0.622812 0.579690
O O4 0.067184 0.223426 0.800387
O O5 0.731885 0.664306 0.309724
O O6 0.611040 0.816439 0.534298
O O7 0.020280 0.612085 0.817887
O O8 0.012659 0.399623 0.598910
O O9 0.240203 0.741216 0.021553
O O10 0.307151 0.543083 0.062776
O O11 0.083205 0.919583 0.211404
O O12 0.613799 0.226654 0.871262
O O13 0.756074 0.939636 0.341716
O O14 0.520953 0.221717 0.135957
O O15 0.491402 0.020960 0.870619
O O16 0.754570 0.954609 0.601249
#
# Coordination Sequence:
#
# PCOD9107982 Si02
#       8
#     2   2   2   2   2   2   2   2
#     4  11  22  37  62  91 123 163 213 254 306 367
#     4  10  20  40  66  93 123 163 208 265 307 361
#     4  10  21  38  60  88 118 163 204 257 308 357
#     4  10  22  37  64  94 118 155 217 270 297 351
#     4  10  23  41  60  93 134 169 195 256 315 376
#     4  10  22  42  65  93 127 161 214 257 305 368
#     4  10  21  40  63  89 134 166 199 253 325 369
#     4  11  21  37  71  97 115 161 221 264 300 361
#
# _framework density 24.540161000000001
#
# number of rings (size 3 to 8) (size 9 to 14) (size 15 to 20)
#    0.000    1.750    1.250    3.750    5.250    1.000 
#    0.000   13.125    0.000    0.000    0.000    0.000 
#    0.000    0.000    0.000    0.000    0.000    0.000 
#
# Total GULP energy -89626.010494 kJ/mol
# GULP energy per Si atom -5601.625656 kJ/mol
# Density = 2.448431 g / cm^3
# Si number density = 24.540161 Si / 1000 Ang^3
#
#
#
# Elastic Constant Matrix: (Units=GPa)
#
#
# Indices 1 2 3 4 5 6 
#
# 1 113.1247 41.1109 28.1355 -19.9738 32.2766 10.9864
# 2 41.1109 93.8021 22.1287 -16.9684 10.2889 3.4491
# 3 28.1355 22.1287 57.6544 -22.9070 18.3454 6.1579
# 4 -19.9738 -16.9684 -22.9070 38.4723 -8.0836 4.9455
# 5 32.2766 10.2889 18.3454 -8.0836 39.4078 -0.1452
# 6 10.9864 3.4491 6.1579 4.9455 -0.1452 42.4962
#
#
#
# Elastic Compliance Matrix: (Units=1/GPa)
#
#
# Indices 1 2 3 4 5 6 
#
# 1 0.014269 -0.004294 -0.000349 0.003763 -0.009645 -0.003761
# 2 -0.004294 0.013416 -0.002645 0.002465 0.001752 0.000124
# 3 -0.000349 -0.002645 0.027431 0.013778 -0.008986 -0.005304
# 4 0.003763 0.002465 0.013778 0.037698 -0.002435 -0.007565
# 5 -0.009645 0.001752 -0.008986 -0.002435 0.036517 0.004061
# 6 -0.003761 0.000124 -0.005304 -0.007565 0.004061 0.026156
#
#
# Mechanical properties :
#
#
# Convention : Reuss Voigt Hill
#
# Bulk Modulus (GPa) = 24.66801 49.70350 37.18575
# Shear Modulus (GPa) = 27.23659 35.62233 31.42946
#
# Velocity S-wave (km/s) = 3.33510 3.81411 3.58262
# Velocity P-wave (km/s) = 4.99043 6.30036 5.68326
#
# Compressibility (1/GPa) = 0.04053834
#
# Stress axis : x y z
#
# Youngs Moduli (GPa) = 70.08321 74.53793 36.45563
#
# Poissons Ratio (x) = 0.32009 0.01274
# Poissons Ratio (y) = 0.30096 0.09642
# Poissons Ratio (z) = 0.02448 0.19714
#
# Static dielectric constant tensor:
#      x y z
#    x 1.935440 -0.021420 -0.012120 
#    y -0.021420 1.921630 -0.016600 
#    z -0.012120 -0.016600 1.996850 
# 
# From -- ./inp_files/472423.got.cif
#   From: 2010.05.17/outbox.cif.g08.bks.cpg/sg2_237_cif.got.tgz:472423.got - 2010.06.03 11:33:40.
