data_PCOD9107074
_publ_section_title
;
Structure prediction by ZEFSAII (Michael W. Deem and Ramdas Pophale) SiO2 
 PCOD9107074
Probable space group: P -1
;
_chemical_formula_sum "Si O2"
_cell_formula_units_Z 16
_cell_length_a 14.111589
_cell_length_b 12.244131
_cell_length_c 9.318644
_cell_angle_alpha 36.036027
_cell_angle_beta 130.397065
_cell_angle_gamma 124.560830
_cell_volume 718.012700
_symmetry_space_group_name_H-M "P -1"
_symmetry_group_IT_number 2
_symmetry_cell_setting 'triclinic'
loop_
_space_group_symop_operation_xyz
x,y,z
-x,-y,-z
loop_
_atom_site_type_symbol
_atom_site_label
_atom_site_fract_x
_atom_site_fract_y
_atom_site_fract_z
Si Si1 0.123419 0.987562 0.227637
Si Si2 0.938392 0.314234 0.273795
Si Si3 0.154889 0.908198 0.836240
Si Si4 0.252448 0.133648 0.935651
Si Si5 0.322975 0.520812 0.216647
Si Si6 0.207162 0.507778 0.403089
Si Si7 0.489873 0.902359 0.936027
Si Si8 0.285648 0.138266 0.456105
O O1 0.100725 0.805233 0.496288
O O2 0.169467 0.140198 0.231552
O O3 0.230498 0.013531 0.184822
O O4 0.000000 0.000000 0.000000
O O5 0.949321 0.191747 0.267879
O O6 0.064301 0.442809 0.288773
O O7 0.815617 0.420936 0.014029
O O8 0.144391 0.054149 0.799217
O O9 0.237316 0.025925 0.671552
O O10 0.211914 0.733604 0.160087
O O11 0.235959 0.353232 0.714713
O O12 0.381007 0.101782 0.016728
O O13 0.307041 0.463715 0.427005
O O14 0.344380 0.342169 0.335804
O O15 0.422715 0.695455 0.109651
O O16 0.392740 0.017935 0.631244
O O17 0.500000 0.000000 0.000000
#
# Coordination Sequence:
#
# PCOD9107074 Si02
#       8
#     2   2   2   2   2   2   2   2
#     4  11  24  46  65  92 138 175 217 269 322 395
#     4  10  21  41  65  92 131 166 217 274 323 392
#     4  10  20  40  62  97 125 164 218 271 325 380
#     4  12  25  39  66  96 126 180 212 262 333 378
#     4  11  21  40  69  98 129 170 215 273 336 375
#     4  11  20  38  62  98 127 160 219 272 319 391
#     4  12  22  43  69 102 130 167 221 275 322 384
#     4  11  23  43  67  94 134 172 216 269 326 383
#
# _framework density 22.283729000000001
#
# number of rings (size 3 to 8) (size 9 to 14) (size 15 to 20)
#    0.000    1.000    7.500    1.500    0.000    6.000 
#    2.250    1.875    0.000    0.000    0.000    0.000 
#    0.000    0.000    0.000    0.000    0.000    0.000 
#
# Total GULP energy -89225.151433 kJ/mol
# GULP energy per Si atom -5576.571965 kJ/mol
# Density = 2.223301 g / cm^3
# Si number density = 22.283729 Si / 1000 Ang^3
#
#
#
# Elastic Constant Matrix: (Units=GPa)
#
#
# Indices 1 2 3 4 5 6 
#
# 1 105.2289 32.2129 36.7968 -14.5304 -19.4089 19.4741
# 2 32.2129 111.7213 39.1314 -25.7352 -7.5400 15.2095
# 3 36.7968 39.1314 102.8247 -12.1726 -12.7214 -3.2608
# 4 -14.5304 -25.7352 -12.1726 34.6453 2.2816 -3.4971
# 5 -19.4089 -7.5400 -12.7214 2.2816 31.6468 3.7631
# 6 19.4741 15.2095 -3.2608 -3.4971 3.7631 22.6871
#
#
#
# Elastic Compliance Matrix: (Units=1/GPa)
#
#
# Indices 1 2 3 4 5 6 
#
# 1 0.016352 0.000701 -0.005022 0.003312 0.009883 -0.016357
# 2 0.000701 0.013556 -0.004506 0.007655 0.002434 -0.009561
# 3 -0.005022 -0.004506 0.013584 0.000245 0.000184 0.009291
# 4 0.003312 0.007655 0.000245 0.035638 0.001709 -0.002730
# 5 0.009883 0.002434 0.000184 0.001709 0.040151 -0.016485
# 6 -0.016357 -0.009561 0.009291 -0.002730 -0.016485 0.068177
#
#
# Mechanical properties :
#
#
# Convention : Reuss Voigt Hill
#
# Bulk Modulus (GPa) = 38.70295 59.56192 49.13244
# Shear Modulus (GPa) = 23.39464 31.90475 27.64970
#
# Velocity S-wave (km/s) = 3.24366 3.78795 3.52632
# Velocity P-wave (km/s) = 5.60664 6.77631 6.21903
#
# Compressibility (1/GPa) = 0.02583782
#
# Stress axis : x y z
#
# Youngs Moduli (GPa) = 61.15450 73.76701 73.61714
#
# Poissons Ratio (x) = -0.05172 0.36974
# Poissons Ratio (y) = -0.04288 0.33170
# Poissons Ratio (z) = 0.30714 0.33238
#
# Static dielectric constant tensor:
#      x y z
#    x 1.851040 0.015750 0.046930 
#    y 0.015750 1.870340 0.021520 
#    z 0.046930 0.021520 1.898180 
# 
# From -- ./inp_files/306368.got.cif
#   From: 2010.05.17/outbox.cif.g08.bks.cpg/sg2_154_cif.got.tgz:306368.got - 2010.06.03 11:33:40.
