data_PCOD9107720
_publ_section_title
;
Structure prediction by ZEFSAII (Michael W. Deem and Ramdas Pophale) SiO2 
 PCOD9107720
Probable space group: P -1
;
_chemical_formula_sum "Si O2"
_cell_formula_units_Z 12
_cell_length_a 10.263579
_cell_length_b 9.015015
_cell_length_c 6.249865
_cell_angle_alpha 72.484090
_cell_angle_beta 60.824121
_cell_angle_gamma 75.542183
_cell_volume 477.804205
_symmetry_space_group_name_H-M "P -1"
_symmetry_group_IT_number 2
_symmetry_cell_setting 'triclinic'
loop_
_space_group_symop_operation_xyz
x,y,z
-x,-y,-z
loop_
_atom_site_type_symbol
_atom_site_label
_atom_site_fract_x
_atom_site_fract_y
_atom_site_fract_z
Si Si1 0.510548 0.603080 0.657891
Si Si2 0.878835 0.014464 0.403488
Si Si3 0.331659 0.142730 0.081245
Si Si4 0.620211 0.123867 0.115114
Si Si5 0.758028 0.539627 0.817580
Si Si6 0.075748 0.767197 0.097566
O O1 0.500000 0.500000 0.500000
O O2 0.450356 0.789502 0.653445
O O3 0.680073 0.577926 0.631405
O O4 0.380062 0.536852 0.930894
O O5 0.725561 0.979515 0.650821
O O6 0.891504 0.173700 0.193540
O O7 0.000000 0.000000 0.500000
O O8 0.930892 0.873358 0.256865
O O9 0.494388 0.177230 0.015389
O O10 0.224961 0.302537 0.134189
O O11 0.344274 0.061545 0.876539
O O12 0.779827 0.181030 0.916420
O O13 0.905381 0.415879 0.787902
#
# Coordination Sequence:
#
# PCOD9107720 Si02
#       6
#     2   2   2   2   2   2
#     4   9  18  37  60  91 130 168 199 249 319 374
#     4  11  23  41  64  86 122 173 211 251 313 377
#     4  10  20  40  65  93 130 160 201 266 310 361
#     4   9  19  39  62  93 124 163 202 254 305 377
#     4   9  20  39  59  92 128 155 209 264 300 370
#     4  10  22  41  63  89 122 165 216 249 308 382
#
# _framework density 25.114887
#
# number of rings (size 3 to 8) (size 9 to 14) (size 15 to 20)
#    0.000    2.333    1.667    1.000    0.000    4.000 
#   24.000    0.833    0.000    0.000    0.000    0.000 
#    0.000    0.000    0.000    0.000    0.000    0.000 
#
# Total GULP energy -66892.896329 kJ/mol
# GULP energy per Si atom -5574.408027 kJ/mol
# Density = 2.505772 g / cm^3
# Si number density = 25.114887 Si / 1000 Ang^3
#
#
#
# Elastic Constant Matrix: (Units=GPa)
#
#
# Indices 1 2 3 4 5 6 
#
# 1 55.7333 33.2493 21.0439 4.0253 8.6231 -9.0297
# 2 33.2493 163.5915 52.5414 29.0972 41.4420 3.4836
# 3 21.0439 52.5414 89.7667 4.5933 -4.9303 -0.2813
# 4 4.0253 29.0972 4.5933 39.3287 9.5578 5.7707
# 5 8.6231 41.4420 -4.9303 9.5578 28.6314 -1.7896
# 6 -9.0297 3.4836 -0.2813 5.7707 -1.7896 31.7305
#
#
#
# Elastic Compliance Matrix: (Units=1/GPa)
#
#
# Indices 1 2 3 4 5 6 
#
# 1 0.022544 -0.002653 -0.003883 -0.000071 -0.003188 0.006505
# 2 -0.002653 0.017131 -0.010512 -0.004765 -0.024418 -0.003240
# 3 -0.003883 -0.010512 0.019220 0.001047 0.019416 0.001124
# 4 -0.000071 -0.004765 0.001047 0.030424 -0.003383 -0.005212
# 5 -0.003188 -0.024418 0.019416 -0.003383 0.076132 0.006855
# 6 0.006505 -0.003240 0.001124 -0.005212 0.006855 0.035067
#
#
# Mechanical properties :
#
#
# Convention : Reuss Voigt Hill
#
# Bulk Modulus (GPa) = 40.32727 58.08451 49.20589
# Shear Modulus (GPa) = 20.58637 33.42192 27.00415
#
# Velocity S-wave (km/s) = 2.86613 3.65192 3.28262
# Velocity P-wave (km/s) = 5.20047 6.39998 5.83115
#
# Compressibility (1/GPa) = 0.02479711
#
# Stress axis : x y z
#
# Youngs Moduli (GPa) = 44.35787 58.37504 52.03042
#
# Poissons Ratio (x) = 0.15488 0.20204
# Poissons Ratio (y) = 0.11769 0.54695
# Poissons Ratio (z) = 0.17224 0.61365
#
# Static dielectric constant tensor:
#      x y z
#    x 1.988780 -0.015010 0.023620 
#    y -0.015010 2.184290 0.006190 
#    z 0.023620 0.006190 2.026000 
# 
# From -- ./inp_files/59084.got.cif
#   From: 2010.05.17/outbox.cif.g08.bks.cpg/sg2_30_cif.got.tgz:59084.got - 2010.06.03 11:33:40.
