data_PCOD9107442
_publ_section_title
;
Structure prediction by ZEFSAII (Michael W. Deem and Ramdas Pophale) SiO2 
 PCOD9107442
Probable space group: P -1
;
_chemical_formula_sum "Si O2"
_cell_formula_units_Z 16
_cell_length_a 8.309768
_cell_length_b 6.632433
_cell_length_c 14.811360
_cell_angle_alpha 70.523888
_cell_angle_beta 109.429428
_cell_angle_gamma 94.400889
_cell_volume 725.240238
_symmetry_space_group_name_H-M "P -1"
_symmetry_group_IT_number 2
_symmetry_cell_setting 'triclinic'
loop_
_space_group_symop_operation_xyz
x,y,z
-x,-y,-z
loop_
_atom_site_type_symbol
_atom_site_label
_atom_site_fract_x
_atom_site_fract_y
_atom_site_fract_z
Si Si1 0.192987 0.419318 0.540604
Si Si2 0.185191 0.369559 0.353924
Si Si3 0.160477 0.361296 0.745363
Si Si4 0.661182 0.048627 0.085527
Si Si5 0.446815 0.777298 0.569298
Si Si6 0.586981 0.268706 0.227216
Si Si7 0.193285 0.372295 0.164694
Si Si8 0.936476 0.224757 0.991726
O O1 0.194209 0.276785 0.471337
O O2 0.228651 0.322129 0.660710
O O3 0.305625 0.630944 0.518943
O O4 0.000000 0.500000 0.500000
O O5 0.387782 0.390348 0.372192
O O6 0.146337 0.255354 0.267728
O O7 0.038000 0.556882 0.306104
O O8 0.211554 0.156208 0.844134
O O9 0.271290 0.553055 0.775615
O O10 0.604821 0.128386 0.161929
O O11 0.773835 0.215526 0.028611
O O12 0.500000 0.000000 0.000000
O O13 0.390911 0.832025 0.653394
O O14 0.500000 0.000000 0.500000
O O15 0.392360 0.359488 0.181783
O O16 0.091849 0.295938 0.071206
O O17 0.122162 0.616169 0.122722
O O18 0.000000 0.000000 0.000000
#
# Coordination Sequence:
#
# PCOD9107442 Si02
#       8
#     2   2   2   2   2   2   2   2
#     4   9  20  41  64  94 128 173 211 256 334 388
#     4  10  20  40  64  92 126 170 209 257 330 381
#     4  10  22  42  63  90 131 168 210 264 321 384
#     4  12  25  40  65  96 122 169 221 263 320 384
#     4  10  22  41  64  98 128 168 216 271 317 385
#     4  10  23  43  61  89 130 164 211 261 330 380
#     4  10  22  41  61  89 128 166 206 272 321 380
#     4  11  23  40  63  91 125 165 220 264 323 382
#
# _framework density 22.061654999999998
#
# number of rings (size 3 to 8) (size 9 to 14) (size 15 to 20)
#    0.000    1.750    0.000    3.375    1.750    4.000 
#   20.250    1.875    0.000    0.000    0.000    0.000 
#    0.000    0.000    0.000    0.000    0.000    0.000 
#
# Total GULP energy -89095.866366 kJ/mol
# GULP energy per Si atom -5568.491648 kJ/mol
# Density = 2.201144 g / cm^3
# Si number density = 22.061655 Si / 1000 Ang^3
#
#
#
# Elastic Constant Matrix: (Units=GPa)
#
#
# Indices 1 2 3 4 5 6 
#
# 1 102.3776 30.6455 41.0544 11.4502 14.1950 -9.2124
# 2 30.6455 52.3323 46.6960 -2.1766 0.8215 -14.9254
# 3 41.0544 46.6960 113.1872 13.0372 -2.3955 -0.0528
# 4 11.4502 -2.1766 13.0372 19.0787 -5.1979 -10.0809
# 5 14.1950 0.8215 -2.3955 -5.1979 45.6596 4.0242
# 6 -9.2124 -14.9254 -0.0528 -10.0809 4.0242 35.6137
#
#
#
# Elastic Compliance Matrix: (Units=1/GPa)
#
#
# Indices 1 2 3 4 5 6 
#
# 1 0.014786 -0.011013 0.000716 -0.014385 -0.005626 -0.004226
# 2 -0.011013 0.065618 -0.029484 0.056450 0.003581 0.040182
# 3 0.000716 -0.029484 0.024368 -0.031619 -0.000157 -0.021068
# 4 -0.014385 0.056450 -0.031619 0.119824 0.010804 0.052586
# 5 -0.005626 0.003581 -0.000157 0.010804 0.024781 0.000303
# 6 -0.004226 0.040182 -0.021068 0.052586 0.000303 0.058645
#
#
# Mechanical properties :
#
#
# Convention : Reuss Voigt Hill
#
# Bulk Modulus (GPa) = 39.66632 56.07652 47.87142
# Shear Modulus (GPa) = 12.62671 30.03716 21.33193
#
# Velocity S-wave (km/s) = 2.39495 3.69387 3.11291
# Velocity P-wave (km/s) = 5.06621 6.60804 5.88781
#
# Compressibility (1/GPa) = 0.02521031
#
# Stress axis : x y z
#
# Youngs Moduli (GPa) = 67.63245 15.23976 41.03784
#
# Poissons Ratio (x) = 0.16783 -0.02940
# Poissons Ratio (y) = 0.74483 1.20996
# Poissons Ratio (z) = -0.04845 0.44933
#
# Static dielectric constant tensor:
#      x y z
#    x 1.814190 -0.012540 -0.058680 
#    y -0.012540 1.846130 -0.013870 
#    z -0.058680 -0.013870 1.940910 
# 
# From -- ./inp_files/106706.got.cif
#   From: 2010.05.17/outbox.cif.g08.bks.cpg/sg2_54_cif.got.tgz:106706.got - 2010.06.03 11:33:40.
