data_PCOD9107620
_publ_section_title
;
Structure prediction by ZEFSAII (Michael W. Deem and Ramdas Pophale) SiO2 
 PCOD9107620
Probable space group: P -1
;
_chemical_formula_sum "Si O2"
_cell_formula_units_Z 12
_cell_length_a 8.826801
_cell_length_b 15.284456
_cell_length_c 5.354535
_cell_angle_alpha 126.762496
_cell_angle_beta 70.859246
_cell_angle_gamma 73.933853
_cell_volume 426.812417
_symmetry_space_group_name_H-M "P -1"
_symmetry_group_IT_number 2
_symmetry_cell_setting 'triclinic'
loop_
_space_group_symop_operation_xyz
x,y,z
-x,-y,-z
loop_
_atom_site_type_symbol
_atom_site_label
_atom_site_fract_x
_atom_site_fract_y
_atom_site_fract_z
Si Si1 0.935477 0.401078 0.398583
Si Si2 0.551224 0.864751 0.487636
Si Si3 0.700441 0.319775 0.509222
Si Si4 0.107725 0.335941 0.692659
Si Si5 0.823253 0.943272 0.253096
Si Si6 0.603650 0.247417 0.952649
O O1 0.719336 0.443647 0.675147
O O2 0.000000 0.500000 0.500000
O O3 0.074472 0.299741 0.380244
O O4 0.977619 0.338364 0.992118
O O5 0.661983 0.770252 0.510547
O O6 0.675713 0.921088 0.446491
O O7 0.568474 0.758971 0.092242
O O8 0.307680 0.992335 0.830398
O O9 0.662436 0.298407 0.774518
O O10 0.568022 0.327853 0.364582
O O11 0.934931 0.178173 0.088541
O O12 0.000000 0.500000 0.000000
O O13 0.778704 0.082777 0.622854
#
# Coordination Sequence:
#
# PCOD9107620 Si02
#       6
#     2   2   2   2   2   2
#     4  10  22  38  65  91 114 161 223 253 295 376
#     4   9  20  41  61  99 124 168 208 266 300 372
#     4  12  21  41  63  92 127 173 197 259 318 375
#     4  10  20  40  65  89 116 161 218 258 301 361
#     4   9  20  40  62  95 131 169 210 247 308 383
#     4  10  24  38  60  95 136 158 206 253 325 365
#
# _framework density 28.115397999999999
#
# number of rings (size 3 to 8) (size 9 to 14) (size 15 to 20)
#    1.000    1.000    1.667    2.000    0.000    1.333 
#    0.000    2.500    0.000   24.000    0.000    0.000 
#    0.000    0.000    0.000    0.000    0.000    0.000 
#
# Total GULP energy -66941.190936 kJ/mol
# GULP energy per Si atom -5578.432578 kJ/mol
# Density = 2.805141 g / cm^3
# Si number density = 28.115398 Si / 1000 Ang^3
#
#
#
# Elastic Constant Matrix: (Units=GPa)
#
#
# Indices 1 2 3 4 5 6 
#
# 1 119.0374 76.0862 38.1517 -16.7925 29.0622 -0.3258
# 2 76.0862 164.5494 47.6571 -24.6172 8.8565 -0.4477
# 3 38.1517 47.6571 80.1386 -26.3331 27.2567 -0.5601
# 4 -16.7925 -24.6172 -26.3331 63.5195 -16.6181 -6.7572
# 5 29.0622 8.8565 27.2567 -16.6181 46.1697 -6.3403
# 6 -0.3258 -0.4477 -0.5601 -6.7572 -6.3403 69.0325
#
#
#
# Elastic Compliance Matrix: (Units=1/GPa)
#
#
# Indices 1 2 3 4 5 6 
#
# 1 0.014359 -0.006124 -0.000889 -0.001082 -0.007839 -0.000805
# 2 -0.006124 0.010156 -0.004239 0.001998 0.005221 0.000678
# 3 -0.000889 -0.004239 0.019746 0.003946 -0.008906 -0.000303
# 4 -0.001082 0.001998 0.003946 0.019521 0.005330 0.002440
# 5 -0.007839 0.005221 -0.008906 0.005330 0.033249 0.003500
# 6 -0.000805 0.000678 -0.000303 0.002440 0.003500 0.015044
#
#
# Mechanical properties :
#
#
# Convention : Reuss Voigt Hill
#
# Bulk Modulus (GPa) = 45.96218 76.39061 61.17640
# Shear Modulus (GPa) = 35.25278 49.19972 42.22625
#
# Velocity S-wave (km/s) = 3.54483 4.18774 3.87963
# Velocity P-wave (km/s) = 5.75653 7.11423 6.47109
#
# Compressibility (1/GPa) = 0.02175702
#
# Stress axis : x y z
#
# Youngs Moduli (GPa) = 69.64224 98.46016 50.64311
#
# Poissons Ratio (x) = 0.60299 0.04503
# Poissons Ratio (y) = 0.42651 0.21467
# Poissons Ratio (z) = 0.06192 0.41737
#
# Static dielectric constant tensor:
#      x y z
#    x 2.267990 0.073000 0.064980 
#    y 0.073000 2.354810 0.217720 
#    z 0.064980 0.217720 2.498870 
# 
# From -- ./inp_files/36142.got.cif
#   From: 2010.05.17/outbox.cif.g08.bks.cpg/sg2_19_cif.got.tgz:36142.got - 2010.06.03 11:33:40.
