data_PCOD9107906
_publ_section_title
;
Structure prediction by ZEFSAII (Michael W. Deem and Ramdas Pophale) SiO2 
 PCOD9107906
Probable space group: P -1
;
_chemical_formula_sum "Si O2"
_cell_formula_units_Z 14
_cell_length_a 15.403633
_cell_length_b 22.154443
_cell_length_c 12.822838
_cell_angle_alpha 150.572989
_cell_angle_beta 39.537086
_cell_angle_gamma 161.474003
_cell_volume 639.910526
_symmetry_space_group_name_H-M "P -1"
_symmetry_group_IT_number 2
_symmetry_cell_setting 'triclinic'
loop_
_space_group_symop_operation_xyz
x,y,z
-x,-y,-z
loop_
_atom_site_type_symbol
_atom_site_label
_atom_site_fract_x
_atom_site_fract_y
_atom_site_fract_z
Si Si1 0.304183 0.250515 0.157085
Si Si2 0.187175 0.425543 0.522547
Si Si3 0.222778 0.723895 0.216169
Si Si4 0.765995 0.423122 0.614585
Si Si5 0.588340 0.929280 0.791288
Si Si6 0.754965 0.473469 0.931197
Si Si7 0.185078 0.911675 0.849480
O O1 0.325029 0.408347 0.407808
O O2 0.542943 0.395894 0.071855
O O3 0.301434 0.143108 0.086376
O O4 0.000000 0.000000 0.000000
O O5 0.430993 0.721431 0.713005
O O6 0.925048 0.267473 0.598689
O O7 0.019535 0.268105 0.332396
O O8 0.543634 0.965291 0.232854
O O9 0.218020 0.627702 0.174846
O O10 0.000000 0.500000 0.000000
O O11 0.533008 0.214315 0.424532
O O12 0.000000 0.500000 0.500000
O O13 0.968996 0.703877 0.828494
O O14 0.651489 0.347688 0.723814
O O15 0.935480 0.212500 0.893573
O O16 0.500000 0.000000 0.000000
#
# Coordination Sequence:
#
# PCOD9107906 Si02
#       7
#     2   2   2   2   2   2   2
#     4   9  21  44  67  87 130 172 214 263 317 383
#     4  10  20  40  66  90 124 173 211 262 318 381
#     4  11  23  38  64  95 125 167 213 267 321 373
#     4  11  22  37  70  96 127 171 209 266 330 370
#     4  11  21  39  64 100 133 161 216 269 315 379
#     4  11  23  43  66  97 130 168 213 269 319 381
#     4   9  21  40  61  94 125 160 214 265 315 378
#
# _framework density 21.878059
#
# number of rings (size 3 to 8) (size 9 to 14) (size 15 to 20)
#    0.000    1.714    2.857    1.286    4.000    2.857 
#    0.000    9.286    3.143    0.000    0.000    0.000 
#    0.000    0.000    0.000    0.000    0.000    0.000 
#
# Total GULP energy -78228.864723 kJ/mol
# GULP energy per Si atom -5587.776052 kJ/mol
# Density = 2.182826 g / cm^3
# Si number density = 21.878059 Si / 1000 Ang^3
#
#
#
# Elastic Constant Matrix: (Units=GPa)
#
#
# Indices 1 2 3 4 5 6 
#
# 1 63.3251 48.2132 53.8761 -19.7081 -2.5396 -9.6994
# 2 48.2132 126.9088 54.9642 5.7404 -16.3881 8.6583
# 3 53.8761 54.9642 106.5414 -1.2719 -22.2469 -5.1602
# 4 -19.7081 5.7404 -1.2719 35.2059 8.2133 -3.0985
# 5 -2.5396 -16.3881 -22.2469 8.2133 44.8861 -8.1871
# 6 -9.6994 8.6583 -5.1602 -3.0985 -8.1871 31.8153
#
#
#
# Elastic Compliance Matrix: (Units=1/GPa)
#
#
# Indices 1 2 3 4 5 6 
#
# 1 0.086172 -0.026190 -0.033813 0.060067 -0.027572 0.026669
# 2 -0.026190 0.018759 0.004683 -0.020774 0.009308 -0.011958
# 3 -0.033813 0.004683 0.026970 -0.023008 0.016421 -0.005224
# 4 0.060067 -0.020774 -0.023008 0.072254 -0.025011 0.020835
# 5 -0.027572 0.009308 0.016421 -0.025011 0.036596 -0.001294
# 6 0.026669 -0.011958 -0.005224 0.020835 -0.001294 0.043665
#
#
# Mechanical properties :
#
#
# Convention : Reuss Voigt Hill
#
# Bulk Modulus (GPa) = 47.03523 67.87583 57.45553
# Shear Modulus (GPa) = 12.43337 31.69625 22.06481
#
# Velocity S-wave (km/s) = 2.38650 3.81040 3.17919
# Velocity P-wave (km/s) = 5.39808 7.10287 6.30833
#
# Compressibility (1/GPa) = 0.02126066
#
# Stress axis : x y z
#
# Youngs Moduli (GPa) = 11.60467 53.30865 37.07794
#
# Poissons Ratio (x) = 1.39613 1.25372
# Poissons Ratio (y) = 0.30392 -0.17362
# Poissons Ratio (z) = 0.39239 -0.24962
#
# Static dielectric constant tensor:
#      x y z
#    x 1.850760 -0.072330 -0.018090 
#    y -0.072330 1.859280 -0.035560 
#    z -0.018090 -0.035560 1.892860 
# 
# From -- ./inp_files/400196.got.cif
#   From: 2010.05.17/outbox.cif.g08.bks.cpg/sg2_201_cif.got.tgz:400196.got - 2010.06.03 11:33:40.
