data_PCOD9107361
_publ_section_title
;
Structure prediction by ZEFSAII (Michael W. Deem and Ramdas Pophale) SiO2 
 PCOD9107361
Probable space group: P -1
;
_chemical_formula_sum "Si O2"
_cell_formula_units_Z 16
_cell_length_a 9.022948
_cell_length_b 9.620055
_cell_length_c 9.723209
_cell_angle_alpha 62.282835
_cell_angle_beta 96.332544
_cell_angle_gamma 69.748074
_cell_volume 662.502793
_symmetry_space_group_name_H-M "P -1"
_symmetry_group_IT_number 2
_symmetry_cell_setting 'triclinic'
loop_
_space_group_symop_operation_xyz
x,y,z
-x,-y,-z
loop_
_atom_site_type_symbol
_atom_site_label
_atom_site_fract_x
_atom_site_fract_y
_atom_site_fract_z
Si Si1 0.534515 0.166353 0.949205
Si Si2 0.175766 0.363747 0.754118
Si Si3 0.869425 0.732923 0.512664
Si Si4 0.367928 0.604219 0.324069
Si Si5 0.706810 0.425930 0.035242
Si Si6 0.048202 0.794652 0.093477
Si Si7 0.380688 0.294876 0.285612
Si Si8 0.722883 0.112789 0.284127
O O1 0.351546 0.332600 0.848023
O O2 0.618511 0.224464 0.808392
O O3 0.645199 0.132437 0.112365
O O4 0.500000 0.000000 0.000000
O O5 0.195388 0.301592 0.625626
O O6 0.038786 0.564708 0.645952
O O7 0.107542 0.246774 0.886270
O O8 0.736854 0.746631 0.609061
O O9 0.868743 0.920490 0.411193
O O10 0.500000 0.500000 0.500000
O O11 0.168364 0.685813 0.284981
O O12 0.408796 0.452156 0.285571
O O13 0.840101 0.298621 0.986881
O O14 0.710927 0.607732 0.909369
O O15 0.500000 0.500000 0.000000
O O16 0.765029 0.276149 0.227735
O O17 0.000000 0.000000 0.000000
O O18 0.563014 0.142058 0.346114
#
# Coordination Sequence:
#
# PCOD9107361 Si02
#       8
#     2   2   2   2   2   2   2   2
#     4  12  23  39  59  97 126 158 207 260 310 364
#     4  11  23  36  61  90 134 157 197 258 325 364
#     4  11  21  38  59  90 123 165 199 252 316 370
#     4  11  23  40  63  89 127 160 206 260 310 372
#     4   9  18  36  61  84 114 160 210 244 295 369
#     4  11  20  38  62  94 120 159 210 260 307 367
#     4  10  20  40  64  88 117 167 218 242 310 375
#     4  11  21  38  67  88 119 167 214 255 291 381
#
# _framework density 24.150841
#
# number of rings (size 3 to 8) (size 9 to 14) (size 15 to 20)
#    0.000    1.250    6.250    2.625    1.750    0.000 
#    0.000    0.625    0.000    0.750    0.000    0.000 
#    0.000    0.000    0.000    0.000    0.000    0.000 
#
# Total GULP energy -89164.811679 kJ/mol
# GULP energy per Si atom -5572.800730 kJ/mol
# Density = 2.409587 g / cm^3
# Si number density = 24.150841 Si / 1000 Ang^3
#
#
#
# Elastic Constant Matrix: (Units=GPa)
#
#
# Indices 1 2 3 4 5 6 
#
# 1 64.7744 -5.7343 22.5017 3.6038 -7.4948 -3.7495
# 2 -5.7343 55.5848 34.8965 -22.3979 0.0567 -10.3629
# 3 22.5017 34.8965 103.1693 -30.4785 -14.8324 -3.4888
# 4 3.6038 -22.3979 -30.4785 49.6180 -2.0086 -3.4151
# 5 -7.4948 0.0567 -14.8324 -2.0086 35.2684 -2.2222
# 6 -3.7495 -10.3629 -3.4888 -3.4151 -2.2222 40.8494
#
#
#
# Elastic Compliance Matrix: (Units=1/GPa)
#
#
# Indices 1 2 3 4 5 6 
#
# 1 0.018538 0.005262 -0.006349 -0.002659 0.001257 0.002340
# 2 0.005262 0.028319 -0.008430 0.007677 -0.001562 0.007504
# 3 -0.006349 -0.008430 0.016967 0.007307 0.006196 -0.000324
# 4 -0.002659 0.007677 0.007307 0.028824 0.004451 0.004979
# 5 0.001257 -0.001562 0.006196 0.004451 0.031630 0.002341
# 6 0.002340 0.007504 -0.000324 0.004979 0.002341 0.027115
#
#
# Mechanical properties :
#
#
# Convention : Reuss Voigt Hill
#
# Bulk Modulus (GPa) = 22.32544 36.31736 29.32140
# Shear Modulus (GPa) = 26.97501 36.60482 31.78991
#
# Velocity S-wave (km/s) = 3.34569 3.89739 3.63203
# Velocity P-wave (km/s) = 4.91824 5.94334 5.45492
#
# Compressibility (1/GPa) = 0.04479195
#
# Stress axis : x y z
#
# Youngs Moduli (GPa) = 53.94223 35.31148 58.93763
#
# Poissons Ratio (x) = -0.18580 0.37418
# Poissons Ratio (y) = -0.28384 0.49682
# Poissons Ratio (z) = 0.34247 0.29766
#
# Static dielectric constant tensor:
#      x y z
#    x 1.951430 0.025190 0.046100 
#    y 0.025190 2.114500 0.117190 
#    z 0.046100 0.117190 2.091380 
# 
# From -- ./inp_files/389060.got.cif
#   From: 2010.05.17/outbox.cif.g08.bks.cpg/sg2_195_cif.got.tgz:389060.got - 2010.06.03 11:33:40.
