data_PCOD9107819
_publ_section_title
;
Structure prediction by ZEFSAII (Michael W. Deem and Ramdas Pophale) SiO2 
 PCOD9107819
Probable space group: P -1
;
_chemical_formula_sum "Si O2"
_cell_formula_units_Z 14
_cell_length_a 8.434544
_cell_length_b 12.247088
_cell_length_c 11.047429
_cell_angle_alpha 36.120566
_cell_angle_beta 91.209930
_cell_angle_gamma 110.478201
_cell_volume 555.074561
_symmetry_space_group_name_H-M "P -1"
_symmetry_group_IT_number 2
_symmetry_cell_setting 'triclinic'
loop_
_space_group_symop_operation_xyz
x,y,z
-x,-y,-z
loop_
_atom_site_type_symbol
_atom_site_label
_atom_site_fract_x
_atom_site_fract_y
_atom_site_fract_z
Si Si1 0.694108 0.773174 0.398641
Si Si2 0.406334 0.307868 0.064821
Si Si3 0.846008 0.513447 0.164133
Si Si4 0.544551 0.746514 0.177353
Si Si5 0.792581 0.375897 0.015609
Si Si6 0.978640 0.111035 0.517364
Si Si7 0.364232 0.815225 0.332819
O O1 0.707971 0.797518 0.231789
O O2 0.553775 0.501595 0.656005
O O3 0.888199 0.868934 0.387900
O O4 0.562724 0.864536 0.351444
O O5 0.270612 0.369922 0.939268
O O6 0.366847 0.030836 0.100530
O O7 0.587233 0.303314 0.031479
O O8 0.500000 0.500000 0.000000
O O9 0.798702 0.367799 0.415633
O O10 0.073664 0.693299 0.979655
O O11 0.776102 0.367325 0.168696
O O12 0.378875 0.724335 0.282525
O O13 0.926263 0.635667 0.746189
O O14 0.751671 0.950262 0.674072
O O15 0.000000 0.000000 0.500000
#
# Coordination Sequence:
#
# PCOD9107819 Si02
#       7
#     2   2   2   2   2   2   2
#     4   9  19  38  69 107 149 183 238 316 359 437
#     4  10  21  41  68  91 143 194 232 292 355 426
#     4  10  20  40  66 100 138 188 240 292 368 424
#     4   8  18  39  68 115 141 184 249 311 366 426
#     4  10  23  43  61 103 148 180 247 294 347 455
#     4  12  22  41  69 105 141 196 242 285 377 444
#     4   9  17  37  72 110 137 191 242 305 373 427
#
# _framework density 25.221837000000001
#
# number of rings (size 3 to 8) (size 9 to 14) (size 15 to 20)
#    0.857    1.429    2.857    0.857    2.000    0.000 
#    7.714    7.857    0.000    5.143    0.000    1.000 
#    0.000    0.000    0.000    0.000    0.000    0.000 
#
# Total GULP energy -78018.262432 kJ/mol
# GULP energy per Si atom -5572.733031 kJ/mol
# Density = 2.516443 g / cm^3
# Si number density = 25.221837 Si / 1000 Ang^3
#
#
#
# Elastic Constant Matrix: (Units=GPa)
#
#
# Indices 1 2 3 4 5 6 
#
# 1 162.3969 34.2858 56.6042 -4.7142 -4.4836 1.6065
# 2 34.2858 57.8818 27.1953 -1.2485 -3.1515 9.8746
# 3 56.6042 27.1953 158.2825 -2.0352 7.6450 -6.2543
# 4 -4.7142 -1.2485 -2.0352 38.3649 -11.4240 -6.2293
# 5 -4.4836 -3.1515 7.6450 -11.4240 51.2470 5.9436
# 6 1.6065 9.8746 -6.2543 -6.2293 5.9436 39.0196
#
#
#
# Elastic Compliance Matrix: (Units=1/GPa)
#
#
# Indices 1 2 3 4 5 6 
#
# 1 0.007714 -0.003509 -0.002181 0.001052 0.000991 0.000238
# 2 -0.003509 0.021866 -0.002853 -0.000245 0.002129 -0.006210
# 3 -0.002181 -0.002853 0.007766 -0.000115 -0.001819 0.002315
# 4 0.001052 -0.000245 -0.000115 0.028571 0.006041 0.003641
# 5 0.000991 0.002129 -0.001819 0.006041 0.021722 -0.003216
# 6 0.000238 -0.006210 0.002315 0.003641 -0.003216 0.028632
#
#
# Mechanical properties :
#
#
# Convention : Reuss Voigt Hill
#
# Bulk Modulus (GPa) = 49.35895 68.30353 58.83124
# Shear Modulus (GPa) = 35.68637 43.09136 39.38887
#
# Velocity S-wave (km/s) = 3.76560 4.13788 3.95612
# Velocity P-wave (km/s) = 6.20634 7.06889 6.65162
#
# Compressibility (1/GPa) = 0.02025975
#
# Stress axis : x y z
#
# Youngs Moduli (GPa) = 129.63082 45.73396 128.76891
#
# Poissons Ratio (x) = 0.16047 0.28082
# Poissons Ratio (y) = 0.45483 0.36743
# Poissons Ratio (z) = 0.28270 0.13050
#
# Static dielectric constant tensor:
#      x y z
#    x 1.977160 -0.061640 -0.066750 
#    y -0.061640 2.107950 0.101120 
#    z -0.066750 0.101120 2.086020 
# 
# From -- ./inp_files/384089.got.cif
#   From: 2010.05.17/outbox.cif.g08.bks.cpg/sg2_193_cif.got.tgz:384089.got - 2010.06.03 11:33:40.
