data_PCOD9107717
_publ_section_title
;
Structure prediction by ZEFSAII (Michael W. Deem and Ramdas Pophale) SiO2 
 PCOD9107717
Probable space group: P -1
;
_chemical_formula_sum "Si O2"
_cell_formula_units_Z 15
_cell_length_a 7.729291
_cell_length_b 13.962649
_cell_length_c 23.365144
_cell_angle_alpha 23.595155
_cell_angle_beta 43.454501
_cell_angle_gamma 54.848510
_cell_volume 656.489803
_symmetry_space_group_name_H-M "P -1"
_symmetry_group_IT_number 2
_symmetry_cell_setting 'triclinic'
loop_
_space_group_symop_operation_xyz
x,y,z
-x,-y,-z
loop_
_atom_site_type_symbol
_atom_site_label
_atom_site_fract_x
_atom_site_fract_y
_atom_site_fract_z
Si Si1 0.314156 0.546623 0.466964
Si Si2 0.358018 0.213504 0.209761
Si Si3 0.500000 0.000000 0.500000
Si Si4 0.793191 0.589702 0.755858
Si Si5 0.216554 0.975606 0.917334
Si Si6 0.166518 0.003684 0.780166
Si Si7 0.036048 0.213605 0.515553
Si Si8 0.205378 0.496288 0.903426
O O1 0.500000 0.500000 0.500000
O O2 0.053668 0.596458 0.527397
O O3 0.506030 0.808908 0.251343
O O4 0.231724 0.294146 0.586646
O O5 0.157274 0.230351 0.299307
O O6 0.581435 0.090706 0.242054
O O7 0.500000 0.500000 0.000000
O O8 0.206284 0.049269 0.283041
O O9 0.690516 0.844646 0.510980
O O10 0.258408 0.726591 0.719721
O O11 0.963465 0.692253 0.602222
O O12 0.493787 0.564055 0.824844
O O13 0.789143 0.311437 0.922999
O O14 0.144338 0.015183 0.847726
O O15 0.000000 0.000000 0.000000
O O16 0.907322 0.785859 0.939909
O O17 0.000000 0.500000 0.000000
#
# Coordination Sequence:
#
# PCOD9107717 Si02
#       8
#     2   2   1   2   2   2   2   2
#     4  10  20  40  65  93 128 172 215 273 328 389
#     4  12  20  36  65  97 126 165 218 271 329 391
#     4  10  26  42  64  98 136 180 216 276 334 398
#     4  11  23  38  63  99 123 174 216 273 329 392
#     4  11  23  41  66  97 131 168 225 276 327 397
#     4  11  22  41  67  97 131 175 216 271 337 398
#     4  11  22  41  64  93 135 168 221 271 335 394
#     4  11  24  44  67  94 140 170 219 273 337 396
#
# _framework density 22.848793000000001
#
# number of rings (size 3 to 8) (size 9 to 14) (size 15 to 20)
#    0.000    1.067    5.333    2.800    1.867    0.000 
#    2.400    6.667    0.000    0.000    0.000    0.000 
#    0.000    0.000    0.000    0.000    0.000    0.000 
#
# Total GULP energy -83548.180533 kJ/mol
# GULP energy per Si atom -5569.878702 kJ/mol
# Density = 2.279679 g / cm^3
# Si number density = 22.848793 Si / 1000 Ang^3
#
#
#
# Elastic Constant Matrix: (Units=GPa)
#
#
# Indices 1 2 3 4 5 6 
#
# 1 32.8259 9.0130 -5.6136 -7.6200 -4.6920 -4.4788
# 2 9.0130 151.1511 49.1840 -12.8226 9.7153 -13.0636
# 3 -5.6136 49.1840 136.4061 -18.5631 -12.2580 12.8227
# 4 -7.6200 -12.8226 -18.5631 47.7935 2.5080 -0.9062
# 5 -4.6920 9.7153 -12.2580 2.5080 19.7569 -3.2831
# 6 -4.4788 -13.0636 12.8227 -0.9062 -3.2831 34.7377
#
#
#
# Elastic Compliance Matrix: (Units=1/GPa)
#
#
# Indices 1 2 3 4 5 6 
#
# 1 0.035828 -0.003662 0.004465 0.005847 0.012830 0.002959
# 2 -0.003662 0.009141 -0.004404 0.000627 -0.007530 0.003896
# 3 0.004465 -0.004404 0.010709 0.003150 0.008786 -0.004121
# 4 0.005847 0.000627 0.003150 0.023248 0.000158 0.000448
# 5 0.012830 -0.007530 0.008786 0.000158 0.063052 0.001543
# 6 0.002959 0.003896 -0.004121 0.000448 0.001543 0.032312
#
#
# Mechanical properties :
#
#
# Convention : Reuss Voigt Hill
#
# Bulk Modulus (GPa) = 20.62919 47.28333 33.95626
# Shear Modulus (GPa) = 25.29720 38.31093 31.80406
#
# Velocity S-wave (km/s) = 3.33101 4.09921 3.73491
# Velocity P-wave (km/s) = 4.88286 6.56839 5.78731
#
# Compressibility (1/GPa) = 0.04847499
#
# Stress axis : x y z
#
# Youngs Moduli (GPa) = 27.91140 109.39319 93.38351
#
# Poissons Ratio (x) = 0.40063 -0.41700
# Poissons Ratio (y) = 0.10222 0.41130
# Poissons Ratio (z) = -0.12464 0.48181
#
# Static dielectric constant tensor:
#      x y z
#    x 2.019290 0.037680 -0.025130 
#    y 0.037680 1.837090 -0.006270 
#    z -0.025130 -0.006270 1.947260 
# 
# From -- ./inp_files/182822.got.cif
#   From: 2010.05.17/outbox.cif.g08.bks.cpg/sg2_92_cif.got.tgz:182822.got - 2010.06.03 11:33:40.
