data_PCOD9107026
_publ_section_title
;
Structure prediction by ZEFSAII (Michael W. Deem and Ramdas Pophale) SiO2 
 PCOD9107026
Probable space group: P -1
;
_chemical_formula_sum "Si O2"
_cell_formula_units_Z 15
_cell_length_a 5.210223
_cell_length_b 12.698029
_cell_length_c 11.575344
_cell_angle_alpha 54.946893
_cell_angle_beta 99.302877
_cell_angle_gamma 81.574530
_cell_volume 590.888703
_symmetry_space_group_name_H-M "P -1"
_symmetry_group_IT_number 2
_symmetry_cell_setting 'triclinic'
loop_
_space_group_symop_operation_xyz
x,y,z
-x,-y,-z
loop_
_atom_site_type_symbol
_atom_site_label
_atom_site_fract_x
_atom_site_fract_y
_atom_site_fract_z
Si Si1 0.802162 0.266155 0.580121
Si Si2 0.064277 0.369962 0.931699
Si Si3 0.051604 0.982715 0.649557
Si Si4 0.816380 0.612177 0.614608
Si Si5 0.500000 0.500000 0.000000
Si Si6 0.072170 0.700995 0.797873
Si Si7 0.463013 0.096063 0.104838
Si Si8 0.735867 0.124248 0.883906
O O1 0.496215 0.340082 0.472431
O O2 0.793739 0.233978 0.735423
O O3 0.004148 0.347366 0.498488
O O4 0.900607 0.117718 0.621001
O O5 0.914174 0.457552 0.759546
O O6 0.315068 0.424609 0.951774
O O7 0.179748 0.212609 0.015151
O O8 0.874667 0.394560 0.020029
O O9 0.964517 0.848893 0.745514
O O10 0.361821 0.936211 0.745889
O O11 0.000000 0.000000 0.500000
O O12 0.885640 0.683249 0.691558
O O13 0.615807 0.357626 0.180140
O O14 0.456513 0.950544 0.150393
O O15 0.615852 0.160034 0.979106
O O16 0.000000 0.000000 0.000000
#
# Coordination Sequence:
#
# PCOD9107026 Si02
#       8
#     2   2   2   2   1   2   2   2
#     4  12  26  47  68 105 146 192 238 303 371 424
#     4  11  25  41  70 101 141 196 242 293 359 446
#     4  12  24  41  70 110 151 183 233 301 380 443
#     4  11  27  43  70 102 149 192 230 296 367 437
#     4  10  20  40  62  92 146 176 244 270 350 440
#     4  11  24  38  65 100 145 195 233 286 357 454
#     4  11  25  47  74 107 138 192 252 304 356 436
#     4  11  25  48  76  99 139 192 254 305 359 422
#
# _framework density 25.385490000000001
#
# number of rings (size 3 to 8) (size 9 to 14) (size 15 to 20)
#    0.000    0.800    4.000    3.200   11.200    0.533 
#    0.000    1.333    0.000    0.000    0.000    0.000 
#    0.000    0.000    0.000    0.000    0.000    0.000 
#
# Total GULP energy -83710.035404 kJ/mol
# GULP energy per Si atom -5580.669027 kJ/mol
# Density = 2.532771 g / cm^3
# Si number density = 25.385490 Si / 1000 Ang^3
#
#
#
# Elastic Constant Matrix: (Units=GPa)
#
#
# Indices 1 2 3 4 5 6 
#
# 1 93.3191 9.1334 50.3141 0.3154 3.9723 -7.2111
# 2 9.1334 75.1121 26.5390 -9.5039 4.7876 4.0619
# 3 50.3141 26.5390 175.6124 -10.0139 -4.1641 -12.7686
# 4 0.3154 -9.5039 -10.0139 22.9077 -2.0713 9.4668
# 5 3.9723 4.7876 -4.1641 -2.0713 54.3117 3.8198
# 6 -7.2111 4.0619 -12.7686 9.4668 3.8198 27.3276
#
#
#
# Elastic Compliance Matrix: (Units=1/GPa)
#
#
# Indices 1 2 3 4 5 6 
#
# 1 0.013090 -0.000859 -0.003620 -0.003650 -0.001535 0.003369
# 2 -0.000859 0.015566 -0.002117 0.008048 -0.000728 -0.006216
# 3 -0.003620 -0.002117 0.007316 0.001586 0.000925 0.002099
# 4 -0.003650 0.008048 0.001586 0.056979 0.003373 -0.021628
# 5 -0.001535 -0.000728 0.000925 0.003373 0.019048 -0.003696
# 6 0.003369 -0.006216 0.002099 -0.021628 -0.003696 0.047396
#
#
# Mechanical properties :
#
#
# Convention : Reuss Voigt Hill
#
# Bulk Modulus (GPa) = 43.89516 57.33519 50.61517
# Shear Modulus (GPa) = 27.74986 38.11320 32.93153
#
# Velocity S-wave (km/s) = 3.30985 3.87896 3.60565
# Velocity P-wave (km/s) = 5.65118 6.53427 6.10870
#
# Compressibility (1/GPa) = 0.02278156
#
# Stress axis : x y z
#
# Youngs Moduli (GPa) = 76.39497 64.24053 136.67867
#
# Poissons Ratio (x) = 0.05517 0.49479
# Poissons Ratio (y) = 0.06561 0.28930
# Poissons Ratio (z) = 0.27656 0.13598
#
# Static dielectric constant tensor:
#      x y z
#    x 1.855370 0.231700 0.277050 
#    y 0.231700 1.945010 -0.151520 
#    z 0.277050 -0.151520 2.287940 
# 
# From -- ./inp_files/94808.got.cif
#   From: 2010.05.17/outbox.cif.g08.bks.cpg/sg2_48_cif.got.tgz:94808.got - 2010.06.03 11:33:40.
