data_PCOD9107667
_publ_section_title
;
Structure prediction by ZEFSAII (Michael W. Deem and Ramdas Pophale) SiO2 
 PCOD9107667
Probable space group: P -1
;
_chemical_formula_sum "Si O2"
_cell_formula_units_Z 16
_cell_length_a 13.823782
_cell_length_b 10.452607
_cell_length_c 7.020945
_cell_angle_alpha 83.001576
_cell_angle_beta 79.183172
_cell_angle_gamma 53.754138
_cell_volume 803.559019
_symmetry_space_group_name_H-M "P -1"
_symmetry_group_IT_number 2
_symmetry_cell_setting 'triclinic'
loop_
_space_group_symop_operation_xyz
x,y,z
-x,-y,-z
loop_
_atom_site_type_symbol
_atom_site_label
_atom_site_fract_x
_atom_site_fract_y
_atom_site_fract_z
Si Si1 0.413947 0.245618 0.891018
Si Si2 0.886091 0.850687 0.783076
Si Si3 0.107200 0.665071 0.467652
Si Si4 0.517824 0.341032 0.581216
Si Si5 0.313605 0.314715 0.541356
Si Si6 0.641674 0.896028 0.749110
Si Si7 0.960304 0.898839 0.139497
Si Si8 0.199076 0.872165 0.506148
O O1 0.464495 0.349211 0.810036
O O2 0.302539 0.310831 0.774795
O O3 0.524411 0.071759 0.803664
O O4 0.381175 0.221933 0.113218
O O5 0.761417 0.870661 0.791568
O O6 0.994923 0.713605 0.637475
O O7 0.865345 0.008797 0.669993
O O8 0.918070 0.839420 0.994082
O O9 0.202204 0.476332 0.463006
O O10 0.171620 0.741289 0.525772
O O11 0.057642 0.752127 0.265895
O O12 0.500000 0.500000 0.500000
O O13 0.434546 0.311765 0.487445
O O14 0.659359 0.205806 0.542848
O O15 0.336586 0.160029 0.465480
O O16 0.856786 0.022514 0.303324
O O17 0.000000 0.000000 0.000000
#
# Coordination Sequence:
#
# PCOD9107667 Si02
#       8
#     2   2   2   2   2   2   2   2
#     4   9  22  40  65  87 124 156 205 255 291 356
#     4  11  22  38  62  88 121 161 203 250 295 361
#     4  11  22  38  61  89 129 156 200 254 307 358
#     4  10  20  40  65  91 121 157 193 249 320 356
#     4  10  23  40  61  87 128 160 195 249 308 354
#     4  11  22  41  64  90 122 163 210 242 295 364
#     4  11  21  36  61  91 118 161 206 249 303 353
#     4  11  19  38  63  91 121 155 198 253 307 363
#
# _framework density 19.911418999999999
#
# number of rings (size 3 to 8) (size 9 to 14) (size 15 to 20)
#    0.750    0.750    5.000    1.125    0.000    5.500 
#    2.250    1.875    0.000    0.000    0.000    0.000 
#    0.000    0.000    0.000    0.000    0.000    0.000 
#
# Total GULP energy -89178.935674 kJ/mol
# GULP energy per Si atom -5573.683480 kJ/mol
# Density = 1.986610 g / cm^3
# Si number density = 19.911419 Si / 1000 Ang^3
#
#
#
# Elastic Constant Matrix: (Units=GPa)
#
#
# Indices 1 2 3 4 5 6 
#
# 1 52.9046 11.7713 13.8912 -3.8244 7.9860 -6.7553
# 2 11.7713 46.3473 8.1078 -3.6209 2.9938 -16.9145
# 3 13.8912 8.1078 79.8401 -10.9426 5.7108 -7.7073
# 4 -3.8244 -3.6209 -10.9426 20.1433 4.9330 -0.7756
# 5 7.9860 2.9938 5.7108 4.9330 33.5467 -6.3203
# 6 -6.7553 -16.9145 -7.7073 -0.7756 -6.3203 29.5783
#
#
#
# Elastic Compliance Matrix: (Units=1/GPa)
#
#
# Indices 1 2 3 4 5 6 
#
# 1 0.021520 -0.004118 -0.002463 0.003176 -0.004612 0.001016
# 2 -0.004118 0.028703 -0.000076 0.004773 0.000693 0.015727
# 3 -0.002463 -0.000076 0.014535 0.008147 -0.002542 0.002852
# 4 0.003176 0.004773 0.008147 0.058219 -0.010202 0.004924
# 5 -0.004612 0.000693 -0.002542 -0.010202 0.033842 0.005644
# 6 0.001016 0.015727 0.002852 0.004924 0.005644 0.045113
#
#
# Mechanical properties :
#
#
# Convention : Reuss Voigt Hill
#
# Bulk Modulus (GPa) = 19.43802 27.40363 23.42082
# Shear Modulus (GPa) = 21.51527 26.34177 23.92852
#
# Velocity S-wave (km/s) = 3.29074 3.64118 3.47039
# Velocity P-wave (km/s) = 4.92159 5.60983 5.27694
#
# Compressibility (1/GPa) = 0.05144557
#
# Stress axis : x y z
#
# Youngs Moduli (GPa) = 46.46753 34.83955 68.79961
#
# Poissons Ratio (x) = 0.14347 0.16944
# Poissons Ratio (y) = 0.19135 0.00520
# Poissons Ratio (z) = 0.11444 0.00263
#
# Static dielectric constant tensor:
#      x y z
#    x 1.713750 0.013560 -0.003150 
#    y 0.013560 1.720490 -0.028570 
#    z -0.003150 -0.028570 1.714290 
# 
# From -- ./inp_files/93648.got.cif
#   From: 2010.05.17/outbox.cif.g08.bks.cpg/sg2_47_cif.got.tgz:93648.got - 2010.06.03 11:33:40.
