data_PCOD9107216
_publ_section_title
;
Structure prediction by ZEFSAII (Michael W. Deem and Ramdas Pophale) SiO2 
 PCOD9107216
Probable space group: P -1
;
_chemical_formula_sum "Si O2"
_cell_formula_units_Z 14
_cell_length_a 5.041158
_cell_length_b 17.428834
_cell_length_c 10.051304
_cell_angle_alpha 139.655239
_cell_angle_beta 108.673068
_cell_angle_gamma 82.229195
_cell_volume 533.033705
_symmetry_space_group_name_H-M "P -1"
_symmetry_group_IT_number 2
_symmetry_cell_setting 'triclinic'
loop_
_space_group_symop_operation_xyz
x,y,z
-x,-y,-z
loop_
_atom_site_type_symbol
_atom_site_label
_atom_site_fract_x
_atom_site_fract_y
_atom_site_fract_z
Si Si1 0.193867 0.240711 0.091688
Si Si2 0.828888 0.413200 0.184127
Si Si3 0.404621 0.586093 0.426501
Si Si4 0.405546 0.077760 0.376106
Si Si5 0.793845 0.026731 0.164402
Si Si6 0.712379 0.412662 0.877715
Si Si7 0.717938 0.892829 0.315593
O O1 0.935140 0.312899 0.158145
O O2 0.446202 0.317478 0.317507
O O3 0.155736 0.104312 0.954816
O O4 0.245139 0.220575 0.916958
O O5 0.099335 0.519995 0.341792
O O6 0.589600 0.480302 0.294628
O O7 0.759883 0.354587 0.949588
O O8 0.393453 0.646119 0.357603
O O9 0.689899 0.105474 0.371039
O O10 0.463910 0.950100 0.281223
O O11 0.118395 0.081658 0.249411
O O12 0.351750 0.141262 0.588563
O O13 0.500000 0.000000 0.000000
O O14 0.500000 0.500000 0.000000
O O15 0.000000 0.500000 0.000000
O O16 0.000000 0.000000 0.500000
#
# Coordination Sequence:
#
# PCOD9107216 Si02
#       7
#     2   2   2   2   2   2   2
#     4  11  23  39  65  94 125 168 210 260 324 370
#     4  10  21  39  61  92 124 161 208 256 306 381
#     4  10  21  39  60  92 128 159 202 260 311 375
#     4  10  20  41  64  85 122 168 211 265 317 373
#     4  11  24  42  64  90 130 172 215 268 325 382
#     4   8  16  34  58  75 115 158 190 241 304 357
#     4  10  20  40  63  92 124 165 212 269 316 382
#
# _framework density 26.264755999999998
#
# number of rings (size 3 to 8) (size 9 to 14) (size 15 to 20)
#    0.000    2.000    2.857    1.286    0.000    4.571 
#    2.571    0.000   12.571    0.000    0.000    0.000 
#    0.000    0.000    0.000    0.000    0.000    0.000 
#
# Total GULP energy -78213.687650 kJ/mol
# GULP energy per Si atom -5586.691975 kJ/mol
# Density = 2.620498 g / cm^3
# Si number density = 26.264756 Si / 1000 Ang^3
#
#
#
# Elastic Constant Matrix: (Units=GPa)
#
#
# Indices 1 2 3 4 5 6 
#
# 1 160.7110 11.6552 49.0020 -3.3045 9.1059 -20.2206
# 2 11.6552 69.7386 34.4003 -8.9418 2.3453 -31.4809
# 3 49.0020 34.4003 163.7516 -11.0616 -3.4087 4.7705
# 4 -3.3045 -8.9418 -11.0616 39.3804 4.3479 6.8318
# 5 9.1059 2.3453 -3.4087 4.3479 37.7801 -10.6251
# 6 -20.2206 -31.4809 4.7705 6.8318 -10.6251 35.9061
#
#
#
# Elastic Compliance Matrix: (Units=1/GPa)
#
#
# Indices 1 2 3 4 5 6 
#
# 1 0.008177 0.004557 -0.003738 -0.000962 0.000141 0.009321
# 2 0.004557 0.034025 -0.009523 -0.001450 0.006154 0.035760
# 3 -0.003738 -0.009523 0.009742 0.002628 -0.001501 -0.012693
# 4 -0.000962 -0.001450 0.002628 0.027853 -0.005176 -0.008993
# 5 0.000141 0.006154 -0.001501 -0.005176 0.030963 0.015822
# 6 0.009321 0.035760 -0.012693 -0.008993 0.015822 0.072531
#
#
# Mechanical properties :
#
#
# Convention : Reuss Voigt Hill
#
# Bulk Modulus (GPa) = 28.95576 64.92402 46.93989
# Shear Modulus (GPa) = 23.56160 42.55623 33.05892
#
# Velocity S-wave (km/s) = 2.99838 4.02964 3.55164
# Velocity P-wave (km/s) = 4.79954 6.81347 5.89317
#
# Compressibility (1/GPa) = 0.03453544
#
# Stress axis : x y z
#
# Youngs Moduli (GPa) = 122.30135 29.39051 102.64954
#
# Poissons Ratio (x) = -0.13393 0.38367
# Poissons Ratio (y) = -0.55731 0.97753
# Poissons Ratio (z) = 0.45712 0.27988
#
# Static dielectric constant tensor:
#      x y z
#    x 2.057300 0.042170 0.032840 
#    y 0.042170 2.140500 -0.092390 
#    z 0.032840 -0.092390 2.157620 
# 
# From -- ./inp_files/370581.got.cif
#   From: 2010.05.17/outbox.cif.g08.bks.cpg/sg2_186_cif.got.tgz:370581.got - 2010.06.03 11:33:40.
