data_PCOD9107642
_publ_section_title
;
Structure prediction by ZEFSAII (Michael W. Deem and Ramdas Pophale) SiO2 
 PCOD9107642
Probable space group: P -1
;
_chemical_formula_sum "Si O2"
_cell_formula_units_Z 16
_cell_length_a 10.632525
_cell_length_b 9.180630
_cell_length_c 11.646375
_cell_angle_alpha 122.361022
_cell_angle_beta 67.522069
_cell_angle_gamma 75.943707
_cell_volume 726.989580
_symmetry_space_group_name_H-M "P -1"
_symmetry_group_IT_number 2
_symmetry_cell_setting 'triclinic'
loop_
_space_group_symop_operation_xyz
x,y,z
-x,-y,-z
loop_
_atom_site_type_symbol
_atom_site_label
_atom_site_fract_x
_atom_site_fract_y
_atom_site_fract_z
Si Si1 0.957302 0.971531 0.375836
Si Si2 0.625507 0.573728 0.154504
Si Si3 0.267403 0.777797 0.630434
Si Si4 0.436924 0.985640 0.265336
Si Si5 0.209826 0.101282 0.963447
Si Si6 0.344348 0.396343 0.582596
Si Si7 0.275825 0.869071 0.081367
Si Si8 0.051968 0.534682 0.119845
O O1 0.110142 0.918712 0.219770
O O2 0.941158 0.776059 0.297011
O O3 0.000000 0.000000 0.500000
O O4 0.800681 0.172195 0.453295
O O5 0.694350 0.572566 0.255792
O O6 0.398045 0.615014 0.918202
O O7 0.475676 0.807483 0.269522
O O8 0.765875 0.515684 0.987042
O O9 0.251352 0.609510 0.631658
O O10 0.460664 0.689764 0.524874
O O11 0.173693 0.993964 0.827529
O O12 0.334088 0.216482 0.453854
O O13 0.611421 0.944138 0.147847
O O14 0.353553 0.956210 0.173293
O O15 0.077990 0.352680 0.116768
O O16 0.230222 0.981068 0.021893
O O17 0.000000 0.500000 0.000000
#
# Coordination Sequence:
#
# PCOD9107642 Si02
#       8
#     2   2   2   2   2   2   2   2
#     4  11  26  42  61  91 128 164 199 250 316 364
#     4  10  21  37  61  92 121 159 209 244 305 360
#     4  10  21  40  63  90 125 158 204 253 302 361
#     4  10  22  37  59  95 127 155 203 254 303 362
#     4  10  20  40  65  90 120 159 209 252 297 362
#     4  10  21  38  64  92 117 164 203 254 302 351
#     4  11  23  40  62  91 124 166 197 249 314 362
#     4  10  21  39  63  89 117 159 203 253 297 359
#
# _framework density 22.008569000000001
#
# number of rings (size 3 to 8) (size 9 to 14) (size 15 to 20)
#    0.000    1.750    2.500    1.125    1.750    3.500 
#    0.000    1.250    0.000    0.000    0.000    0.000 
#    0.000    0.000    0.000    0.000    0.000    0.000 
#
# Total GULP energy -89457.736261 kJ/mol
# GULP energy per Si atom -5591.108516 kJ/mol
# Density = 2.195848 g / cm^3
# Si number density = 22.008569 Si / 1000 Ang^3
#
#
#
# Elastic Constant Matrix: (Units=GPa)
#
#
# Indices 1 2 3 4 5 6 
#
# 1 73.5036 32.1703 21.4059 1.1272 31.2863 -6.1645
# 2 32.1703 176.4464 47.7389 1.5152 15.5171 -2.8185
# 3 21.4059 47.7389 55.8851 2.3759 22.2971 10.0613
# 4 1.1272 1.5152 2.3759 35.2451 4.9987 1.2432
# 5 31.2863 15.5171 22.2971 4.9987 34.8896 -4.3170
# 6 -6.1645 -2.8185 10.0613 1.2432 -4.3170 27.2884
#
#
#
# Elastic Compliance Matrix: (Units=1/GPa)
#
#
# Indices 1 2 3 4 5 6 
#
# 1 0.023307 -0.002832 0.001509 0.002187 -0.020791 0.001028
# 2 -0.002832 0.008142 -0.008600 -0.000538 0.005010 0.004189
# 3 0.001509 -0.008600 0.037427 0.001840 -0.023964 -0.018222
# 4 0.002187 -0.000538 0.001840 0.029355 -0.007444 -0.002755
# 5 -0.020791 0.005010 -0.023964 -0.007444 0.063316 0.015012
# 6 0.001028 0.004189 -0.018222 -0.002755 0.015012 0.046529
#
#
# Mechanical properties :
#
#
# Convention : Reuss Voigt Hill
#
# Bulk Modulus (GPa) = 20.39644 56.49613 38.44629
# Shear Modulus (GPa) = 20.46957 33.11928 26.79443
#
# Velocity S-wave (km/s) = 3.05302 3.88343 3.49299
# Velocity P-wave (km/s) = 4.65999 6.77007 5.81160
#
# Compressibility (1/GPa) = 0.04902816
#
# Stress axis : x y z
#
# Youngs Moduli (GPa) = 42.90600 122.82652 26.71901
#
# Poissons Ratio (x) = 0.34778 -0.04031
# Poissons Ratio (y) = 0.12149 0.22980
# Poissons Ratio (z) = -0.06473 1.05636
#
# Static dielectric constant tensor:
#      x y z
#    x 1.827060 0.022210 -0.051270 
#    y 0.022210 1.788850 0.021600 
#    z -0.051270 0.021600 1.854190 
# 
# From -- ./inp_files/418100.got.cif
#   From: 2010.05.17/outbox.cif.g08.bks.cpg/sg2_210_cif.got.tgz:418100.got - 2010.06.03 11:33:40.
