data_PCOD9107052
_publ_section_title
;
Structure prediction by ZEFSAII (Michael W. Deem and Ramdas Pophale) SiO2 
 PCOD9107052
Probable space group: P -1
;
_chemical_formula_sum "Si O2"
_cell_formula_units_Z 16
_cell_length_a 23.851629
_cell_length_b 24.820941
_cell_length_c 14.958857
_cell_angle_alpha 18.449150
_cell_angle_beta 26.609910
_cell_angle_gamma 16.141103
_cell_volume 764.208348
_symmetry_space_group_name_H-M "P -1"
_symmetry_group_IT_number 2
_symmetry_cell_setting 'triclinic'
loop_
_space_group_symop_operation_xyz
x,y,z
-x,-y,-z
loop_
_atom_site_type_symbol
_atom_site_label
_atom_site_fract_x
_atom_site_fract_y
_atom_site_fract_z
Si Si1 0.670879 0.623713 0.426762
Si Si2 0.582886 0.732268 0.696228
Si Si3 0.412427 0.410722 0.742013
Si Si4 0.774559 0.746048 0.243816
Si Si5 0.772441 0.605401 0.809907
Si Si6 0.161546 0.543004 0.740289
Si Si7 0.651938 0.283462 0.044073
Si Si8 0.789642 0.889909 0.608109
O O1 0.774001 0.655305 0.291490
O O2 0.692830 0.636398 0.271298
O O3 0.436516 0.868868 0.407503
O O4 0.756717 0.341166 0.768794
O O5 0.700701 0.683749 0.519145
O O6 0.729363 0.578138 0.815669
O O7 0.487239 0.653733 0.931906
O O8 0.387802 0.065390 0.468905
O O9 0.500000 0.500000 0.500000
O O10 0.255910 0.575761 0.621933
O O11 0.293987 0.458868 0.919649
O O12 0.600302 0.080412 0.969755
O O13 0.995646 0.582128 0.212093
O O14 0.942843 0.811884 0.582882
O O15 0.149519 0.373454 0.073644
O O16 0.787044 0.991907 0.357664
O O17 0.500000 0.500000 0.000000
#
# Coordination Sequence:
#
# PCOD9107052 Si02
#       8
#     2   2   2   2   2   2   2   2
#     4  11  23  38  66  96 127 169 201 269 324 372
#     4  10  20  43  63  93 129 162 212 263 313 382
#     4  11  26  46  60  90 133 165 215 272 303 376
#     4  11  22  42  68  91 126 165 218 257 327 383
#     4  10  24  40  69  90 121 178 211 256 316 377
#     4  11  24  39  66  93 125 170 215 250 323 383
#     4  10  20  40  62  94 134 161 201 273 325 365
#     4  10  21  41  63  93 127 164 206 261 315 383
#
# _framework density 20.936698
#
# number of rings (size 3 to 8) (size 9 to 14) (size 15 to 20)
#    0.000    1.500    3.750    1.500    7.000    1.000 
#    4.500    0.000    0.000    0.000    0.000    0.000 
#    0.000    0.000    0.000    0.000    0.000    0.000 
#
# Total GULP energy -89445.256922 kJ/mol
# GULP energy per Si atom -5590.328558 kJ/mol
# Density = 2.088905 g / cm^3
# Si number density = 20.936698 Si / 1000 Ang^3
#
#
#
# Elastic Constant Matrix: (Units=GPa)
#
#
# Indices 1 2 3 4 5 6 
#
# 1 140.5605 19.0939 32.8021 17.8434 -19.7872 -37.2389
# 2 19.0939 94.9146 8.8953 12.1852 -2.2865 -29.1428
# 3 32.8021 8.8953 77.6098 21.2865 -7.3344 -10.6504
# 4 17.8434 12.1852 21.2865 15.7737 -5.6924 3.1678
# 5 -19.7872 -2.2865 -7.3344 -5.6924 21.9142 2.9307
# 6 -37.2389 -29.1428 -10.6504 3.1678 2.9307 43.0544
#
#
#
# Elastic Compliance Matrix: (Units=1/GPa)
#
#
# Indices 1 2 3 4 5 6 
#
# 1 0.015551 0.007360 0.004949 -0.032461 0.005132 0.021696
# 2 0.007360 0.022643 0.010776 -0.047226 -0.003405 0.028065
# 3 0.004949 0.010776 0.028293 -0.057827 -0.003039 0.023036
# 4 -0.032461 -0.047226 -0.057827 0.241213 0.021579 -0.093564
# 5 0.005132 -0.003405 -0.003039 0.021579 0.055028 -0.003951
# 6 0.021696 0.028065 0.023036 -0.093564 -0.003951 0.073840
#
#
# Mechanical properties :
#
#
# Convention : Reuss Voigt Hill
#
# Bulk Modulus (GPa) = 8.87638 48.29639 28.58638
# Shear Modulus (GPa) = 11.68367 32.96802 22.32584
#
# Velocity S-wave (km/s) = 2.36487 3.97249 3.26904
# Velocity P-wave (km/s) = 3.42135 6.64521 5.28509
#
# Compressibility (1/GPa) = 0.11265857
#
# Stress axis : x y z
#
# Youngs Moduli (GPa) = 64.30639 44.16325 35.34504
#
# Poissons Ratio (x) = -0.32505 -0.17494
# Poissons Ratio (y) = -0.47331 -0.38089
# Poissons Ratio (z) = -0.31828 -0.47592
#
# Static dielectric constant tensor:
#      x y z
#    x 1.636180 0.050180 0.130260 
#    y 0.050180 1.717720 -0.106660 
#    z 0.130260 -0.106660 1.639070 
# 
# From -- ./inp_files/541748.got.cif
#   From: 2010.05.17/outbox.cif.g08.bks.cpg/sg2_271_cif.got.tgz:541748.got - 2010.06.03 11:33:40.
