data_PCOD9107078
_publ_section_title
;
Structure prediction by ZEFSAII (Michael W. Deem and Ramdas Pophale) SiO2 
 PCOD9107078
Probable space group: P -1
;
_chemical_formula_sum "Si O2"
_cell_formula_units_Z 16
_cell_length_a 13.246439
_cell_length_b 10.191612
_cell_length_c 13.394217
_cell_angle_alpha 56.613686
_cell_angle_beta 137.168922
_cell_angle_gamma 141.334004
_cell_volume 766.992908
_symmetry_space_group_name_H-M "P -1"
_symmetry_group_IT_number 2
_symmetry_cell_setting 'triclinic'
loop_
_space_group_symop_operation_xyz
x,y,z
-x,-y,-z
loop_
_atom_site_type_symbol
_atom_site_label
_atom_site_fract_x
_atom_site_fract_y
_atom_site_fract_z
Si Si1 0.782715 0.498389 0.133937
Si Si2 0.620540 0.345298 0.665367
Si Si3 0.712363 0.125034 0.340016
Si Si4 0.659996 0.676113 0.685752
Si Si5 0.321829 0.996870 0.847942
Si Si6 0.432026 0.415987 0.818142
Si Si7 0.040389 0.574407 0.885189
Si Si8 0.009178 0.835620 0.308833
O O1 0.718894 0.313497 0.240589
O O2 0.837480 0.458880 0.082997
O O3 0.969463 0.717099 0.226319
O O4 0.600070 0.488060 0.990124
O O5 0.663875 0.498690 0.722741
O O6 0.480903 0.334608 0.490781
O O7 0.832529 0.452206 0.730527
O O8 0.505792 0.104834 0.710509
O O9 0.773869 0.090999 0.293601
O O10 0.853659 0.168289 0.513644
O O11 0.546867 0.601528 0.741309
O O12 0.869458 0.917383 0.729021
O O13 0.151938 0.818532 0.872233
O O14 0.387423 0.218097 0.816396
O O15 0.500000 0.000000 0.000000
O O16 0.214269 0.310453 0.745187
O O17 0.000000 0.500000 0.000000
#
# Coordination Sequence:
#
# PCOD9107078 Si02
#       8
#     2   2   2   2   2   2   2   2
#     4  11  25  44  63  96 134 171 222 271 319 403
#     4  10  20  40  62  98 128 161 217 280 334 371
#     4  10  21  42  69  91 131 165 218 284 317 382
#     4  10  23  41  63  96 134 167 218 273 317 402
#     4  11  20  38  63  98 129 157 219 277 329 367
#     4  12  23  41  69  92 135 174 218 271 330 386
#     4  11  22  36  67  96 125 165 214 278 334 373
#     4  11  26  45  64  94 135 185 218 254 336 398
#
# _framework density 20.860686999999999
#
# number of rings (size 3 to 8) (size 9 to 14) (size 15 to 20)
#    0.000    1.250    3.750    3.000    3.500    1.000 
#    2.250    1.250    0.000    0.000    0.000    0.000 
#    0.000    0.000    0.000    0.000    0.000    0.000 
#
# Total GULP energy -89201.602209 kJ/mol
# GULP energy per Si atom -5575.100138 kJ/mol
# Density = 2.081321 g / cm^3
# Si number density = 20.860687 Si / 1000 Ang^3
#
#
#
# Elastic Constant Matrix: (Units=GPa)
#
#
# Indices 1 2 3 4 5 6 
#
# 1 64.0473 30.5694 18.8214 2.0411 -2.6780 10.4515
# 2 30.5694 138.1993 47.6250 6.1144 -13.2147 17.3374
# 3 18.8214 47.6250 65.6393 13.3919 -15.2404 2.5536
# 4 2.0411 6.1144 13.3919 28.2680 2.8971 -4.3564
# 5 -2.6780 -13.2147 -15.2404 2.8971 25.4197 10.8579
# 6 10.4515 17.3374 2.5536 -4.3564 10.8579 36.8676
#
#
#
# Elastic Compliance Matrix: (Units=1/GPa)
#
#
# Indices 1 2 3 4 5 6 
#
# 1 0.018390 -0.002398 -0.003314 0.000112 0.000380 -0.003955
# 2 -0.002398 0.010908 -0.005897 -0.000656 0.004251 -0.005371
# 3 -0.003314 -0.005897 0.027309 -0.013839 0.016537 -0.004685
# 4 0.000112 -0.000656 -0.013839 0.045918 -0.019109 0.012289
# 5 0.000380 0.004251 0.016537 -0.019109 0.064100 -0.024389
# 6 -0.003955 -0.005371 -0.004685 0.012289 -0.024389 0.039730
#
#
# Mechanical properties :
#
#
# Convention : Reuss Voigt Hill
#
# Bulk Modulus (GPa) = 29.95023 51.32417 40.63720
# Shear Modulus (GPa) = 20.77270 29.50242 25.13756
#
# Velocity S-wave (km/s) = 3.15903 3.76474 3.47511
# Velocity P-wave (km/s) = 5.26254 6.59958 5.96862
#
# Compressibility (1/GPa) = 0.03338872
#
# Stress axis : x y z
#
# Youngs Moduli (GPa) = 54.37862 91.67750 36.61856
#
# Poissons Ratio (x) = 0.21987 0.12134
# Poissons Ratio (y) = 0.13042 0.21592
# Poissons Ratio (z) = 0.18019 0.54058
#
# Static dielectric constant tensor:
#      x y z
#    x 1.806340 0.016320 0.002000 
#    y 0.016320 1.806050 -0.014310 
#    z 0.002000 -0.014310 1.764100 
# 
# From -- ./inp_files/531736.got.cif
#   From: 2010.05.17/outbox.cif.g08.bks.cpg/sg2_266_cif.got.tgz:531736.got - 2010.06.03 11:33:40.
