data_PCOD9107756
_publ_section_title
;
Structure prediction by ZEFSAII (Michael W. Deem and Ramdas Pophale) SiO2 
 PCOD9107756
Probable space group: P -1
;
_chemical_formula_sum "Si O2"
_cell_formula_units_Z 16
_cell_length_a 9.434965
_cell_length_b 7.716103
_cell_length_c 14.412754
_cell_angle_alpha 85.723886
_cell_angle_beta 41.147952
_cell_angle_gamma 70.023105
_cell_volume 619.917180
_symmetry_space_group_name_H-M "P -1"
_symmetry_group_IT_number 2
_symmetry_cell_setting 'triclinic'
loop_
_space_group_symop_operation_xyz
x,y,z
-x,-y,-z
loop_
_atom_site_type_symbol
_atom_site_label
_atom_site_fract_x
_atom_site_fract_y
_atom_site_fract_z
Si Si1 0.071153 0.123549 0.886541
Si Si2 0.524261 0.332938 0.179953
Si Si3 0.438063 0.664028 0.103622
Si Si4 0.914708 0.844068 0.333485
Si Si5 0.154400 0.306186 0.992259
Si Si6 0.331716 0.640871 0.700305
Si Si7 0.322837 0.756282 0.493056
Si Si8 0.966216 0.570670 0.621230
O O1 0.164674 0.102959 0.736701
O O2 0.787990 0.280002 0.010259
O O3 0.252293 0.159843 0.864540
O O4 0.000000 0.000000 0.000000
O O5 0.401002 0.564318 0.219409
O O6 0.559281 0.285189 0.272770
O O7 0.320807 0.290138 0.233074
O O8 0.182158 0.834013 0.202552
O O9 0.500000 0.500000 0.000000
O O10 0.655992 0.706616 0.024232
O O11 0.948736 0.627601 0.351254
O O12 0.762574 0.014403 0.473450
O O13 0.949594 0.274111 0.149222
O O14 0.000000 0.500000 0.000000
O O15 0.379827 0.703849 0.575541
O O16 0.443210 0.409427 0.662193
O O17 0.118082 0.687830 0.567632
O O18 0.000000 0.500000 0.500000
#
# Coordination Sequence:
#
# PCOD9107756 Si02
#       8
#     2   2   2   2   2   2   2   2
#     4  11  23  42  64 102 143 172 227 296 347 418
#     4  10  20  40  65  94 136 176 221 282 353 409
#     4  11  21  39  67 104 136 174 227 286 353 418
#     4  11  25  44  72 106 139 180 240 291 347 423
#     4  11  21  38  71  96 128 185 221 277 362 413
#     4  10  22  42  67  96 138 179 232 286 349 408
#     4  11  25  45  69  99 138 185 235 293 336 420
#     4  11  25  44  71  95 139 190 229 283 355 409
#
# _framework density 25.809899000000001
#
# number of rings (size 3 to 8) (size 9 to 14) (size 15 to 20)
#    0.000    1.250    5.000    1.500    5.250    1.500 
#    0.000    5.625    0.000    0.000    0.000    0.000 
#    0.000    0.000    0.000    0.000    0.000    0.000 
#
# Total GULP energy -89137.336774 kJ/mol
# GULP energy per Si atom -5571.083548 kJ/mol
# Density = 2.575115 g / cm^3
# Si number density = 25.809899 Si / 1000 Ang^3
#
#
#
# Elastic Constant Matrix: (Units=GPa)
#
#
# Indices 1 2 3 4 5 6 
#
# 1 167.4520 20.0885 37.3489 2.6139 5.8163 11.0661
# 2 20.0885 56.5050 7.9781 1.7049 13.2860 1.8321
# 3 37.3489 7.9781 81.1859 15.4983 2.3882 14.2858
# 4 2.6139 1.7049 15.4983 41.7290 -2.9939 8.3906
# 5 5.8163 13.2860 2.3882 -2.9939 50.9499 -7.7787
# 6 11.0661 1.8321 14.2858 8.3906 -7.7787 31.6394
#
#
#
# Elastic Compliance Matrix: (Units=1/GPa)
#
#
# Indices 1 2 3 4 5 6 
#
# 1 0.006948 -0.001974 -0.002951 0.000985 -0.000283 -0.001314
# 2 -0.001974 0.019743 -0.000537 -0.000587 -0.005133 -0.001316
# 3 -0.002951 -0.000537 0.015539 -0.004644 -0.001294 -0.005039
# 4 0.000985 -0.000587 -0.004644 0.026742 0.001059 -0.005045
# 5 -0.000283 -0.005133 -0.001294 0.001059 0.022055 0.006122
# 6 -0.001314 -0.001316 -0.005039 -0.005045 0.006122 0.037261
#
#
# Mechanical properties :
#
#
# Convention : Reuss Voigt Hill
#
# Bulk Modulus (GPa) = 31.94355 48.44154 40.19255
# Shear Modulus (GPa) = 33.41192 40.84550 37.12871
#
# Velocity S-wave (km/s) = 3.60187 3.98245 3.79693
# Velocity P-wave (km/s) = 5.44989 6.32106 5.90157
#
# Compressibility (1/GPa) = 0.03130523
#
# Stress axis : x y z
#
# Youngs Moduli (GPa) = 143.92252 50.65191 64.35378
#
# Poissons Ratio (x) = 0.09999 0.18991
# Poissons Ratio (y) = 0.28413 0.03457
# Poissons Ratio (z) = 0.42471 0.02721
#
# Static dielectric constant tensor:
#      x y z
#    x 2.197770 0.059840 -0.141740 
#    y 0.059840 2.282050 0.066070 
#    z -0.141740 0.066070 2.253180 
# 
# From -- ./inp_files/495146.got.cif
#   From: 2010.05.17/outbox.cif.g08.bks.cpg/sg2_248_cif.got.tgz:495146.got - 2010.06.03 11:33:40.
