data_PCOD9107827
_publ_section_title
;
Structure prediction by ZEFSAII (Michael W. Deem and Ramdas Pophale) SiO2 
 PCOD9107827
Probable space group: P -1
;
_chemical_formula_sum "Si O2"
_cell_formula_units_Z 16
_cell_length_a 15.399982
_cell_length_b 12.651207
_cell_length_c 18.928359
_cell_angle_alpha 27.098827
_cell_angle_beta 151.914601
_cell_angle_gamma 133.379376
_cell_volume 702.378652
_symmetry_space_group_name_H-M "P -1"
_symmetry_group_IT_number 2
_symmetry_cell_setting 'triclinic'
loop_
_space_group_symop_operation_xyz
x,y,z
-x,-y,-z
loop_
_atom_site_type_symbol
_atom_site_label
_atom_site_fract_x
_atom_site_fract_y
_atom_site_fract_z
Si Si1 0.529410 0.704153 0.951570
Si Si2 0.672863 0.012241 0.776269
Si Si3 0.275265 0.985131 0.875699
Si Si4 0.402071 0.260970 0.320204
Si Si5 0.055333 0.443821 0.854649
Si Si6 0.918932 0.089359 0.467983
Si Si7 0.398287 0.463429 0.520486
Si Si8 0.410188 0.354129 0.807408
O O1 0.293476 0.920089 0.667074
O O2 0.664331 0.828645 0.940725
O O3 0.500000 0.500000 0.000000
O O4 0.607177 0.609769 0.142838
O O5 0.441458 0.149621 0.493262
O O6 0.694593 0.256682 0.674428
O O7 0.839958 0.839351 0.940098
O O8 0.238539 0.273405 0.702107
O O9 0.421054 0.767581 0.166372
O O10 0.395142 0.898604 0.937563
O O11 0.065609 0.977515 0.707706
O O12 0.539443 0.415744 0.319529
O O13 0.500000 0.000000 0.500000
O O14 0.177605 0.425608 0.026489
O O15 0.114745 0.614661 0.741626
O O16 0.810414 0.567974 0.617800
O O17 0.000000 0.000000 0.500000
O O18 0.500000 0.500000 0.500000
#
# Coordination Sequence:
#
# PCOD9107827 Si02
#       8
#     2   2   2   2   2   2   2   2
#     4  12  23  44  69 105 143 181 241 293 348 413
#     4  11  24  43  68 100 141 183 224 294 350 414
#     4  11  24  43  70 104 137 189 243 284 357 423
#     4  10  20  40  66 101 132 182 233 281 346 413
#     4  11  23  44  70  98 132 188 233 277 357 419
#     4  12  24  42  75 103 135 187 243 289 345 432
#     4  12  27  45  68 101 144 181 229 296 355 421
#     4  11  20  42  68  97 143 183 234 284 344 421
#
# _framework density 22.779736
#
# number of rings (size 3 to 8) (size 9 to 14) (size 15 to 20)
#    0.000    0.750    5.000    3.375    1.750    1.000 
#    0.000    1.875    0.000    0.000    0.000    0.000 
#    0.000    0.000    0.000    0.000    0.000    0.000 
#
# Total GULP energy -89188.766044 kJ/mol
# GULP energy per Si atom -5574.297878 kJ/mol
# Density = 2.272789 g / cm^3
# Si number density = 22.779736 Si / 1000 Ang^3
#
#
#
# Elastic Constant Matrix: (Units=GPa)
#
#
# Indices 1 2 3 4 5 6 
#
# 1 77.4632 8.3834 13.9763 6.1879 -4.8213 -14.4996
# 2 8.3834 110.7557 17.5787 -24.9457 9.2275 -23.8371
# 3 13.9763 17.5787 76.5294 8.7241 -3.2930 -6.0371
# 4 6.1879 -24.9457 8.7241 42.0621 3.7992 1.8076
# 5 -4.8213 9.2275 -3.2930 3.7992 26.4236 6.6420
# 6 -14.4996 -23.8371 -6.0371 1.8076 6.6420 29.3892
#
#
#
# Elastic Compliance Matrix: (Units=1/GPa)
#
#
# Indices 1 2 3 4 5 6 
#
# 1 0.014758 0.000112 -0.001896 -0.002097 0.000987 0.006888
# 2 0.000112 0.016135 -0.004335 0.010862 -0.011268 0.014130
# 3 -0.001896 -0.004335 0.015094 -0.005732 0.004372 -0.001986
# 4 -0.002097 0.010862 -0.005732 0.032431 -0.011355 0.007170
# 5 0.000987 -0.011268 0.004372 -0.011355 0.048676 -0.018056
# 6 0.006888 0.014130 -0.001986 0.007170 -0.018056 0.052116
#
#
# Mechanical properties :
#
#
# Convention : Reuss Voigt Hill
#
# Bulk Modulus (GPa) = 29.63157 38.29167 33.96162
# Shear Modulus (GPa) = 24.66726 34.56228 29.61477
#
# Velocity S-wave (km/s) = 3.29425 3.89940 3.60953
# Velocity P-wave (km/s) = 5.24458 6.09260 5.68442
#
# Compressibility (1/GPa) = 0.03374779
#
# Stress axis : x y z
#
# Youngs Moduli (GPa) = 67.76185 61.97792 66.25257
#
# Poissons Ratio (x) = -0.00693 0.12561
# Poissons Ratio (y) = -0.00757 0.28721
# Poissons Ratio (z) = 0.12847 0.26867
#
# Static dielectric constant tensor:
#      x y z
#    x 1.872090 -0.045360 -0.036500 
#    y -0.045360 2.010040 0.055660 
#    z -0.036500 0.055660 1.992780 
# 
# From -- ./inp_files/573567.got.cif
#   From: 2010.05.17/outbox.cif.g08.bks.cpg/sg2_287_cif.got.tgz:573567.got - 2010.06.03 11:33:40.
