data_PCOD9107548
_publ_section_title
;
Structure prediction by ZEFSAII (Michael W. Deem and Ramdas Pophale) SiO2 
 PCOD9107548
Probable space group: P -1
;
_chemical_formula_sum "Si O2"
_cell_formula_units_Z 16
_cell_length_a 11.411119
_cell_length_b 7.838534
_cell_length_c 22.159873
_cell_angle_alpha 142.041716
_cell_angle_beta 147.932746
_cell_angle_gamma 54.437457
_cell_volume 624.121362
_symmetry_space_group_name_H-M "P -1"
_symmetry_group_IT_number 2
_symmetry_cell_setting 'triclinic'
loop_
_space_group_symop_operation_xyz
x,y,z
-x,-y,-z
loop_
_atom_site_type_symbol
_atom_site_label
_atom_site_fract_x
_atom_site_fract_y
_atom_site_fract_z
Si Si1 0.036426 0.423035 0.755514
Si Si2 0.911538 0.505242 0.594488
Si Si3 0.318855 0.414611 0.974126
Si Si4 0.609364 0.370752 0.192272
Si Si5 0.424966 0.036601 0.700839
Si Si6 0.187078 0.606475 0.236535
Si Si7 0.268759 0.012333 0.285607
Si Si8 0.183825 0.109999 0.018581
O O1 0.994715 0.367004 0.652322
O O2 0.811121 0.328918 0.673343
O O3 0.245625 0.322467 0.848429
O O4 0.120473 0.766808 0.897081
O O5 0.748423 0.227499 0.415655
O O6 0.139336 0.674742 0.706566
O O7 0.780660 0.725157 0.625480
O O8 0.487174 0.277818 0.047504
O O9 0.418403 0.754401 0.124199
O O10 0.067431 0.355728 0.877347
O O11 0.419981 0.242087 0.123121
O O12 0.656972 0.719870 0.305490
O O13 0.558420 0.905217 0.671691
O O14 0.339622 0.811987 0.311312
O O15 0.194022 0.285672 0.133983
O O16 0.032532 0.846109 0.102136
#
# Coordination Sequence:
#
# PCOD9107548 Si02
#       8
#     2   2   2   2   2   2   2   2
#     4   9  21  32  53  87 114 134 173 243 271 313
#     4  11  24  34  53  86 117 139 180 225 275 320
#     4   8  18  34  59  76 103 148 181 218 268 320
#     4  10  20  36  59  79 109 148 184 221 263 330
#     4  10  19  38  59  76 105 155 189 212 261 331
#     4  10  16  35  54  84 106 142 181 223 276 312
#     4  11  18  33  58  82 109 141 183 232 262 318
#     4  11  16  32  60  86 106 135 195 227 262 314
#
# _framework density 25.636037999999999
#
# number of rings (size 3 to 8) (size 9 to 14) (size 15 to 20)
#    1.500    0.500    3.750    1.500    0.000    2.500 
#    0.000    0.625    2.750    0.750    0.000    0.000 
#    0.000    0.000    0.000    0.000    0.000    0.000 
#
# Total GULP energy -89286.457175 kJ/mol
# GULP energy per Si atom -5580.403573 kJ/mol
# Density = 2.557769 g / cm^3
# Si number density = 25.636038 Si / 1000 Ang^3
#
#
#
# Elastic Constant Matrix: (Units=GPa)
#
#
# Indices 1 2 3 4 5 6 
#
# 1 77.0134 4.1554 7.5408 1.3094 19.9245 -5.6440
# 2 4.1554 55.0095 10.0719 4.8092 5.2204 -12.2859
# 3 7.5408 10.0719 55.9385 21.7396 16.4076 5.4049
# 4 1.3094 4.8092 21.7396 18.3087 0.8458 -1.7511
# 5 19.9245 5.2204 16.4076 0.8458 32.6159 -4.0035
# 6 -5.6440 -12.2859 5.4049 -1.7511 -4.0035 31.2424
#
#
#
# Elastic Compliance Matrix: (Units=1/GPa)
#
#
# Indices 1 2 3 4 5 6 
#
# 1 0.015580 -0.000093 0.001936 -0.002821 -0.010285 0.000967
# 2 -0.000093 0.021101 -0.005736 0.002150 0.000672 0.009480
# 3 0.001936 -0.005736 0.051813 -0.060604 -0.026932 -0.017717
# 4 -0.002821 0.002150 -0.060604 0.126871 0.031269 0.021938
# 5 -0.010285 0.000672 -0.026932 0.031269 0.050966 0.011349
# 6 0.000967 0.009480 -0.017717 0.021938 0.011349 0.041659
#
#
# Mechanical properties :
#
#
# Convention : Reuss Voigt Hill
#
# Bulk Modulus (GPa) = 12.39012 25.72196 19.05604
# Shear Modulus (GPa) = 14.59096 27.51295 21.05196
#
# Velocity S-wave (km/s) = 2.38829 3.27955 2.86874
# Velocity P-wave (km/s) = 3.52829 4.93922 4.29213
#
# Compressibility (1/GPa) = 0.08070946
#
# Stress axis : x y z
#
# Youngs Moduli (GPa) = 64.18563 47.39032 19.30017
#
# Poissons Ratio (x) = 0.00439 -0.03736
# Poissons Ratio (y) = 0.00595 0.11070
# Poissons Ratio (z) = -0.12426 0.27181
#
# Static dielectric constant tensor:
#      x y z
#    x 2.025600 0.023510 0.028930 
#    y 0.023510 2.112940 -0.065430 
#    z 0.028930 -0.065430 2.047180 
# 
# From -- ./inp_files/618133.got.cif
#   From: 2010.05.17/outbox.cif.g08.bks.cpg/sg2_310_cif.got.tgz:618133.got - 2010.06.03 11:33:40.
