data_PCOD9107850
_publ_section_title
;
Structure prediction by ZEFSAII (Michael W. Deem and Ramdas Pophale) SiO2 
 PCOD9107850
Probable space group: P -1
;
_chemical_formula_sum "Si O2"
_cell_formula_units_Z 16
_cell_length_a 14.552620
_cell_length_b 24.462097
_cell_length_c 9.080034
_cell_angle_alpha 54.901339
_cell_angle_beta 62.546253
_cell_angle_gamma 19.678165
_cell_volume 851.799362
_symmetry_space_group_name_H-M "P -1"
_symmetry_group_IT_number 2
_symmetry_cell_setting 'triclinic'
loop_
_space_group_symop_operation_xyz
x,y,z
-x,-y,-z
loop_
_atom_site_type_symbol
_atom_site_label
_atom_site_fract_x
_atom_site_fract_y
_atom_site_fract_z
Si Si1 0.472776 0.210259 0.766489
Si Si2 0.727345 0.184984 0.505260
Si Si3 0.592333 0.880457 0.711290
Si Si4 0.949801 0.863677 0.153048
Si Si5 0.733239 0.810248 0.055926
Si Si6 0.842344 0.493177 0.291992
Si Si7 0.762434 0.191763 0.812864
Si Si8 0.795276 0.424726 0.718471
O O1 0.535510 0.232739 0.574267
O O2 0.342239 0.219885 0.792862
O O3 0.256095 0.374451 0.787908
O O4 0.771926 0.012594 0.931888
O O5 0.796979 0.162492 0.657125
O O6 0.532217 0.364363 0.323121
O O7 0.000000 0.000000 0.500000
O O8 0.857935 0.686999 0.732182
O O9 0.500000 0.000000 0.500000
O O10 0.305743 0.010052 0.749729
O O11 0.703452 0.830856 0.870124
O O12 0.162847 0.781388 0.216415
O O13 0.110214 0.705527 0.201509
O O14 0.023459 0.659847 0.146102
O O15 0.500000 0.000000 0.000000
O O16 0.567452 0.630740 0.191226
O O17 0.860687 0.433112 0.514755
O O18 0.000000 0.000000 0.000000
#
# Coordination Sequence:
#
# PCOD9107850 Si02
#       8
#     2   2   2   2   2   2   2   2
#     4   9  20  38  63  82 119 161 191 240 303 354
#     4  10  23  42  58  89 126 149 203 252 287 356
#     4  11  22  39  60  94 125 146 205 261 284 353
#     4  11  19  39  66  85 120 162 201 241 305 353
#     4  11  20  37  62  85 121 162 191 234 312 358
#     4  10  21  39  60  90 123 151 203 256 290 349
#     4  10  20  40  66  83 119 166 197 242 306 354
#     4  10  21  40  60  84 125 158 192 243 305 353
#
# _framework density 18.783766
#
# number of rings (size 3 to 8) (size 9 to 14) (size 15 to 20)
#    0.000    2.000    6.250    0.000    0.000    7.000 
#    6.750    0.625    0.000    0.000    0.000    0.000 
#    0.000    0.000    0.000    0.000    0.000    0.000 
#
# Total GULP energy -89166.149852 kJ/mol
# GULP energy per Si atom -5572.884366 kJ/mol
# Density = 1.874101 g / cm^3
# Si number density = 18.783766 Si / 1000 Ang^3
#
#
#
# Elastic Constant Matrix: (Units=GPa)
#
#
# Indices 1 2 3 4 5 6 
#
# 1 133.7358 39.6140 9.8339 -16.0201 -3.9912 14.3574
# 2 39.6140 141.0984 3.8539 -28.1944 -10.1372 18.5494
# 3 9.8339 3.8539 43.9893 -21.8162 -0.6252 5.7797
# 4 -16.0201 -28.1944 -21.8162 28.9381 2.3726 -5.2999
# 5 -3.9912 -10.1372 -0.6252 2.3726 27.4039 -9.7506
# 6 14.3574 18.5494 5.7797 -5.2999 -9.7506 29.6530
#
#
#
# Elastic Compliance Matrix: (Units=1/GPa)
#
#
# Indices 1 2 3 4 5 6 
#
# 1 0.008550 -0.001514 -0.000049 0.002741 -0.000579 -0.002884
# 2 -0.001514 0.010790 0.006939 0.013990 0.001116 -0.004502
# 3 -0.000049 0.006939 0.041187 0.036769 -0.001969 -0.006420
# 4 0.002741 0.013990 0.036769 0.076817 -0.001686 -0.004070
# 5 -0.000579 0.001116 -0.001969 -0.001686 0.041678 0.013369
# 6 -0.002884 -0.004502 -0.006420 -0.004070 0.013369 0.042856
#
#
# Mechanical properties :
#
#
# Convention : Reuss Voigt Hill
#
# Bulk Modulus (GPa) = 14.02943 47.26967 30.64955
# Shear Modulus (GPa) = 21.28697 34.90044 28.09371
#
# Velocity S-wave (km/s) = 3.37005 4.31514 3.87154
# Velocity P-wave (km/s) = 4.75690 7.07439 6.02807
#
# Compressibility (1/GPa) = 0.07127873
#
# Stress axis : x y z
#
# Youngs Moduli (GPa) = 116.95768 92.67624 24.27963
#
# Poissons Ratio (x) = 0.14031 0.00119
# Poissons Ratio (y) = 0.17707 -0.16847
# Poissons Ratio (z) = 0.00571 -0.64304
#
# Static dielectric constant tensor:
#      x y z
#    x 1.659750 -0.008260 0.001240 
#    y -0.008260 1.673460 -0.004510 
#    z 0.001240 -0.004510 1.695460 
# 
# From -- ./inp_files/320292.got.cif
#   From: 2010.05.17/outbox.cif.g08.bks.cpg/sg2_161_cif.got.tgz:320292.got - 2010.06.03 11:33:40.
