data_PCOD9107299
_publ_section_title
;
Structure prediction by ZEFSAII (Michael W. Deem and Ramdas Pophale) SiO2 
 PCOD9107299
Probable space group: P -1
;
_chemical_formula_sum "Si O2"
_cell_formula_units_Z 15
_cell_length_a 16.365367
_cell_length_b 10.889866
_cell_length_c 18.961352
_cell_angle_alpha 28.309028
_cell_angle_beta 20.366195
_cell_angle_gamma 28.148693
_cell_volume 524.181085
_symmetry_space_group_name_H-M "P -1"
_symmetry_group_IT_number 2
_symmetry_cell_setting 'triclinic'
loop_
_space_group_symop_operation_xyz
x,y,z
-x,-y,-z
loop_
_atom_site_type_symbol
_atom_site_label
_atom_site_fract_x
_atom_site_fract_y
_atom_site_fract_z
Si Si1 0.677473 0.234271 0.879675
Si Si2 0.000000 0.000000 0.000000
Si Si3 0.995724 0.327140 0.690163
Si Si4 0.238554 0.254333 0.135027
Si Si5 0.504621 0.830712 0.306716
Si Si6 0.059698 0.692220 0.774292
Si Si7 0.782418 0.343775 0.566011
Si Si8 0.497277 0.888342 0.450973
O O1 0.786094 0.404409 0.759475
O O2 0.468037 0.336494 0.936218
O O3 0.897325 0.956097 0.815822
O O4 0.517413 0.105681 0.125665
O O5 0.072953 0.809678 0.114458
O O6 0.718066 0.001333 0.234420
O O7 0.103334 0.572688 0.497173
O O8 0.230809 0.091200 0.585637
O O9 0.118768 0.403026 0.084512
O O10 0.011971 0.326868 0.336368
O O11 0.292141 0.929408 0.241889
O O12 0.241310 0.792892 0.525071
O O13 0.738967 0.573040 0.219064
O O14 0.520424 0.831922 0.377487
O O15 0.560889 0.605319 0.585074
#
# Coordination Sequence:
#
# PCOD9107299 Si02
#       8
#     2   1   2   2   2   2   2   2
#     4  12  25  42  69 103 138 175 233 283 336 412
#     4  10  20  40  64 100 138 168 214 278 346 400
#     4  11  24  43  70 105 137 176 225 289 346 397
#     4  11  24  44  68  96 140 190 225 271 339 413
#     4  11  22  40  71 100 137 175 224 293 341 392
#     4  11  24  44  67 100 139 182 228 282 345 400
#     4  10  22  43  69  94 138 182 224 277 341 409
#     4  11  21  42  69 103 137 170 227 285 346 397
#
# _framework density 28.616066
#
# number of rings (size 3 to 8) (size 9 to 14) (size 15 to 20)
#    0.000    1.067    4.000    4.000    1.867    1.600 
#    2.400    3.333    0.000    0.000    0.000    0.000 
#    0.000    0.000    0.000    0.000    0.000    0.000 
#
# Total GULP energy -83916.545612 kJ/mol
# GULP energy per Si atom -5594.436374 kJ/mol
# Density = 2.855093 g / cm^3
# Si number density = 28.616066 Si / 1000 Ang^3
#
#
#
# Elastic Constant Matrix: (Units=GPa)
#
#
# Indices 1 2 3 4 5 6 
#
# 1 182.0721 31.3406 37.3333 0.9018 -41.3287 1.4411
# 2 31.3406 112.0789 33.9999 -1.7537 -4.9488 9.9628
# 3 37.3333 33.9999 141.0991 -0.4216 -40.8581 -10.7370
# 4 0.9018 -1.7537 -0.4216 34.4978 -6.4060 3.5670
# 5 -41.3287 -4.9488 -40.8581 -6.4060 59.7109 -1.0056
# 6 1.4411 9.9628 -10.7370 3.5670 -1.0056 32.3466
#
#
#
# Elastic Compliance Matrix: (Units=1/GPa)
#
#
# Indices 1 2 3 4 5 6 
#
# 1 0.006842 -0.001717 -0.000029 0.000564 0.004639 0.000296
# 2 -0.001717 0.010652 -0.003165 0.000540 -0.002488 -0.004392
# 3 -0.000029 -0.003165 0.010183 0.000771 0.006844 0.004484
# 4 0.000564 0.000540 0.000771 0.030102 0.004140 -0.003126
# 5 0.004639 -0.002488 0.006844 0.004140 0.024932 0.003150
# 6 0.000296 -0.004392 0.004484 -0.003126 0.003150 0.034186
#
#
# Mechanical properties :
#
#
# Convention : Reuss Voigt Hill
#
# Bulk Modulus (GPa) = 56.01119 71.17752 63.59436
# Shear Modulus (GPa) = 37.68777 47.48280 42.58529
#
# Velocity S-wave (km/s) = 3.63301 4.07788 3.86185
# Velocity P-wave (km/s) = 6.10034 6.86290 6.49282
#
# Compressibility (1/GPa) = 0.01785357
#
# Stress axis : x y z
#
# Youngs Moduli (GPa) = 146.16327 93.88245 98.20449
#
# Poissons Ratio (x) = 0.16120 0.00285
# Poissons Ratio (y) = 0.25097 0.31084
# Poissons Ratio (z) = 0.00423 0.29716
#
# Static dielectric constant tensor:
#      x y z
#    x 2.306500 0.031880 0.056920 
#    y 0.031880 2.235870 0.002030 
#    z 0.056920 0.002030 2.222350 
# 
# From -- ./inp_files/600009.got.cif
#   From: 2010.05.17/outbox.cif.g08.bks.cpg/sg2_301_cif.got.tgz:600009.got - 2010.06.03 11:33:40.
