data_PCOD9107377
_publ_section_title
;
Structure prediction by ZEFSAII (Michael W. Deem and Ramdas Pophale) SiO2 
 PCOD9107377
Probable space group: P -1
;
_chemical_formula_sum "Si O2"
_cell_formula_units_Z 13
_cell_length_a 4.884353
_cell_length_b 5.754945
_cell_length_c 17.493917
_cell_angle_alpha 67.267889
_cell_angle_beta 100.890447
_cell_angle_gamma 91.050648
_cell_volume 444.561859
_symmetry_space_group_name_H-M "P -1"
_symmetry_group_IT_number 2
_symmetry_cell_setting 'triclinic'
loop_
_space_group_symop_operation_xyz
x,y,z
-x,-y,-z
loop_
_atom_site_type_symbol
_atom_site_label
_atom_site_fract_x
_atom_site_fract_y
_atom_site_fract_z
Si Si1 0.500000 0.500000 0.500000
Si Si2 0.134020 0.324717 0.793185
Si Si3 0.947801 0.740628 0.366102
Si Si4 0.833670 0.837805 0.882166
Si Si5 0.318201 0.010010 0.545499
Si Si6 0.699216 0.791565 0.720371
Si Si7 0.273835 0.375844 0.952687
O O1 0.224159 0.568860 0.419695
O O2 0.448678 0.803237 0.507002
O O3 0.344190 0.366203 0.868341
O O4 0.217825 0.328584 0.709375
O O5 0.866142 0.523055 0.757365
O O6 0.036744 0.052266 0.844880
O O7 0.739703 0.721871 0.429892
O O8 0.077524 0.009147 0.321618
O O9 0.622269 0.850456 0.797605
O O10 0.999517 0.566209 0.916575
O O11 0.760032 0.866231 0.964225
O O12 0.439862 0.840723 0.644474
O O13 0.000000 0.000000 0.500000
O O14 0.500000 0.500000 0.000000
#
# Coordination Sequence:
#
# PCOD9107377 Si02
#       7
#     1   2   2   2   2   2   2
#     4  10  22  40  64  92 120 164 218 260 316 384
#     4  10  20  40  64  88 126 170 211 263 323 380
#     4  10  22  40  61  92 128 165 215 267 318 382
#     4   9  20  39  60  88 126 165 211 264 318 384
#     4  11  23  39  61  89 125 166 209 264 324 380
#     4   9  21  38  59  88 121 164 213 259 316 380
#     4  10  21  38  61  92 126 163 211 266 323 381
#
# _framework density 29.242273000000001
#
# number of rings (size 3 to 8) (size 9 to 14) (size 15 to 20)
#    0.000    2.154    0.000    1.846    0.000    8.000 
#    0.000   15.385    0.000    0.000    0.000    0.000 
#    0.000    0.000    0.000    0.000    0.000    0.000 
#
# Total GULP energy -72709.347759 kJ/mol
# GULP energy per Si atom -5593.026751 kJ/mol
# Density = 2.917572 g / cm^3
# Si number density = 29.242273 Si / 1000 Ang^3
#
#
#
# Elastic Constant Matrix: (Units=GPa)
#
#
# Indices 1 2 3 4 5 6 
#
# 1 174.2773 50.7808 95.5654 7.7738 11.6554 -12.3199
# 2 50.7808 118.9851 90.3567 11.5548 -20.7694 7.8950
# 3 95.5654 90.3567 306.5718 65.3438 4.7723 1.5735
# 4 7.7738 11.5548 65.3438 77.0791 -0.5934 7.1787
# 5 11.6554 -20.7694 4.7723 -0.5934 49.2639 -13.5330
# 6 -12.3199 7.8950 1.5735 7.1787 -13.5330 46.3729
#
#
#
# Elastic Compliance Matrix: (Units=1/GPa)
#
#
# Indices 1 2 3 4 5 6 
#
# 1 0.007702 -0.002470 -0.001859 0.000991 -0.002195 0.001736
# 2 -0.002470 0.013120 -0.003483 0.001394 0.006142 -0.001195
# 3 -0.001859 -0.003483 0.005793 -0.004221 -0.001618 0.000084
# 4 0.000991 0.001394 -0.004221 0.016458 0.000334 -0.002281
# 5 -0.002195 0.006142 -0.001618 0.000334 0.025137 0.005710
# 6 0.001736 -0.001195 0.000084 -0.002281 0.005710 0.024246
#
#
# Mechanical properties :
#
#
# Convention : Reuss Voigt Hill
#
# Bulk Modulus (GPa) = 90.99344 119.24890 105.12117
# Shear Modulus (GPa) = 44.74517 58.75192 51.74855
#
# Velocity S-wave (km/s) = 3.91596 4.48721 4.21128
# Velocity P-wave (km/s) = 7.18547 8.22891 7.72483
#
# Compressibility (1/GPa) = 0.01098980
#
# Stress axis : x y z
#
# Youngs Moduli (GPa) = 129.83013 76.21990 172.63670
#
# Poissons Ratio (x) = 0.18827 0.32091
# Poissons Ratio (y) = 0.32070 0.60138
# Poissons Ratio (z) = 0.24134 0.26551
#
# Static dielectric constant tensor:
#      x y z
#    x 2.810720 0.386340 -0.650790 
#    y 0.386340 3.131670 -0.384930 
#    z -0.650790 -0.384930 2.631860 
# 
# From -- ./inp_files/12198.got.cif
#   From: 2010.05.17/outbox.cif.g08.bks.cpg/sg2_7_cif.got.tgz:12198.got - 2010.06.03 11:33:40.
