data_PCOD9107960
_publ_section_title
;
Structure prediction by ZEFSAII (Michael W. Deem and Ramdas Pophale) SiO2 
 PCOD9107960
Probable space group: P -1
;
_chemical_formula_sum "Si O2"
_cell_formula_units_Z 14
_cell_length_a 6.468594
_cell_length_b 10.843218
_cell_length_c 10.849232
_cell_angle_alpha 53.599174
_cell_angle_beta 69.235332
_cell_angle_gamma 68.240910
_cell_volume 559.563856
_symmetry_space_group_name_H-M "P -1"
_symmetry_group_IT_number 2
_symmetry_cell_setting 'triclinic'
loop_
_space_group_symop_operation_xyz
x,y,z
-x,-y,-z
loop_
_atom_site_type_symbol
_atom_site_label
_atom_site_fract_x
_atom_site_fract_y
_atom_site_fract_z
Si Si1 0.458053 0.898538 0.742332
Si Si2 0.140067 0.338798 0.920030
Si Si3 0.375177 0.422909 0.461782
Si Si4 0.017604 0.719691 0.265586
Si Si5 0.279632 0.858478 0.544904
Si Si6 0.084974 0.302938 0.234373
Si Si7 0.615143 0.134439 0.946008
O O1 0.303404 0.919086 0.642687
O O2 0.647331 0.738429 0.777193
O O3 0.612143 0.029316 0.631978
O O4 0.343160 0.896331 0.899276
O O5 0.412180 0.290190 0.888715
O O6 0.043739 0.254810 0.879287
O O7 0.038320 0.521961 0.809537
O O8 0.059634 0.294135 0.096949
O O9 0.500000 0.500000 0.500000
O O10 0.199952 0.559150 0.348847
O O11 0.561852 0.314253 0.403633
O O12 0.213335 0.306272 0.610634
O O13 0.165415 0.847618 0.187902
O O14 0.033242 0.822291 0.598572
O O15 0.500000 0.000000 0.000000
#
# Coordination Sequence:
#
# PCOD9107960 Si02
#       7
#     2   2   2   2   2   2   2
#     4  10  24  41  62  97 127 175 214 264 327 384
#     4  10  22  40  65  96 124 167 220 271 328 384
#     4  11  25  42  67  98 132 172 220 271 326 388
#     4  11  23  42  65  95 127 174 217 266 330 382
#     4  11  22  41  64  92 133 168 218 266 322 394
#     4  10  20  40  66  92 127 165 214 271 323 388
#     4  11  25  44  65  96 135 173 220 272 323 392
#
# _framework density 25.019486000000001
#
# number of rings (size 3 to 8) (size 9 to 14) (size 15 to 20)
#    0.000    1.429    0.000    4.714    4.000    1.714 
#   10.286    5.714    0.000    0.000    0.000    0.000 
#    0.000    0.000    0.000    0.000    0.000    0.000 
#
# Total GULP energy -78310.383707 kJ/mol
# GULP energy per Si atom -5593.598836 kJ/mol
# Density = 2.496254 g / cm^3
# Si number density = 25.019486 Si / 1000 Ang^3
#
#
#
# Elastic Constant Matrix: (Units=GPa)
#
#
# Indices 1 2 3 4 5 6 
#
# 1 97.7770 18.0537 45.3147 10.4526 -19.0705 2.0128
# 2 18.0537 56.7370 2.5217 -0.7236 -4.9060 -11.4692
# 3 45.3147 2.5217 86.4803 -7.7642 -20.2767 7.6624
# 4 10.4526 -0.7236 -7.7642 24.8053 1.0950 6.5357
# 5 -19.0705 -4.9060 -20.2767 1.0950 59.3642 -4.7276
# 6 2.0128 -11.4692 7.6624 6.5357 -4.7276 32.0507
#
#
#
# Elastic Compliance Matrix: (Units=1/GPa)
#
#
# Indices 1 2 3 4 5 6 
#
# 1 0.016972 -0.004499 -0.009402 -0.010884 0.002239 0.002122
# 2 -0.004499 0.020590 0.001514 0.000992 0.001335 0.007283
# 3 -0.009402 0.001514 0.018556 0.011043 0.002830 -0.005139
# 4 -0.010884 0.000992 0.011043 0.051718 -0.001582 -0.012381
# 5 0.002239 0.001335 0.002830 -0.001582 0.018891 0.002770
# 6 0.002122 0.007283 -0.005139 -0.012381 0.002770 0.037835
#
#
# Mechanical properties :
#
#
# Convention : Reuss Voigt Hill
#
# Bulk Modulus (GPa) = 31.90475 41.41938 36.66206
# Shear Modulus (GPa) = 25.02707 34.91766 29.97236
#
# Velocity S-wave (km/s) = 3.16619 3.73985 3.46491
# Velocity P-wave (km/s) = 5.11331 5.93628 5.54010
#
# Compressibility (1/GPa) = 0.03134330
#
# Stress axis : x y z
#
# Youngs Moduli (GPa) = 58.92106 48.56768 53.89091
#
# Poissons Ratio (x) = 0.21850 0.50669
# Poissons Ratio (y) = 0.26508 -0.08158
# Poissons Ratio (z) = 0.55398 -0.07352
#
# Static dielectric constant tensor:
#      x y z
#    x 1.996350 -0.031580 -0.039420 
#    y -0.031580 1.994220 -0.054500 
#    z -0.039420 -0.054500 1.989260 
# 
# From -- ./inp_files/67578.got.cif
#   From: 2010.05.17/outbox.cif.g08.bks.cpg/sg2_34_cif.got.tgz:67578.got - 2010.06.03 11:33:40.
