data_PCOD9107680
_publ_section_title
;
Structure prediction by ZEFSAII (Michael W. Deem and Ramdas Pophale) SiO2 
 PCOD9107680
Probable space group: P -1
;
_chemical_formula_sum "Si O2"
_cell_formula_units_Z 16
_cell_length_a 8.719031
_cell_length_b 5.418983
_cell_length_c 25.080324
_cell_angle_alpha 87.928454
_cell_angle_beta 147.284906
_cell_angle_gamma 91.040009
_cell_volume 639.865105
_symmetry_space_group_name_H-M "P -1"
_symmetry_group_IT_number 2
_symmetry_cell_setting 'triclinic'
loop_
_space_group_symop_operation_xyz
x,y,z
-x,-y,-z
loop_
_atom_site_type_symbol
_atom_site_label
_atom_site_fract_x
_atom_site_fract_y
_atom_site_fract_z
Si Si1 0.609708 0.548255 0.472482
Si Si2 0.939283 0.942239 0.102684
Si Si3 0.720003 0.011309 0.226831
Si Si4 0.578165 0.875992 0.302656
Si Si5 0.818718 0.373211 0.401303
Si Si6 0.241561 0.324735 0.047136
Si Si7 0.375377 0.052027 0.403564
Si Si8 0.560293 0.711070 0.075474
O O1 0.500000 0.500000 0.500000
O O2 0.530184 0.290077 0.423399
O O3 0.939747 0.604165 0.573770
O O4 0.452708 0.790375 0.400407
O O5 0.818984 0.743471 0.110780
O O6 0.260358 0.984612 0.210009
O O7 0.927005 0.860939 0.038005
O O8 0.713227 0.167425 0.035379
O O9 0.463947 0.213167 0.155068
O O10 0.038475 0.096851 0.307820
O O11 0.710549 0.875952 0.281688
O O12 0.631646 0.854508 0.150185
O O13 0.581218 0.586514 0.321077
O O14 0.747621 0.085245 0.382993
O O15 0.000000 0.500000 0.500000
O O16 0.456524 0.450970 0.067430
O O17 0.000000 0.500000 0.000000
O O18 0.500000 0.000000 0.500000
#
# Coordination Sequence:
#
# PCOD9107680 Si02
#       8
#     2   2   2   2   2   2   2   2
#     4  10  20  40  65  91 127 173 222 286 348 400
#     4  10  24  44  67 105 140 197 231 299 362 433
#     4  11  25  40  70 108 136 190 243 299 359 428
#     4  12  26  46  74 104 141 189 247 295 362 441
#     4  12  28  48  70 101 145 189 240 301 366 433
#     4  11  23  42  71 105 149 185 238 299 359 436
#     4  10  21  38  64  97 132 175 230 290 347 407
#     4  10  23  44  69  99 152 180 243 294 365 431
#
# _framework density 25.005268999999998
#
# number of rings (size 3 to 8) (size 9 to 14) (size 15 to 20)
#    0.000    1.250    0.000    6.000    7.000    4.000 
#    0.000    0.000    0.000    0.000    0.000    0.000 
#    0.000    0.000    0.000    0.000    0.000    0.000 
#
# Total GULP energy -89416.968370 kJ/mol
# GULP energy per Si atom -5588.560523 kJ/mol
# Density = 2.494836 g / cm^3
# Si number density = 25.005269 Si / 1000 Ang^3
#
#
#
# Elastic Constant Matrix: (Units=GPa)
#
#
# Indices 1 2 3 4 5 6 
#
# 1 69.8820 3.3253 5.2142 5.3853 3.7773 -10.7244
# 2 3.3253 116.0262 23.4332 -4.2059 5.8733 -0.3550
# 3 5.2142 23.4332 109.9584 4.9151 20.3810 -9.4248
# 4 5.3853 -4.2059 4.9151 28.5530 3.3913 3.8559
# 5 3.7773 5.8733 20.3810 3.3913 38.0620 1.3830
# 6 -10.7244 -0.3550 -9.4248 3.8559 1.3830 36.8822
#
#
#
# Elastic Compliance Matrix: (Units=1/GPa)
#
#
# Indices 1 2 3 4 5 6 
#
# 1 0.015429 -0.000529 0.000231 -0.003527 -0.001439 0.004963
# 2 -0.000529 0.009126 -0.001991 0.001941 -0.000435 -0.000761
# 3 0.000231 -0.001991 0.010893 -0.001998 -0.005488 0.003246
# 4 -0.003527 0.001941 -0.001998 0.037277 -0.002007 -0.005339
# 5 -0.001439 -0.000435 -0.005488 -0.002007 0.029700 -0.002729
# 6 0.004963 -0.000761 0.003246 -0.005339 -0.002729 0.030039
#
#
# Mechanical properties :
#
#
# Convention : Reuss Voigt Hill
#
# Bulk Modulus (GPa) = 32.39431 39.97910 36.18671
# Shear Modulus (GPa) = 33.93712 38.29238 36.11475
#
# Velocity S-wave (km/s) = 3.68801 3.91752 3.80450
# Velocity P-wave (km/s) = 5.57839 6.04033 5.81395
#
# Compressibility (1/GPa) = 0.03086962
#
# Stress axis : x y z
#
# Youngs Moduli (GPa) = 64.81303 109.57590 91.80587
#
# Poissons Ratio (x) = 0.05792 -0.02119
# Poissons Ratio (y) = 0.03426 0.18281
# Poissons Ratio (z) = -0.01496 0.21819
#
# Static dielectric constant tensor:
#      x y z
#    x 2.449340 -0.109630 -0.192480 
#    y -0.109630 2.078670 0.006610 
#    z -0.192480 0.006610 2.031690 
# 
# From -- ./inp_files/616348.got.cif
#   From: 2010.05.17/outbox.cif.g08.bks.cpg/sg2_309_cif.got.tgz:616348.got - 2010.06.03 11:33:40.
