data_PCOD9107483
_publ_section_title
;
Structure prediction by ZEFSAII (Michael W. Deem and Ramdas Pophale) SiO2 
 PCOD9107483
Probable space group: P -1
;
_chemical_formula_sum "Si O2"
_cell_formula_units_Z 15
_cell_length_a 14.091719
_cell_length_b 11.455141
_cell_length_c 9.282876
_cell_angle_alpha 119.139873
_cell_angle_beta 100.454851
_cell_angle_gamma 130.493797
_cell_volume 659.197574
_symmetry_space_group_name_H-M "P -1"
_symmetry_group_IT_number 2
_symmetry_cell_setting 'triclinic'
loop_
_space_group_symop_operation_xyz
x,y,z
-x,-y,-z
loop_
_atom_site_type_symbol
_atom_site_label
_atom_site_fract_x
_atom_site_fract_y
_atom_site_fract_z
Si Si1 0.637250 0.491283 0.476830
Si Si2 0.283820 0.160004 0.000782
Si Si3 0.885566 0.565414 0.072294
Si Si4 0.375046 0.550593 0.210136
Si Si5 0.282259 0.861251 0.711359
Si Si6 0.000000 0.000000 0.000000
Si Si7 0.713898 0.345331 0.191278
Si Si8 0.253881 0.848977 0.378364
O O1 0.447181 0.326034 0.262812
O O2 0.616665 0.429902 0.602659
O O3 0.684443 0.420477 0.350154
O O4 0.821859 0.801717 0.719082
O O5 0.364590 0.382442 0.066664
O O6 0.096101 0.993701 0.922770
O O7 0.261140 0.994452 0.811180
O O8 0.818624 0.610613 0.988026
O O9 0.757093 0.287582 0.816017
O O10 0.844368 0.542588 0.214224
O O11 0.097452 0.768132 0.235280
O O12 0.548353 0.839888 0.370480
O O13 0.208399 0.692872 0.728660
O O14 0.205007 0.736852 0.457285
O O15 0.503560 0.080786 0.907728
#
# Coordination Sequence:
#
# PCOD9107483 Si02
#       8
#     2   2   2   2   2   1   2   2
#     4  10  23  42  68  99 128 169 221 263 322 381
#     4  10  24  42  67  98 128 170 221 264 319 388
#     4  11  25  42  63 100 128 168 221 261 326 385
#     4  11  22  42  67  90 134 171 209 265 324 388
#     4  10  22  43  68  95 130 171 215 270 323 374
#     4  10  20  40  64  94 130 166 208 268 314 374
#     4  10  22  42  70  98 127 168 218 273 317 381
#     4  11  25  42  64  95 132 173 211 265 327 386
#
# _framework density 22.754937999999999
#
# number of rings (size 3 to 8) (size 9 to 14) (size 15 to 20)
#    0.000    1.600    1.333    2.800    7.467    5.333 
#    4.800    0.667    0.000    0.000    0.000    0.000 
#    0.000    0.000    0.000    0.000    0.000    0.000 
#
# Total GULP energy -83570.963703 kJ/mol
# GULP energy per Si atom -5571.397580 kJ/mol
# Density = 2.270315 g / cm^3
# Si number density = 22.754938 Si / 1000 Ang^3
#
#
#
# Elastic Constant Matrix: (Units=GPa)
#
#
# Indices 1 2 3 4 5 6 
#
# 1 120.1524 19.2975 25.8501 -2.8581 14.3139 1.9031
# 2 19.2975 36.9961 9.1784 -9.0940 9.6165 1.3402
# 3 25.8501 9.1784 71.2987 -8.3109 18.6624 -7.5565
# 4 -2.8581 -9.0940 -8.3109 23.6548 -2.7547 3.6250
# 5 14.3139 9.6165 18.6624 -2.7547 35.2761 -8.0277
# 6 1.9031 1.3402 -7.5565 3.6250 -8.0277 24.9337
#
#
#
# Elastic Compliance Matrix: (Units=1/GPa)
#
#
# Indices 1 2 3 4 5 6 
#
# 1 0.009836 -0.004214 -0.002897 -0.001388 -0.001825 -0.001788
# 2 -0.004214 0.034702 0.000049 0.012823 -0.008144 -0.006015
# 3 -0.002897 0.000049 0.017800 0.004677 -0.007302 0.002582
# 4 -0.001388 0.012823 0.004677 0.049437 -0.003228 -0.007393
# 5 -0.001825 -0.008144 -0.007302 -0.003228 0.037393 0.010873
# 6 -0.001788 -0.006015 0.002582 -0.007393 0.010873 0.045924
#
#
# Mechanical properties :
#
#
# Convention : Reuss Voigt Hill
#
# Bulk Modulus (GPa) = 20.74076 37.45546 29.09811
# Shear Modulus (GPa) = 22.19401 28.38100 25.28751
#
# Velocity S-wave (km/s) = 3.12645 3.53547 3.33723
# Velocity P-wave (km/s) = 4.70824 5.75866 5.25974
#
# Compressibility (1/GPa) = 0.04821424
#
# Stress axis : x y z
#
# Youngs Moduli (GPa) = 101.67239 28.81658 56.18115
#
# Poissons Ratio (x) = 0.12142 0.16277
# Poissons Ratio (y) = 0.42841 -0.00277
# Poissons Ratio (z) = 0.29456 -0.00142
#
# Static dielectric constant tensor:
#      x y z
#    x 1.817880 -0.032940 -0.005100 
#    y -0.032940 1.937670 0.046200 
#    z -0.005100 0.046200 1.851820 
# 
# From -- ./inp_files/308126.got.cif
#   From: 2010.05.17/outbox.cif.g08.bks.cpg/sg2_155_cif.got.tgz:308126.got - 2010.06.03 11:33:40.
