data_PCOD9107994
_publ_section_title
;
Structure prediction by ZEFSAII (Michael W. Deem and Ramdas Pophale) SiO2 
 PCOD9107994
Probable space group: P -1
;
_chemical_formula_sum "Si O2"
_cell_formula_units_Z 16
_cell_length_a 10.861543
_cell_length_b 17.688984
_cell_length_c 5.330239
_cell_angle_alpha 115.801077
_cell_angle_beta 63.644600
_cell_angle_gamma 137.065742
_cell_volume 614.788072
_symmetry_space_group_name_H-M "P -1"
_symmetry_group_IT_number 2
_symmetry_cell_setting 'triclinic'
loop_
_space_group_symop_operation_xyz
x,y,z
-x,-y,-z
loop_
_atom_site_type_symbol
_atom_site_label
_atom_site_fract_x
_atom_site_fract_y
_atom_site_fract_z
Si Si1 0.989578 0.919865 0.210677
Si Si2 0.781402 0.563752 0.754611
Si Si3 0.330221 0.990380 0.816023
Si Si4 0.725052 0.719512 0.867518
Si Si5 0.907675 0.173936 0.620579
Si Si6 0.862322 0.373542 0.562261
Si Si7 0.332881 0.817163 0.888723
Si Si8 0.673454 0.421322 0.146882
O O1 0.046616 0.860524 0.225485
O O2 0.161294 0.989687 0.970477
O O3 0.000000 0.000000 0.500000
O O4 0.793277 0.822053 0.129756
O O5 0.692724 0.619497 0.899015
O O6 0.737900 0.510267 0.991891
O O7 0.000785 0.650771 0.615061
O O8 0.709735 0.475647 0.464204
O O9 0.279591 0.936043 0.504070
O O10 0.340751 0.903883 0.828427
O O11 0.495500 0.109133 0.969306
O O12 0.907819 0.767987 0.617491
O O13 0.546438 0.674519 0.816389
O O14 0.850789 0.242337 0.863304
O O15 0.693897 0.275146 0.394463
O O16 0.781843 0.381518 0.901313
O O17 0.000000 0.500000 0.500000
#
# Coordination Sequence:
#
# PCOD9107994 Si02
#       8
#     2   2   2   2   2   2   2   2
#     4  10  23  40  62  89 139 168 217 281 342 408
#     4  11  24  46  70  98 140 176 235 280 334 409
#     4   9  20  38  63  99 119 176 224 276 333 400
#     4  11  25  40  69  98 128 182 225 276 343 403
#     4  10  21  39  67  94 128 176 224 274 341 406
#     4  10  23  42  65  98 136 178 218 283 349 402
#     4  10  20  40  66  93 134 167 226 280 332 412
#     4  11  26  44  69 104 136 178 229 283 340 407
#
# _framework density 26.025231000000002
#
# number of rings (size 3 to 8) (size 9 to 14) (size 15 to 20)
#    0.000    1.750    0.000    3.750    8.750    2.000 
#    4.500    2.500    0.000    0.000    0.000    0.000 
#    0.000    0.000    0.000    0.000    0.000    0.000 
#
# Total GULP energy -89322.650056 kJ/mol
# GULP energy per Si atom -5582.665628 kJ/mol
# Density = 2.596600 g / cm^3
# Si number density = 26.025231 Si / 1000 Ang^3
#
#
#
# Elastic Constant Matrix: (Units=GPa)
#
#
# Indices 1 2 3 4 5 6 
#
# 1 69.8364 32.7309 2.9347 17.0345 7.4071 21.2747
# 2 32.7309 81.1843 36.1590 26.4888 5.1456 26.3756
# 3 2.9347 36.1590 107.6499 36.4667 0.1682 13.7249
# 4 17.0345 26.4888 36.4667 39.4555 8.2389 10.8455
# 5 7.4071 5.1456 0.1682 8.2389 48.9943 13.8829
# 6 21.2747 26.3756 13.7249 10.8455 13.8829 42.3751
#
#
#
# Elastic Compliance Matrix: (Units=1/GPa)
#
#
# Indices 1 2 3 4 5 6 
#
# 1 0.020711 -0.005894 0.004909 -0.007864 0.000640 -0.006516
# 2 -0.005894 0.020811 -0.003714 -0.006254 0.001992 -0.007843
# 3 0.004909 -0.003714 0.015345 -0.013671 0.002595 -0.002474
# 4 -0.007864 -0.006254 -0.013671 0.046241 -0.006621 0.002603
# 5 0.000640 0.001992 0.002595 -0.006621 0.023600 -0.008439
# 6 -0.006516 -0.007843 -0.002474 0.002603 -0.008439 0.034652
#
#
# Mechanical properties :
#
#
# Convention : Reuss Voigt Hill
#
# Bulk Modulus (GPa) = 21.06646 44.70221 32.88433
# Shear Modulus (GPa) = 26.79796 38.62139 32.70967
#
# Velocity S-wave (km/s) = 3.21236 3.85645 3.54905
# Velocity P-wave (km/s) = 4.67667 6.08633 5.42746
#
# Compressibility (1/GPa) = 0.04746882
#
# Stress axis : x y z
#
# Youngs Moduli (GPa) = 48.28432 48.05256 65.16573
#
# Poissons Ratio (x) = 0.28322 -0.31989
# Poissons Ratio (y) = 0.28458 0.24202
# Poissons Ratio (z) = -0.23702 0.17847
#
# Static dielectric constant tensor:
#      x y z
#    x 2.051760 0.032550 -0.049610 
#    y 0.032550 2.179130 0.009410 
#    z -0.049610 0.009410 1.934030 
# 
# From -- ./inp_files/70269.got.cif
#   From: 2010.05.17/outbox.cif.g08.bks.cpg/sg2_36_cif.got.tgz:70269.got - 2010.06.03 11:33:40.
