data_PCOD9107702
_publ_section_title
;
Structure prediction by ZEFSAII (Michael W. Deem and Ramdas Pophale) SiO2 
 PCOD9107702
Probable space group: P -1
;
_chemical_formula_sum "Si O2"
_cell_formula_units_Z 16
_cell_length_a 20.859758
_cell_length_b 9.073108
_cell_length_c 5.864143
_cell_angle_alpha 80.583901
_cell_angle_beta 120.870791
_cell_angle_gamma 129.357225
_cell_volume 714.356564
_symmetry_space_group_name_H-M "P -1"
_symmetry_group_IT_number 2
_symmetry_cell_setting 'triclinic'
loop_
_space_group_symop_operation_xyz
x,y,z
-x,-y,-z
loop_
_atom_site_type_symbol
_atom_site_label
_atom_site_fract_x
_atom_site_fract_y
_atom_site_fract_z
Si Si1 0.945578 0.916113 0.672333
Si Si2 0.219814 0.071430 0.796607
Si Si3 0.641072 0.497142 0.154147
Si Si4 0.350386 0.214311 0.384975
Si Si5 0.794094 0.480327 0.647031
Si Si6 0.285242 0.888097 0.708979
Si Si7 0.521719 0.325988 0.354962
Si Si8 0.657085 0.286297 0.837138
O O1 0.865114 0.941996 0.472518
O O2 0.891021 0.686363 0.675306
O O3 0.000000 0.000000 0.500000
O O4 0.000000 0.000000 0.000000
O O5 0.319021 0.286054 0.846748
O O6 0.218240 0.901538 0.748316
O O7 0.242550 0.105063 0.101089
O O8 0.713225 0.504097 0.452377
O O9 0.532792 0.348950 0.095834
O O10 0.659695 0.429206 0.978087
O O11 0.421979 0.227627 0.328545
O O12 0.406429 0.439678 0.500525
O O13 0.333500 0.069804 0.583223
O O14 0.771432 0.306022 0.500013
O O15 0.762004 0.403129 0.868651
O O16 0.356817 0.879746 0.996354
O O17 0.567201 0.224717 0.533755
#
# Coordination Sequence:
#
# PCOD9107702 Si02
#       8
#     2   2   2   2   2   2   2   2
#     4  11  28  48  81 115 136 175 238 298 355 440
#     4  11  23  41  69  98 138 176 230 285 363 424
#     4   9  18  35  64  90 126 179 232 280 333 401
#     4  11  23  37  62 100 140 184 237 297 348 403
#     4   9  22  42  69  96 137 178 225 273 357 426
#     4  11  23  40  65  99 136 193 223 283 357 426
#     4  10  21  37  60  98 139 183 249 296 334 394
#     4  10  20  40  65  92 134 189 230 281 335 415
#
# _framework density 22.397780000000001
#
# number of rings (size 3 to 8) (size 9 to 14) (size 15 to 20)
#    0.000    1.750    2.500    0.750    7.000    2.000 
#    0.000   10.000    0.000    0.000    0.000    0.000 
#    0.000    0.000    0.000    0.000    0.000    0.000 
#
# Total GULP energy -89068.331732 kJ/mol
# GULP energy per Si atom -5566.770733 kJ/mol
# Density = 2.234680 g / cm^3
# Si number density = 22.397780 Si / 1000 Ang^3
#
#
#
# Elastic Constant Matrix: (Units=GPa)
#
#
# Indices 1 2 3 4 5 6 
#
# 1 70.2187 41.7329 39.3758 2.0779 -16.6691 -7.3290
# 2 41.7329 133.9724 59.2728 -14.7089 -4.3113 -17.2142
# 3 39.3758 59.2728 123.2087 -16.9927 7.7836 5.4785
# 4 2.0779 -14.7089 -16.9927 40.6342 -10.9892 -3.6408
# 5 -16.6691 -4.3113 7.7836 -10.9892 34.3099 -4.8482
# 6 -7.3290 -17.2142 5.4785 -3.6408 -4.8482 35.6372
#
#
#
# Elastic Compliance Matrix: (Units=1/GPa)
#
#
# Indices 1 2 3 4 5 6 
#
# 1 0.024270 -0.003080 -0.007595 -0.001275 0.013622 0.006394
# 2 -0.003080 0.011907 -0.004699 0.003993 0.003291 0.006696
# 3 -0.007595 -0.004699 0.013844 0.001746 -0.007830 -0.006847
# 4 -0.001275 0.003993 0.001746 0.030059 0.009936 0.005821
# 5 0.013622 0.003291 -0.007830 0.009936 0.042895 0.012446
# 6 0.006394 0.006696 -0.006847 0.005821 0.012446 0.035951
#
#
# Mechanical properties :
#
#
# Convention : Reuss Voigt Hill
#
# Bulk Modulus (GPa) = 51.88692 67.57364 59.73028
# Shear Modulus (GPa) = 25.49731 34.58414 30.04073
#
# Velocity S-wave (km/s) = 3.37766 3.93375 3.66626
# Velocity P-wave (km/s) = 6.19902 7.13217 6.68190
#
# Compressibility (1/GPa) = 0.01927268
#
# Stress axis : x y z
#
# Youngs Moduli (GPa) = 41.20357 83.98256 72.23240
#
# Poissons Ratio (x) = 0.25864 0.54864
# Poissons Ratio (y) = 0.12690 0.33942
# Poissons Ratio (z) = 0.31296 0.39464
#
# Static dielectric constant tensor:
#      x y z
#    x 1.875050 0.059820 -0.121070 
#    y 0.059820 1.841820 -0.021630 
#    z -0.121070 -0.021630 2.133650 
# 
# From -- ./inp_files/116966.got.cif
#   From: 2010.05.17/outbox.cif.g08.bks.cpg/sg2_59_cif.got.tgz:116966.got - 2010.06.03 11:33:40.
