data_PCOD9107995
_publ_section_title
;
Structure prediction by ZEFSAII (Michael W. Deem and Ramdas Pophale) SiO2 
 PCOD9107995
Probable space group: P -1
;
_chemical_formula_sum "Si O2"
_cell_formula_units_Z 16
_cell_length_a 18.031098
_cell_length_b 10.354056
_cell_length_c 11.148978
_cell_angle_alpha 50.270483
_cell_angle_beta 151.206543
_cell_angle_gamma 141.658336
_cell_volume 613.784849
_symmetry_space_group_name_H-M "P -1"
_symmetry_group_IT_number 2
_symmetry_cell_setting 'triclinic'
loop_
_space_group_symop_operation_xyz
x,y,z
-x,-y,-z
loop_
_atom_site_type_symbol
_atom_site_label
_atom_site_fract_x
_atom_site_fract_y
_atom_site_fract_z
Si Si1 0.052556 0.318539 0.387864
Si Si2 0.129980 0.841076 0.363458
Si Si3 0.621869 0.873016 0.251644
Si Si4 0.287609 0.664151 0.096788
Si Si5 0.795682 0.880753 0.135543
Si Si6 0.686181 0.542145 0.533185
Si Si7 0.771893 0.795880 0.890169
Si Si8 0.480562 0.880554 0.784095
O O1 0.162933 0.281114 0.666038
O O2 0.200591 0.476232 0.401201
O O3 0.914531 0.090573 0.259954
O O4 0.904474 0.362873 0.194314
O O5 0.254249 0.773518 0.520769
O O6 0.217794 0.911947 0.579644
O O7 0.195037 0.056555 0.260626
O O8 0.899701 0.710007 0.111867
O O9 0.443399 0.733544 0.173009
O O10 0.720533 0.761371 0.431178
O O11 0.540156 0.887972 0.002919
O O12 0.243400 0.475072 0.227996
O O13 0.405522 0.871033 0.230669
O O14 0.844577 0.929311 0.036761
O O15 0.573704 0.790526 0.896671
O O16 0.454351 0.378493 0.306713
#
# Coordination Sequence:
#
# PCOD9107995 Si02
#       8
#     2   2   2   2   2   2   2   2
#     4  10  22  40  64  91 116 161 217 248 296 359
#     4  10  22  41  62  94 119 165 204 245 301 372
#     4  11  21  39  70  90 120 159 210 255 295 358
#     4  10  21  36  64  94 119 154 206 258 301 347
#     4  10  22  41  65  89 120 166 205 248 301 369
#     4  12  22  41  59  95 128 158 195 259 312 354
#     4  11  24  38  61  90 132 161 193 250 314 366
#     4  10  20  40  66  94 113 161 216 249 289 362
#
# _framework density 26.067767
#
# number of rings (size 3 to 8) (size 9 to 14) (size 15 to 20)
#    0.000    1.500    3.750    3.000    5.250    1.000 
#    0.000    1.875    0.000    0.000    0.000    0.000 
#    0.000    0.000    0.000    0.000    0.000    0.000 
#
# Total GULP energy -89606.314970 kJ/mol
# GULP energy per Si atom -5600.394686 kJ/mol
# Density = 2.600844 g / cm^3
# Si number density = 26.067767 Si / 1000 Ang^3
#
#
#
# Elastic Constant Matrix: (Units=GPa)
#
#
# Indices 1 2 3 4 5 6 
#
# 1 110.9816 2.3098 64.2356 -3.7314 25.6739 19.7137
# 2 2.3098 37.1947 30.7977 8.3296 -6.5382 15.4129
# 3 64.2356 30.7977 183.0905 -7.2988 45.6370 5.4526
# 4 -3.7314 8.3296 -7.2988 44.9407 6.0115 6.1790
# 5 25.6739 -6.5382 45.6370 6.0115 52.3656 4.5132
# 6 19.7137 15.4129 5.4526 6.1790 4.5132 34.5278
#
#
#
# Elastic Compliance Matrix: (Units=1/GPa)
#
#
# Indices 1 2 3 4 5 6 
#
# 1 0.014440 0.009419 -0.006505 -0.000125 0.000771 -0.011500
# 2 0.009419 0.062434 -0.019452 -0.012931 0.024289 -0.031036
# 3 -0.006505 -0.019452 0.014210 0.005645 -0.013208 0.010869
# 4 -0.000125 -0.012931 0.005645 0.026648 -0.009657 0.001446
# 5 0.000771 0.024289 -0.013208 -0.009657 0.035413 -0.012098
# 6 -0.011500 -0.031036 0.010869 0.001446 -0.012098 0.048989
#
#
# Mechanical properties :
#
#
# Convention : Reuss Voigt Hill
#
# Bulk Modulus (GPa) = 17.23957 58.43919 37.83938
# Shear Modulus (GPa) = 19.64294 41.96173 30.80233
#
# Velocity S-wave (km/s) = 2.74803 4.01648 3.44121
# Velocity P-wave (km/s) = 4.08615 6.63147 5.50786
#
# Compressibility (1/GPa) = 0.05800608
#
# Stress axis : x y z
#
# Youngs Moduli (GPa) = 69.25354 16.01702 70.37505
#
# Poissons Ratio (x) = -0.15086 0.45779
# Poissons Ratio (y) = -0.65227 1.36893
# Poissons Ratio (z) = 0.45050 0.31156
#
# Static dielectric constant tensor:
#      x y z
#    x 2.019720 -0.031700 0.027260 
#    y -0.031700 2.079840 0.031240 
#    z 0.027260 0.031240 2.041610 
# 
# From -- ./inp_files/284731.got.cif
#   From: 2010.05.17/outbox.cif.g08.bks.cpg/sg2_143_cif.got.tgz:284731.got - 2010.06.03 11:33:40.
