data_PCOD9107246
_publ_section_title
;
Structure prediction by ZEFSAII (Michael W. Deem and Ramdas Pophale) SiO2 
 PCOD9107246
Probable space group: P -1
;
_chemical_formula_sum "Si O2"
_cell_formula_units_Z 15
_cell_length_a 12.727487
_cell_length_b 7.598572
_cell_length_c 10.024145
_cell_angle_alpha 134.125560
_cell_angle_beta 75.545679
_cell_angle_gamma 84.657038
_cell_volume 622.197488
_symmetry_space_group_name_H-M "P -1"
_symmetry_group_IT_number 2
_symmetry_cell_setting 'triclinic'
loop_
_space_group_symop_operation_xyz
x,y,z
-x,-y,-z
loop_
_atom_site_type_symbol
_atom_site_label
_atom_site_fract_x
_atom_site_fract_y
_atom_site_fract_z
Si Si1 0.689095 0.373314 0.809260
Si Si2 0.084838 0.963526 0.326364
Si Si3 0.959574 0.756333 0.053026
Si Si4 0.488776 0.145346 0.784451
Si Si5 0.626052 0.624483 0.342598
Si Si6 0.859549 0.533813 0.364703
Si Si7 0.748134 0.226963 0.417902
Si Si8 0.500000 0.500000 0.500000
O O1 0.796761 0.300083 0.837860
O O2 0.598498 0.235868 0.806051
O O3 0.747853 0.241128 0.584046
O O4 0.609337 0.685004 0.991589
O O5 0.017346 0.941091 0.204545
O O6 0.126213 0.206160 0.449529
O O7 0.000000 0.000000 0.500000
O O8 0.821031 0.927166 0.188100
O O9 0.000000 0.500000 0.000000
O O10 0.019082 0.657204 0.840626
O O11 0.425512 0.248217 0.714800
O O12 0.544567 0.824409 0.594949
O O13 0.757169 0.596752 0.316853
O O14 0.592902 0.384034 0.271804
O O15 0.813724 0.399356 0.423364
O O16 0.614571 0.362940 0.489346
#
# Coordination Sequence:
#
# PCOD9107246 Si02
#       8
#     2   2   2   2   2   2   2   1
#     4  11  21  41  62 100 127 171 225 279 328 387
#     4  12  23  43  68  98 136 174 228 287 329 394
#     4  12  25  44  74 100 128 180 230 280 337 400
#     4  10  21  36  69  91 129 170 229 270 324 395
#     4  10  20  40  63  94 129 175 215 277 325 402
#     4  11  24  44  66  99 136 177 223 275 344 400
#     4  11  24  44  68  96 143 174 223 277 337 410
#     4  10  22  40  64  94 132 174 208 264 340 392
#
# _framework density 24.108101999999999
#
# number of rings (size 3 to 8) (size 9 to 14) (size 15 to 20)
#    0.000    1.067    5.333    1.200    0.000    1.600 
#    0.000    6.667    0.000    0.000    0.000    0.000 
#    0.000    0.000    0.000    0.000    0.000    0.000 
#
# Total GULP energy -83709.595142 kJ/mol
# GULP energy per Si atom -5580.639676 kJ/mol
# Density = 2.405323 g / cm^3
# Si number density = 24.108102 Si / 1000 Ang^3
#
#
#
# Elastic Constant Matrix: (Units=GPa)
#
#
# Indices 1 2 3 4 5 6 
#
# 1 99.2307 17.3614 11.6476 19.5171 -3.1391 -9.9611
# 2 17.3614 44.9434 -8.8643 7.6246 2.4759 12.0091
# 3 11.6476 -8.8643 99.6200 8.5496 -15.4146 11.0451
# 4 19.5171 7.6246 8.5496 25.5473 -1.6676 -7.4205
# 5 -3.1391 2.4759 -15.4146 -1.6676 14.9673 -0.6875
# 6 -9.9611 12.0091 11.0451 -7.4205 -0.6875 40.6589
#
#
#
# Elastic Compliance Matrix: (Units=1/GPa)
#
#
# Indices 1 2 3 4 5 6 
#
# 1 0.012937 -0.005398 -0.001684 -0.006439 0.001342 0.004069
# 2 -0.005398 0.031297 0.005583 -0.011371 -0.002479 -0.014200
# 3 -0.001684 0.005583 0.013871 -0.006201 0.012008 -0.006758
# 4 -0.006439 -0.011371 -0.006201 0.053419 0.000704 0.013227
# 5 0.001342 -0.002479 0.012008 0.000704 0.079916 -0.000721
# 6 0.004069 -0.014200 -0.006758 0.013227 -0.000721 0.034024
#
#
# Mechanical properties :
#
#
# Convention : Reuss Voigt Hill
#
# Bulk Modulus (GPa) = 18.14682 31.56484 24.85583
# Shear Modulus (GPa) = 20.25675 31.14466 25.70070
#
# Velocity S-wave (km/s) = 2.90185 3.59817 3.26860
# Velocity P-wave (km/s) = 4.33258 5.51216 4.95757
#
# Compressibility (1/GPa) = 0.05510608
#
# Stress axis : x y z
#
# Youngs Moduli (GPa) = 77.29730 31.95232 72.09136
#
# Poissons Ratio (x) = 0.17249 0.12139
# Poissons Ratio (y) = 0.41727 -0.40246
# Poissons Ratio (z) = 0.13016 -0.17838
#
# Static dielectric constant tensor:
#      x y z
#    x 1.869820 -0.269800 -0.107020 
#    y -0.269800 1.585680 -0.148350 
#    z -0.107020 -0.148350 1.945500 
# 
# From -- ./inp_files/418547.got.cif
#   From: 2010.05.17/outbox.cif.g08.bks.cpg/sg2_210_cif.got.tgz:418547.got - 2010.06.03 11:33:40.
