data_PCOD9107324
_publ_section_title
;
Structure prediction by ZEFSAII (Michael W. Deem and Ramdas Pophale) SiO2 
 PCOD9107324
Probable space group: P -1
;
_chemical_formula_sum "Si O2"
_cell_formula_units_Z 13
_cell_length_a 6.756940
_cell_length_b 6.789817
_cell_length_c 19.640414
_cell_angle_alpha 105.002014
_cell_angle_beta 84.816676
_cell_angle_gamma 136.157357
_cell_volume 596.596077
_symmetry_space_group_name_H-M "P -1"
_symmetry_group_IT_number 2
_symmetry_cell_setting 'triclinic'
loop_
_space_group_symop_operation_xyz
x,y,z
-x,-y,-z
loop_
_atom_site_type_symbol
_atom_site_label
_atom_site_fract_x
_atom_site_fract_y
_atom_site_fract_z
Si Si1 0.906707 0.834016 0.787223
Si Si2 0.485481 0.420545 0.881283
Si Si3 0.000000 0.000000 0.500000
Si Si4 0.340868 0.536944 0.446269
Si Si5 0.002323 0.494976 0.336223
Si Si6 0.346943 0.121175 0.323129
Si Si7 0.670958 0.317926 0.994687
O O1 0.753671 0.689604 0.851343
O O2 0.916244 0.624475 0.729751
O O3 0.732569 0.866098 0.749296
O O4 0.229551 0.154882 0.816892
O O5 0.570882 0.308813 0.921822
O O6 0.378277 0.528253 0.940075
O O7 0.672051 0.842517 0.476118
O O8 0.841012 0.667880 0.500812
O O9 0.170305 0.564778 0.405968
O O10 0.339492 0.321849 0.384872
O O11 0.657406 0.247489 0.330635
O O12 0.108726 0.791761 0.331421
O O13 0.000000 0.500000 0.000000
O O14 0.500000 0.000000 0.000000
#
# Coordination Sequence:
#
# PCOD9107324 Si02
#       7
#     2   2   1   2   2   2   2
#     4  11  24  40  62  90 120 153 198 246 290 351
#     4  11  24  41  60  89 120 153 200 244 290 353
#     4  10  20  40  64  84 120 160 192 244 292 338
#     4  10  22  41  60  87 122 154 196 244 290 346
#     4  11  23  40  62  88 120 157 194 242 298 347
#     4  11  23  40  62  88 120 157 194 242 298 347
#     4  11  24  41  62  86 120 159 194 243 298 346
#
# _framework density 21.790285000000001
#
# number of rings (size 3 to 8) (size 9 to 14) (size 15 to 20)
#    0.000    1.231    0.000    5.538    0.000   14.769 
#    0.000   15.385    0.000    0.000    0.000    0.000 
#    0.000    0.000    0.000    0.000    0.000    0.000 
#
# Total GULP energy -72529.879950 kJ/mol
# GULP energy per Si atom -5579.221535 kJ/mol
# Density = 2.174069 g / cm^3
# Si number density = 21.790285 Si / 1000 Ang^3
#
#
#
# Elastic Constant Matrix: (Units=GPa)
#
#
# Indices 1 2 3 4 5 6 
#
# 1 106.7457 8.2070 25.1978 5.1104 20.3775 -1.3475
# 2 8.2070 98.0344 -4.4189 4.3956 17.1816 4.2605
# 3 25.1978 -4.4189 49.7326 1.5604 17.3997 -17.6523
# 4 5.1104 4.3956 1.5604 24.6043 3.7245 18.7514
# 5 20.3775 17.1816 17.3997 3.7245 35.0323 -6.1483
# 6 -1.3475 4.2605 -17.6523 18.7514 -6.1483 34.6534
#
#
#
# Elastic Compliance Matrix: (Units=1/GPa)
#
#
# Indices 1 2 3 4 5 6 
#
# 1 0.011512 -0.000321 -0.005925 0.002208 -0.004629 -0.004547
# 2 -0.000321 0.011741 0.003635 -0.000760 -0.007385 -0.000504
# 3 -0.005925 0.003635 0.037822 -0.022506 -0.009629 0.029059
# 4 0.002208 -0.000760 -0.022506 0.090703 -0.010292 -0.062192
# 5 -0.004629 -0.007385 -0.009629 -0.010292 0.042297 0.008897
# 6 -0.004547 -0.000504 0.029059 -0.062192 0.008897 0.078776
#
#
# Mechanical properties :
#
#
# Convention : Reuss Voigt Hill
#
# Bulk Modulus (GPa) = 17.90445 34.72050 26.31248
# Shear Modulus (GPa) = 16.85253 33.89313 25.37283
#
# Velocity S-wave (km/s) = 2.78402 3.94816 3.41605
# Velocity P-wave (km/s) = 4.30916 6.06239 5.25935
#
# Compressibility (1/GPa) = 0.05585204
#
# Stress axis : x y z
#
# Youngs Moduli (GPa) = 86.86688 85.16867 26.43992
#
# Poissons Ratio (x) = 0.02733 0.15666
# Poissons Ratio (y) = 0.02788 -0.09610
# Poissons Ratio (z) = 0.51469 -0.30955
#
# Static dielectric constant tensor:
#      x y z
#    x 1.769040 -0.039460 -0.007270 
#    y -0.039460 1.710110 -0.003260 
#    z -0.007270 -0.003260 1.817420 
# 
# From -- ./inp_files/9338.got.cif
#   From: 2010.05.17/outbox.cif.g08.bks.cpg/sg2_5_cif.got.tgz:9338.got - 2010.06.03 11:33:40.
