data_PCOD9107765
_publ_section_title
;
Structure prediction by ZEFSAII (Michael W. Deem and Ramdas Pophale) SiO2 
 PCOD9107765
Probable space group: P -1
;
_chemical_formula_sum "Si O2"
_cell_formula_units_Z 10
_cell_length_a 7.160075
_cell_length_b 8.796811
_cell_length_c 8.998816
_cell_angle_alpha 86.891108
_cell_angle_beta 120.522031
_cell_angle_gamma 111.512465
_cell_volume 448.041546
_symmetry_space_group_name_H-M "P -1"
_symmetry_group_IT_number 2
_symmetry_cell_setting 'triclinic'
loop_
_space_group_symop_operation_xyz
x,y,z
-x,-y,-z
loop_
_atom_site_type_symbol
_atom_site_label
_atom_site_fract_x
_atom_site_fract_y
_atom_site_fract_z
Si Si1 0.103329 0.886164 0.142677
Si Si2 0.490279 0.580590 0.335781
Si Si3 0.753730 0.554650 0.172400
Si Si4 0.184473 0.099028 0.439643
Si Si5 0.985020 0.322653 0.152236
O O1 0.911810 0.732940 0.161779
O O2 0.240817 0.998513 0.331835
O O3 0.170128 0.791324 0.038369
O O4 0.000000 0.000000 0.000000
O O5 0.500000 0.500000 0.500000
O O6 0.695210 0.565590 0.319376
O O7 0.574933 0.775289 0.392772
O O8 0.227168 0.467682 0.179060
O O9 0.858616 0.419758 0.186660
O O10 0.500000 0.500000 0.000000
O O11 0.062504 0.207319 0.298079
O O12 0.000000 0.000000 0.500000
#
# Coordination Sequence:
#
# PCOD9107765 Si02
#       5
#     2   2   2   2   2
#     4  10  21  40  64  91 130 162 209 265 307 369
#     4  10  22  40  66  90 129 162 211 255 316 371
#     4  12  23  41  69  92 124 171 219 255 303 378
#     4  10  20  40  65  95 130 161 203 266 317 370
#     4  10  23  42  67  92 125 169 215 253 311 379
#
# _framework density 22.319358000000001
#
# number of rings (size 3 to 8) (size 9 to 14) (size 15 to 20)
#    0.000    1.600    4.000    0.600    0.000    3.200 
#    0.000    7.000    4.400    0.000    0.000    0.000 
#    0.000    0.000    0.000    0.000    0.000    0.000 
#
# Total GULP energy -55758.911915 kJ/mol
# GULP energy per Si atom -5575.891191 kJ/mol
# Density = 2.226856 g / cm^3
# Si number density = 22.319358 Si / 1000 Ang^3
#
#
#
# Elastic Constant Matrix: (Units=GPa)
#
#
# Indices 1 2 3 4 5 6 
#
# 1 86.9475 44.7561 49.1759 9.5599 -29.6909 -24.9589
# 2 44.7561 127.3405 53.4040 10.3902 -13.7418 -14.2440
# 3 49.1759 53.4040 117.9806 18.3582 -27.1570 -8.6632
# 4 9.5599 10.3902 18.3582 49.5161 -2.8985 -13.7636
# 5 -29.6909 -13.7418 -27.1570 -2.8985 47.1747 1.7287
# 6 -24.9589 -14.2440 -8.6632 -13.7636 1.7287 32.2221
#
#
#
# Elastic Compliance Matrix: (Units=1/GPa)
#
#
# Indices 1 2 3 4 5 6 
#
# 1 0.024603 -0.003592 -0.005396 0.003328 0.010919 0.016854
# 2 -0.003592 0.010560 -0.003489 -0.000022 -0.001231 0.001004
# 3 -0.005396 -0.003489 0.013382 -0.004129 0.003186 -0.004059
# 4 0.003328 -0.000022 -0.004129 0.024428 0.000778 0.011851
# 5 0.010919 -0.001231 0.003186 0.000778 0.029317 0.007529
# 6 0.016854 0.001004 -0.004059 0.011851 0.007529 0.048101
#
#
# Mechanical properties :
#
#
# Convention : Reuss Voigt Hill
#
# Bulk Modulus (GPa) = 42.38891 69.66006 56.02449
# Shear Modulus (GPa) = 27.29127 38.11143 32.70135
#
# Velocity S-wave (km/s) = 3.50060 4.13673 3.83189
# Velocity P-wave (km/s) = 5.94745 7.35494 6.68832
#
# Compressibility (1/GPa) = 0.02359107
#
# Stress axis : x y z
#
# Youngs Moduli (GPa) = 40.64577 94.69736 74.72578
#
# Poissons Ratio (x) = 0.34017 0.40320
# Poissons Ratio (y) = 0.14601 0.26072
# Poissons Ratio (z) = 0.21931 0.33040
#
# Static dielectric constant tensor:
#      x y z
#    x 1.904520 -0.048730 -0.008900 
#    y -0.048730 1.837880 0.045140 
#    z -0.008900 0.045140 1.908790 
# 
# From -- ./inp_files/15278.got.cif
#   From: 2010.05.17/outbox.cif.g08.bks.cpg/sg2_8_cif.got.tgz:15278.got - 2010.06.03 11:33:40.
