data_PCOD9107574
_publ_section_title
;
Structure prediction by ZEFSAII (Michael W. Deem and Ramdas Pophale) SiO2 
 PCOD9107574
Probable space group: P -1
;
_chemical_formula_sum "Si O2"
_cell_formula_units_Z 14
_cell_length_a 7.549311
_cell_length_b 8.235764
_cell_length_c 15.316664
_cell_angle_alpha 77.942569
_cell_angle_beta 65.936926
_cell_angle_gamma 128.565298
_cell_volume 517.477933
_symmetry_space_group_name_H-M "P -1"
_symmetry_group_IT_number 2
_symmetry_cell_setting 'triclinic'
loop_
_space_group_symop_operation_xyz
x,y,z
-x,-y,-z
loop_
_atom_site_type_symbol
_atom_site_label
_atom_site_fract_x
_atom_site_fract_y
_atom_site_fract_z
Si Si1 0.291854 0.280957 0.463610
Si Si2 0.672869 0.447456 0.082216
Si Si3 0.137554 0.760749 0.478605
Si Si4 0.527419 0.704954 0.052570
Si Si5 0.187983 0.116234 0.778215
Si Si6 0.398442 0.966724 0.875849
Si Si7 0.765317 0.050744 0.377662
O O1 0.571900 0.571086 0.327794
O O2 0.423558 0.225484 0.502964
O O3 0.048335 0.250786 0.552555
O O4 0.000000 0.000000 0.500000
O O5 0.681732 0.464152 0.972537
O O6 0.506670 0.154034 0.161535
O O7 0.546171 0.545849 0.122327
O O8 0.036203 0.688021 0.013750
O O9 0.519276 0.008387 0.385114
O O10 0.000000 0.500000 0.500000
O O11 0.052167 0.738234 0.601947
O O12 0.885837 0.965473 0.912647
O O13 0.428725 0.806944 0.109551
O O14 0.076869 0.953589 0.728508
O O15 0.363118 0.084541 0.796434
#
# Coordination Sequence:
#
# PCOD9107574 Si02
#       7
#     2   2   2   2   2   2   2
#     4  10  22  43  63  88 128 176 212 271 331 377
#     4   9  19  40  63  89 128 168 209 265 324 379
#     4  10  20  40  65  84 120 169 208 267 328 375
#     4  10  21  41  65  94 132 170 210 265 326 387
#     4  11  21  39  62  95 126 164 220 263 319 395
#     4  10  21  41  65  92 136 167 210 269 320 389
#     4  10  22  41  62  90 128 166 215 272 318 385
#
# _framework density 27.054293999999999
#
# number of rings (size 3 to 8) (size 9 to 14) (size 15 to 20)
#    0.000    2.000    1.429    2.571    0.000    0.000 
#   25.714   14.286    0.000    0.000    0.000    0.000 
#    0.000    0.000    0.000    0.000    0.000    0.000 
#
# Total GULP energy -77947.271224 kJ/mol
# GULP energy per Si atom -5567.662230 kJ/mol
# Density = 2.699272 g / cm^3
# Si number density = 27.054294 Si / 1000 Ang^3
#
#
#
# Elastic Constant Matrix: (Units=GPa)
#
#
# Indices 1 2 3 4 5 6 
#
# 1 75.0619 12.9702 12.4407 -18.2568 9.5642 -15.9390
# 2 12.9702 167.2551 42.5965 11.3097 1.0428 -7.2175
# 3 12.4407 42.5965 106.9789 -21.3120 -3.2488 -11.4485
# 4 -18.2568 11.3097 -21.3120 43.5444 3.2179 8.2196
# 5 9.5642 1.0428 -3.2488 3.2179 27.1223 -10.0683
# 6 -15.9390 -7.2175 -11.4485 8.2196 -10.0683 59.5242
#
#
#
# Elastic Compliance Matrix: (Units=1/GPa)
#
#
# Indices 1 2 3 4 5 6 
#
# 1 0.016643 -0.001759 0.000347 0.007605 -0.005817 0.002276
# 2 -0.001759 0.007341 -0.003549 -0.004515 0.000621 0.000465
# 3 0.000347 -0.003549 0.012233 0.006727 0.001157 0.001282
# 4 0.007605 -0.004515 0.006727 0.031599 -0.006443 -0.002670
# 5 -0.005817 0.000621 0.001157 -0.006443 0.042320 0.006788
# 6 0.002276 0.000465 0.001282 -0.002670 0.006788 0.019229
#
#
# Mechanical properties :
#
#
# Convention : Reuss Voigt Hill
#
# Bulk Modulus (GPa) = 38.03108 53.92342 45.97725
# Shear Modulus (GPa) = 33.77200 44.79073 39.28137
#
# Velocity S-wave (km/s) = 3.53697 4.07330 3.81457
# Velocity P-wave (km/s) = 5.54689 6.48824 6.03595
#
# Compressibility (1/GPa) = 0.02629428
#
# Stress axis : x y z
#
# Youngs Moduli (GPa) = 60.08592 136.22795 81.74633
#
# Poissons Ratio (x) = 0.23958 -0.02834
# Poissons Ratio (y) = 0.10567 0.29013
# Poissons Ratio (z) = -0.02083 0.48349
#
# Static dielectric constant tensor:
#      x y z
#    x 2.213100 0.016380 -0.022970 
#    y 0.016380 2.086460 0.079970 
#    z -0.022970 0.079970 2.163790 
# 
# From -- ./inp_files/494862.got.cif
#   From: 2010.05.17/outbox.cif.g08.bks.cpg/sg2_248_cif.got.tgz:494862.got - 2010.06.03 11:33:40.
