data_PCOD9107689
_publ_section_title
;
Structure prediction by ZEFSAII (Michael W. Deem and Ramdas Pophale) SiO2 
 PCOD9107689
Probable space group: P -1
;
_chemical_formula_sum "Si O2"
_cell_formula_units_Z 14
_cell_length_a 8.986830
_cell_length_b 9.487904
_cell_length_c 12.295015
_cell_angle_alpha 56.059962
_cell_angle_beta 142.645743
_cell_angle_gamma 132.806602
_cell_volume 466.269745
_symmetry_space_group_name_H-M "P -1"
_symmetry_group_IT_number 2
_symmetry_cell_setting 'triclinic'
loop_
_space_group_symop_operation_xyz
x,y,z
-x,-y,-z
loop_
_atom_site_type_symbol
_atom_site_label
_atom_site_fract_x
_atom_site_fract_y
_atom_site_fract_z
Si Si1 0.178738 0.340300 0.321729
Si Si2 0.173783 0.329015 0.992479
Si Si3 0.314002 0.052382 0.631682
Si Si4 0.500000 0.000000 0.000000
Si Si5 0.260679 0.262130 0.842133
Si Si6 0.525178 0.156110 0.360872
Si Si7 0.000000 0.500000 0.000000
Si Si8 0.706846 0.537363 0.424546
O O1 0.348826 0.221914 0.492926
O O2 0.377830 0.491260 0.277020
O O3 0.167169 0.413031 0.403817
O O4 0.898240 0.284863 0.117671
O O5 0.456511 0.533948 0.067822
O O6 0.254242 0.180302 0.162823
O O7 0.091503 0.257427 0.853338
O O8 0.976684 0.380104 0.928578
O O9 0.429354 0.079977 0.807270
O O10 0.383474 0.903426 0.672211
O O11 0.000000 0.000000 0.500000
O O12 0.332170 0.093776 0.935908
O O13 0.146494 0.291596 0.648366
O O14 0.701554 0.359396 0.436015
O O15 0.500000 0.000000 0.500000
#
# Coordination Sequence:
#
# PCOD9107689 Si02
#       8
#     2   2   2   1   2   2   1   2
#     4  11  23  41  66  98 135 175 232 282 341 414
#     4  10  22  38  66  94 130 178 226 269 347 409
#     4  12  27  44  70 104 138 181 229 287 348 416
#     4  12  24  44  70  98 146 178 224 290 354 408
#     4  10  20  40  65  92 123 182 224 270 342 408
#     4  11  20  43  66  94 135 181 222 280 349 411
#     4  12  22  40  64 100 132 170 224 288 334 406
#     4  10  21  41  66  94 125 182 229 269 340 418
#
# _framework density 30.025539999999999
#
# number of rings (size 3 to 8) (size 9 to 14) (size 15 to 20)
#    0.000    1.143    7.143    0.000    2.000    0.000 
#    2.571    1.429    0.000    3.429    0.000    0.000 
#    0.000    0.000    0.000    0.000    0.000    0.000 
#
# Total GULP energy -78041.016254 kJ/mol
# GULP energy per Si atom -5574.358304 kJ/mol
# Density = 2.995720 g / cm^3
# Si number density = 30.025540 Si / 1000 Ang^3
#
#
#
# Elastic Constant Matrix: (Units=GPa)
#
#
# Indices 1 2 3 4 5 6 
#
# 1 215.7825 72.8254 72.0235 1.5333 -13.8532 -81.3985
# 2 72.8254 155.7070 75.1048 -27.2595 -7.5229 -64.7057
# 3 72.0235 75.1048 218.6503 -3.2637 -33.6830 -45.8304
# 4 1.5333 -27.2595 -3.2637 68.2472 -10.5713 -2.9766
# 5 -13.8532 -7.5229 -33.6830 -10.5713 56.4574 8.4631
# 6 -81.3985 -64.7057 -45.8304 -2.9766 8.4631 86.2490
#
#
#
# Elastic Compliance Matrix: (Units=1/GPa)
#
#
# Indices 1 2 3 4 5 6 
#
# 1 0.007446 -0.000473 -0.000968 -0.000096 0.000249 0.006130
# 2 -0.000473 0.011563 -0.002247 0.004822 -0.000094 0.007210
# 3 -0.000968 -0.002247 0.006225 -0.000080 0.003102 0.000401
# 4 -0.000096 0.004822 -0.000080 0.017242 0.003236 0.003761
# 5 0.000249 -0.000094 0.003102 0.003236 0.020226 -0.000060
# 6 0.006130 0.007210 0.000401 0.003761 -0.000060 0.023138
#
#
# Mechanical properties :
#
#
# Convention : Reuss Voigt Hill
#
# Bulk Modulus (GPa) = 55.99907 114.44968 85.22438
# Shear Modulus (GPa) = 50.41783 66.86979 58.64381
#
# Velocity S-wave (km/s) = 4.10221 4.72433 4.42422
# Velocity P-wave (km/s) = 6.41315 8.24374 7.38538
#
# Compressibility (1/GPa) = 0.01785744
#
# Stress axis : x y z
#
# Youngs Moduli (GPa) = 134.29327 86.47991 160.63994
#
# Poissons Ratio (x) = 0.04089 0.15558
# Poissons Ratio (y) = 0.06350 0.36102
# Poissons Ratio (z) = 0.13006 0.19435
#
# Static dielectric constant tensor:
#      x y z
#    x 2.456720 0.223890 -0.287390 
#    y 0.223890 2.235600 -0.090350 
#    z -0.287390 -0.090350 1.612760 
# 
# From -- ./inp_files/381538.got.cif
#   From: 2010.05.17/outbox.cif.g08.bks.cpg/sg2_191_cif.got.tgz:381538.got - 2010.06.03 11:33:40.
