data_PCOD9107386
_publ_section_title
;
Structure prediction by ZEFSAII (Michael W. Deem and Ramdas Pophale) SiO2 
 PCOD9107386
Probable space group: P -1
;
_chemical_formula_sum "Si O2"
_cell_formula_units_Z 16
_cell_length_a 12.495200
_cell_length_b 7.825969
_cell_length_c 17.164454
_cell_angle_alpha 33.875211
_cell_angle_beta 132.286833
_cell_angle_gamma 130.236392
_cell_volume 676.413322
_symmetry_space_group_name_H-M "P -1"
_symmetry_group_IT_number 2
_symmetry_cell_setting 'triclinic'
loop_
_space_group_symop_operation_xyz
x,y,z
-x,-y,-z
loop_
_atom_site_type_symbol
_atom_site_label
_atom_site_fract_x
_atom_site_fract_y
_atom_site_fract_z
Si Si1 0.133297 0.788162 0.603830
Si Si2 0.480952 0.606641 0.538246
Si Si3 0.785384 0.872792 0.633391
Si Si4 0.822448 0.429543 0.946158
Si Si5 0.578447 0.074530 0.209413
Si Si6 0.727675 0.719762 0.228385
Si Si7 0.420465 0.442825 0.112985
Si Si8 0.170299 0.541406 0.466989
O O1 0.253251 0.894869 0.688984
O O2 0.196741 0.507870 0.700993
O O3 0.960472 0.637894 0.583669
O O4 0.144129 0.060932 0.441588
O O5 0.500000 0.500000 0.500000
O O6 0.613239 0.876164 0.531330
O O7 0.320818 0.675540 0.444530
O O8 0.481393 0.283832 0.705513
O O9 0.785389 0.549108 0.797897
O O10 0.864922 0.157092 0.619551
O O11 0.735327 0.612171 0.896285
O O12 0.000000 0.500000 0.000000
O O13 0.766876 0.068757 0.080729
O O14 0.477735 0.176160 0.191255
O O15 0.581193 0.296064 0.053116
O O16 0.552314 0.583150 0.184358
O O17 0.791861 0.678177 0.361175
#
# Coordination Sequence:
#
# PCOD9107386 Si02
#       8
#     2   2   2   2   2   2   2   2
#     4  10  21  42  65  93 125 168 208 257 314 383
#     4  12  24  39  60  94 127 161 209 258 316 375
#     4  11  23  41  65  95 128 160 208 272 318 363
#     4  12  23  37  62  97 126 156 214 272 317 361
#     4  10  22  42  64  90 131 170 216 245 319 396
#     4  10  20  40  64  89 119 165 220 250 305 378
#     4  10  22  40  66  86 123 176 210 255 309 387
#     4  11  23  40  67  93 125 168 211 261 316 370
#
# _framework density 23.654178000000002
#
# number of rings (size 3 to 8) (size 9 to 14) (size 15 to 20)
#    0.000    1.250    1.250    6.000    1.750    0.500 
#    2.250    0.000    0.000    3.750    0.000    0.000 
#    0.000    0.000    0.000    0.000    0.000    0.000 
#
# Total GULP energy -89450.523023 kJ/mol
# GULP energy per Si atom -5590.657689 kJ/mol
# Density = 2.360034 g / cm^3
# Si number density = 23.654178 Si / 1000 Ang^3
#
#
#
# Elastic Constant Matrix: (Units=GPa)
#
#
# Indices 1 2 3 4 5 6 
#
# 1 126.3507 45.0233 11.7677 11.2629 18.6426 11.5843
# 2 45.0233 115.7305 16.9437 14.2495 3.6458 21.3038
# 3 11.7677 16.9437 105.4634 -3.6104 2.4781 -9.9205
# 4 11.2629 14.2495 -3.6104 36.3101 6.0751 9.1393
# 5 18.6426 3.6458 2.4781 6.0751 16.6968 8.4303
# 6 11.5843 21.3038 -9.9205 9.1393 8.4303 43.6249
#
#
#
# Elastic Compliance Matrix: (Units=1/GPa)
#
#
# Indices 1 2 3 4 5 6 
#
# 1 0.011075 -0.004146 -0.000157 -0.000157 -0.012096 0.001419
# 2 -0.004146 0.011835 -0.002243 -0.003211 0.006457 -0.005763
# 3 -0.000157 -0.002243 0.010351 0.001561 -0.003365 0.003814
# 4 -0.000157 -0.003211 0.001561 0.031265 -0.009326 -0.002783
# 5 -0.012096 0.006457 -0.003365 -0.009326 0.083387 -0.014866
# 6 0.001419 -0.005763 0.003814 -0.002783 -0.014866 0.029684
#
#
# Mechanical properties :
#
#
# Convention : Reuss Voigt Hill
#
# Bulk Modulus (GPa) = 49.58115 55.00157 52.29136
# Shear Modulus (GPa) = 25.32762 37.58035 31.45398
#
# Velocity S-wave (km/s) = 3.27578 3.99022 3.65052
# Velocity P-wave (km/s) = 5.94255 6.67323 6.31846
#
# Compressibility (1/GPa) = 0.02016895
#
# Stress axis : x y z
#
# Youngs Moduli (GPa) = 90.29034 84.49454 96.60841
#
# Poissons Ratio (x) = 0.35035 0.01520
# Poissons Ratio (y) = 0.37438 0.21665
# Poissons Ratio (z) = 0.01421 0.18948
#
# Static dielectric constant tensor:
#      x y z
#    x 1.962360 0.000210 0.031460 
#    y 0.000210 1.869470 -0.013450 
#    z 0.031460 -0.013450 1.914450 
# 
# From -- ./inp_files/566385.got.cif
#   From: 2010.05.17/outbox.cif.g08.bks.cpg/sg2_284_cif.got.tgz:566385.got - 2010.06.03 11:33:40.
