data_PCOD9107056
_publ_section_title
;
Structure prediction by ZEFSAII (Michael W. Deem and Ramdas Pophale) SiO2 
 PCOD9107056
Probable space group: P -1
;
_chemical_formula_sum "Si O2"
_cell_formula_units_Z 16
_cell_length_a 11.884469
_cell_length_b 12.131347
_cell_length_c 12.484255
_cell_angle_alpha 143.917350
_cell_angle_beta 103.804495
_cell_angle_gamma 103.696981
_cell_volume 679.545071
_symmetry_space_group_name_H-M "P -1"
_symmetry_group_IT_number 2
_symmetry_cell_setting 'triclinic'
loop_
_space_group_symop_operation_xyz
x,y,z
-x,-y,-z
loop_
_atom_site_type_symbol
_atom_site_label
_atom_site_fract_x
_atom_site_fract_y
_atom_site_fract_z
Si Si1 0.001085 0.646178 0.445586
Si Si2 0.246514 0.663935 0.192083
Si Si3 0.064708 0.342734 0.321775
Si Si4 0.371863 0.838840 0.126223
Si Si5 0.704481 0.719909 0.750841
Si Si6 0.117918 0.881237 0.431464
Si Si7 0.388922 0.431331 0.817650
Si Si8 0.419145 0.579094 0.313910
O O1 0.938324 0.667224 0.557470
O O2 0.103479 0.589906 0.471002
O O3 0.102092 0.872891 0.549745
O O4 0.821236 0.365688 0.125154
O O5 0.369685 0.842713 0.258285
O O6 0.234613 0.839214 0.395756
O O7 0.299345 0.552769 0.187405
O O8 0.063122 0.391136 0.880276
O O9 0.207129 0.366746 0.334696
O O10 0.861766 0.050831 0.013767
O O11 0.494759 0.163261 0.383756
O O12 0.420340 0.683447 0.990518
O O13 0.500000 0.500000 0.500000
O O14 0.692888 0.699860 0.861027
O O15 0.195177 0.154868 0.602565
O O16 0.435989 0.356520 0.670238
O O17 0.500000 0.500000 0.000000
#
# Coordination Sequence:
#
# PCOD9107056 Si02
#       8
#     2   2   2   2   2   2   2   2
#     4  10  23  44  71  98 135 180 227 290 349 402
#     4  10  20  40  62  94 137 179 218 266 339 417
#     4  10  24  49  70 101 137 174 241 294 339 415
#     4  11  23  41  65 100 140 182 222 277 344 415
#     4  11  26  47  73 102 133 184 235 288 354 408
#     4  10  22  39  66  98 134 182 220 268 348 410
#     4  12  25  39  65 103 140 175 231 276 333 430
#     4  12  24  44  67  96 141 180 219 285 350 404
#
# _framework density 23.545165000000001
#
# number of rings (size 3 to 8) (size 9 to 14) (size 15 to 20)
#    0.000    1.250    2.500    2.625    3.500    3.000 
#    4.500    3.125    0.000    0.000    0.000    0.000 
#    0.000    0.000    0.000    0.000    0.000    0.000 
#
# Total GULP energy -89399.991789 kJ/mol
# GULP energy per Si atom -5587.499487 kJ/mol
# Density = 2.349157 g / cm^3
# Si number density = 23.545165 Si / 1000 Ang^3
#
#
#
# Elastic Constant Matrix: (Units=GPa)
#
#
# Indices 1 2 3 4 5 6 
#
# 1 102.6761 47.7102 24.4530 1.7641 -4.8424 4.8447
# 2 47.7102 103.2417 17.4270 -2.1046 1.7922 10.6099
# 3 24.4530 17.4270 68.2437 0.8280 3.8483 7.7230
# 4 1.7641 -2.1046 0.8280 38.3140 -3.2822 -2.2471
# 5 -4.8424 1.7922 3.8483 -3.2822 35.4158 -0.7766
# 6 4.8447 10.6099 7.7230 -2.2471 -0.7766 25.7972
#
#
#
# Elastic Compliance Matrix: (Units=1/GPa)
#
#
# Indices 1 2 3 4 5 6 
#
# 1 0.013319 -0.005706 -0.003553 -0.000584 0.002462 0.000932
# 2 -0.005706 0.012893 -0.000725 0.000634 -0.001383 -0.004001
# 3 -0.003553 -0.000725 0.016729 -0.000690 -0.002422 -0.004176
# 4 -0.000584 0.000634 -0.000690 0.026532 0.002475 0.002441
# 5 0.002462 -0.001383 -0.002422 0.002475 0.029177 0.001925
# 6 0.000932 -0.004001 -0.004176 0.002441 0.001925 0.041755
#
#
# Mechanical properties :
#
#
# Convention : Reuss Voigt Hill
#
# Bulk Modulus (GPa) = 43.52653 50.37132 46.94892
# Shear Modulus (GPa) = 29.75657 32.21017 30.98337
#
# Velocity S-wave (km/s) = 3.55886 3.70268 3.63149
# Velocity P-wave (km/s) = 5.95096 6.30236 6.12918
#
# Compressibility (1/GPa) = 0.02297450
#
# Stress axis : x y z
#
# Youngs Moduli (GPa) = 75.08143 77.56060 59.77631
#
# Poissons Ratio (x) = 0.44254 0.21236
# Poissons Ratio (y) = 0.42839 0.04334
# Poissons Ratio (z) = 0.26674 0.05623
#
# Static dielectric constant tensor:
#      x y z
#    x 1.907520 -0.012700 0.005160 
#    y -0.012700 1.915760 0.062610 
#    z 0.005160 0.062610 1.986920 
# 
# From -- ./inp_files/429097.got.cif
#   From: 2010.05.17/outbox.cif.g08.bks.cpg/sg2_215_cif.got.tgz:429097.got - 2010.06.03 11:33:40.
