data_PCOD9107973
_publ_section_title
;
Structure prediction by ZEFSAII (Michael W. Deem and Ramdas Pophale) SiO2 
 PCOD9107973
Probable space group: P -1
;
_chemical_formula_sum "Si O2"
_cell_formula_units_Z 14
_cell_length_a 16.688706
_cell_length_b 21.114821
_cell_length_c 11.020283
_cell_angle_alpha 28.092166
_cell_angle_beta 31.226867
_cell_angle_gamma 20.477536
_cell_volume 629.957791
_symmetry_space_group_name_H-M "P -1"
_symmetry_group_IT_number 2
_symmetry_cell_setting 'triclinic'
loop_
_space_group_symop_operation_xyz
x,y,z
-x,-y,-z
loop_
_atom_site_type_symbol
_atom_site_label
_atom_site_fract_x
_atom_site_fract_y
_atom_site_fract_z
Si Si1 0.170252 0.236413 0.586697
Si Si2 0.201219 0.350615 0.738496
Si Si3 0.377447 0.882053 0.760341
Si Si4 0.556881 0.498071 0.293005
Si Si5 0.927187 0.820993 0.937826
Si Si6 0.439625 0.763916 0.380902
Si Si7 0.577708 0.292422 0.245551
O O1 0.411053 0.146553 0.475016
O O2 0.053946 0.424424 0.333292
O O3 0.190906 0.091112 0.721359
O O4 0.044082 0.270650 0.815477
O O5 0.344963 0.277492 0.799022
O O6 0.344396 0.355133 0.455388
O O7 0.201021 0.199483 0.951406
O O8 0.308298 0.848803 0.781993
O O9 0.468121 0.701897 0.030134
O O10 0.500000 0.500000 0.500000
O O11 0.442563 0.453209 0.438914
O O12 0.825511 0.312344 0.217607
O O13 0.744852 0.061878 0.771052
O O14 0.303640 0.822988 0.584452
O O15 0.500000 0.500000 0.000000
#
# Coordination Sequence:
#
# PCOD9107973 Si02
#       7
#     2   2   2   2   2   2   2
#     4  11  22  37  70 100 123 172 215 277 316 381
#     4  10  21  39  66  97 125 170 217 262 328 376
#     4  11  21  40  64  98 133 162 226 263 318 390
#     4  12  25  44  63  93 131 176 217 274 323 388
#     4  12  22  43  69  93 131 174 226 258 329 390
#     4  10  24  40  64  96 132 169 212 270 332 388
#     4  10  20  40  66  92 133 172 207 267 325 385
#
# _framework density 22.223711999999999
#
# number of rings (size 3 to 8) (size 9 to 14) (size 15 to 20)
#    0.857    0.286    4.286    3.000    0.000    0.000 
#    2.571    2.143    0.000    0.000    0.000    0.000 
#    0.000    0.000    0.000    0.000    0.000    0.000 
#
# Total GULP energy -77995.140946 kJ/mol
# GULP energy per Si atom -5571.081496 kJ/mol
# Density = 2.217313 g / cm^3
# Si number density = 22.223712 Si / 1000 Ang^3
#
#
#
# Elastic Constant Matrix: (Units=GPa)
#
#
# Indices 1 2 3 4 5 6 
#
# 1 66.2860 10.3748 1.9360 -0.0530 4.7566 24.3160
# 2 10.3748 28.7928 -4.4648 -9.1982 -0.0155 11.2889
# 3 1.9360 -4.4648 49.3195 -10.0986 -6.0175 11.6612
# 4 -0.0530 -9.1982 -10.0986 35.1904 7.3427 1.7969
# 5 4.7566 -0.0155 -6.0175 7.3427 41.2806 -13.3597
# 6 24.3160 11.2889 11.6612 1.7969 -13.3597 38.1036
#
#
#
# Elastic Compliance Matrix: (Units=1/GPa)
#
#
# Indices 1 2 3 4 5 6 
#
# 1 0.022464 0.001337 0.003547 0.004267 -0.009040 -0.019188
# 2 0.001337 0.053162 0.013893 0.021293 -0.010119 -0.025407
# 3 0.003547 0.013893 0.027608 0.013306 -0.004228 -0.016938
# 4 0.004267 0.021293 0.013306 0.041328 -0.012145 -0.019311
# 5 -0.009040 -0.010119 -0.004228 -0.012145 0.034119 0.022596
# 6 -0.019188 -0.025407 -0.016938 -0.019311 0.022596 0.060033
#
#
# Mechanical properties :
#
#
# Convention : Reuss Voigt Hill
#
# Bulk Modulus (GPa) = 7.10290 17.78782 12.44536
# Shear Modulus (GPa) = 20.15394 32.01842 26.08618
#
# Velocity S-wave (km/s) = 3.01469 3.79982 3.42979
# Velocity P-wave (km/s) = 3.91418 5.22234 4.61485
#
# Compressibility (1/GPa) = 0.14078752
#
# Stress axis : x y z
#
# Youngs Moduli (GPa) = 44.51527 18.81045 36.22119
#
# Poissons Ratio (x) = -0.02515 -0.12847
# Poissons Ratio (y) = -0.05951 -0.50321
# Poissons Ratio (z) = -0.15789 -0.26133
#
# Static dielectric constant tensor:
#      x y z
#    x 1.862490 0.003850 -0.020030 
#    y 0.003850 1.897310 0.027120 
#    z -0.020030 0.027120 1.810940 
# 
# From -- ./inp_files/467017.got.cif
#   From: 2010.05.17/outbox.cif.g08.bks.cpg/sg2_234_cif.got.tgz:467017.got - 2010.06.03 11:33:40.
