data_PCOD9107242
_publ_section_title
;
Structure prediction by ZEFSAII (Michael W. Deem and Ramdas Pophale) SiO2 
 PCOD9107242
Probable space group: P -1
;
_chemical_formula_sum "Si O2"
_cell_formula_units_Z 16
_cell_length_a 7.742422
_cell_length_b 18.742868
_cell_length_c 10.683614
_cell_angle_alpha 130.246571
_cell_angle_beta 117.407266
_cell_angle_gamma 35.116138
_cell_volume 672.444771
_symmetry_space_group_name_H-M "P -1"
_symmetry_group_IT_number 2
_symmetry_cell_setting 'triclinic'
loop_
_space_group_symop_operation_xyz
x,y,z
-x,-y,-z
loop_
_atom_site_type_symbol
_atom_site_label
_atom_site_fract_x
_atom_site_fract_y
_atom_site_fract_z
Si Si1 0.176614 0.959799 0.751572
Si Si2 0.534492 0.827068 0.971595
Si Si3 0.399309 0.397634 0.312083
Si Si4 0.906522 0.264458 0.956476
Si Si5 0.314499 0.015548 0.348906
Si Si6 0.623908 0.416846 0.776162
Si Si7 0.099346 0.675816 0.512759
Si Si8 0.327292 0.352746 0.500658
O O1 0.487721 0.813602 0.615705
O O2 0.932059 0.966698 0.658172
O O3 0.265242 0.935900 0.902559
O O4 0.023586 0.114952 0.837554
O O5 0.826882 0.767305 0.938156
O O6 0.483481 0.895060 0.162653
O O7 0.598567 0.694814 0.872365
O O8 0.080154 0.571422 0.409736
O O9 0.663814 0.376633 0.359742
O O10 0.502438 0.321826 0.395153
O O11 0.846635 0.317539 0.853416
O O12 0.590560 0.413636 0.083641
O O13 0.166435 0.153978 0.377419
O O14 0.500000 0.000000 0.500000
O O15 0.799994 0.360808 0.641112
O O16 0.417701 0.398789 0.681883
O O17 0.000000 0.500000 0.500000
#
# Coordination Sequence:
#
# PCOD9107242 Si02
#       8
#     2   2   2   2   2   2   2   2
#     4  11  24  44  67  97 132 174 229 269 333 395
#     4  11  23  42  68  97 132 168 226 273 329 398
#     4   9  20  37  66  94 125 164 221 267 326 382
#     4  11  25  41  66  97 131 178 220 276 339 390
#     4  12  25  44  63  97 139 173 217 273 332 402
#     4  10  21  42  61  87 138 167 220 273 325 388
#     4  10  20  40  63  94 125 174 216 271 327 388
#     4  10  20  40  67  93 130 169 224 274 325 394
#
# _framework density 23.793776000000001
#
# number of rings (size 3 to 8) (size 9 to 14) (size 15 to 20)
#    0.000    1.500    3.750    3.000    1.750    3.500 
#    6.750    1.250    0.000    0.000    0.000    0.000 
#    0.000    0.000    0.000    0.000    0.000    0.000 
#
# Total GULP energy -89141.422849 kJ/mol
# GULP energy per Si atom -5571.338928 kJ/mol
# Density = 2.373962 g / cm^3
# Si number density = 23.793776 Si / 1000 Ang^3
#
#
#
# Elastic Constant Matrix: (Units=GPa)
#
#
# Indices 1 2 3 4 5 6 
#
# 1 36.4589 26.2538 13.3092 9.1178 23.8368 9.0471
# 2 26.2538 123.9510 74.7125 27.5487 32.9580 -1.5804
# 3 13.3092 74.7125 152.8642 36.0340 28.2550 3.3402
# 4 9.1178 27.5487 36.0340 62.6898 6.8557 10.4536
# 5 23.8368 32.9580 28.2550 6.8557 36.6140 4.4482
# 6 9.0471 -1.5804 3.3402 10.4536 4.4482 31.5707
#
#
#
# Elastic Compliance Matrix: (Units=1/GPa)
#
#
# Indices 1 2 3 4 5 6 
#
# 1 0.053884 -0.005168 0.004725 -0.002979 -0.032220 -0.010674
# 2 -0.005168 0.014354 -0.004929 -0.002839 -0.005764 0.004473
# 3 0.004725 -0.004929 0.010567 -0.003838 -0.006002 -0.000602
# 4 -0.002979 -0.002839 -0.003838 0.020401 0.004396 -0.006257
# 5 -0.032220 -0.005764 -0.006002 0.004396 0.057279 0.000054
# 6 -0.010674 0.004473 -0.000602 -0.006257 0.000054 0.037086
#
#
# Mechanical properties :
#
#
# Convention : Reuss Voigt Hill
#
# Bulk Modulus (GPa) = 14.69267 60.20277 37.44772
# Shear Modulus (GPa) = 22.02646 39.44146 30.73396
#
# Velocity S-wave (km/s) = 3.04587 4.07583 3.59789
# Velocity P-wave (km/s) = 4.30792 6.89251 5.74738
#
# Compressibility (1/GPa) = 0.06806114
#
# Stress axis : x y z
#
# Youngs Moduli (GPa) = 18.55849 69.66814 94.63803
#
# Poissons Ratio (x) = 0.36006 -0.44720
# Poissons Ratio (y) = 0.09591 0.46643
# Poissons Ratio (z) = -0.08770 0.34337
#
# Static dielectric constant tensor:
#      x y z
#    x 2.263820 -0.044270 0.019570 
#    y -0.044270 1.950960 0.045630 
#    z 0.019570 0.045630 1.950150 
# 
# From -- ./inp_files/405612.got.cif
#   From: 2010.05.17/outbox.cif.g08.bks.cpg/sg2_203_cif.got.tgz:405612.got - 2010.06.03 11:33:40.
