data_PCOD9107245
_publ_section_title
;
Structure prediction by ZEFSAII (Michael W. Deem and Ramdas Pophale) SiO2 
 PCOD9107245
Probable space group: P -1
;
_chemical_formula_sum "Si O2"
_cell_formula_units_Z 16
_cell_length_a 9.403865
_cell_length_b 9.285377
_cell_length_c 21.537621
_cell_angle_alpha 33.931259
_cell_angle_beta 129.394052
_cell_angle_gamma 134.553801
_cell_volume 741.498048
_symmetry_space_group_name_H-M "P -1"
_symmetry_group_IT_number 2
_symmetry_cell_setting 'triclinic'
loop_
_space_group_symop_operation_xyz
x,y,z
-x,-y,-z
loop_
_atom_site_type_symbol
_atom_site_label
_atom_site_fract_x
_atom_site_fract_y
_atom_site_fract_z
Si Si1 0.294117 0.359326 0.078084
Si Si2 0.852808 0.147591 0.429130
Si Si3 0.251462 0.436973 0.895128
Si Si4 0.051327 0.201192 0.803891
Si Si5 0.346012 0.947862 0.918747
Si Si6 0.437789 0.761833 0.391417
Si Si7 0.097919 0.376226 0.521956
Si Si8 0.371391 0.049373 0.747585
O O1 0.533014 0.470108 0.112816
O O2 0.266149 0.332621 0.005476
O O3 0.236855 0.607929 0.000320
O O4 0.160719 0.056178 0.177351
O O5 0.918947 0.477150 0.313258
O O6 0.901912 0.151044 0.513694
O O7 0.626719 0.994858 0.396458
O O8 0.000000 0.000000 0.500000
O O9 0.097735 0.214732 0.885825
O O10 0.232882 0.731840 0.799009
O O11 0.207439 0.110902 0.841246
O O12 0.433153 0.044189 0.838363
O O13 0.500000 0.000000 0.000000
O O14 0.500000 0.500000 0.500000
O O15 0.238543 0.629249 0.424962
O O16 0.449339 0.843080 0.292297
O O17 0.239946 0.232069 0.639059
O O18 0.000000 0.500000 0.500000
#
# Coordination Sequence:
#
# PCOD9107245 Si02
#       8
#     2   2   2   2   2   2   2   2
#     4  10  23  39  66  92 132 177 228 280 343 402
#     4  12  23  41  70 103 136 181 234 276 339 421
#     4  10  20  40  63  94 129 172 231 279 332 412
#     4  12  23  38  67  97 134 177 224 280 347 402
#     4  11  23  44  66  96 142 180 224 290 343 406
#     4  10  21  41  71  95 138 183 228 281 336 411
#     4  11  24  43  68 102 143 175 226 290 344 407
#     4  10  21  42  68  94 137 184 226 278 346 406
#
# _framework density 21.577939000000001
#
# number of rings (size 3 to 8) (size 9 to 14) (size 15 to 20)
#    0.000    1.250    5.000    1.500    1.750    0.500 
#    0.000    0.000   13.750    0.000    0.000    0.000 
#    0.000    0.000    0.000    0.000    0.000    0.000 
#
# Total GULP energy -89162.543183 kJ/mol
# GULP energy per Si atom -5572.658949 kJ/mol
# Density = 2.152883 g / cm^3
# Si number density = 21.577939 Si / 1000 Ang^3
#
#
#
# Elastic Constant Matrix: (Units=GPa)
#
#
# Indices 1 2 3 4 5 6 
#
# 1 135.9605 44.3327 43.4594 -5.3598 4.1722 -19.0367
# 2 44.3327 119.0610 31.5653 -1.2730 -8.6835 -7.3404
# 3 43.4594 31.5653 102.7613 -12.8493 0.7490 1.3066
# 4 -5.3598 -1.2730 -12.8493 45.8191 -9.3822 -3.6946
# 5 4.1722 -8.6835 0.7490 -9.3822 30.0076 -3.6112
# 6 -19.0367 -7.3404 1.3066 -3.6946 -3.6112 41.8215
#
#
#
# Elastic Compliance Matrix: (Units=1/GPa)
#
#
# Indices 1 2 3 4 5 6 
#
# 1 0.009928 -0.002655 -0.003405 0.000145 -0.001532 0.004040
# 2 -0.002655 0.010251 -0.002038 0.000213 0.003571 0.000982
# 3 -0.003405 -0.002038 0.012177 0.002844 0.000226 -0.002017
# 4 0.000145 0.000213 0.002844 0.024510 0.007979 0.002869
# 5 -0.001532 0.003571 0.000226 0.007979 0.037526 0.003868
# 6 0.004040 0.000982 -0.002017 0.002869 0.003868 0.026573
#
#
# Mechanical properties :
#
#
# Convention : Reuss Voigt Hill
#
# Bulk Modulus (GPa) = 61.88224 66.27751 64.07987
# Shear Modulus (GPa) = 35.07608 39.42466 37.25037
#
# Velocity S-wave (km/s) = 4.03619 4.27907 4.15941
# Velocity P-wave (km/s) = 7.10365 7.42941 7.26835
#
# Compressibility (1/GPa) = 0.01615973
#
# Stress axis : x y z
#
# Youngs Moduli (GPa) = 100.72965 97.54982 82.12267
#
# Poissons Ratio (x) = 0.25899 0.27964
# Poissons Ratio (y) = 0.26743 0.16736
# Poissons Ratio (z) = 0.34300 0.19880
#
# Static dielectric constant tensor:
#      x y z
#    x 1.752080 0.041670 0.039670 
#    y 0.041670 1.758000 0.057990 
#    z 0.039670 0.057990 1.895510 
# 
# From -- ./inp_files/587775.got.cif
#   From: 2010.05.17/outbox.cif.g08.bks.cpg/sg2_294_cif.got.tgz:587775.got - 2010.06.03 11:33:40.
