data_PCOD9107570
_publ_section_title
;
Structure prediction by ZEFSAII (Michael W. Deem and Ramdas Pophale) SiO2 
 PCOD9107570
Probable space group: P -1
;
_chemical_formula_sum "Si O2"
_cell_formula_units_Z 16
_cell_length_a 14.811539
_cell_length_b 8.776954
_cell_length_c 13.837662
_cell_angle_alpha 43.018780
_cell_angle_beta 42.901059
_cell_angle_gamma 42.667961
_cell_volume 754.253766
_symmetry_space_group_name_H-M "P -1"
_symmetry_group_IT_number 2
_symmetry_cell_setting 'triclinic'
loop_
_space_group_symop_operation_xyz
x,y,z
-x,-y,-z
loop_
_atom_site_type_symbol
_atom_site_label
_atom_site_fract_x
_atom_site_fract_y
_atom_site_fract_z
Si Si1 0.962776 0.627060 0.867643
Si Si2 0.362218 0.109561 0.630666
Si Si3 0.194677 0.373346 0.290925
Si Si4 0.322699 0.605195 0.361984
Si Si5 0.040249 0.214292 0.828178
Si Si6 0.660361 0.911070 0.873532
Si Si7 0.469687 0.353533 0.179427
Si Si8 0.998979 0.919984 0.426580
O O1 0.015932 0.423704 0.833432
O O2 0.788998 0.790679 0.907805
O O3 0.029670 0.827653 0.721322
O O4 0.000000 0.500000 0.000000
O O5 0.333303 0.395519 0.526368
O O6 0.210238 0.111473 0.712682
O O7 0.500000 0.000000 0.500000
O O8 0.410319 0.928193 0.769319
O O9 0.068605 0.643884 0.239851
O O10 0.293392 0.285434 0.157149
O O11 0.313363 0.347664 0.288774
O O12 0.111981 0.199295 0.450919
O O13 0.448850 0.494059 0.232865
O O14 0.164937 0.710833 0.383245
O O15 0.331452 0.843979 0.288293
O O16 0.000000 0.000000 0.000000
O O17 0.500000 0.000000 0.000000
O O18 0.500000 0.500000 0.000000
O O19 0.000000 0.000000 0.500000
#
# Coordination Sequence:
#
# PCOD9107570 Si02
#       8
#     2   2   2   2   2   2   2   2
#     4  10  23  40  61  92 122 157 201 257 306 356
#     4  10  22  41  60  89 126 164 200 251 316 361
#     4  11  22  39  64  93 117 165 208 248 303 369
#     4  10  20  40  65  82 119 168 197 248 306 363
#     4  11  22  39  67  90 123 165 210 251 305 373
#     4  10  21  38  64  88 119 161 204 246 309 369
#     4  11  24  40  59  92 131 156 199 256 311 363
#     4  11  18  41  67  85 119 161 209 247 296 365
#
# _framework density 21.213021999999999
#
# number of rings (size 3 to 8) (size 9 to 14) (size 15 to 20)
#    0.000    1.500    5.000    1.500    0.000    8.500 
#    6.750    0.625    0.000    0.000    0.000    0.000 
#    0.000    0.000    0.000    0.000    0.000    0.000 
#
# Total GULP energy -89305.085268 kJ/mol
# GULP energy per Si atom -5581.567829 kJ/mol
# Density = 2.116474 g / cm^3
# Si number density = 21.213022 Si / 1000 Ang^3
#
#
#
# Elastic Constant Matrix: (Units=GPa)
#
#
# Indices 1 2 3 4 5 6 
#
# 1 36.4662 19.5632 6.2488 -13.3095 -7.5361 -14.5080
# 2 19.5632 91.7387 45.3210 -11.3173 -7.1126 -23.7102
# 3 6.2488 45.3210 124.8858 -27.0457 -8.5746 -19.9394
# 4 -13.3095 -11.3173 -27.0457 51.5840 -12.1974 4.1550
# 5 -7.5361 -7.1126 -8.5746 -12.1974 43.3868 0.3905
# 6 -14.5080 -23.7102 -19.9394 4.1550 0.3905 21.9329
#
#
#
# Elastic Compliance Matrix: (Units=1/GPa)
#
#
# Indices 1 2 3 4 5 6 
#
# 1 0.051066 -0.002876 0.009025 0.017968 0.014916 0.035204
# 2 -0.002876 0.016827 -0.003752 0.000304 0.001488 0.012792
# 3 0.009025 -0.003752 0.013172 0.008839 0.005932 0.012108
# 4 0.017968 0.000304 0.008839 0.030757 0.013437 0.014183
# 5 0.014916 0.001488 0.005932 0.013437 0.030709 0.013775
# 6 0.035204 0.012792 0.012108 0.014183 0.013775 0.090785
#
#
# Mechanical properties :
#
#
# Convention : Reuss Voigt Hill
#
# Bulk Modulus (GPa) = 11.64730 43.92851 27.78791
# Shear Modulus (GPa) = 19.44449 35.51124 27.47787
#
# Velocity S-wave (km/s) = 3.03087 4.09593 3.60297
# Velocity P-wave (km/s) = 4.21317 6.56674 5.51692
#
# Compressibility (1/GPa) = 0.08585680
#
# Stress axis : x y z
#
# Youngs Moduli (GPa) = 19.58257 59.42990 75.91854
#
# Poissons Ratio (x) = 0.17095 -0.68515
# Poissons Ratio (y) = 0.05633 0.28486
# Poissons Ratio (z) = -0.17673 0.22299
#
# Static dielectric constant tensor:
#      x y z
#    x 1.753030 0.007220 0.000260 
#    y 0.007220 1.773050 0.022480 
#    z 0.000260 0.022480 1.820760 
# 
# From -- ./inp_files/258229.got.cif
#   From: 2010.05.17/outbox.cif.g08.bks.cpg/sg2_130_cif.got.tgz:258229.got - 2010.06.03 11:33:40.
