data_PCOD9107600
_publ_section_title
;
Structure prediction by ZEFSAII (Michael W. Deem and Ramdas Pophale) SiO2 
 PCOD9107600
Probable space group: P -1
;
_chemical_formula_sum "Si O2"
_cell_formula_units_Z 12
_cell_length_a 17.819254
_cell_length_b 5.356715
_cell_length_c 20.884324
_cell_angle_alpha 73.011242
_cell_angle_beta 18.096903
_cell_angle_gamma 63.223482
_cell_volume 481.731081
_symmetry_space_group_name_H-M "P -1"
_symmetry_group_IT_number 2
_symmetry_cell_setting 'triclinic'
loop_
_space_group_symop_operation_xyz
x,y,z
-x,-y,-z
loop_
_atom_site_type_symbol
_atom_site_label
_atom_site_fract_x
_atom_site_fract_y
_atom_site_fract_z
Si Si1 0.779753 0.198274 0.763664
Si Si2 0.265821 0.244306 0.617797
Si Si3 0.415755 0.917667 0.301080
Si Si4 0.265893 0.235320 0.267040
Si Si5 0.154356 0.765976 0.748326
Si Si6 0.378581 0.783994 0.787804
O O1 0.866133 0.394794 0.629475
O O2 0.822700 0.920679 0.703106
O O3 0.499226 0.275279 0.029455
O O4 0.069267 0.056128 0.584168
O O5 0.065377 0.589426 0.787171
O O6 0.452458 0.252353 0.410105
O O7 0.500000 0.000000 0.500000
O O8 0.112632 0.078336 0.729339
O O9 0.589551 0.543052 0.203378
O O10 0.440930 0.984755 0.201304
O O11 0.485986 0.125531 0.271661
O O12 0.500000 0.500000 0.500000
O O13 0.962292 0.903044 0.958077
#
# Coordination Sequence:
#
# PCOD9107600 Si02
#       6
#     2   2   2   2   2   2
#     4  11  22  41  65  98 127 178 227 269 323 405
#     4  10  23  43  68  97 129 172 227 273 332 416
#     4  11  23  42  64  94 134 174 216 273 342 382
#     4  10  20  40  65  87 128 176 227 258 320 421
#     4  10  23  43  67  96 126 172 227 265 338 412
#     4  12  24  43  65 100 140 172 220 290 339 382
#
# _framework density 24.910164000000002
#
# number of rings (size 3 to 8) (size 9 to 14) (size 15 to 20)
#    0.000    1.333    0.000    7.500    0.000    5.333 
#   18.000    0.000    0.000    0.000    0.000    0.000 
#    0.000    0.000    0.000    0.000    0.000    0.000 
#
# Total GULP energy -66888.419538 kJ/mol
# GULP energy per Si atom -5574.034961 kJ/mol
# Density = 2.485347 g / cm^3
# Si number density = 24.910164 Si / 1000 Ang^3
#
#
#
# Elastic Constant Matrix: (Units=GPa)
#
#
# Indices 1 2 3 4 5 6 
#
# 1 84.2160 43.3909 28.4027 -4.1946 24.3761 23.0650
# 2 43.3909 190.1074 39.9012 -30.9026 20.9957 39.8103
# 3 28.4027 39.9012 140.8459 26.0742 32.5192 44.7535
# 4 -4.1946 -30.9026 26.0742 43.3257 22.4326 -4.7631
# 5 24.3761 20.9957 32.5192 22.4326 53.0612 -0.4358
# 6 23.0650 39.8103 44.7535 -4.7631 -0.4358 42.8789
#
#
#
# Elastic Compliance Matrix: (Units=1/GPa)
#
#
# Indices 1 2 3 4 5 6 
#
# 1 0.017951 0.000084 0.001323 0.005877 -0.011662 -0.010580
# 2 0.000084 0.009386 -0.000470 0.010265 -0.007863 -0.007209
# 3 0.001323 -0.000470 0.015544 -0.008010 -0.006705 -0.017456
# 4 0.005877 0.010265 -0.008010 0.047143 -0.021778 0.000684
# 5 -0.011662 -0.007863 -0.006705 -0.021778 0.040784 0.018567
# 6 -0.010580 -0.007209 -0.017456 0.000684 0.018567 0.054190
#
#
# Mechanical properties :
#
#
# Convention : Reuss Voigt Hill
#
# Bulk Modulus (GPa) = 22.34440 70.95100 46.64770
# Shear Modulus (GPa) = 25.24717 48.08478 36.66597
#
# Velocity S-wave (km/s) = 3.18705 4.39832 3.84073
# Velocity P-wave (km/s) = 4.74684 7.37144 6.19962
#
# Compressibility (1/GPa) = 0.04475393
#
# Stress axis : x y z
#
# Youngs Moduli (GPa) = 55.70818 106.53837 64.33322
#
# Poissons Ratio (x) = -0.00896 -0.08509
# Poissons Ratio (y) = -0.00468 0.03026
# Poissons Ratio (z) = -0.07369 0.05011
#
# Static dielectric constant tensor:
#      x y z
#    x 2.029670 0.207970 0.269040 
#    y 0.207970 2.275070 0.302390 
#    z 0.269040 0.302390 2.767170 
# 
# From -- ./inp_files/503502.got.cif
#   From: 2010.05.17/outbox.cif.g08.bks.cpg/sg2_252_cif.got.tgz:503502.got - 2010.06.03 11:33:40.
