data_PCOD9107815
_publ_section_title
;
Structure prediction by ZEFSAII (Michael W. Deem and Ramdas Pophale) SiO2 
 PCOD9107815
Probable space group: P -1
;
_chemical_formula_sum "Si O2"
_cell_formula_units_Z 16
_cell_length_a 7.971066
_cell_length_b 8.290348
_cell_length_c 14.952557
_cell_angle_alpha 99.303927
_cell_angle_beta 82.132773
_cell_angle_gamma 43.862197
_cell_volume 627.556107
_symmetry_space_group_name_H-M "P -1"
_symmetry_group_IT_number 2
_symmetry_cell_setting 'triclinic'
loop_
_space_group_symop_operation_xyz
x,y,z
-x,-y,-z
loop_
_atom_site_type_symbol
_atom_site_label
_atom_site_fract_x
_atom_site_fract_y
_atom_site_fract_z
Si Si1 0.544828 0.239575 0.128158
Si Si2 0.177670 0.783983 0.257746
Si Si3 0.261574 0.104844 0.609811
Si Si4 0.562071 0.945250 0.231018
Si Si5 0.034623 0.635344 0.675410
Si Si6 0.145816 0.033111 0.436469
Si Si7 0.981173 0.134114 0.145426
Si Si8 0.077923 0.397582 0.084554
O O1 0.352592 0.497488 0.220133
O O2 0.650525 0.022280 0.165342
O O3 0.784885 0.187913 0.096229
O O4 0.340143 0.305374 0.081042
O O5 0.909139 0.909825 0.328278
O O6 0.279427 0.843263 0.326313
O O7 0.150523 0.878980 0.168258
O O8 0.115608 0.387345 0.640376
O O9 0.311847 0.001149 0.497908
O O10 0.479567 0.971302 0.656150
O O11 0.263188 0.134703 0.243605
O O12 0.810607 0.642298 0.179794
O O13 0.159921 0.668285 0.741855
O O14 0.043471 0.706958 0.581865
O O15 0.000000 0.000000 0.500000
O O16 0.117624 0.175893 0.080559
O O17 0.000000 0.500000 0.000000
#
# Coordination Sequence:
#
# PCOD9107815 Si02
#       8
#     2   2   2   2   2   2   2   2
#     4  12  23  45  73  99 135 179 225 280 338 415
#     4  10  20  40  65  99 139 177 227 273 332 401
#     4  11  19  41  63  97 141 180 234 272 333 397
#     4  12  22  44  72  97 135 183 225 281 346 407
#     4  11  22  40  70  97 137 190 229 278 337 406
#     4   9  22  36  61  99 143 181 233 288 321 390
#     4  11  23  41  73 102 130 183 225 270 350 410
#     4  12  28  49  72 103 135 171 229 289 345 417
#
# _framework density 25.495726999999999
#
# number of rings (size 3 to 8) (size 9 to 14) (size 15 to 20)
#    0.000    1.000    6.250    0.375    3.500    1.500 
#    0.000    5.625    0.000    0.000    0.000    0.000 
#    0.000    0.000    0.000    0.000    0.000    0.000 
#
# Total GULP energy -89243.336829 kJ/mol
# GULP energy per Si atom -5577.708552 kJ/mol
# Density = 2.543770 g / cm^3
# Si number density = 25.495727 Si / 1000 Ang^3
#
#
#
# Elastic Constant Matrix: (Units=GPa)
#
#
# Indices 1 2 3 4 5 6 
#
# 1 153.6505 38.5679 47.9861 -8.9332 24.2430 -8.4457
# 2 38.5679 86.1432 15.1947 -13.8150 3.9565 7.3667
# 3 47.9861 15.1947 99.1916 -34.2137 3.4983 -14.6801
# 4 -8.9332 -13.8150 -34.2137 44.9977 -2.6984 -6.8727
# 5 24.2430 3.9565 3.4983 -2.6984 37.9496 -8.2766
# 6 -8.4457 7.3667 -14.6801 -6.8727 -8.2766 43.3385
#
#
#
# Elastic Compliance Matrix: (Units=1/GPa)
#
#
# Indices 1 2 3 4 5 6 
#
# 1 0.009771 -0.003673 -0.005431 -0.003827 -0.005856 -0.001037
# 2 -0.003673 0.013900 0.000571 0.003677 0.000630 -0.002182
# 3 -0.005431 0.000571 0.018912 0.015052 0.004594 0.008515
# 4 -0.003827 0.003677 0.015052 0.035970 0.005518 0.010486
# 5 -0.005856 0.000630 0.004594 0.005518 0.031568 0.007212
# 6 -0.001037 -0.002182 0.008515 0.010486 0.007212 0.029167
#
#
# Mechanical properties :
#
#
# Convention : Reuss Voigt Hill
#
# Bulk Modulus (GPa) = 39.19174 60.27588 49.73381
# Shear Modulus (GPa) = 30.32893 41.07292 35.70093
#
# Velocity S-wave (km/s) = 3.45275 4.01805 3.74608
# Velocity P-wave (km/s) = 5.59469 6.72452 6.18546
#
# Compressibility (1/GPa) = 0.02551558
#
# Stress axis : x y z
#
# Youngs Moduli (GPa) = 102.34453 71.94485 52.87755
#
# Poissons Ratio (x) = 0.26423 0.28718
# Poissons Ratio (y) = 0.37588 -0.03017
# Poissons Ratio (z) = 0.55585 -0.04105
#
# Static dielectric constant tensor:
#      x y z
#    x 2.148670 -0.023540 -0.011010 
#    y -0.023540 1.981640 0.022860 
#    z -0.011010 0.022860 2.081540 
# 
# From -- ./inp_files/495045.got.cif
#   From: 2010.05.17/outbox.cif.g08.bks.cpg/sg2_248_cif.got.tgz:495045.got - 2010.06.03 11:33:40.
