data_PCOD9107365
_publ_section_title
;
Structure prediction by ZEFSAII (Michael W. Deem and Ramdas Pophale) SiO2 
 PCOD9107365
Probable space group: P -1
;
_chemical_formula_sum "Si O2"
_cell_formula_units_Z 16
_cell_length_a 14.081608
_cell_length_b 19.714395
_cell_length_c 8.327081
_cell_angle_alpha 111.268896
_cell_angle_beta 76.808593
_cell_angle_gamma 159.595062
_cell_volume 705.230521
_symmetry_space_group_name_H-M "P -1"
_symmetry_group_IT_number 2
_symmetry_cell_setting 'triclinic'
loop_
_space_group_symop_operation_xyz
x,y,z
-x,-y,-z
loop_
_atom_site_type_symbol
_atom_site_label
_atom_site_fract_x
_atom_site_fract_y
_atom_site_fract_z
Si Si1 0.271499 0.040870 0.893649
Si Si2 0.132396 0.839408 0.221285
Si Si3 0.817122 0.488067 0.232713
Si Si4 0.102116 0.774206 0.809461
Si Si5 0.493834 0.336868 0.522454
Si Si6 0.829844 0.757532 0.115504
Si Si7 0.330703 0.821396 0.520494
Si Si8 0.924250 0.996088 0.349368
O O1 0.164872 0.013539 0.764437
O O2 0.260566 0.947304 0.791668
O O3 0.590855 0.287422 0.037250
O O4 0.040279 0.892108 0.997707
O O5 0.961995 0.656146 0.223541
O O6 0.951690 0.785963 0.223765
O O7 0.427527 0.060689 0.396270
O O8 0.180556 0.841499 0.023110
O O9 0.631603 0.394370 0.366494
O O10 0.062893 0.611368 0.329337
O O11 0.191982 0.762556 0.681165
O O12 0.759888 0.545893 0.713169
O O13 0.284602 0.138160 0.534792
O O14 0.266814 0.238594 0.465602
O O15 0.852088 0.860224 0.219807
O O16 0.500000 0.500000 0.000000
O O17 0.500000 0.000000 0.500000
#
# Coordination Sequence:
#
# PCOD9107365 Si02
#       8
#     2   2   2   2   2   2   2   2
#     4  11  22  38  62  91 119 160 202 245 299 360
#     4  10  21  39  67  87 119 162 205 243 301 361
#     4  10  20  40  64  88 121 157 201 254 303 347
#     4  10  21  40  62  89 120 156 205 243 303 363
#     4  10  22  39  55  86 124 161 201 247 297 356
#     4  11  22  36  60  91 119 157 207 241 291 362
#     4   9  20  41  64  89 119 158 197 252 304 355
#     4  11  22  39  58  85 129 163 201 244 300 354
#
# _framework density 22.687615000000001
#
# number of rings (size 3 to 8) (size 9 to 14) (size 15 to 20)
#    0.000    1.750    1.250    3.750    1.750    0.500 
#   13.500    5.000    2.750    0.000    0.000    0.000 
#    0.000    0.000    0.000    0.000    0.000    0.000 
#
# Total GULP energy -89391.252893 kJ/mol
# GULP energy per Si atom -5586.953306 kJ/mol
# Density = 2.263598 g / cm^3
# Si number density = 22.687615 Si / 1000 Ang^3
#
#
#
# Elastic Constant Matrix: (Units=GPa)
#
#
# Indices 1 2 3 4 5 6 
#
# 1 83.2830 30.7695 39.6719 10.7946 31.1247 1.5695
# 2 30.7695 86.7654 39.7377 18.3429 24.6501 8.0344
# 3 39.6719 39.7377 92.5691 16.9856 53.1782 8.6256
# 4 10.7946 18.3429 16.9856 26.4271 17.1243 3.7208
# 5 31.1247 24.6501 53.1782 17.1243 47.9608 6.6211
# 6 1.5695 8.0344 8.6256 3.7208 6.6211 20.7498
#
#
#
# Elastic Compliance Matrix: (Units=1/GPa)
#
#
# Indices 1 2 3 4 5 6 
#
# 1 0.016936 -0.003559 -0.001312 0.001598 -0.008711 0.003135
# 2 -0.003559 0.016450 -0.005881 -0.008136 0.003749 -0.003393
# 3 -0.001312 -0.005881 0.032539 0.006037 -0.034177 -0.001327
# 4 0.001598 -0.008136 0.006037 0.053802 -0.022490 -0.001952
# 5 -0.008711 0.003749 -0.034177 -0.022490 0.071231 -0.005282
# 6 0.003135 -0.003393 -0.001327 -0.001952 -0.005282 0.051857
#
#
# Mechanical properties :
#
#
# Convention : Reuss Voigt Hill
#
# Bulk Modulus (GPa) = 22.51137 53.66399 38.08768
# Shear Modulus (GPa) = 17.91312 29.19009 23.55161
#
# Velocity S-wave (km/s) = 2.81295 3.59082 3.22542
# Velocity P-wave (km/s) = 4.52704 6.39506 5.54035
#
# Compressibility (1/GPa) = 0.04442200
#
# Stress axis : x y z
#
# Youngs Moduli (GPa) = 59.04551 60.79069 30.73196
#
# Poissons Ratio (x) = 0.21633 0.04032
# Poissons Ratio (y) = 0.21012 0.18073
# Poissons Ratio (z) = 0.07747 0.35751
#
# Static dielectric constant tensor:
#      x y z
#    x 1.851140 0.029650 -0.029710 
#    y 0.029650 1.832040 0.015240 
#    z -0.029710 0.015240 1.901530 
# 
# From -- ./inp_files/217890.got.cif
#   From: 2010.05.17/outbox.cif.g08.bks.cpg/sg2_109_cif.got.tgz:217890.got - 2010.06.03 11:33:40.
