data_PCOD9107244
_publ_section_title
;
Structure prediction by ZEFSAII (Michael W. Deem and Ramdas Pophale) SiO2 
 PCOD9107244
Probable space group: P -1
;
_chemical_formula_sum "Si O2"
_cell_formula_units_Z 12
_cell_length_a 5.062896
_cell_length_b 8.352306
_cell_length_c 15.707686
_cell_angle_alpha 130.384514
_cell_angle_beta 71.345050
_cell_angle_gamma 90.849059
_cell_volume 462.015944
_symmetry_space_group_name_H-M "P -1"
_symmetry_group_IT_number 2
_symmetry_cell_setting 'triclinic'
loop_
_space_group_symop_operation_xyz
x,y,z
-x,-y,-z
loop_
_atom_site_type_symbol
_atom_site_label
_atom_site_fract_x
_atom_site_fract_y
_atom_site_fract_z
Si Si1 0.056360 0.411706 0.180313
Si Si2 0.291159 0.613394 0.954168
Si Si3 0.564429 0.160104 0.824782
Si Si4 0.066512 0.094877 0.615448
Si Si5 0.244337 0.280116 0.292862
Si Si6 0.298556 0.662003 0.510277
O O1 0.380701 0.402570 0.114612
O O2 0.098217 0.274705 0.215312
O O3 0.904226 0.329515 0.088869
O O4 0.889237 0.663800 0.305695
O O5 0.303437 0.369681 0.902902
O O6 0.255049 0.771469 0.092827
O O7 0.775111 0.123104 0.710107
O O8 0.505520 0.935483 0.784449
O O9 0.319103 0.902701 0.567116
O O10 0.000000 0.000000 0.500000
O O11 0.320245 0.510412 0.372504
O O12 0.010694 0.291886 0.395329
O O13 0.500000 0.500000 0.500000
#
# Coordination Sequence:
#
# PCOD9107244 Si02
#       6
#     2   2   2   2   2   2
#     4  11  24  42  68  95 129 168 213 264 313 380
#     4  10  24  45  65  94 128 171 216 258 316 376
#     4   9  22  42  64  92 127 171 210 266 314 380
#     4  10  20  40  63  94 128 165 211 261 320 378
#     4  10  22  40  60  94 129 165 214 261 322 373
#     4  10  22  38  60  91 130 169 206 259 321 384
#
# _framework density 25.973132
#
# number of rings (size 3 to 8) (size 9 to 14) (size 15 to 20)
#    0.000    2.000    1.667    0.000    4.667    7.333 
#    3.000    4.167    0.000    0.000    0.000    0.000 
#    0.000    0.000    0.000    0.000    0.000    0.000 
#
# Total GULP energy -67154.245555 kJ/mol
# GULP energy per Si atom -5596.187130 kJ/mol
# Density = 2.591402 g / cm^3
# Si number density = 25.973132 Si / 1000 Ang^3
#
#
#
# Elastic Constant Matrix: (Units=GPa)
#
#
# Indices 1 2 3 4 5 6 
#
# 1 87.0127 8.6237 21.7301 -9.8511 9.5207 -10.7003
# 2 8.6237 112.2313 38.7439 6.6268 -1.7933 -18.9231
# 3 21.7301 38.7439 135.8234 -35.5195 13.3496 -4.2774
# 4 -9.8511 6.6268 -35.5195 32.9970 -21.8342 9.5685
# 5 9.5207 -1.7933 13.3496 -21.8342 20.2352 -6.4452
# 6 -10.7003 -18.9231 -4.2774 9.5685 -6.4452 35.6625
#
#
#
# Elastic Compliance Matrix: (Units=1/GPa)
#
#
# Indices 1 2 3 4 5 6 
#
# 1 0.013225 0.001753 -0.004189 -0.012215 -0.014897 0.004981
# 2 0.001753 0.017063 -0.012120 -0.039376 -0.029552 0.013350
# 3 -0.004189 -0.012120 0.021973 0.058849 0.045904 -0.012546
# 4 -0.012215 -0.039376 0.058849 0.270664 0.240633 -0.046633
# 5 -0.014897 -0.029552 0.045904 0.240633 0.273700 -0.029743
# 6 0.004981 0.013350 -0.012546 -0.046633 -0.029743 0.042251
#
#
# Mechanical properties :
#
#
# Convention : Reuss Voigt Hill
#
# Bulk Modulus (GPa) = 43.19997 52.58476 47.89236
# Shear Modulus (GPa) = 7.39968 35.51025 21.45497
#
# Velocity S-wave (km/s) = 1.68972 3.70157 2.87722
# Velocity P-wave (km/s) = 4.52499 6.20956 5.43296
#
# Compressibility (1/GPa) = 0.02314817
#
# Stress axis : x y z
#
# Youngs Moduli (GPa) = 75.61651 58.60529 45.51067
#
# Poissons Ratio (x) = -0.10274 0.19065
# Poissons Ratio (y) = -0.13256 0.55160
# Poissons Ratio (z) = 0.31677 0.71030
#
# Static dielectric constant tensor:
#      x y z
#    x 2.060900 0.010530 -0.014880 
#    y 0.010530 2.097810 0.046900 
#    z -0.014880 0.046900 2.058950 
# 
# From -- ./inp_files/19164.got.cif
#   From: 2010.05.17/outbox.cif.g08.bks.cpg/sg2_10_cif.got.tgz:19164.got - 2010.06.03 11:33:40.
