data_PCOD9107010
_publ_section_title
;
Structure prediction by ZEFSAII (Michael W. Deem and Ramdas Pophale) SiO2 
 PCOD9107010
Probable space group: P -1
;
_chemical_formula_sum "Si O2"
_cell_formula_units_Z 14
_cell_length_a 14.844201
_cell_length_b 14.776947
_cell_length_c 14.596501
_cell_angle_alpha 141.458646
_cell_angle_beta 160.302777
_cell_angle_gamma 47.518232
_cell_volume 643.374222
_symmetry_space_group_name_H-M "P -1"
_symmetry_group_IT_number 2
_symmetry_cell_setting 'triclinic'
loop_
_space_group_symop_operation_xyz
x,y,z
-x,-y,-z
loop_
_atom_site_type_symbol
_atom_site_label
_atom_site_fract_x
_atom_site_fract_y
_atom_site_fract_z
Si Si1 0.145328 0.222708 0.758243
Si Si2 0.005479 0.597481 0.989260
Si Si3 0.753097 0.011592 0.645313
Si Si4 0.940610 0.930948 0.203871
Si Si5 0.561494 0.156997 0.236185
Si Si6 0.495749 0.469259 0.690270
Si Si7 0.678935 0.814152 0.581841
O O1 0.865711 0.238448 0.550264
O O2 0.357472 0.238812 0.057866
O O3 0.317098 0.361344 0.969860
O O4 0.072311 0.059185 0.508630
O O5 0.762997 0.541624 0.635506
O O6 0.009297 0.770660 0.150781
O O7 0.000000 0.500000 0.000000
O O8 0.292285 0.595591 0.216183
O O9 0.505559 0.091186 0.467355
O O10 0.910005 0.000577 0.692705
O O11 0.651637 0.856232 0.483043
O O12 0.999099 0.120916 0.028719
O O13 0.603116 0.890448 0.862022
O O14 0.500000 0.000000 0.000000
O O15 0.409931 0.358468 0.606716
#
# Coordination Sequence:
#
# PCOD9107010 Si02
#       7
#     2   2   2   2   2   2   2
#     4  11  25  39  61  88 127 171 204 245 316 377
#     4  12  26  40  62  92 126 164 213 260 300 367
#     4  10  21  37  66  92 119 155 215 256 309 363
#     4  11  22  42  64  93 122 166 217 258 297 367
#     4  10  22  39  57  85 124 166 206 248 300 369
#     4  12  23  43  60  90 130 167 196 256 331 362
#     4  10  20  40  62  92 121 161 198 262 320 367
#
# _framework density 21.760275
#
# number of rings (size 3 to 8) (size 9 to 14) (size 15 to 20)
#    0.000    1.143    2.857    3.857    0.000    9.143 
#    0.000    0.714    0.000    0.000    0.000   13.000 
#    0.000    0.000    0.000    0.286    0.000    0.000 
#
# Total GULP energy -78036.172379 kJ/mol
# GULP energy per Si atom -5574.012313 kJ/mol
# Density = 2.171075 g / cm^3
# Si number density = 21.760275 Si / 1000 Ang^3
#
#
#
# Elastic Constant Matrix: (Units=GPa)
#
#
# Indices 1 2 3 4 5 6 
#
# 1 116.4346 33.4427 16.6384 3.8131 25.5208 21.2184
# 2 33.4427 89.8169 44.7693 7.0539 11.7084 19.3335
# 3 16.6384 44.7693 102.9115 -3.9203 17.0919 14.9715
# 4 3.8131 7.0539 -3.9203 54.3982 -6.9956 13.9830
# 5 25.5208 11.7084 17.0919 -6.9956 36.2472 10.2788
# 6 21.2184 19.3335 14.9715 13.9830 10.2788 40.7344
#
#
#
# Elastic Compliance Matrix: (Units=1/GPa)
#
#
# Indices 1 2 3 4 5 6 
#
# 1 0.011391 -0.003245 0.001103 -0.000402 -0.006730 -0.002963
# 2 -0.003245 0.016176 -0.006179 -0.001346 0.000685 -0.003427
# 3 0.001103 -0.006179 0.013276 0.001677 -0.004135 -0.002054
# 4 -0.000402 -0.001346 0.001677 0.021871 0.006690 -0.008964
# 5 -0.006730 0.000685 -0.004135 0.006690 0.037336 -0.007018
# 6 -0.002963 -0.003427 -0.002054 -0.008964 -0.007018 0.033322
#
#
# Mechanical properties :
#
#
# Convention : Reuss Voigt Hill
#
# Bulk Modulus (GPa) = 41.31813 55.42930 48.37371
# Shear Modulus (GPa) = 31.62951 40.56347 36.09649
#
# Velocity S-wave (km/s) = 3.81667 4.32221 4.07729
# Velocity P-wave (km/s) = 6.20095 7.10188 6.66665
#
# Compressibility (1/GPa) = 0.02420245
#
# Stress axis : x y z
#
# Youngs Moduli (GPa) = 87.78904 61.82045 75.32331
#
# Poissons Ratio (x) = 0.20059 -0.08310
# Poissons Ratio (y) = 0.28484 0.46541
# Poissons Ratio (z) = -0.09685 0.38198
#
# Static dielectric constant tensor:
#      x y z
#    x 1.831140 0.074090 -0.019390 
#    y 0.074090 1.896450 0.024090 
#    z -0.019390 0.024090 1.980900 
# 
# From -- ./inp_files/533875.got.cif
#   From: 2010.05.17/outbox.cif.g08.bks.cpg/sg2_267_cif.got.tgz:533875.got - 2010.06.03 11:33:40.
