data_PCOD9107254
_publ_section_title
;
Structure prediction by ZEFSAII (Michael W. Deem and Ramdas Pophale) SiO2 
 PCOD9107254
Probable space group: P -1
;
_chemical_formula_sum "Si O2"
_cell_formula_units_Z 14
_cell_length_a 14.429510
_cell_length_b 10.743907
_cell_length_c 9.823245
_cell_angle_alpha 46.776009
_cell_angle_beta 78.051937
_cell_angle_gamma 44.048826
_cell_volume 637.671696
_symmetry_space_group_name_H-M "P -1"
_symmetry_group_IT_number 2
_symmetry_cell_setting 'triclinic'
loop_
_space_group_symop_operation_xyz
x,y,z
-x,-y,-z
loop_
_atom_site_type_symbol
_atom_site_label
_atom_site_fract_x
_atom_site_fract_y
_atom_site_fract_z
Si Si1 0.882959 0.664888 0.779661
Si Si2 0.703333 0.685382 0.284403
Si Si3 0.633897 0.166763 0.047967
Si Si4 0.712293 0.214499 0.271435
Si Si5 0.374217 0.031972 0.179277
Si Si6 0.835732 0.947397 0.916336
Si Si7 0.009201 0.969672 0.356101
O O1 0.818937 0.938989 0.542811
O O2 0.724403 0.796068 0.780878
O O3 0.000000 0.500000 0.000000
O O4 0.006159 0.398161 0.837809
O O5 0.566502 0.759641 0.330862
O O6 0.879730 0.349914 0.486423
O O7 0.678630 0.906071 0.195123
O O8 0.669974 0.763183 0.075012
O O9 0.661333 0.171156 0.193034
O O10 0.447022 0.478751 0.840148
O O11 0.745609 0.121490 0.952525
O O12 0.826571 0.199333 0.196772
O O13 0.298185 0.968296 0.189088
O O14 0.907077 0.991857 0.768901
O O15 0.000000 0.000000 0.500000
#
# Coordination Sequence:
#
# PCOD9107254 Si02
#       7
#     2   2   2   2   2   2   2
#     4  10  20  40  63  95 127 167 210 271 328 379
#     4  10  22  39  65  94 133 173 219 263 327 391
#     4  10  25  47  65  96 125 187 220 263 329 387
#     4  11  25  45  70  89 137 171 225 273 321 396
#     4   9  19  37  61  94 131 164 212 271 320 392
#     4  10  22  38  65  96 133 169 220 264 331 391
#     4  12  25  38  66 105 130 171 215 277 331 385
#
# _framework density 21.954871000000001
#
# number of rings (size 3 to 8) (size 9 to 14) (size 15 to 20)
#    0.000    1.714    0.000    5.143   10.000    3.429 
#    0.000    0.714    0.000    0.000    0.000    0.000 
#    0.000    0.000    0.000    0.000    0.000    0.000 
#
# Total GULP energy -78157.874596 kJ/mol
# GULP energy per Si atom -5582.705328 kJ/mol
# Density = 2.190490 g / cm^3
# Si number density = 21.954871 Si / 1000 Ang^3
#
#
#
# Elastic Constant Matrix: (Units=GPa)
#
#
# Indices 1 2 3 4 5 6 
#
# 1 69.5761 43.7530 26.5841 -7.3329 -15.7853 -23.5968
# 2 43.7530 137.7521 39.5998 -30.6946 -10.4892 -34.2160
# 3 26.5841 39.5998 82.9714 -16.5603 -13.3832 -4.7130
# 4 -7.3329 -30.6946 -16.5603 32.9075 -3.0181 -1.6457
# 5 -15.7853 -10.4892 -13.3832 -3.0181 23.9622 -0.5630
# 6 -23.5968 -34.2160 -4.7130 -1.6457 -0.5630 48.3991
#
#
#
# Elastic Compliance Matrix: (Units=1/GPa)
#
#
# Indices 1 2 3 4 5 6 
#
# 1 0.023865 -0.002529 -0.003073 0.003143 0.013524 0.009812
# 2 -0.002529 0.014041 -0.002086 0.012398 0.005087 0.008971
# 3 -0.003073 -0.002086 0.016317 0.006161 0.006926 -0.001094
# 4 0.003143 0.012398 0.006161 0.047975 0.017281 0.012730
# 5 0.013524 0.005087 0.006926 0.017281 0.059199 0.012141
# 6 0.009812 0.008971 -0.001094 0.012730 0.012141 0.032255
#
#
# Mechanical properties :
#
#
# Convention : Reuss Voigt Hill
#
# Bulk Modulus (GPa) = 25.74248 56.68593 41.21420
# Shear Modulus (GPa) = 22.52486 33.07794 27.80140
#
# Velocity S-wave (km/s) = 3.20654 3.88575 3.56237
# Velocity P-wave (km/s) = 5.04577 6.78288 5.97776
#
# Compressibility (1/GPa) = 0.03884630
#
# Stress axis : x y z
#
# Youngs Moduli (GPa) = 41.90281 71.22196 61.28415
#
# Poissons Ratio (x) = 0.18012 0.18833
# Poissons Ratio (y) = 0.10597 0.12785
# Poissons Ratio (z) = 0.12877 0.14858
#
# Static dielectric constant tensor:
#      x y z
#    x 1.866470 0.001760 -0.018670 
#    y 0.001760 1.869410 -0.017010 
#    z -0.018670 -0.017010 1.845490 
# 
# From -- ./inp_files/450987.got.cif
#   From: 2010.05.17/outbox.cif.g08.bks.cpg/sg2_226_cif.got.tgz:450987.got - 2010.06.03 11:33:40.
