data_PCOD9107429
_publ_section_title
;
Structure prediction by ZEFSAII (Michael W. Deem and Ramdas Pophale) SiO2 
 PCOD9107429
Probable space group: P -1
;
_chemical_formula_sum "Si O2"
_cell_formula_units_Z 16
_cell_length_a 25.826607
_cell_length_b 15.446279
_cell_length_c 13.234100
_cell_angle_alpha 28.383807
_cell_angle_beta 152.236789
_cell_angle_gamma 162.500334
_cell_volume 714.857396
_symmetry_space_group_name_H-M "P -1"
_symmetry_group_IT_number 2
_symmetry_cell_setting 'triclinic'
loop_
_space_group_symop_operation_xyz
x,y,z
-x,-y,-z
loop_
_atom_site_type_symbol
_atom_site_label
_atom_site_fract_x
_atom_site_fract_y
_atom_site_fract_z
Si Si1 0.179317 0.699049 0.392549
Si Si2 0.220636 0.211644 0.824548
Si Si3 0.265634 0.335810 0.157208
Si Si4 0.503940 0.333660 0.317882
Si Si5 0.074862 0.935057 0.426792
Si Si6 0.370569 0.192798 0.814158
Si Si7 0.175600 0.793445 0.061188
Si Si8 0.017144 0.718463 0.251490
O O1 0.072263 0.378552 0.564031
O O2 0.056449 0.705292 0.217900
O O3 0.377669 0.999920 0.470450
O O4 0.202982 0.729816 0.280698
O O5 0.342318 0.506527 0.664216
O O6 0.051595 0.081378 0.721513
O O7 0.151961 0.971339 0.874052
O O8 0.364008 0.295734 0.060283
O O9 0.465152 0.632682 0.156471
O O10 0.226904 0.207060 0.334132
O O11 0.157624 0.385206 0.924676
O O12 0.175266 0.062382 0.209666
O O13 0.590928 0.555961 0.331809
O O14 0.182197 0.954716 0.673096
O O15 0.343286 0.022870 0.036719
O O16 0.000000 0.500000 0.000000
O O17 0.000000 0.500000 0.500000
#
# Coordination Sequence:
#
# PCOD9107429 Si02
#       8
#     2   2   2   2   2   2   2   2
#     4  11  21  40  66  98 133 171 225 279 330 398
#     4   9  21  38  63  91 127 178 224 270 341 388
#     4  11  24  43  70  99 135 179 226 281 338 397
#     4   9  19  39  64  87 129 175 225 277 316 404
#     4  12  24  40  68  98 141 178 220 279 345 402
#     4  11  23  41  67  98 136 179 221 275 342 401
#     4  10  20  40  64  91 133 175 219 277 328 399
#     4  11  23  44  73 100 132 177 232 282 331 403
#
# _framework density 22.382088
#
# number of rings (size 3 to 8) (size 9 to 14) (size 15 to 20)
#    0.000    1.500    3.750    2.625    1.750    2.500 
#    0.000    3.125    0.000    0.000    0.000    0.000 
#    0.000    0.000    0.000    0.000    0.000    0.000 
#
# Total GULP energy -89305.652570 kJ/mol
# GULP energy per Si atom -5581.603286 kJ/mol
# Density = 2.233115 g / cm^3
# Si number density = 22.382088 Si / 1000 Ang^3
#
#
#
# Elastic Constant Matrix: (Units=GPa)
#
#
# Indices 1 2 3 4 5 6 
#
# 1 107.2178 20.4196 23.6294 2.5108 3.2670 35.1447
# 2 20.4196 83.5371 0.4495 -17.6684 5.4576 20.1000
# 3 23.6294 0.4495 54.2916 -11.9529 7.2938 14.5919
# 4 2.5108 -17.6684 -11.9529 22.2161 1.2492 1.9442
# 5 3.2670 5.4576 7.2938 1.2492 31.4742 -3.5486
# 6 35.1447 20.1000 14.5919 1.9442 -3.5486 47.3502
#
#
#
# Elastic Compliance Matrix: (Units=1/GPa)
#
#
# Indices 1 2 3 4 5 6 
#
# 1 0.013443 -0.002844 -0.005255 -0.005990 -0.000227 -0.006922
# 2 -0.002844 0.021115 0.010673 0.024342 -0.008130 -0.011750
# 3 -0.005255 0.010673 0.031529 0.027747 -0.011102 -0.012318
# 4 -0.005990 0.024342 0.027747 0.082507 -0.015444 -0.018983
# 5 -0.000227 -0.008130 -0.011102 -0.015444 0.037574 0.010491
# 6 -0.006922 -0.011750 -0.012318 -0.018983 0.010491 0.036606
#
#
# Mechanical properties :
#
#
# Convention : Reuss Voigt Hill
#
# Bulk Modulus (GPa) = 14.03837 37.11596 25.57717
# Shear Modulus (GPa) = 20.71486 33.57797 27.14641
#
# Velocity S-wave (km/s) = 3.04552 3.87746 3.48640
# Velocity P-wave (km/s) = 4.31888 6.05518 5.25918
#
# Compressibility (1/GPa) = 0.07123336
#
# Stress axis : x y z
#
# Youngs Moduli (GPa) = 74.38955 47.35879 31.71702
#
# Poissons Ratio (x) = 0.13470 0.16668
# Poissons Ratio (y) = 0.21159 -0.33850
# Poissons Ratio (z) = 0.39093 -0.50544
#
# Static dielectric constant tensor:
#      x y z
#    x 1.872210 0.037860 -0.054360 
#    y 0.037860 1.845430 -0.051000 
#    z -0.054360 -0.051000 1.852220 
# 
# From -- ./inp_files/543007.got.cif
#   From: 2010.05.17/outbox.cif.g08.bks.cpg/sg2_272_cif.got.tgz:543007.got - 2010.06.03 11:33:40.
