data_PCOD9107918
_publ_section_title
;
Structure prediction by ZEFSAII (Michael W. Deem and Ramdas Pophale) SiO2 
 PCOD9107918
Probable space group: P -1
;
_chemical_formula_sum "Si O2"
_cell_formula_units_Z 12
_cell_length_a 7.764394
_cell_length_b 13.103086
_cell_length_c 6.488709
_cell_angle_alpha 119.901793
_cell_angle_beta 87.269840
_cell_angle_gamma 117.288898
_cell_volume 494.354002
_symmetry_space_group_name_H-M "P -1"
_symmetry_group_IT_number 2
_symmetry_cell_setting 'triclinic'
loop_
_space_group_symop_operation_xyz
x,y,z
-x,-y,-z
loop_
_atom_site_type_symbol
_atom_site_label
_atom_site_fract_x
_atom_site_fract_y
_atom_site_fract_z
Si Si1 0.006531 0.474945 0.734831
Si Si2 0.385591 0.345310 0.927356
Si Si3 0.258733 0.973374 0.344598
Si Si4 0.342262 0.774392 0.321772
Si Si5 0.135471 0.349890 0.323039
Si Si6 0.943092 0.876832 0.600200
O O1 0.806421 0.325472 0.596232
O O2 0.982887 0.589595 0.734798
O O3 0.184192 0.454235 0.618642
O O4 0.000000 0.500000 0.000000
O O5 0.543214 0.293077 0.861036
O O6 0.208569 0.239551 0.674311
O O7 0.500000 0.500000 0.000000
O O8 0.293582 0.350200 0.156860
O O9 0.244527 0.827777 0.211177
O O10 0.151347 0.966873 0.562709
O O11 0.487208 0.089385 0.443579
O O12 0.147359 0.025337 0.251999
O O13 0.040629 0.204706 0.292151
#
# Coordination Sequence:
#
# PCOD9107918 Si02
#       6
#     2   2   2   2   2   2
#     4  11  23  42  67  97 131 168 208 272 330 382
#     4  11  23  40  63 101 133 162 210 277 327 373
#     4   9  20  40  68  87 127 185 209 259 315 370
#     4  10  20  40  66  90 129 169 216 260 319 373
#     4  11  23  39  66  98 128 170 215 260 329 393
#     4  10  21  42  68  91 129 174 218 258 320 382
#
# _framework density 24.274103
#
# number of rings (size 3 to 8) (size 9 to 14) (size 15 to 20)
#    0.000    1.667    3.333    1.000    0.000    0.667 
#    0.000    8.333    0.000    0.000    0.000    0.000 
#    0.000    0.000    0.000    0.000    0.000    0.000 
#
# Total GULP energy -66923.599217 kJ/mol
# GULP energy per Si atom -5576.966601 kJ/mol
# Density = 2.421885 g / cm^3
# Si number density = 24.274103 Si / 1000 Ang^3
#
#
#
# Elastic Constant Matrix: (Units=GPa)
#
#
# Indices 1 2 3 4 5 6 
#
# 1 109.6670 60.7129 35.4970 8.0243 -31.0528 -33.6620
# 2 60.7129 197.4286 33.4642 -16.2928 6.6041 -33.5249
# 3 35.4970 33.4642 100.4917 -0.7726 -24.2055 -3.5211
# 4 8.0243 -16.2928 -0.7726 32.5838 2.9113 -0.7503
# 5 -31.0528 6.6041 -24.2055 2.9113 37.5334 13.7743
# 6 -33.6620 -33.5249 -3.5211 -0.7503 13.7743 70.0494
#
#
#
# Elastic Compliance Matrix: (Units=1/GPa)
#
#
# Indices 1 2 3 4 5 6 
#
# 1 0.019152 -0.006674 -0.000569 -0.009473 0.016414 0.002652
# 2 -0.006674 0.009162 -0.003154 0.007200 -0.010916 0.003243
# 3 -0.000569 -0.003154 0.013510 -0.002091 0.010102 -0.003113
# 4 -0.009473 0.007200 -0.002091 0.037880 -0.014113 0.001970
# 5 0.016414 -0.010916 0.010102 -0.014113 0.052428 -0.007289
# 6 0.002652 0.003243 -0.003113 0.001970 -0.007289 0.018400
#
#
# Mechanical properties :
#
#
# Convention : Reuss Voigt Hill
#
# Bulk Modulus (GPa) = 47.54854 74.10393 60.82624
# Shear Modulus (GPa) = 28.03700 46.56088 37.29894
#
# Velocity S-wave (km/s) = 3.40224 4.38440 3.92417
# Velocity P-wave (km/s) = 5.92152 7.49832 6.75608
#
# Compressibility (1/GPa) = 0.02103114
#
# Stress axis : x y z
#
# Youngs Moduli (GPa) = 52.21355 109.14680 74.01702
#
# Poissons Ratio (x) = 0.72841 0.04212
# Poissons Ratio (y) = 0.34845 0.23345
# Poissons Ratio (z) = 0.02971 0.34425
#
# Static dielectric constant tensor:
#      x y z
#    x 1.984550 0.003920 0.075350 
#    y 0.003920 1.997110 0.067410 
#    z 0.075350 0.067410 2.060920 
# 
# From -- ./inp_files/23660.got.cif
#   From: 2010.05.17/outbox.cif.g08.bks.cpg/sg2_12_cif.got.tgz:23660.got - 2010.06.03 11:33:40.
