data_PCOD9107532
_publ_section_title
;
Structure prediction by ZEFSAII (Michael W. Deem and Ramdas Pophale) SiO2 
 PCOD9107532
Probable space group: P -1
;
_chemical_formula_sum "Si O2"
_cell_formula_units_Z 16
_cell_length_a 12.857385
_cell_length_b 9.589490
_cell_length_c 15.388154
_cell_angle_alpha 139.244330
_cell_angle_beta 114.240660
_cell_angle_gamma 39.050237
_cell_volume 703.739223
_symmetry_space_group_name_H-M "P -1"
_symmetry_group_IT_number 2
_symmetry_cell_setting 'triclinic'
loop_
_space_group_symop_operation_xyz
x,y,z
-x,-y,-z
loop_
_atom_site_type_symbol
_atom_site_label
_atom_site_fract_x
_atom_site_fract_y
_atom_site_fract_z
Si Si1 0.426850 0.241942 0.509691
Si Si2 0.149461 0.879174 0.429375
Si Si3 0.575769 0.533490 0.963589
Si Si4 0.347064 0.907753 0.620716
Si Si5 0.537328 0.069512 0.167047
Si Si6 0.048153 0.673843 0.592543
Si Si7 0.998249 0.987727 0.098643
Si Si8 0.341400 0.777712 0.843641
O O1 0.566452 0.038577 0.383734
O O2 0.242415 0.415232 0.491510
O O3 0.386518 0.542672 0.670979
O O4 0.500000 0.000000 0.500000
O O5 0.192183 0.036364 0.568625
O O6 0.340950 0.472687 0.299129
O O7 0.000000 0.000000 0.500000
O O8 0.086299 0.005892 0.368143
O O9 0.494901 0.887851 0.088578
O O10 0.500000 0.500000 0.000000
O O11 0.788542 0.286133 0.931173
O O12 0.503547 0.511596 0.843981
O O13 0.500000 0.500000 0.500000
O O14 0.313818 0.063346 0.774338
O O15 0.630117 0.023687 0.089416
O O16 0.000000 0.500000 0.500000
O O17 0.079475 0.720359 0.722333
O O18 0.859030 0.994518 0.079549
O O19 0.000000 0.000000 0.000000
#
# Coordination Sequence:
#
# PCOD9107532 Si02
#       8
#     2   2   2   2   2   2   2   2
#     4  11  23  39  70  99 138 180 226 286 359 418
#     4  11  23  42  67 109 147 177 233 295 357 438
#     4  12  27  47  74  99 139 190 244 298 359 432
#     4  10  20  40  64  97 136 175 223 277 350 425
#     4  11  25  45  72 100 142 195 233 292 371 431
#     4  11  25  41  70 106 138 183 235 297 358 423
#     4  11  26  47  71 104 147 188 247 307 363 429
#     4  11  24  48  69 100 145 187 244 297 357 439
#
# _framework density 22.735693999999999
#
# number of rings (size 3 to 8) (size 9 to 14) (size 15 to 20)
#    0.000    1.000    3.750    3.375    5.250    2.500 
#    2.250    0.000    0.000    0.000    0.000    0.000 
#    0.000    0.000    0.000    0.000    0.000    0.000 
#
# Total GULP energy -89171.614164 kJ/mol
# GULP energy per Si atom -5573.225885 kJ/mol
# Density = 2.268395 g / cm^3
# Si number density = 22.735694 Si / 1000 Ang^3
#
#
#
# Elastic Constant Matrix: (Units=GPa)
#
#
# Indices 1 2 3 4 5 6 
#
# 1 178.3301 56.1447 43.3703 0.3363 -13.4737 -0.7294
# 2 56.1447 97.8898 17.6954 -16.6968 -12.4263 -10.6783
# 3 43.3703 17.6954 36.0305 -18.1784 -7.3207 2.5686
# 4 0.3363 -16.6968 -18.1784 39.6838 2.5126 -5.2202
# 5 -13.4737 -12.4263 -7.3207 2.5126 36.8912 -2.5535
# 6 -0.7294 -10.6783 2.5686 -5.2202 -2.5535 49.5764
#
#
#
# Elastic Compliance Matrix: (Units=1/GPa)
#
#
# Indices 1 2 3 4 5 6 
#
# 1 0.011040 -0.005333 -0.015462 -0.009562 -0.000265 -0.001206
# 2 -0.005333 0.014903 0.003733 0.008328 0.003522 0.003996
# 3 -0.015462 0.003733 0.060289 0.029067 0.005650 0.000805
# 4 -0.009562 0.008328 0.029067 0.042566 0.002511 0.004759
# 5 -0.000265 0.003522 0.005650 0.002511 0.029301 0.002236
# 6 -0.001206 0.003996 0.000805 0.004759 0.002236 0.021588
#
#
# Mechanical properties :
#
#
# Convention : Reuss Voigt Hill
#
# Bulk Modulus (GPa) = 19.19123 60.74124 39.96624
# Shear Modulus (GPa) = 21.62794 38.23294 29.93044
#
# Velocity S-wave (km/s) = 3.08762 4.10521 3.63223
# Velocity P-wave (km/s) = 4.60115 7.01745 5.93360
#
# Compressibility (1/GPa) = 0.05210713
#
# Stress axis : x y z
#
# Youngs Moduli (GPa) = 90.57800 67.09958 16.58685
#
# Poissons Ratio (x) = 0.35785 0.25647
# Poissons Ratio (y) = 0.48307 -0.06192
# Poissons Ratio (z) = 1.40054 -0.25048
#
# Static dielectric constant tensor:
#      x y z
#    x 1.817610 -0.097880 -0.024300 
#    y -0.097880 1.912660 -0.039330 
#    z -0.024300 -0.039330 1.874320 
# 
# From -- ./inp_files/516271.got.cif
#   From: 2010.05.17/outbox.cif.g08.bks.cpg/sg2_259_cif.got.tgz:516271.got - 2010.06.03 11:33:40.
