data_PCOD9107839
_publ_section_title
;
Structure prediction by ZEFSAII (Michael W. Deem and Ramdas Pophale) SiO2 
 PCOD9107839
Probable space group: P -1
;
_chemical_formula_sum "Si O2"
_cell_formula_units_Z 12
_cell_length_a 8.906788
_cell_length_b 7.616380
_cell_length_c 9.921841
_cell_angle_alpha 45.270485
_cell_angle_beta 58.529108
_cell_angle_gamma 65.478630
_cell_volume 406.577157
_symmetry_space_group_name_H-M "P -1"
_symmetry_group_IT_number 2
_symmetry_cell_setting 'triclinic'
loop_
_space_group_symop_operation_xyz
x,y,z
-x,-y,-z
loop_
_atom_site_type_symbol
_atom_site_label
_atom_site_fract_x
_atom_site_fract_y
_atom_site_fract_z
Si Si1 0.004068 0.188180 0.185139
Si Si2 0.610406 0.738800 0.058481
Si Si3 0.696386 0.567092 0.635874
Si Si4 0.813803 0.156674 0.032694
Si Si5 0.862706 0.302686 0.468263
Si Si6 0.426156 0.046676 0.308816
O O1 0.849258 0.244291 0.121640
O O2 0.969533 0.327725 0.267976
O O3 0.190690 0.239804 0.003039
O O4 0.030880 0.903999 0.376772
O O5 0.619578 0.732144 0.896504
O O6 0.491915 0.525942 0.273256
O O7 0.500000 0.000000 0.000000
O O8 0.816668 0.528470 0.468088
O O9 0.646594 0.829973 0.586056
O O10 0.772664 0.364607 0.822626
O O11 0.636374 0.010134 0.210489
O O12 0.000000 0.000000 0.000000
O O13 0.688778 0.171841 0.570000
#
# Coordination Sequence:
#
# PCOD9107839 Si02
#       6
#     2   2   2   2   2   2
#     4  10  20  36  63  90 120 160 203 249 303 357
#     4  10  16  35  60  82 116 161 193 234 302 358
#     4  11  21  40  67  88 119 162 207 244 303 367
#     4  11  20  35  62  96 120 152 207 260 293 349
#     4  10  21  41  63  83 125 169 193 242 313 371
#     4  10  22  38  63  89 122 161 204 243 306 366
#
# _framework density 29.514690000000002
#
# number of rings (size 3 to 8) (size 9 to 14) (size 15 to 20)
#    0.000    1.667    5.000    3.000    0.000    0.667 
#    0.000   15.833    0.000    0.000    0.000    0.000 
#    0.000    0.000    0.000    0.000    0.000    0.000 
#
# Total GULP energy -67318.435391 kJ/mol
# GULP energy per Si atom -5609.869616 kJ/mol
# Density = 2.944751 g / cm^3
# Si number density = 29.514690 Si / 1000 Ang^3
#
#
#
# Elastic Constant Matrix: (Units=GPa)
#
#
# Indices 1 2 3 4 5 6 
#
# 1 198.6634 55.4585 71.7785 9.1857 -28.9090 -17.8515
# 2 55.4585 164.6015 68.7174 39.9892 21.0565 -13.5239
# 3 71.7785 68.7174 107.2740 37.0019 -8.1866 -7.2659
# 4 9.1857 39.9892 37.0019 64.8673 -5.2545 17.6524
# 5 -28.9090 21.0565 -8.1866 -5.2545 68.8081 0.6579
# 6 -17.8515 -13.5239 -7.2659 17.6524 0.6579 59.6545
#
#
#
# Elastic Compliance Matrix: (Units=1/GPa)
#
#
# Indices 1 2 3 4 5 6 
#
# 1 0.007591 -0.001666 -0.004678 0.002764 0.003349 0.000469
# 2 -0.001666 0.010365 -0.003932 -0.005094 -0.004757 0.002932
# 3 -0.004678 -0.003932 0.017782 -0.007568 0.000756 0.002106
# 4 0.002764 -0.005094 -0.007568 0.025171 0.003825 -0.008740
# 5 0.003349 -0.004757 0.000756 0.003825 0.017790 -0.001312
# 6 0.000469 0.002932 0.002106 -0.008740 -0.001312 0.020426
#
#
# Mechanical properties :
#
#
# Convention : Reuss Voigt Hill
#
# Bulk Modulus (GPa) = 65.85305 95.82754 80.84029
# Shear Modulus (GPa) = 40.08402 56.97161 48.52781
#
# Velocity S-wave (km/s) = 3.68924 4.39826 4.05926
# Velocity P-wave (km/s) = 6.36457 7.63748 7.02990
#
# Compressibility (1/GPa) = 0.01518533
#
# Stress axis : x y z
#
# Youngs Moduli (GPa) = 131.74358 96.47578 56.23766
#
# Poissons Ratio (x) = 0.16072 0.26307
# Poissons Ratio (y) = 0.21948 0.22115
# Poissons Ratio (z) = 0.61627 0.37937
#
# Static dielectric constant tensor:
#      x y z
#    x 2.339790 0.007960 0.024040 
#    y 0.007960 2.361750 -0.004880 
#    z 0.024040 -0.004880 2.271680 
# 
# From -- ./inp_files/378168.got.cif
#   From: 2010.05.17/outbox.cif.g08.bks.cpg/sg2_190_cif.got.tgz:378168.got - 2010.06.03 11:33:40.
