data_PCOD9107809
_publ_section_title
;
Structure prediction by ZEFSAII (Michael W. Deem and Ramdas Pophale) SiO2 
 PCOD9107809
Probable space group: P -1
;
_chemical_formula_sum "Si O2"
_cell_formula_units_Z 16
_cell_length_a 7.440015
_cell_length_b 8.772380
_cell_length_c 12.538217
_cell_angle_alpha 74.442206
_cell_angle_beta 64.010074
_cell_angle_gamma 79.936065
_cell_volume 707.071321
_symmetry_space_group_name_H-M "P -1"
_symmetry_group_IT_number 2
_symmetry_cell_setting 'triclinic'
loop_
_space_group_symop_operation_xyz
x,y,z
-x,-y,-z
loop_
_atom_site_type_symbol
_atom_site_label
_atom_site_fract_x
_atom_site_fract_y
_atom_site_fract_z
Si Si1 0.188708 0.593921 0.905681
Si Si2 0.879297 0.259221 0.882298
Si Si3 0.544648 0.658100 0.028907
Si Si4 0.251178 0.381256 0.488080
Si Si5 0.596232 0.182532 0.332905
Si Si6 0.987464 0.553673 0.667112
Si Si7 0.935973 0.916483 0.314297
Si Si8 0.744152 0.850664 0.755013
O O1 0.346019 0.439900 0.887566
O O2 0.242355 0.700067 0.774462
O O3 0.170100 0.723665 0.983301
O O4 0.000000 0.500000 0.000000
O O5 0.655397 0.248917 0.897075
O O6 0.949446 0.428833 0.793048
O O7 0.026746 0.128575 0.812319
O O8 0.500000 0.500000 0.000000
O O9 0.666170 0.770585 0.899702
O O10 0.460451 0.283244 0.434080
O O11 0.204510 0.509833 0.568525
O O12 0.100861 0.244839 0.583915
O O13 0.175000 0.463269 0.382893
O O14 0.438533 0.144478 0.284687
O O15 0.733681 0.029031 0.360562
O O16 0.920105 0.727963 0.689161
O O17 0.137250 0.993700 0.285863
#
# Coordination Sequence:
#
# PCOD9107809 Si02
#       8
#     2   2   2   2   2   2   2   2
#     4  11  21  37  64  92 118 155 199 257 305 352
#     4  10  20  39  61  89 120 155 199 251 300 353
#     4  10  16  35  59  84 113 152 197 246 292 343
#     4   9  20  39  62  87 120 160 200 258 295 341
#     4  11  22  39  61  87 126 161 200 241 305 364
#     4   9  17  35  67  87 110 154 211 250 294 347
#     4  11  25  39  59  89 129 164 196 243 304 362
#     4  11  20  38  64  89 118 163 200 242 307 356
#
# _framework density 22.628550000000001
#
# number of rings (size 3 to 8) (size 9 to 14) (size 15 to 20)
#    0.000    1.750    5.000    1.875    0.000    3.000 
#    2.250    0.625    2.750    0.000    0.000    0.000 
#    0.000    0.000    0.000    0.000    0.000    0.000 
#
# Total GULP energy -89097.766603 kJ/mol
# GULP energy per Si atom -5568.610413 kJ/mol
# Density = 2.257705 g / cm^3
# Si number density = 22.628550 Si / 1000 Ang^3
#
#
#
# Elastic Constant Matrix: (Units=GPa)
#
#
# Indices 1 2 3 4 5 6 
#
# 1 62.2558 25.5719 3.6552 -3.0509 -10.3567 -2.0127
# 2 25.5719 67.8130 19.5213 14.4683 -19.8682 -12.9426
# 3 3.6552 19.5213 82.0208 15.6060 -11.3166 0.8643
# 4 -3.0509 14.4683 15.6060 49.6724 -8.9439 -14.5627
# 5 -10.3567 -19.8682 -11.3166 -8.9439 19.2142 -1.7661
# 6 -2.0127 -12.9426 0.8643 -14.5627 -1.7661 34.1617
#
#
#
# Elastic Compliance Matrix: (Units=1/GPa)
#
#
# Indices 1 2 3 4 5 6 
#
# 1 0.020069 -0.006655 0.000747 0.004345 0.006476 0.000829
# 2 -0.006655 0.027278 -0.003055 0.000258 0.023985 0.011370
# 3 0.000747 -0.003055 0.014112 -0.003693 0.003573 -0.002860
# 4 0.004345 0.000258 -0.003693 0.027973 0.014662 0.013130
# 5 0.006476 0.023985 0.003573 0.014662 0.091135 0.020340
# 6 0.000829 0.011370 -0.002860 0.013130 0.020340 0.040350
#
#
# Mechanical properties :
#
#
# Convention : Reuss Voigt Hill
#
# Bulk Modulus (GPa) = 22.97090 34.39848 28.68469
# Shear Modulus (GPa) = 19.73530 31.49906 25.61718
#
# Velocity S-wave (km/s) = 2.95641 3.73501 3.36828
# Velocity P-wave (km/s) = 4.67195 5.81676 5.27550
#
# Compressibility (1/GPa) = 0.04353334
#
# Stress axis : x y z
#
# Youngs Moduli (GPa) = 49.82709 36.66018 70.86339
#
# Poissons Ratio (x) = 0.24397 -0.05296
# Poissons Ratio (y) = 0.33159 0.21651
# Poissons Ratio (z) = -0.03724 0.11201
#
# Static dielectric constant tensor:
#      x y z
#    x 2.039650 -0.067380 0.060930 
#    y -0.067380 1.976810 0.023220 
#    z 0.060930 0.023220 1.821770 
# 
# From -- ./inp_files/224943.got.cif
#   From: 2010.05.17/outbox.cif.g08.bks.cpg/sg2_113_cif.got.tgz:224943.got - 2010.06.03 11:33:40.
