data_PCOD9107639
_publ_section_title
;
Structure prediction by ZEFSAII (Michael W. Deem and Ramdas Pophale) SiO2 
 PCOD9107639
Probable space group: P -1
;
_chemical_formula_sum "Si O2"
_cell_formula_units_Z 14
_cell_length_a 9.393672
_cell_length_b 13.075031
_cell_length_c 9.301499
_cell_angle_alpha 89.749062
_cell_angle_beta 44.762951
_cell_angle_gamma 119.519319
_cell_volume 571.227375
_symmetry_space_group_name_H-M "P -1"
_symmetry_group_IT_number 2
_symmetry_cell_setting 'triclinic'
loop_
_space_group_symop_operation_xyz
x,y,z
-x,-y,-z
loop_
_atom_site_type_symbol
_atom_site_label
_atom_site_fract_x
_atom_site_fract_y
_atom_site_fract_z
Si Si1 0.580833 0.908982 0.915521
Si Si2 0.290058 0.561596 0.223672
Si Si3 0.128316 0.248191 0.025723
Si Si4 0.036322 0.732549 0.433297
Si Si5 0.872178 0.034895 0.441816
Si Si6 0.716406 0.666825 0.392801
Si Si7 0.773873 0.472641 0.059569
O O1 0.885370 0.966747 0.739625
O O2 0.341216 0.783473 0.200857
O O3 0.594099 0.898761 0.731666
O O4 0.500000 0.000000 0.000000
O O5 0.585407 0.679720 0.093910
O O6 0.000000 0.500000 0.500000
O O7 0.216517 0.414981 0.303243
O O8 0.274100 0.580717 0.067471
O O9 0.168684 0.235522 0.829300
O O10 0.126511 0.371981 0.025693
O O11 0.875977 0.096888 0.287545
O O12 0.043829 0.843211 0.508489
O O13 0.960473 0.711018 0.319108
O O14 0.500000 0.500000 0.500000
O O15 0.519229 0.653938 0.646515
O O16 0.000000 0.500000 0.000000
#
# Coordination Sequence:
#
# PCOD9107639 Si02
#       7
#     2   2   2   2   2   2   2
#     4   9  21  39  66  92 117 151 212 269 318 373
#     4  12  22  34  59  89 123 168 213 247 304 381
#     4  11  21  39  58  86 127 165 205 252 302 372
#     4  11  20  38  60  90 126 164 210 253 310 370
#     4  10  20  40  65  90 118 162 210 263 315 367
#     4  10  21  37  54  83 130 166 196 250 299 360
#     4  11  22  35  53  85 127 166 203 250 306 362
#
# _framework density 24.50863
#
# number of rings (size 3 to 8) (size 9 to 14) (size 15 to 20)
#    0.000    1.429    4.286    3.000    2.000    0.000 
#    0.000    0.714    0.000    7.714    0.000    0.000 
#    0.000    0.000    0.000    0.000    0.000    0.000 
#
# Total GULP energy -78031.311951 kJ/mol
# GULP energy per Si atom -5573.665139 kJ/mol
# Density = 2.445285 g / cm^3
# Si number density = 24.508630 Si / 1000 Ang^3
#
#
#
# Elastic Constant Matrix: (Units=GPa)
#
#
# Indices 1 2 3 4 5 6 
#
# 1 137.1098 7.3749 45.5562 19.6336 20.3400 -10.4409
# 2 7.3749 45.5089 15.2373 8.5586 6.2391 -10.8933
# 3 45.5562 15.2373 184.2859 12.4089 36.4419 -10.7126
# 4 19.6336 8.5586 12.4089 41.5026 -4.4681 8.6015
# 5 20.3400 6.2391 36.4419 -4.4681 65.0118 4.3200
# 6 -10.4409 -10.8933 -10.7126 8.6015 4.3200 35.2495
#
#
#
# Elastic Compliance Matrix: (Units=1/GPa)
#
#
# Indices 1 2 3 4 5 6 
#
# 1 0.009197 0.001456 -0.001148 -0.005583 -0.003061 0.004563
# 2 0.001456 0.026818 -0.000522 -0.008827 -0.004088 0.011215
# 3 -0.001148 -0.000522 0.006798 -0.002320 -0.003733 0.002588
# 4 -0.005583 -0.008827 -0.002320 0.032912 0.007086 -0.013986
# 5 -0.003061 -0.004088 -0.003733 0.007086 0.019807 -0.007461
# 6 0.004563 0.011215 0.002588 -0.013986 -0.007461 0.038300
#
#
# Mechanical properties :
#
#
# Convention : Reuss Voigt Hill
#
# Bulk Modulus (GPa) = 23.59345 55.91572 39.75458
# Shear Modulus (GPa) = 33.69507 48.26853 40.98180
#
# Velocity S-wave (km/s) = 3.71189 4.44266 4.09361
# Velocity P-wave (km/s) = 5.29323 7.01289 6.21284
#
# Compressibility (1/GPa) = 0.04238464
#
# Stress axis : x y z
#
# Youngs Moduli (GPa) = 108.72554 37.28862 147.10029
#
# Poissons Ratio (x) = -0.05428 0.16880
# Poissons Ratio (y) = -0.15826 0.07686
# Poissons Ratio (z) = 0.12476 0.01948
#
# Static dielectric constant tensor:
#      x y z
#    x 2.219080 -0.272710 -0.014410 
#    y -0.272710 2.549990 -0.162720 
#    z -0.014410 -0.162720 2.137950 
# 
# From -- ./inp_files/179593.got.cif
#   From: 2010.05.17/outbox.cif.g08.bks.cpg/sg2_90_cif.got.tgz:179593.got - 2010.06.03 11:33:40.
