data_PCOD9107686
_publ_section_title
;
Structure prediction by ZEFSAII (Michael W. Deem and Ramdas Pophale) SiO2 
 PCOD9107686
Probable space group: P -1
;
_chemical_formula_sum "Si O2"
_cell_formula_units_Z 16
_cell_length_a 9.585474
_cell_length_b 12.974021
_cell_length_c 11.025784
_cell_angle_alpha 112.526705
_cell_angle_beta 126.346840
_cell_angle_gamma 34.810894
_cell_volume 614.299890
_symmetry_space_group_name_H-M "P -1"
_symmetry_group_IT_number 2
_symmetry_cell_setting 'triclinic'
loop_
_space_group_symop_operation_xyz
x,y,z
-x,-y,-z
loop_
_atom_site_type_symbol
_atom_site_label
_atom_site_fract_x
_atom_site_fract_y
_atom_site_fract_z
Si Si1 0.784785 0.510954 0.123113
Si Si2 0.279153 0.600598 0.608208
Si Si3 0.116344 0.087494 0.811080
Si Si4 0.336728 0.230093 0.416317
Si Si5 0.369084 0.147007 0.644141
Si Si6 0.270100 0.251643 0.921884
Si Si7 0.344753 0.748114 0.533047
Si Si8 0.705902 0.310139 0.905027
O O1 0.845694 0.563515 0.067743
O O2 0.453530 0.681914 0.073629
O O3 0.011184 0.428144 0.306051
O O4 0.837064 0.355373 0.047989
O O5 0.328864 0.701726 0.635725
O O6 0.428973 0.444202 0.514541
O O7 0.444334 0.488056 0.765164
O O8 0.944211 0.743937 0.499434
O O9 0.078936 0.242002 0.850912
O O10 0.960180 0.114705 0.627954
O O11 0.942597 0.135849 0.861223
O O12 0.452031 0.894720 0.915114
O O13 0.414555 0.213073 0.589097
O O14 0.535494 0.192646 0.407142
O O15 0.397361 0.069138 0.353011
O O16 0.363176 0.182268 0.797431
#
# Coordination Sequence:
#
# PCOD9107686 Si02
#       8
#     2   2   2   2   2   2   2   2
#     4  11  24  42  64  93 122 167 207 250 307 365
#     4  10  20  40  65  92 123 159 201 258 305 362
#     4  10  23  44  61  94 126 162 203 256 307 361
#     4  11  25  40  63  93 126 163 205 252 310 363
#     4  11  23  42  61  92 127 160 205 258 304 364
#     4  11  24  42  67  89 125 163 208 253 307 368
#     4  10  22  40  65  94 122 160 207 250 308 370
#     4  10  23  42  63  93 128 157 207 256 304 367
#
# _framework density 26.045909999999999
#
# number of rings (size 3 to 8) (size 9 to 14) (size 15 to 20)
#    0.000    1.500    2.500    1.500    7.000    3.500 
#    6.750    0.000    0.000    0.000    0.000    0.000 
#    0.000    0.000    0.000    0.000    0.000    0.000 
#
# Total GULP energy -89618.292579 kJ/mol
# GULP energy per Si atom -5601.143286 kJ/mol
# Density = 2.598663 g / cm^3
# Si number density = 26.045910 Si / 1000 Ang^3
#
#
#
# Elastic Constant Matrix: (Units=GPa)
#
#
# Indices 1 2 3 4 5 6 
#
# 1 128.5664 12.0208 21.6705 -3.3437 -5.5676 14.2863
# 2 12.0208 44.1593 11.3607 -9.3814 3.2513 4.4535
# 3 21.6705 11.3607 78.9988 -13.1596 16.1854 3.9648
# 4 -3.3437 -9.3814 -13.1596 35.5740 -5.0458 -7.2927
# 5 -5.5676 3.2513 16.1854 -5.0458 33.1967 3.4616
# 6 14.2863 4.4535 3.9648 -7.2927 3.4616 41.1195
#
#
#
# Elastic Compliance Matrix: (Units=1/GPa)
#
#
# Indices 1 2 3 4 5 6 
#
# 1 0.008879 -0.001802 -0.002828 -0.000851 0.003232 -0.003040
# 2 -0.001802 0.024937 -0.001974 0.005377 -0.000875 -0.000857
# 3 -0.002828 -0.001974 0.015910 0.004250 -0.007501 0.001047
# 4 -0.000851 0.005377 0.004250 0.032256 0.001652 0.004885
# 5 0.003232 -0.000875 -0.007501 0.001652 0.034968 -0.002956
# 6 -0.003040 -0.000857 0.001047 0.004885 -0.002956 0.026483
#
#
# Mechanical properties :
#
#
# Convention : Reuss Voigt Hill
#
# Bulk Modulus (GPa) = 27.38303 37.98096 32.68199
# Shear Modulus (GPa) = 29.61864 35.75621 32.68743
#
# Velocity S-wave (km/s) = 3.37585 3.70917 3.54643
# Velocity P-wave (km/s) = 5.07261 5.74090 5.41707
#
# Compressibility (1/GPa) = 0.03651897
#
# Stress axis : x y z
#
# Youngs Moduli (GPa) = 112.62749 40.10157 62.85230
#
# Poissons Ratio (x) = 0.07225 0.17774
# Poissons Ratio (y) = 0.20292 0.12406
# Poissons Ratio (z) = 0.31850 0.07915
#
# Static dielectric constant tensor:
#      x y z
#    x 2.008410 0.026160 -0.027910 
#    y 0.026160 2.101270 0.042530 
#    z -0.027910 0.042530 1.987490 
# 
# From -- ./inp_files/182503.got.cif
#   From: 2010.05.17/outbox.cif.g08.bks.cpg/sg2_92_cif.got.tgz:182503.got - 2010.06.03 11:33:40.
