data_PCOD9107247
_publ_section_title
;
Structure prediction by ZEFSAII (Michael W. Deem and Ramdas Pophale) SiO2 
 PCOD9107247
Probable space group: P -1
;
_chemical_formula_sum "Si O2"
_cell_formula_units_Z 16
_cell_length_a 20.925572
_cell_length_b 10.866978
_cell_length_c 17.666031
_cell_angle_alpha 31.087521
_cell_angle_beta 160.778021
_cell_angle_gamma 151.710160
_cell_volume 618.775725
_symmetry_space_group_name_H-M "P -1"
_symmetry_group_IT_number 2
_symmetry_cell_setting 'triclinic'
loop_
_space_group_symop_operation_xyz
x,y,z
-x,-y,-z
loop_
_atom_site_type_symbol
_atom_site_label
_atom_site_fract_x
_atom_site_fract_y
_atom_site_fract_z
Si Si1 0.399995 0.111793 0.461000
Si Si2 0.252445 0.610271 0.630207
Si Si3 0.250122 0.648278 0.158629
Si Si4 0.258742 0.569991 0.055262
Si Si5 0.727091 0.704499 0.056759
Si Si6 0.894939 0.836262 0.675442
Si Si7 0.150001 0.941975 0.137811
Si Si8 0.087201 0.864132 0.602421
O O1 0.625133 0.197251 0.709573
O O2 0.377566 0.380695 0.278321
O O3 0.238411 0.886180 0.455108
O O4 0.343040 0.958814 0.398722
O O5 0.247845 0.550128 0.746833
O O6 0.091714 0.382406 0.514766
O O7 0.488363 0.654662 0.841217
O O8 0.356038 0.750889 0.142042
O O9 0.250070 0.361296 0.319181
O O10 0.026371 0.667358 0.887716
O O11 0.237180 0.744390 0.871759
O O12 0.011766 0.352154 0.912609
O O13 0.914861 0.918391 0.203760
O O14 0.770570 0.829721 0.956241
O O15 0.808294 0.920920 0.460093
O O16 0.000000 0.000000 0.000000
O O17 0.000000 0.000000 0.500000
#
# Coordination Sequence:
#
# PCOD9107247 Si02
#       8
#     2   2   2   2   2   2   2   2
#     4  11  23  40  61  95 130 171 218 263 324 391
#     4  10  22  38  64  98 131 166 216 273 328 380
#     4  11  21  39  61  93 125 168 213 264 325 385
#     4  11  22  40  63  86 130 173 214 260 325 392
#     4  10  20  40  63  94 131 167 214 274 323 380
#     4  10  21  36  63  92 126 162 215 266 327 383
#     4  10  22  41  62  90 130 171 219 260 318 390
#     4  11  22  39  61  93 127 168 215 270 324 384
#
# _framework density 25.857510999999999
#
# number of rings (size 3 to 8) (size 9 to 14) (size 15 to 20)
#    0.000    1.500    5.000    0.375    0.000    1.500 
#    0.000    5.625    0.000    0.000    0.000    0.000 
#    0.000    0.000    0.000    0.000    0.000    0.000 
#
# Total GULP energy -89202.341896 kJ/mol
# GULP energy per Si atom -5575.146368 kJ/mol
# Density = 2.579866 g / cm^3
# Si number density = 25.857511 Si / 1000 Ang^3
#
#
#
# Elastic Constant Matrix: (Units=GPa)
#
#
# Indices 1 2 3 4 5 6 
#
# 1 76.7934 12.4559 50.2336 -9.3461 -33.2977 15.3156
# 2 12.4559 79.7321 38.3265 -9.8627 -12.4965 8.0960
# 3 50.2336 38.3265 179.8402 -25.5038 -48.3408 20.6261
# 4 -9.3461 -9.8627 -25.5038 57.5203 11.1823 -14.2462
# 5 -33.2977 -12.4965 -48.3408 11.1823 53.2056 -18.4255
# 6 15.3156 8.0960 20.6261 -14.2462 -18.4255 30.3172
#
#
#
# Elastic Compliance Matrix: (Units=1/GPa)
#
#
# Indices 1 2 3 4 5 6 
#
# 1 0.019029 -0.000091 -0.002755 -0.000487 0.008531 -0.002758
# 2 -0.000091 0.014106 -0.002650 0.000844 0.000182 -0.001410
# 3 -0.002755 -0.002650 0.008500 0.001960 0.005076 0.000322
# 4 -0.000487 0.000844 0.001960 0.020349 0.000322 0.008445
# 5 0.008531 0.000182 0.005076 0.000322 0.033018 0.012406
# 6 -0.002758 -0.001410 0.000322 0.008445 0.012406 0.046043
#
#
# Mechanical properties :
#
#
# Convention : Reuss Voigt Hill
#
# Bulk Modulus (GPa) = 32.63512 59.82199 46.22855
# Shear Modulus (GPa) = 30.81602 43.89860 37.35731
#
# Velocity S-wave (km/s) = 3.45594 4.12480 3.80509
# Velocity P-wave (km/s) = 5.34539 6.77280 6.10098
#
# Compressibility (1/GPa) = 0.03064183
#
# Stress axis : x y z
#
# Youngs Moduli (GPa) = 52.55094 70.88963 117.64269
#
# Poissons Ratio (x) = 0.00648 0.32415
# Poissons Ratio (y) = 0.00480 0.31179
# Poissons Ratio (z) = 0.14480 0.18788
#
# Static dielectric constant tensor:
#      x y z
#    x 2.167910 0.092340 0.030040 
#    y 0.092340 2.136220 0.024800 
#    z 0.030040 0.024800 2.129480 
# 
# From -- ./inp_files/320060.got.cif
#   From: 2010.05.17/outbox.cif.g08.bks.cpg/sg2_161_cif.got.tgz:320060.got - 2010.06.03 11:33:40.
