data_PCOD9107575
_publ_section_title
;
Structure prediction by ZEFSAII (Michael W. Deem and Ramdas Pophale) SiO2 
 PCOD9107575
Probable space group: P -1
;
_chemical_formula_sum "Si O2"
_cell_formula_units_Z 14
_cell_length_a 25.475409
_cell_length_b 26.241844
_cell_length_c 10.940523
_cell_angle_alpha 31.356713
_cell_angle_beta 31.784117
_cell_angle_gamma 10.975858
_cell_volume 719.548487
_symmetry_space_group_name_H-M "P -1"
_symmetry_group_IT_number 2
_symmetry_cell_setting 'triclinic'
loop_
_space_group_symop_operation_xyz
x,y,z
-x,-y,-z
loop_
_atom_site_type_symbol
_atom_site_label
_atom_site_fract_x
_atom_site_fract_y
_atom_site_fract_z
Si Si1 0.424312 0.212848 0.010390
Si Si2 0.471188 0.918289 0.667482
Si Si3 0.825442 0.668975 0.270677
Si Si4 0.011699 0.673779 0.407370
Si Si5 0.893252 0.131663 0.808003
Si Si6 0.607318 0.199820 0.236579
Si Si7 0.457601 0.702271 0.547089
O O1 0.531534 0.141078 0.081699
O O2 0.109653 0.466939 0.135053
O O3 0.588409 0.969782 0.122552
O O4 0.454573 0.278978 0.730920
O O5 0.730182 0.686445 0.536643
O O6 0.500000 0.000000 0.500000
O O7 0.203050 0.143970 0.653517
O O8 0.890449 0.525210 0.336261
O O9 0.303598 0.460997 0.245456
O O10 0.818479 0.915129 0.385701
O O11 0.670833 0.420077 0.677456
O O12 0.755387 0.160129 0.969430
O O13 0.157553 0.937164 0.618587
O O14 0.000000 0.000000 0.000000
O O15 0.555045 0.265802 0.348275
#
# Coordination Sequence:
#
# PCOD9107575 Si02
#       7
#     2   2   2   2   2   2   2
#     4  11  23  35  63  85 120 152 198 242 286 337
#     4  10  21  37  63  81 116 155 211 237 270 331
#     4  11  20  38  55  88 113 158 198 235 275 338
#     4  12  21  36  60  90 114 154 202 238 283 334
#     4  10  20  40  65  85 112 152 200 244 283 344
#     4  11  22  37  62  87 117 147 195 245 293 351
#     4  11  22  41  60  93 116 150 193 242 300 347
#
# _framework density 19.456645999999999
#
# number of rings (size 3 to 8) (size 9 to 14) (size 15 to 20)
#    0.000    1.143    4.286    5.571    2.000    0.000 
#    0.000    4.286    0.000    5.143    0.000    0.000 
#    0.000    0.000    0.000    0.000    0.000    0.000 
#
# Total GULP energy -77979.252524 kJ/mol
# GULP energy per Si atom -5569.946609 kJ/mol
# Density = 1.941236 g / cm^3
# Si number density = 19.456646 Si / 1000 Ang^3
#
#
#
# Elastic Constant Matrix: (Units=GPa)
#
#
# Indices 1 2 3 4 5 6 
#
# 1 40.6598 35.1184 55.3121 12.1903 -9.1181 -24.3293
# 2 35.1184 182.3263 43.9248 -11.3847 -31.1463 7.3181
# 3 55.3121 43.9248 78.0094 2.8367 -27.1106 17.8808
# 4 12.1903 -11.3847 2.8367 47.8820 4.9133 -22.6346
# 5 -9.1181 -31.1463 -27.1106 4.9133 10.0684 17.8090
# 6 -24.3293 7.3181 17.8808 -22.6346 17.8090 18.6304
#
#
#
# Elastic Compliance Matrix: (Units=1/GPa)
#
#
# Indices 1 2 3 4 5 6 
#
# 1 0.049628 0.002688 -0.010965 -0.024639 0.061776 -0.014710
# 2 0.002688 0.007027 -0.004775 0.002085 0.005234 0.002862
# 3 -0.010965 -0.004775 0.010810 0.010291 -0.025522 0.014082
# 4 -0.024639 0.002085 0.010291 0.030349 -0.011076 0.004588
# 5 0.061776 0.005234 -0.025522 -0.011076 0.073016 0.019858
# 6 -0.014710 0.002862 0.014082 0.004588 0.019858 0.006418
#
#
# Mechanical properties :
#
#
# Convention : Reuss Voigt Hill
#
# Bulk Modulus (GPa) = 24.17769 63.30068 43.73918
# Shear Modulus (GPa) = 23.02668 26.42550 24.72609
#
# Velocity S-wave (km/s) = 3.44392 3.68934 3.56874
# Velocity P-wave (km/s) = 5.31672 7.12412 6.28572
#
# Compressibility (1/GPa) = 0.04136044
#
# Stress axis : x y z
#
# Youngs Moduli (GPa) = 20.15010 142.31090 92.50393
#
# Poissons Ratio (x) = -0.38247 1.01429
# Poissons Ratio (y) = -0.05415 0.44170
# Poissons Ratio (z) = 0.22094 0.67952
#
# Static dielectric constant tensor:
#      x y z
#    x 1.772850 0.024960 -0.006790 
#    y 0.024960 1.732820 -0.002050 
#    z -0.006790 -0.002050 1.696120 
# 
# From -- ./inp_files/477183.got.cif
#   From: 2010.05.17/outbox.cif.g08.bks.cpg/sg2_239_cif.got.tgz:477183.got - 2010.06.03 11:33:40.
