data_PCOD9107487
_publ_section_title
;
Structure prediction by ZEFSAII (Michael W. Deem and Ramdas Pophale) SiO2 
 PCOD9107487
Probable space group: P -1
;
_chemical_formula_sum "Si O2"
_cell_formula_units_Z 16
_cell_length_a 15.663751
_cell_length_b 8.615753
_cell_length_c 6.353189
_cell_angle_alpha 56.828015
_cell_angle_beta 89.304786
_cell_angle_gamma 68.624011
_cell_volume 648.716603
_symmetry_space_group_name_H-M "P -1"
_symmetry_group_IT_number 2
_symmetry_cell_setting 'triclinic'
loop_
_space_group_symop_operation_xyz
x,y,z
-x,-y,-z
loop_
_atom_site_type_symbol
_atom_site_label
_atom_site_fract_x
_atom_site_fract_y
_atom_site_fract_z
Si Si1 0.105015 0.880919 0.321050
Si Si2 0.142059 0.292773 0.324046
Si Si3 0.656271 0.445134 0.909156
Si Si4 0.568261 0.215809 0.770356
Si Si5 0.211542 0.468667 0.492978
Si Si6 0.380088 0.268105 0.919587
Si Si7 0.039357 0.739154 0.818101
Si Si8 0.283082 0.868096 0.490534
O O1 0.117578 0.676360 0.360414
O O2 0.091590 0.837924 0.598213
O O3 0.210063 0.866059 0.315634
O O4 0.021066 0.099485 0.120650
O O5 0.174286 0.302776 0.552009
O O6 0.046563 0.266687 0.313852
O O7 0.234407 0.109778 0.361431
O O8 0.110835 0.514692 0.053220
O O9 0.605941 0.647894 0.913235
O O10 0.713154 0.262177 0.207102
O O11 0.600978 0.339295 0.850293
O O12 0.721826 0.505368 0.708036
O O13 0.456878 0.294406 0.745805
O O14 0.612629 0.233076 0.533546
O O15 0.605514 0.965381 0.955825
O O16 0.274387 0.409259 0.742699
#
# Coordination Sequence:
#
# PCOD9107487 Si02
#       8
#     2   2   2   2   2   2   2   2
#     4  10  20  40  64  94 130 169 220 269 334 391
#     4  10  22  40  65  98 131 173 222 271 341 388
#     4  12  23  43  68  99 132 186 217 274 328 388
#     4  11  25  44  68 101 134 179 224 269 339 387
#     4  12  24  41  68  99 129 182 218 269 339 396
#     4  11  26  45  67 101 138 172 226 281 319 400
#     4   9  21  41  66  92 132 171 217 284 325 400
#     4  11  22  42  66  97 135 175 218 280 319 403
#
# _framework density 24.664082000000001
#
# number of rings (size 3 to 8) (size 9 to 14) (size 15 to 20)
#    0.000    1.250    2.500    2.625    1.750    4.000 
#    0.000    3.125    0.000    0.000    0.000    0.000 
#    0.000    0.000    0.000    0.000    0.000    0.000 
#
# Total GULP energy -89233.442487 kJ/mol
# GULP energy per Si atom -5577.090155 kJ/mol
# Density = 2.460795 g / cm^3
# Si number density = 24.664082 Si / 1000 Ang^3
#
#
#
# Elastic Constant Matrix: (Units=GPa)
#
#
# Indices 1 2 3 4 5 6 
#
# 1 73.2260 28.6523 6.8189 6.4367 13.9270 17.0503
# 2 28.6523 158.5616 6.4228 -15.0217 16.3417 22.1125
# 3 6.8189 6.4228 39.4830 -18.4390 6.6987 8.0306
# 4 6.4367 -15.0217 -18.4390 36.9796 -1.0141 5.0532
# 5 13.9270 16.3417 6.6987 -1.0141 25.4469 6.6640
# 6 17.0503 22.1125 8.0306 5.0532 6.6640 38.9974
#
#
#
# Elastic Compliance Matrix: (Units=1/GPa)
#
#
# Indices 1 2 3 4 5 6 
#
# 1 0.017441 -0.002314 -0.003192 -0.005212 -0.006409 -0.003886
# 2 -0.002314 0.008119 0.003300 0.005860 -0.003418 -0.004447
# 3 -0.003192 0.003300 0.039220 0.022661 -0.007103 -0.010275
# 4 -0.005212 0.005860 0.022661 0.043055 -0.002307 -0.010895
# 5 -0.006409 -0.003418 -0.007103 -0.002307 0.047187 -0.001562
# 6 -0.003886 -0.004447 -0.010275 -0.010895 -0.001562 0.033657
#
#
# Mechanical properties :
#
#
# Convention : Reuss Voigt Hill
#
# Bulk Modulus (GPa) = 16.56518 39.45093 28.00805
# Shear Modulus (GPa) = 23.45079 35.57656 29.51367
#
# Velocity S-wave (km/s) = 3.08686 3.80207 3.46298
# Velocity P-wave (km/s) = 4.40861 5.94175 5.23164
#
# Compressibility (1/GPa) = 0.06036759
#
# Stress axis : x y z
#
# Youngs Moduli (GPa) = 57.33688 123.17300 25.49736
#
# Poissons Ratio (x) = 0.28498 0.08139
# Poissons Ratio (y) = 0.13266 -0.08414
# Poissons Ratio (z) = 0.18302 -0.40646
#
# Static dielectric constant tensor:
#      x y z
#    x 1.942430 0.054300 -0.009240 
#    y 0.054300 2.030030 -0.005040 
#    z -0.009240 -0.005040 1.963290 
# 
# From -- ./inp_files/106273.got.cif
#   From: 2010.05.17/outbox.cif.g08.bks.cpg/sg2_54_cif.got.tgz:106273.got - 2010.06.03 11:33:40.
