data_PCOD9107462
_publ_section_title
;
Structure prediction by ZEFSAII (Michael W. Deem and Ramdas Pophale) SiO2 
 PCOD9107462
Probable space group: P -1
;
_chemical_formula_sum "Si O2"
_cell_formula_units_Z 16
_cell_length_a 6.075214
_cell_length_b 9.992160
_cell_length_c 17.240313
_cell_angle_alpha 88.098023
_cell_angle_beta 104.050831
_cell_angle_gamma 43.349850
_cell_volume 661.451646
_symmetry_space_group_name_H-M "P -1"
_symmetry_group_IT_number 2
_symmetry_cell_setting 'triclinic'
loop_
_space_group_symop_operation_xyz
x,y,z
-x,-y,-z
loop_
_atom_site_type_symbol
_atom_site_label
_atom_site_fract_x
_atom_site_fract_y
_atom_site_fract_z
Si Si1 0.805818 0.516462 0.677190
Si Si2 0.356699 0.657019 0.417390
Si Si3 0.312928 0.536872 0.181324
Si Si4 0.509241 0.872590 0.063734
Si Si5 0.606113 0.597932 0.970191
Si Si6 0.122179 0.303547 0.436970
Si Si7 0.679927 0.050656 0.619150
Si Si8 0.588021 0.193436 0.783776
O O1 0.870195 0.338804 0.653998
O O2 0.572888 0.595579 0.730323
O O3 0.683999 0.667851 0.595746
O O4 0.174152 0.403579 0.738505
O O5 0.500000 0.500000 0.500000
O O6 0.174569 0.878976 0.409761
O O7 0.724045 0.525176 0.409270
O O8 0.502437 0.385308 0.127376
O O9 0.299600 0.703286 0.191066
O O10 0.911626 0.686084 0.126044
O O11 0.330758 0.938109 0.132279
O O12 0.410441 0.789373 0.004925
O O13 0.500000 0.000000 0.000000
O O14 0.500000 0.500000 0.000000
O O15 0.000000 0.500000 0.000000
O O16 0.306488 0.199360 0.538013
O O17 0.134152 0.165774 0.389181
O O18 0.683827 0.082343 0.710887
#
# Coordination Sequence:
#
# PCOD9107462 Si02
#       8
#     2   2   2   2   2   2   2   2
#     4  11  21  39  65  90 126 169 225 266 324 400
#     4  12  22  40  67  91 125 181 217 266 332 389
#     4  10  21  38  67  94 123 173 219 264 335 405
#     4  10  23  40  64  97 128 167 215 275 340 406
#     4  10  20  40  64  93 126 169 219 271 331 408
#     4  11  24  42  60  98 131 171 223 272 325 393
#     4  11  23  41  64  93 133 169 215 277 326 386
#     4  11  21  41  65  90 127 172 218 270 337 402
#
# _framework density 24.189219999999999
#
# number of rings (size 3 to 8) (size 9 to 14) (size 15 to 20)
#    0.000    1.250    5.000    1.125    0.000    2.000 
#    2.250    2.500    0.000    0.000    0.000    0.000 
#    0.000    0.000    0.000    0.000    0.000    0.000 
#
# Total GULP energy -89077.167919 kJ/mol
# GULP energy per Si atom -5567.322995 kJ/mol
# Density = 2.413416 g / cm^3
# Si number density = 24.189220 Si / 1000 Ang^3
#
#
#
# Elastic Constant Matrix: (Units=GPa)
#
#
# Indices 1 2 3 4 5 6 
#
# 1 82.7867 29.5565 55.4721 8.3581 -3.0827 25.5074
# 2 29.5565 90.0666 44.4382 28.5143 -4.0359 37.4144
# 3 55.4721 44.4382 169.0998 26.6673 -34.8070 20.8694
# 4 8.3581 28.5143 26.6673 48.0107 9.8590 13.8438
# 5 -3.0827 -4.0359 -34.8070 9.8590 51.8909 -7.0893
# 6 25.5074 37.4144 20.8694 13.8438 -7.0893 45.1723
#
#
#
# Elastic Compliance Matrix: (Units=1/GPa)
#
#
# Indices 1 2 3 4 5 6 
#
# 1 0.019136 -0.000795 -0.006849 0.004816 -0.005712 -0.009355
# 2 -0.000795 0.020085 -0.002536 -0.006429 -0.000763 -0.013165
# 3 -0.006849 -0.002536 0.011108 -0.006448 0.008641 0.004168
# 4 0.004816 -0.006429 -0.006448 0.031384 -0.011295 -0.005806
# 5 -0.005712 -0.000763 0.008641 -0.011295 0.027867 0.007700
# 6 -0.009355 -0.013165 0.004168 -0.005806 0.007700 0.039386
#
#
# Mechanical properties :
#
#
# Convention : Reuss Voigt Hill
#
# Bulk Modulus (GPa) = 33.36777 66.76518 50.06648
# Shear Modulus (GPa) = 27.88397 43.18053 35.53225
#
# Velocity S-wave (km/s) = 3.39889 4.22965 3.83682
# Velocity P-wave (km/s) = 5.40627 7.17735 6.35382
#
# Compressibility (1/GPa) = 0.02996904
#
# Stress axis : x y z
#
# Youngs Moduli (GPa) = 52.25771 49.78908 90.02461
#
# Poissons Ratio (x) = 0.03956 0.61660
# Poissons Ratio (y) = 0.04152 0.22830
# Poissons Ratio (z) = 0.35793 0.12626
#
# Static dielectric constant tensor:
#      x y z
#    x 2.101490 -0.021710 -0.092670 
#    y -0.021710 1.944490 -0.088370 
#    z -0.092670 -0.088370 2.189300 
# 
# From -- ./inp_files/53564.got.cif
#   From: 2010.05.17/outbox.cif.g08.bks.cpg/sg2_27_cif.got.tgz:53564.got - 2010.06.03 11:33:40.
