data_PCOD9107826
_publ_section_title
;
Structure prediction by ZEFSAII (Michael W. Deem and Ramdas Pophale) SiO2 
 PCOD9107826
Probable space group: P -1
;
_chemical_formula_sum "Si O2"
_cell_formula_units_Z 16
_cell_length_a 18.854668
_cell_length_b 15.643316
_cell_length_c 11.646596
_cell_angle_alpha 151.368107
_cell_angle_beta 42.657650
_cell_angle_gamma 153.067902
_cell_volume 727.784217
_symmetry_space_group_name_H-M "P -1"
_symmetry_group_IT_number 2
_symmetry_cell_setting 'triclinic'
loop_
_space_group_symop_operation_xyz
x,y,z
-x,-y,-z
loop_
_atom_site_type_symbol
_atom_site_label
_atom_site_fract_x
_atom_site_fract_y
_atom_site_fract_z
Si Si1 0.818197 0.780537 0.910877
Si Si2 0.174110 0.745674 0.142032
Si Si3 0.641610 0.170743 0.624730
Si Si4 0.144085 0.947678 0.042083
Si Si5 0.787396 0.546991 0.094201
Si Si6 0.863332 0.461101 0.496112
Si Si7 0.775099 0.012421 0.390883
Si Si8 0.686487 0.773113 0.600219
O O1 0.778809 0.527849 0.623797
O O2 0.816772 0.904467 0.948846
O O3 0.728665 0.757385 0.097793
O O4 0.000000 0.000000 0.000000
O O5 0.186769 0.895655 0.414020
O O6 0.277486 0.983495 0.205116
O O7 0.222677 0.616138 0.984925
O O8 0.000000 0.500000 0.000000
O O9 0.803704 0.391767 0.615944
O O10 0.647916 0.989291 0.467478
O O11 0.500000 0.000000 0.500000
O O12 0.655776 0.332878 0.900547
O O13 0.960433 0.739186 0.055361
O O14 0.249070 0.158946 0.268333
O O15 0.180517 0.785421 0.793696
O O16 0.770759 0.724501 0.369869
O O17 0.053486 0.723697 0.561982
O O18 0.500000 0.500000 0.500000
#
# Coordination Sequence:
#
# PCOD9107826 Si02
#       8
#     2   2   2   2   2   2   2   2
#     4  10  23  34  67 106 132 168 220 283 345 396
#     4  11  23  45  74 102 132 181 242 290 338 412
#     4  11  23  40  66 100 146 183 220 280 356 413
#     4  12  23  45  71 101 140 177 238 283 338 415
#     4  11  25  44  74 101 135 185 239 285 340 418
#     4  11  21  40  68  97 137 176 222 281 344 402
#     4  10  20  40  66 101 132 173 232 285 332 414
#     4  12  30  47  71 101 143 188 230 292 352 411
#
# _framework density 21.984539000000002
#
# number of rings (size 3 to 8) (size 9 to 14) (size 15 to 20)
#    0.000    1.000    5.000    2.250    7.000    1.500 
#    4.500    0.625    0.000    0.000    0.000    0.000 
#    0.000    0.000    0.000    0.000    0.000    0.000 
#
# Total GULP energy -89350.843103 kJ/mol
# GULP energy per Si atom -5584.427694 kJ/mol
# Density = 2.193450 g / cm^3
# Si number density = 21.984539 Si / 1000 Ang^3
#
#
#
# Elastic Constant Matrix: (Units=GPa)
#
#
# Indices 1 2 3 4 5 6 
#
# 1 114.0438 11.0008 57.8513 0.8676 26.3805 -6.6424
# 2 11.0008 29.9536 1.9007 7.1768 5.0039 -4.8350
# 3 57.8513 1.9007 120.7368 -20.1363 -0.5610 7.5959
# 4 0.8676 7.1768 -20.1363 36.0305 0.2768 0.4877
# 5 26.3805 5.0039 -0.5610 0.2768 49.2681 2.3282
# 6 -6.6424 -4.8350 7.5959 0.4877 2.3282 21.4838
#
#
#
# Elastic Compliance Matrix: (Units=1/GPa)
#
#
# Indices 1 2 3 4 5 6 
#
# 1 0.016283 -0.001079 -0.009313 -0.005436 -0.009119 0.009196
# 2 -0.001079 0.038242 -0.002198 -0.008922 -0.003738 0.009657
# 3 -0.009313 -0.002198 0.014917 0.009083 0.005777 -0.009480
# 4 -0.005436 -0.008922 0.009083 0.034817 0.004109 -0.008136
# 5 -0.009119 -0.003738 0.005777 0.004109 0.026009 -0.008615
# 6 0.009196 0.009657 -0.009480 -0.008136 -0.008615 0.056033
#
#
# Mechanical properties :
#
#
# Convention : Reuss Voigt Hill
#
# Bulk Modulus (GPa) = 22.59224 45.13775 33.86499
# Shear Modulus (GPa) = 22.10092 34.28859 28.19475
#
# Velocity S-wave (km/s) = 3.17408 3.95355 3.58506
# Velocity P-wave (km/s) = 4.87152 6.43559 5.70739
#
# Compressibility (1/GPa) = 0.04426298
#
# Stress axis : x y z
#
# Youngs Moduli (GPa) = 61.41341 26.14959 67.03613
#
# Poissons Ratio (x) = 0.02821 0.62428
# Poissons Ratio (y) = 0.06626 0.14734
# Poissons Ratio (z) = 0.57192 0.05747
#
# Static dielectric constant tensor:
#      x y z
#    x 1.808890 -0.005850 -0.039050 
#    y -0.005850 1.814260 0.007620 
#    z -0.039050 0.007620 1.872660 
# 
# From -- ./inp_files/466154.got.cif
#   From: 2010.05.17/outbox.cif.g08.bks.cpg/sg2_234_cif.got.tgz:466154.got - 2010.06.03 11:33:40.
