data_PCOD9107678
_publ_section_title
;
Structure prediction by ZEFSAII (Michael W. Deem and Ramdas Pophale) SiO2 
 PCOD9107678
Probable space group: P -1
;
_chemical_formula_sum "Si O2"
_cell_formula_units_Z 16
_cell_length_a 18.561994
_cell_length_b 11.994861
_cell_length_c 22.267079
_cell_angle_alpha 155.517765
_cell_angle_beta 17.466029
_cell_angle_gamma 150.530979
_cell_volume 616.526273
_symmetry_space_group_name_H-M "P -1"
_symmetry_group_IT_number 2
_symmetry_cell_setting 'triclinic'
loop_
_space_group_symop_operation_xyz
x,y,z
-x,-y,-z
loop_
_atom_site_type_symbol
_atom_site_label
_atom_site_fract_x
_atom_site_fract_y
_atom_site_fract_z
Si Si1 0.885362 0.269466 0.866522
Si Si2 0.469796 0.794385 0.137416
Si Si3 0.312060 0.239879 0.764957
Si Si4 0.316290 0.199183 0.561648
Si Si5 0.754498 0.500463 0.409140
Si Si6 0.941345 0.817087 0.812196
Si Si7 0.935519 0.722182 0.496582
Si Si8 0.328779 0.101556 0.809162
O O1 0.042091 0.255792 0.795547
O O2 0.069337 0.408701 0.739938
O O3 0.665858 0.473860 0.144248
O O4 0.833068 0.975541 0.737931
O O5 0.226188 0.774854 0.282827
O O6 0.405449 0.043329 0.354393
O O7 0.500000 0.500000 0.000000
O O8 0.751168 0.836596 0.918402
O O9 0.500000 0.000000 0.500000
O O10 0.294870 0.297600 0.877806
O O11 0.089018 0.090515 0.837679
O O12 0.490725 0.450040 0.563613
O O13 0.392086 0.971004 0.437662
O O14 0.788851 0.192907 0.254955
O O15 0.815851 0.678088 0.505462
O O16 0.083927 0.541236 0.573243
O O17 0.785836 0.812872 0.995936
#
# Coordination Sequence:
#
# PCOD9107678 Si02
#       8
#     2   2   2   2   2   2   2   2
#     4  11  20  33  50  88 113 138 180 241 270 315
#     4   8  15  26  47  81 112 140 174 214 271 328
#     4  12  23  36  56  83 109 145 195 232 266 322
#     4   8  17  31  52  78 109 147 177 219 273 329
#     4  10  17  30  56  83 115 138 180 222 280 321
#     4  10  16  35  57  78 110 154 178 220 274 339
#     4  10  19  29  51  88 119 139 173 227 287 327
#     4   9  18  34  59  79 108 142 185 215 275 324
#
# _framework density 25.951853
#
# number of rings (size 3 to 8) (size 9 to 14) (size 15 to 20)
#    0.750    1.500    2.500    1.875    0.000    1.000 
#    0.000    1.250    0.000    0.000    0.000   43.750 
#    0.000    0.000    0.000    0.000    0.000    0.000 
#
# Total GULP energy -89174.594435 kJ/mol
# GULP energy per Si atom -5573.412152 kJ/mol
# Density = 2.589279 g / cm^3
# Si number density = 25.951853 Si / 1000 Ang^3
#
#
#
# Elastic Constant Matrix: (Units=GPa)
#
#
# Indices 1 2 3 4 5 6 
#
# 1 87.8738 54.6322 36.4867 1.9141 -7.4182 28.5750
# 2 54.6322 75.6183 30.6492 19.2483 2.4273 30.6299
# 3 36.4867 30.6492 132.0177 33.4841 -21.6242 9.6511
# 4 1.9141 19.2483 33.4841 38.9011 -0.0778 1.5699
# 5 -7.4182 2.4273 -21.6242 -0.0778 40.6264 3.9423
# 6 28.5750 30.6299 9.6511 1.5699 3.9423 47.9811
#
#
#
# Elastic Compliance Matrix: (Units=1/GPa)
#
#
# Indices 1 2 3 4 5 6 
#
# 1 0.026535 -0.019067 -0.005370 0.012890 0.003467 -0.003257
# 2 -0.019067 0.035157 0.001722 -0.017520 -0.003675 -0.010559
# 3 -0.005370 0.001722 0.012475 -0.011294 0.005583 -0.000499
# 4 0.012890 -0.017520 -0.011294 0.043270 -0.002975 0.004608
# 5 0.003467 -0.003675 0.005583 -0.002975 0.028735 -0.003105
# 6 -0.003257 -0.010559 -0.000499 0.004608 -0.003105 0.029727
#
#
# Mechanical properties :
#
#
# Convention : Reuss Voigt Hill
#
# Bulk Modulus (GPa) = 34.80120 59.89401 47.34761
# Shear Modulus (GPa) = 21.65353 37.08449 29.36901
#
# Velocity S-wave (km/s) = 2.89169 3.78428 3.36768
# Velocity P-wave (km/s) = 4.95864 6.49795 5.77977
#
# Compressibility (1/GPa) = 0.02873464
#
# Stress axis : x y z
#
# Youngs Moduli (GPa) = 37.68563 28.44402 80.16095
#
# Poissons Ratio (x) = 0.54235 0.43050
# Poissons Ratio (y) = 0.71856 -0.13800
# Poissons Ratio (z) = 0.20239 -0.04897
#
# Static dielectric constant tensor:
#      x y z
#    x 2.088160 0.035260 -0.044640 
#    y 0.035260 2.068210 -0.101850 
#    z -0.044640 -0.101850 2.276790 
# 
# From -- ./inp_files/620822.got.cif
#   From: 2010.05.17/outbox.cif.g08.bks.cpg/sg2_311_cif.got.tgz:620822.got - 2010.06.03 11:33:40.
