data_PCOD9107517
_publ_section_title
;
Structure prediction by ZEFSAII (Michael W. Deem and Ramdas Pophale) SiO2 
 PCOD9107517
Probable space group: P -1
;
_chemical_formula_sum "Si O2"
_cell_formula_units_Z 15
_cell_length_a 14.449677
_cell_length_b 20.622669
_cell_length_c 12.407947
_cell_angle_alpha 29.492424
_cell_angle_beta 137.332555
_cell_angle_gamma 156.845986
_cell_volume 674.175690
_symmetry_space_group_name_H-M "P -1"
_symmetry_group_IT_number 2
_symmetry_cell_setting 'triclinic'
loop_
_space_group_symop_operation_xyz
x,y,z
-x,-y,-z
loop_
_atom_site_type_symbol
_atom_site_label
_atom_site_fract_x
_atom_site_fract_y
_atom_site_fract_z
Si Si1 0.448869 0.954444 0.278215
Si Si2 0.976706 0.550413 0.572918
Si Si3 0.364057 0.508315 0.749859
Si Si4 0.636331 0.642584 0.576173
Si Si5 0.500000 0.000000 0.000000
Si Si6 0.828692 0.908420 0.711371
Si Si7 0.102293 0.774475 0.580355
Si Si8 0.457544 0.680357 0.178950
O O1 0.509636 0.984265 0.162564
O O2 0.198925 0.680852 0.498834
O O3 0.676231 0.102138 0.336424
O O4 0.396902 0.069193 0.081172
O O5 0.807272 0.523084 0.408628
O O6 0.102799 0.719965 0.539842
O O7 0.791267 0.287262 0.833627
O O8 0.534465 0.579771 0.698874
O O9 0.567528 0.729197 0.688241
O O10 0.201787 0.264130 0.021802
O O11 0.541374 0.686119 0.356578
O O12 0.525089 0.420384 0.748736
O O13 0.935701 0.884459 0.466785
O O14 0.879662 0.052418 0.642920
O O15 0.834016 0.520609 0.767930
#
# Coordination Sequence:
#
# PCOD9107517 Si02
#       8
#     2   2   2   2   1   2   2   2
#     4  12  25  45  69  99 134 178 226 274 332 404
#     4  12  26  44  70 100 133 180 223 277 334 399
#     4  11  22  43  66  96 137 171 220 271 333 390
#     4  10  20  40  64  96 132 171 217 268 330 391
#     4  12  26  46  68  94 134 178 218 278 336 388
#     4  10  24  39  65  99 130 175 220 272 326 400
#     4  11  23  45  66 100 139 173 227 277 329 394
#     4  10  21  39  67  99 130 171 220 274 330 386
#
# _framework density 22.249393999999999
#
# number of rings (size 3 to 8) (size 9 to 14) (size 15 to 20)
#    0.000    1.067    2.667    3.200    1.867    0.533 
#    0.000    6.667    0.000    0.000    0.000    0.000 
#    0.000    0.000    0.000    0.000    0.000    0.000 
#
# Total GULP energy -83684.633318 kJ/mol
# GULP energy per Si atom -5578.975555 kJ/mol
# Density = 2.219875 g / cm^3
# Si number density = 22.249394 Si / 1000 Ang^3
#
#
#
# Elastic Constant Matrix: (Units=GPa)
#
#
# Indices 1 2 3 4 5 6 
#
# 1 33.7707 36.2807 43.3391 3.9452 -25.1633 2.4813
# 2 36.2807 113.9621 20.9694 1.1971 -15.0698 -12.0400
# 3 43.3391 20.9694 61.7008 -16.0089 -17.7765 -8.2598
# 4 3.9452 1.1971 -16.0089 27.4553 2.6516 4.5246
# 5 -25.1633 -15.0698 -17.7765 2.6516 31.2950 -1.6257
# 6 2.4813 -12.0400 -8.2598 4.5246 -1.6257 29.8870
#
#
#
# Elastic Compliance Matrix: (Units=1/GPa)
#
#
# Indices 1 2 3 4 5 6 
#
# 1 -0.066879 0.010626 0.048373 0.036927 -0.023461 0.016336
# 2 0.010626 0.008543 -0.010264 -0.008868 0.007656 0.001482
# 3 0.048373 -0.010264 -0.010716 -0.014306 0.028695 -0.007386
# 4 0.036927 -0.008868 -0.014306 0.023968 0.014567 -0.013428
# 5 -0.023461 0.007656 0.028695 0.014567 0.032492 0.012524
# 6 0.016336 0.001482 -0.007386 -0.013428 0.012524 0.033373
#
#
# Mechanical properties :
#
#
# Convention : Reuss Voigt Hill
#
# Bulk Modulus (GPa) = 35.18747 45.62356 40.40552
# Shear Modulus (GPa) = -74.38566 24.98373 -24.70096
#
# Velocity S-wave (km/s) = -5.78837 3.35460 -3.33556
# Velocity P-wave (km/s) = 5.36883 5.96276 1.83442
#
# Compressibility (1/GPa) = 0.02841921
#
# Stress axis : x y z
#
# Youngs Moduli (GPa) = -14.95238 117.06064 -93.32098
#
# Poissons Ratio (x) = -1.24390 4.51426
# Poissons Ratio (y) = 0.15889 -0.95784
# Poissons Ratio (z) = 0.72330 1.20150
#
# Static dielectric constant tensor:
#      x y z
#    x 1.823520 0.001610 0.046380 
#    y 0.001610 1.798040 -0.013130 
#    z 0.046380 -0.013130 1.815230 
# 
# From -- ./inp_files/390120.got.cif
#   From: 2010.05.17/outbox.cif.g08.bks.cpg/sg2_196_cif.got.tgz:390120.got - 2010.06.03 11:33:40.
