data_PCOD9107820
_publ_section_title
;
Structure prediction by ZEFSAII (Michael W. Deem and Ramdas Pophale) SiO2 
 PCOD9107820
Probable space group: P -1
;
_chemical_formula_sum "Si O2"
_cell_formula_units_Z 14
_cell_length_a 5.589258
_cell_length_b 15.805701
_cell_length_c 9.729346
_cell_angle_alpha 62.841389
_cell_angle_beta 81.869388
_cell_angle_gamma 57.342433
_cell_volume 637.506638
_symmetry_space_group_name_H-M "P -1"
_symmetry_group_IT_number 2
_symmetry_cell_setting 'triclinic'
loop_
_space_group_symop_operation_xyz
x,y,z
-x,-y,-z
loop_
_atom_site_type_symbol
_atom_site_label
_atom_site_fract_x
_atom_site_fract_y
_atom_site_fract_z
Si Si1 0.592939 0.112581 0.529572
Si Si2 0.041944 0.693510 0.633362
Si Si3 0.981246 0.867547 0.722019
Si Si4 0.700443 0.524030 0.065340
Si Si5 0.174311 0.808687 0.316469
Si Si6 0.657752 0.222831 0.985307
Si Si7 0.296463 0.986873 0.923037
O O1 0.286384 0.226341 0.446700
O O2 0.697145 0.130472 0.655315
O O3 0.786647 0.114477 0.388335
O O4 0.680976 0.982560 0.626544
O O5 0.029928 0.756829 0.727763
O O6 0.194330 0.563225 0.751527
O O7 0.210259 0.713714 0.486278
O O8 0.060405 0.843694 0.892387
O O9 0.528626 0.654441 0.025863
O O10 0.500000 0.500000 0.000000
O O11 0.000000 0.500000 0.000000
O O12 0.294083 0.764822 0.188120
O O13 0.841906 0.908144 0.247521
O O14 0.541864 0.138934 0.058854
O O15 0.500000 0.000000 0.000000
O O16 0.000000 0.000000 0.000000
#
# Coordination Sequence:
#
# PCOD9107820 Si02
#       7
#     2   2   2   2   2   2   2
#     4  10  21  40  62 102 143 183 232 294 364 421
#     4  11  24  42  69  99 144 189 238 295 355 425
#     4  10  20  40  66 100 140 185 240 292 356 422
#     4  12  28  51  75 103 141 193 245 299 345 429
#     4  10  24  40  67 104 143 180 231 300 363 419
#     4  11  23  46  72 105 142 190 244 288 361 424
#     4  10  23  42  67 104 147 182 224 289 357 423
#
# _framework density 21.960557000000001
#
# number of rings (size 3 to 8) (size 9 to 14) (size 15 to 20)
#    0.000    1.429    2.857    1.286    6.000    2.857 
#    7.714    0.714    0.000    0.000    0.000    0.000 
#    0.000    0.000    0.000    0.000    0.000    0.000 
#
# Total GULP energy -78136.787436 kJ/mol
# GULP energy per Si atom -5581.199103 kJ/mol
# Density = 2.191057 g / cm^3
# Si number density = 21.960557 Si / 1000 Ang^3
#
#
#
# Elastic Constant Matrix: (Units=GPa)
#
#
# Indices 1 2 3 4 5 6 
#
# 1 79.7050 35.9447 36.1737 -2.1901 10.4663 6.7378
# 2 35.9447 142.1094 44.2582 -18.6591 6.6428 7.8241
# 3 36.1737 44.2582 124.6855 -4.4820 21.5473 9.7515
# 4 -2.1901 -18.6591 -4.4820 55.1574 -2.2628 0.9102
# 5 10.4663 6.6428 21.5473 -2.2628 31.7708 5.3689
# 6 6.7378 7.8241 9.7515 0.9102 5.3689 31.9993
#
#
#
# Elastic Compliance Matrix: (Units=1/GPa)
#
#
# Indices 1 2 3 4 5 6 
#
# 1 0.015628 -0.002925 -0.003021 -0.000689 -0.002327 -0.001245
# 2 -0.002925 0.008865 -0.002294 0.002758 0.001049 -0.001107
# 3 -0.003021 -0.002294 0.010768 -0.000234 -0.005654 -0.001129
# 4 -0.000689 0.002758 -0.000234 0.019093 0.001377 -0.001232
# 5 -0.002327 0.001049 -0.005654 0.001377 0.036671 -0.004236
# 6 -0.001245 -0.001107 -0.001129 -0.001232 -0.004236 0.032873
#
#
# Mechanical properties :
#
#
# Convention : Reuss Voigt Hill
#
# Bulk Modulus (GPa) = 53.24499 64.36147 58.80323
# Shear Modulus (GPa) = 34.09725 39.12704 36.61215
#
# Velocity S-wave (km/s) = 3.94465 4.22559 4.08754
# Velocity P-wave (km/s) = 6.71159 7.29239 7.00801
#
# Compressibility (1/GPa) = 0.01878111
#
# Stress axis : x y z
#
# Youngs Moduli (GPa) = 63.98594 112.80192 92.86990
#
# Poissons Ratio (x) = 0.32999 0.28057
# Poissons Ratio (y) = 0.18718 0.21301
# Poissons Ratio (z) = 0.19331 0.25873
#
# Static dielectric constant tensor:
#      x y z
#    x 1.920290 -0.004530 -0.049350 
#    y -0.004530 1.827700 0.012740 
#    z -0.049350 0.012740 1.828860 
# 
# From -- ./inp_files/66548.got.cif
#   From: 2010.05.17/outbox.cif.g08.bks.cpg/sg2_34_cif.got.tgz:66548.got - 2010.06.03 11:33:40.
