data_PCOD9107094
_publ_section_title
;
Structure prediction by ZEFSAII (Michael W. Deem and Ramdas Pophale) SiO2 
 PCOD9107094
Probable space group: P -1
;
_chemical_formula_sum "Si O2"
_cell_formula_units_Z 16
_cell_length_a 14.889722
_cell_length_b 6.621576
_cell_length_c 8.402363
_cell_angle_alpha 118.169117
_cell_angle_beta 91.345040
_cell_angle_gamma 73.029709
_cell_volume 692.049066
_symmetry_space_group_name_H-M "P -1"
_symmetry_group_IT_number 2
_symmetry_cell_setting 'triclinic'
loop_
_space_group_symop_operation_xyz
x,y,z
-x,-y,-z
loop_
_atom_site_type_symbol
_atom_site_label
_atom_site_fract_x
_atom_site_fract_y
_atom_site_fract_z
Si Si1 0.058896 0.860179 0.138702
Si Si2 0.444248 0.189217 0.935803
Si Si3 0.772121 0.037538 0.006348
Si Si4 0.964704 0.371715 0.257073
Si Si5 0.390412 0.062616 0.570160
Si Si6 0.376495 0.724809 0.186757
Si Si7 0.237834 0.534929 0.615631
Si Si8 0.851255 0.504727 0.726613
O O1 0.137077 0.926937 0.063197
O O2 0.109610 0.721866 0.241959
O O3 0.022910 0.693938 0.955581
O O4 0.980239 0.118023 0.256736
O O5 0.388764 0.073867 0.765793
O O6 0.521622 0.260288 0.858447
O O7 0.381213 0.447070 0.097830
O O8 0.500000 0.000000 0.000000
O O9 0.690331 0.143304 0.911873
O O10 0.797852 0.749750 0.913091
O O11 0.756363 0.212038 0.222408
O O12 0.854726 0.517979 0.330901
O O13 0.051863 0.466770 0.335181
O O14 0.330223 0.323866 0.597457
O O15 0.500000 0.000000 0.500000
O O16 0.352541 0.869889 0.404818
O O17 0.217380 0.527605 0.426012
#
# Coordination Sequence:
#
# PCOD9107094 Si02
#       8
#     2   2   2   2   2   2   2   2
#     4   9  20  38  61  88 122 158 198 248 292 352
#     4  10  22  39  65  90 114 154 202 253 297 356
#     4  10  21  39  59  88 123 159 192 242 301 353
#     4   9  20  38  60  84 125 160 195 244 304 349
#     4  10  21  40  63  87 121 159 196 248 303 350
#     4  10  20  40  63  82 122 157 192 243 309 352
#     4  11  21  38  61  90 119 159 201 247 297 358
#     4  11  21  38  64  88 119 160 203 242 297 354
#
# _framework density 23.119748999999999
#
# number of rings (size 3 to 8) (size 9 to 14) (size 15 to 20)
#    0.000    2.000    2.500    1.500    0.000    2.000 
#    0.000    6.250    0.000    0.000    0.000    0.000 
#    0.000    0.000    0.000    0.000    0.000    0.000 
#
# Total GULP energy -89388.632760 kJ/mol
# GULP energy per Si atom -5586.789547 kJ/mol
# Density = 2.306713 g / cm^3
# Si number density = 23.119749 Si / 1000 Ang^3
#
#
#
# Elastic Constant Matrix: (Units=GPa)
#
#
# Indices 1 2 3 4 5 6 
#
# 1 75.6522 17.8836 23.7607 9.0942 8.0228 -17.3677
# 2 17.8836 129.9411 47.6101 -9.3291 -1.9587 -25.0209
# 3 23.7607 47.6101 157.9686 0.4652 25.9455 -10.1529
# 4 9.0942 -9.3291 0.4652 31.6605 -16.3399 4.4469
# 5 8.0228 -1.9587 25.9455 -16.3399 30.3087 -1.5365
# 6 -17.3677 -25.0209 -10.1529 4.4469 -1.5365 40.0922
#
#
#
# Elastic Compliance Matrix: (Units=1/GPa)
#
#
# Indices 1 2 3 4 5 6 
#
# 1 0.018254 -0.002381 0.000503 -0.013317 -0.012213 0.007558
# 2 -0.002381 0.011241 -0.004423 0.008625 0.010011 0.004290
# 3 0.000503 -0.004423 0.009850 -0.008597 -0.013466 0.000389
# 4 -0.013317 0.008625 -0.008597 0.062166 0.044563 -0.007750
# 5 -0.012213 0.010011 -0.013466 0.044563 0.072191 -0.004629
# 6 0.007558 0.004290 0.000389 -0.007750 -0.004629 0.031675
#
#
# Mechanical properties :
#
#
# Convention : Reuss Voigt Hill
#
# Bulk Modulus (GPa) = 37.39602 60.23007 48.81304
# Shear Modulus (GPa) = 22.03671 38.69945 30.36808
#
# Velocity S-wave (km/s) = 3.09067 4.09573 3.62817
# Velocity P-wave (km/s) = 5.38018 6.96237 6.22178
#
# Compressibility (1/GPa) = 0.02674082
#
# Stress axis : x y z
#
# Youngs Moduli (GPa) = 54.78113 88.96363 101.52319
#
# Poissons Ratio (x) = 0.21186 -0.05105
# Poissons Ratio (y) = 0.13046 0.44909
# Poissons Ratio (z) = -0.02755 0.39353
#
# Static dielectric constant tensor:
#      x y z
#    x 1.954900 -0.005530 -0.007080 
#    y -0.005530 1.813160 0.029950 
#    z -0.007080 0.029950 1.966430 
# 
# From -- ./inp_files/296703.got.cif
#   From: 2010.05.17/outbox.cif.g08.bks.cpg/sg2_149_cif.got.tgz:296703.got - 2010.06.03 11:33:40.
