data_PCOD9107944
_publ_section_title
;
Structure prediction by ZEFSAII (Michael W. Deem and Ramdas Pophale) SiO2 
 PCOD9107944
Probable space group: P -1
;
_chemical_formula_sum "Si O2"
_cell_formula_units_Z 16
_cell_length_a 9.066409
_cell_length_b 16.499968
_cell_length_c 10.841413
_cell_angle_alpha 110.324845
_cell_angle_beta 73.906689
_cell_angle_gamma 156.195267
_cell_volume 610.306182
_symmetry_space_group_name_H-M "P -1"
_symmetry_group_IT_number 2
_symmetry_cell_setting 'triclinic'
loop_
_space_group_symop_operation_xyz
x,y,z
-x,-y,-z
loop_
_atom_site_type_symbol
_atom_site_label
_atom_site_fract_x
_atom_site_fract_y
_atom_site_fract_z
Si Si1 0.933865 0.335993 0.386139
Si Si2 0.242923 0.315879 0.365274
Si Si3 0.978625 0.011472 0.202341
Si Si4 0.056378 0.398366 0.660783
Si Si5 0.768535 0.103109 0.694631
Si Si6 0.168130 0.623280 0.817688
Si Si7 0.785190 0.718905 0.095819
Si Si8 0.585609 0.938052 0.064952
O O1 0.987404 0.407604 0.281674
O O2 0.048787 0.294617 0.332329
O O3 0.105923 0.456116 0.538776
O O4 0.495972 0.110736 0.388150
O O5 0.500000 0.500000 0.500000
O O6 0.565757 0.437500 0.275635
O O7 0.005021 0.108495 0.343823
O O8 0.399172 0.186587 0.202083
O O9 0.735167 0.798640 0.148966
O O10 0.827865 0.990141 0.109497
O O11 0.926740 0.413616 0.775233
O O12 0.828912 0.194557 0.610799
O O13 0.572547 0.068276 0.816120
O O14 0.115985 0.248168 0.766419
O O15 0.223750 0.711618 0.967151
O O16 0.500000 0.500000 0.000000
O O17 0.142435 0.889120 0.013974
#
# Coordination Sequence:
#
# PCOD9107944 Si02
#       8
#     2   2   2   2   2   2   2   2
#     4  11  20  42  68  90 125 171 215 268 323 377
#     4   9  20  39  69  92 121 167 217 260 320 380
#     4  10  20  40  66  91 131 167 208 267 329 384
#     4  10  24  40  63  96 127 169 220 260 321 387
#     4  12  24  40  63  92 133 171 211 267 320 387
#     4  10  21  39  66  96 124 167 212 269 322 385
#     4  11  25  40  64  97 129 170 216 266 322 390
#     4  11  23  42  65  91 131 172 212 259 340 383
#
# _framework density 26.216349999999998
#
# number of rings (size 3 to 8) (size 9 to 14) (size 15 to 20)
#    0.000    1.500    3.750    2.625    5.250    0.500 
#    0.000    0.000    0.000    2.250    0.000    0.000 
#    0.000    0.000    0.000    0.000    0.000    0.000 
#
# Total GULP energy -89135.157980 kJ/mol
# GULP energy per Si atom -5570.947374 kJ/mol
# Density = 2.615668 g / cm^3
# Si number density = 26.216350 Si / 1000 Ang^3
#
#
#
# Elastic Constant Matrix: (Units=GPa)
#
#
# Indices 1 2 3 4 5 6 
#
# 1 123.8187 21.8058 44.4155 8.3868 8.5970 -21.6499
# 2 21.8058 70.1538 24.9289 18.2922 3.6146 -29.3459
# 3 44.4155 24.9289 84.1674 15.7655 20.2216 -14.2133
# 4 8.3868 18.2922 15.7655 50.2379 -7.7584 -11.2418
# 5 8.5970 3.6146 20.2216 -7.7584 52.1671 -0.5085
# 6 -21.6499 -29.3459 -14.2133 -11.2418 -0.5085 34.5726
#
#
#
# Elastic Compliance Matrix: (Units=1/GPa)
#
#
# Indices 1 2 3 4 5 6 
#
# 1 0.010671 0.000451 -0.005140 0.000902 0.000388 0.005251
# 2 0.000451 0.023821 -0.003365 -0.003821 -0.000815 0.017864
# 3 -0.005140 -0.003365 0.017995 -0.004645 -0.006589 -0.000284
# 4 0.000902 -0.003821 -0.004645 0.024214 0.005551 0.003367
# 5 0.000388 -0.000815 -0.006589 0.005551 0.022531 -0.001021
# 6 0.005251 0.017864 -0.000284 0.003367 -0.001021 0.048339
#
#
# Mechanical properties :
#
#
# Convention : Reuss Voigt Hill
#
# Bulk Modulus (GPa) = 27.48880 51.16003 39.32442
# Shear Modulus (GPa) = 28.44024 39.86151 34.15088
#
# Velocity S-wave (km/s) = 3.29725 3.90357 3.61315
# Velocity P-wave (km/s) = 5.00039 6.31459 5.69552
#
# Compressibility (1/GPa) = 0.03637845
#
# Stress axis : x y z
#
# Youngs Moduli (GPa) = 93.71341 41.97957 55.56993
#
# Poissons Ratio (x) = -0.01893 0.28564
# Poissons Ratio (y) = -0.04226 0.18701
# Poissons Ratio (z) = 0.48170 0.14127
#
# Static dielectric constant tensor:
#      x y z
#    x 2.124240 0.055400 -0.039800 
#    y 0.055400 2.243150 0.017410 
#    z -0.039800 0.017410 2.102950 
# 
# From -- ./inp_files/200388.got.cif
#   From: 2010.05.17/outbox.cif.g08.bks.cpg/sg2_101_cif.got.tgz:200388.got - 2010.06.03 11:33:40.
