data_PCOD9107572
_publ_section_title
;
Structure prediction by ZEFSAII (Michael W. Deem and Ramdas Pophale) SiO2 
 PCOD9107572
Probable space group: P -1
;
_chemical_formula_sum "Si O2"
_cell_formula_units_Z 14
_cell_length_a 11.192878
_cell_length_b 8.323018
_cell_length_c 9.179429
_cell_angle_alpha 47.244056
_cell_angle_beta 75.525768
_cell_angle_gamma 55.602548
_cell_volume 505.347823
_symmetry_space_group_name_H-M "P -1"
_symmetry_group_IT_number 2
_symmetry_cell_setting 'triclinic'
loop_
_space_group_symop_operation_xyz
x,y,z
-x,-y,-z
loop_
_atom_site_type_symbol
_atom_site_label
_atom_site_fract_x
_atom_site_fract_y
_atom_site_fract_z
Si Si1 0.204566 0.286861 0.437171
Si Si2 0.195192 0.000310 0.061847
Si Si3 0.726532 0.382942 0.357154
Si Si4 0.372622 0.118870 0.752199
Si Si5 0.030652 0.824246 0.347302
Si Si6 0.484103 0.568053 0.131840
Si Si7 0.173589 0.371654 0.057398
O O1 0.356961 0.127110 0.579694
O O2 0.109178 0.562001 0.385767
O O3 0.212749 0.338438 0.234321
O O4 0.116825 0.141324 0.568070
O O5 0.039966 0.034907 0.117339
O O6 0.318683 0.700785 0.162942
O O7 0.246605 0.087188 0.133120
O O8 0.214150 0.163649 0.829808
O O9 0.626418 0.645642 0.324455
O O10 0.864298 0.208032 0.529221
O O11 0.605584 0.348771 0.337633
O O12 0.789434 0.452204 0.156259
O O13 0.487725 0.833446 0.958866
O O14 0.500000 0.500000 0.000000
O O15 0.000000 0.500000 0.000000
#
# Coordination Sequence:
#
# PCOD9107572 Si02
#       7
#     2   2   2   2   2   2   2
#     4  10  21  38  62  87 128 155 209 239 305 369
#     4   9  23  40  59  91 122 155 209 245 309 343
#     4  10  20  40  65  83 128 161 199 246 305 356
#     4   8  20  40  58  87 118 164 194 250 295 358
#     4  10  21  39  61  93 121 165 194 256 301 357
#     4  10  22  40  63  90 119 159 207 252 296 357
#     4  11  22  40  62  95 118 164 202 246 305 368
#
# _framework density 27.703692
#
# number of rings (size 3 to 8) (size 9 to 14) (size 15 to 20)
#    0.857    1.429    1.429    0.429    4.000    2.857 
#    2.571    0.714    0.000    0.000    0.000    0.000 
#    0.000    0.000    0.000    0.000    0.000    0.000 
#
# Total GULP energy -78281.330708 kJ/mol
# GULP energy per Si atom -5591.523622 kJ/mol
# Density = 2.764064 g / cm^3
# Si number density = 27.703692 Si / 1000 Ang^3
#
#
#
# Elastic Constant Matrix: (Units=GPa)
#
#
# Indices 1 2 3 4 5 6 
#
# 1 78.3592 23.7981 39.5509 16.4196 9.8486 5.3187
# 2 23.7981 108.0338 36.9584 26.9526 8.0857 2.1891
# 3 39.5509 36.9584 129.8411 47.7511 29.7528 15.7177
# 4 16.4196 26.9526 47.7511 47.5221 11.4211 6.4586
# 5 9.8486 8.0857 29.7528 11.4211 65.2582 4.5262
# 6 5.3187 2.1891 15.7177 6.4586 4.5262 34.5664
#
#
#
# Elastic Compliance Matrix: (Units=1/GPa)
#
#
# Indices 1 2 3 4 5 6 
#
# 1 0.015464 -0.001989 -0.004024 -0.000068 -0.000214 -0.000383
# 2 -0.001989 0.011203 -0.000923 -0.004894 0.000126 0.000914
# 3 -0.004024 -0.000923 0.014671 -0.011476 -0.003726 -0.003361
# 4 -0.000068 -0.004894 -0.011476 0.035593 -0.000306 -0.001072
# 5 -0.000214 0.000126 -0.003726 -0.000306 0.017125 -0.000466
# 6 -0.000383 0.000914 -0.003361 -0.001072 -0.000466 0.030721
#
#
# Mechanical properties :
#
#
# Convention : Reuss Voigt Hill
#
# Bulk Modulus (GPa) = 36.40672 57.42766 46.91719
# Shear Modulus (GPa) = 33.82869 43.86445 38.84657
#
# Velocity S-wave (km/s) = 3.49820 3.98344 3.74868
# Velocity P-wave (km/s) = 5.43015 6.47544 5.97569
#
# Compressibility (1/GPa) = 0.02746745
#
# Stress axis : x y z
#
# Youngs Moduli (GPa) = 64.66626 89.26000 68.16094
#
# Poissons Ratio (x) = 0.17755 0.27426
# Poissons Ratio (y) = 0.12863 0.06288
# Poissons Ratio (z) = 0.26020 0.08235
#
# Static dielectric constant tensor:
#      x y z
#    x 2.228870 -0.024360 -0.027280 
#    y -0.024360 2.235010 -0.042400 
#    z -0.027280 -0.042400 2.131520 
# 
# From -- ./inp_files/162637.got.cif
#   From: 2010.05.17/outbox.cif.g08.bks.cpg/sg2_82_cif.got.tgz:162637.got - 2010.06.03 11:33:40.
