data_PCOD9107596
_publ_section_title
;
Structure prediction by ZEFSAII (Michael W. Deem and Ramdas Pophale) SiO2 
 PCOD9107596
Probable space group: P -1
;
_chemical_formula_sum "Si O2"
_cell_formula_units_Z 14
_cell_length_a 24.316457
_cell_length_b 8.379474
_cell_length_c 23.804243
_cell_angle_alpha 45.395869
_cell_angle_beta 12.006281
_cell_angle_gamma 46.803272
_cell_volume 718.265720
_symmetry_space_group_name_H-M "P -1"
_symmetry_group_IT_number 2
_symmetry_cell_setting 'triclinic'
loop_
_space_group_symop_operation_xyz
x,y,z
-x,-y,-z
loop_
_atom_site_type_symbol
_atom_site_label
_atom_site_fract_x
_atom_site_fract_y
_atom_site_fract_z
Si Si1 0.449190 0.910172 0.135817
Si Si2 0.491343 0.592754 0.818801
Si Si3 0.245709 0.378071 0.756474
Si Si4 0.332249 0.850092 0.803212
Si Si5 0.855346 0.778276 0.225216
Si Si6 0.029629 0.413639 0.584876
Si Si7 0.935481 0.152094 0.631117
O O1 0.398777 0.646542 0.251170
O O2 0.212134 0.047935 0.364208
O O3 0.500000 0.000000 0.000000
O O4 0.711270 0.965829 0.894770
O O5 0.422965 0.744294 0.796982
O O6 0.724410 0.686127 0.602640
O O7 0.222885 0.549664 0.132637
O O8 0.500000 0.500000 0.500000
O O9 0.211144 0.382072 0.721790
O O10 0.260037 0.110791 0.820170
O O11 0.000000 0.500000 0.000000
O O12 0.581729 0.837017 0.514696
O O13 0.078845 0.715920 0.063141
O O14 0.000000 0.000000 0.000000
O O15 0.118285 0.646857 0.408963
O O16 0.943053 0.255727 0.659343
#
# Coordination Sequence:
#
# PCOD9107596 Si02
#       7
#     2   2   2   2   2   2   2
#     4  12  21  38  60  88 113 155 209 253 287 347
#     4  12  24  39  61  87 123 159 198 251 306 348
#     4  11  21  38  65  94 114 151 198 240 281 349
#     4  11  23  41  60  91 124 160 194 241 304 358
#     4  10  20  40  65  87 121 158 197 234 285 365
#     4  11  22  39  59  85 117 161 197 251 308 355
#     4  11  22  38  60  85 114 153 213 256 293 350
#
# _framework density 19.491395000000001
#
# number of rings (size 3 to 8) (size 9 to 14) (size 15 to 20)
#    0.000    0.857    2.857    7.286    0.000    2.286 
#    0.000    8.571    0.000    0.000    0.000    0.000 
#    0.000    0.000    0.000    0.000    0.000    0.000 
#
# Total GULP energy -78217.421535 kJ/mol
# GULP energy per Si atom -5586.958681 kJ/mol
# Density = 1.944703 g / cm^3
# Si number density = 19.491395 Si / 1000 Ang^3
#
#
#
# Elastic Constant Matrix: (Units=GPa)
#
#
# Indices 1 2 3 4 5 6 
#
# 1 132.0436 54.9725 42.4261 9.5988 -25.2506 3.1826
# 2 54.9725 74.1811 14.6878 12.6764 -5.6236 7.3617
# 3 42.4261 14.6878 100.4480 14.5830 -23.5908 16.1120
# 4 9.5988 12.6764 14.5830 28.6775 7.3503 -7.6393
# 5 -25.2506 -5.6236 -23.5908 7.3503 45.3017 5.5395
# 6 3.1826 7.3617 16.1120 -7.6393 5.5395 32.9623
#
#
#
# Elastic Compliance Matrix: (Units=1/GPa)
#
#
# Indices 1 2 3 4 5 6 
#
# 1 0.013222 -0.009215 -0.003976 0.001387 0.003632 0.002436
# 2 -0.009215 0.022911 0.005034 -0.013343 0.003768 -0.010414
# 3 -0.003976 0.005034 0.019617 -0.018940 0.013780 -0.017035
# 4 0.001387 -0.013343 -0.018940 0.064703 -0.025073 0.031313
# 5 0.003632 0.003768 0.013780 -0.025073 0.038277 -0.020172
# 6 0.002436 -0.010414 -0.017035 0.031313 -0.020172 0.051402
#
#
# Mechanical properties :
#
#
# Convention : Reuss Voigt Hill
#
# Bulk Modulus (GPa) = 25.35666 58.98284 42.16975
# Shear Modulus (GPa) = 20.86879 34.36069 27.61474
#
# Velocity S-wave (km/s) = 3.27565 4.20320 3.76808
# Velocity P-wave (km/s) = 5.22914 7.34047 6.37285
#
# Compressibility (1/GPa) = 0.03943737
#
# Stress axis : x y z
#
# Youngs Moduli (GPa) = 75.63099 43.64621 50.97583
#
# Poissons Ratio (x) = 0.40218 0.20270
# Poissons Ratio (y) = 0.69690 -0.25662
# Poissons Ratio (z) = 0.30074 -0.21972
#
# Static dielectric constant tensor:
#      x y z
#    x 1.709960 -0.010560 -0.031010 
#    y -0.010560 1.653320 -0.007430 
#    z -0.031010 -0.007430 1.681100 
# 
# From -- ./inp_files/125335.got.cif
#   From: 2010.05.17/outbox.cif.g08.bks.cpg/sg2_63_cif.got.tgz:125335.got - 2010.06.03 11:33:40.
