data_PCOD9107096
_publ_section_title
;
Structure prediction by ZEFSAII (Michael W. Deem and Ramdas Pophale) SiO2 
 PCOD9107096
Probable space group: P -1
;
_chemical_formula_sum "Si O2"
_cell_formula_units_Z 16
_cell_length_a 11.998837
_cell_length_b 8.360262
_cell_length_c 11.498344
_cell_angle_alpha 107.198602
_cell_angle_beta 114.098076
_cell_angle_gamma 34.682409
_cell_volume 597.351237
_symmetry_space_group_name_H-M "P -1"
_symmetry_group_IT_number 2
_symmetry_cell_setting 'triclinic'
loop_
_space_group_symop_operation_xyz
x,y,z
-x,-y,-z
loop_
_atom_site_type_symbol
_atom_site_label
_atom_site_fract_x
_atom_site_fract_y
_atom_site_fract_z
Si Si1 0.360405 0.590989 0.623549
Si Si2 0.368031 0.975920 0.933285
Si Si3 0.901049 0.856501 0.479397
Si Si4 0.075944 0.454209 0.745289
Si Si5 0.584881 0.649859 0.167408
Si Si6 0.459760 0.190867 0.433131
Si Si7 0.005722 0.107073 0.219429
Si Si8 0.662808 0.517111 0.765642
O O1 0.440239 0.415555 0.737059
O O2 0.317970 0.482219 0.500475
O O3 0.557302 0.480312 0.642731
O O4 0.173906 0.926603 0.602398
O O5 0.502502 0.719069 0.845294
O O6 0.849158 0.733994 0.152037
O O7 0.392382 0.875107 0.049954
O O8 0.500000 0.000000 0.000000
O O9 0.998605 0.590063 0.395416
O O10 0.997614 0.840637 0.630902
O O11 0.685976 0.015778 0.468346
O O12 0.289628 0.310683 0.759867
O O13 0.935446 0.771863 0.778180
O O14 0.774172 0.337543 0.124082
O O15 0.348213 0.307966 0.284191
O O16 0.500000 0.000000 0.500000
O O17 0.126411 0.804265 0.181510
#
# Coordination Sequence:
#
# PCOD9107096 Si02
#       8
#     2   2   2   2   2   2   2   2
#     4  11  20  36  61  89 119 152 204 238 293 359
#     4  10  20  40  63  83 112 160 212 237 278 361
#     4  11  18  37  59  88 120 158 188 242 302 357
#     4   9  19  37  59  85 114 160 193 242 289 351
#     4   9  23  36  58  88 117 158 202 236 288 351
#     4  11  21  34  61  90 118 155 202 237 295 356
#     4  10  21  37  58  90 124 147 196 239 318 334
#     4  11  21  40  63  85 117 158 195 253 290 343
#
# _framework density 26.784914000000001
#
# number of rings (size 3 to 8) (size 9 to 14) (size 15 to 20)
#    0.750    1.000    5.000    1.875    1.750    1.500 
#    0.000    0.000    0.000    0.750    0.000    0.000 
#    0.000    0.000    0.000    0.000    0.000    0.000 
#
# Total GULP energy -89238.180458 kJ/mol
# GULP energy per Si atom -5577.386279 kJ/mol
# Density = 2.672395 g / cm^3
# Si number density = 26.784914 Si / 1000 Ang^3
#
#
#
# Elastic Constant Matrix: (Units=GPa)
#
#
# Indices 1 2 3 4 5 6 
#
# 1 78.7334 17.2034 28.9444 -13.1521 -8.5544 27.1191
# 2 17.2034 141.8002 38.5226 -28.0233 -18.0961 20.1922
# 3 28.9444 38.5226 111.7693 -36.6123 -26.8122 23.3683
# 4 -13.1521 -28.0233 -36.6123 52.8200 16.6124 -3.9742
# 5 -8.5544 -18.0961 -26.8122 16.6124 39.7109 -10.9837
# 6 27.1191 20.1922 23.3683 -3.9742 -10.9837 24.0509
#
#
#
# Elastic Compliance Matrix: (Units=1/GPa)
#
#
# Indices 1 2 3 4 5 6 
#
# 1 0.022405 0.001829 0.000399 0.006094 -0.004419 -0.028198
# 2 0.001829 0.009005 -0.000362 0.004312 0.000094 -0.008516
# 3 0.000399 -0.000362 0.014958 0.008363 0.003255 -0.011811
# 4 0.006094 0.004312 0.008363 0.029862 -0.008416 -0.017527
# 5 -0.004419 0.000094 0.003255 -0.008416 0.034438 0.016079
# 6 -0.028198 -0.008516 -0.011811 -0.017527 0.016079 0.096447
#
#
# Mechanical properties :
#
#
# Convention : Reuss Voigt Hill
#
# Bulk Modulus (GPa) = 19.95953 55.73819 37.84886
# Shear Modulus (GPa) = 22.71855 39.82520 31.27187
#
# Velocity S-wave (km/s) = 2.91552 3.86015 3.42060
# Velocity P-wave (km/s) = 4.33609 6.38141 5.45546
#
# Compressibility (1/GPa) = 0.05010139
#
# Stress axis : x y z
#
# Youngs Moduli (GPa) = 44.63236 111.04426 66.85265
#
# Poissons Ratio (x) = -0.20312 -0.02668
# Poissons Ratio (y) = -0.08164 0.02420
# Poissons Ratio (z) = -0.01781 0.04020
#
# Static dielectric constant tensor:
#      x y z
#    x 2.201200 0.033350 0.015030 
#    y 0.033350 2.254950 0.084320 
#    z 0.015030 0.084320 2.246050 
# 
# From -- ./inp_files/446087.got.cif
#   From: 2010.05.17/outbox.cif.g08.bks.cpg/sg2_224_cif.got.tgz:446087.got - 2010.06.03 11:33:40.
