data_PCOD9107833
_publ_section_title
;
Structure prediction by ZEFSAII (Michael W. Deem and Ramdas Pophale) SiO2 
 PCOD9107833
Probable space group: P -1
;
_chemical_formula_sum "Si O2"
_cell_formula_units_Z 13
_cell_length_a 21.534086
_cell_length_b 10.223482
_cell_length_c 11.074005
_cell_angle_alpha 126.585659
_cell_angle_beta 27.079772
_cell_angle_gamma 145.578103
_cell_volume 528.845998
_symmetry_space_group_name_H-M "P -1"
_symmetry_group_IT_number 2
_symmetry_cell_setting 'triclinic'
loop_
_space_group_symop_operation_xyz
x,y,z
-x,-y,-z
loop_
_atom_site_type_symbol
_atom_site_label
_atom_site_fract_x
_atom_site_fract_y
_atom_site_fract_z
Si Si1 0.372074 0.493863 0.314893
Si Si2 0.500000 0.500000 0.500000
Si Si3 0.645442 0.087869 0.911580
Si Si4 0.806232 0.923584 0.415170
Si Si5 0.873840 0.528993 0.938475
Si Si6 0.783556 0.334208 0.408540
Si Si7 0.390996 0.129396 0.676353
O O1 0.193259 0.456240 0.553542
O O2 0.575648 0.780389 0.195347
O O3 0.224747 0.254250 0.537917
O O4 0.500000 0.500000 0.000000
O O5 0.353187 0.242794 0.712238
O O6 0.608401 0.712700 0.541173
O O7 0.464609 0.889836 0.221910
O O8 0.762606 0.035825 0.638813
O O9 0.808688 0.382086 0.844940
O O10 0.500000 0.000000 0.000000
O O11 0.039191 0.204287 0.096921
O O12 0.053513 0.591283 0.733025
O O13 0.649165 0.327793 0.297238
O O14 0.760756 0.176783 0.255619
#
# Coordination Sequence:
#
# PCOD9107833 Si02
#       7
#     2   1   2   2   2   2   2
#     4  11  24  42  68  98 141 185 223 273 347 408
#     4  10  20  40  66 102 124 176 220 284 332 382
#     4  11  21  39  70 101 131 173 228 283 337 397
#     4  11  21  40  67 101 133 171 228 279 338 392
#     4  11  23  41  74 102 130 172 237 286 334 400
#     4  11  22  43  69  98 134 186 221 276 345 405
#     4  10  23  43  72  98 136 173 234 280 339 405
#
# _framework density 24.581824000000001
#
# number of rings (size 3 to 8) (size 9 to 14) (size 15 to 20)
#    0.000    1.231    4.615    1.846    0.000    3.077 
#    0.000    0.769   13.538    0.000    0.000    0.000 
#    0.000    0.000    0.000    0.000    0.000    0.000 
#
# Total GULP energy -72462.434973 kJ/mol
# GULP energy per Si atom -5574.033459 kJ/mol
# Density = 2.452587 g / cm^3
# Si number density = 24.581824 Si / 1000 Ang^3
#
#
#
# Elastic Constant Matrix: (Units=GPa)
#
#
# Indices 1 2 3 4 5 6 
#
# 1 144.7940 69.7678 15.5323 8.1425 0.6762 -4.6066
# 2 69.7678 176.1419 20.8298 16.8522 -6.2931 24.3676
# 3 15.5323 20.8298 78.3537 17.8665 4.2881 10.3533
# 4 8.1425 16.8522 17.8665 34.4037 4.8359 12.2810
# 5 0.6762 -6.2931 4.2881 4.8359 26.6576 14.1125
# 6 -4.6066 24.3676 10.3533 12.2810 14.1125 46.0925
#
#
#
# Elastic Compliance Matrix: (Units=1/GPa)
#
#
# Indices 1 2 3 4 5 6 
#
# 1 0.009260 -0.004241 -0.000953 -0.000796 -0.003390 0.004632
# 2 -0.004241 0.008644 -0.000608 -0.001506 0.005822 -0.006238
# 3 -0.000953 -0.000608 0.014821 -0.006679 -0.000706 -0.001107
# 4 -0.000796 -0.001506 -0.006679 0.036182 -0.002261 -0.006731
# 5 -0.003390 0.005822 -0.000706 -0.002261 0.048815 -0.017602
# 6 0.004632 -0.006238 -0.001107 -0.006731 -0.017602 0.032888
#
#
# Mechanical properties :
#
#
# Convention : Reuss Voigt Hill
#
# Bulk Modulus (GPa) = 47.34658 67.94993 57.64825
# Shear Modulus (GPa) = 29.54136 40.97475 35.25805
#
# Velocity S-wave (km/s) = 3.47040 4.08716 3.79134
# Velocity P-wave (km/s) = 5.94650 7.06934 6.53209
#
# Compressibility (1/GPa) = 0.02112085
#
# Stress axis : x y z
#
# Youngs Moduli (GPa) = 107.99210 115.68783 67.47109
#
# Poissons Ratio (x) = 0.49060 0.06431
# Poissons Ratio (y) = 0.45797 0.04103
# Poissons Ratio (z) = 0.10294 0.07036
#
# Static dielectric constant tensor:
#      x y z
#    x 1.972590 -0.086360 -0.049200 
#    y -0.086360 2.064890 -0.053140 
#    z -0.049200 -0.053140 2.048880 
# 
# From -- ./inp_files/474574.got.cif
#   From: 2010.05.17/outbox.cif.g08.bks.cpg/sg2_238_cif.got.tgz:474574.got - 2010.06.03 11:33:40.
