data_PCOD9107938
_publ_section_title
;
Structure prediction by ZEFSAII (Michael W. Deem and Ramdas Pophale) SiO2 
 PCOD9107938
Probable space group: P -1
;
_chemical_formula_sum "Si O2"
_cell_formula_units_Z 14
_cell_length_a 14.289550
_cell_length_b 22.183653
_cell_length_c 6.774717
_cell_angle_alpha 86.957651
_cell_angle_beta 99.670606
_cell_angle_gamma 21.217001
_cell_volume 619.873929
_symmetry_space_group_name_H-M "P -1"
_symmetry_group_IT_number 2
_symmetry_cell_setting 'triclinic'
loop_
_space_group_symop_operation_xyz
x,y,z
-x,-y,-z
loop_
_atom_site_type_symbol
_atom_site_label
_atom_site_fract_x
_atom_site_fract_y
_atom_site_fract_z
Si Si1 0.721723 0.949223 0.752086
Si Si2 0.736539 0.402902 0.710607
Si Si3 0.803694 0.179404 0.639025
Si Si4 0.652839 0.698708 0.435621
Si Si5 0.449000 0.359560 0.838829
Si Si6 0.386747 0.809784 0.689804
Si Si7 0.816313 0.819910 0.422025
O O1 0.724844 0.926250 0.530006
O O2 0.572181 0.106012 0.702084
O O3 0.480558 0.045145 0.742239
O O4 0.085635 0.725439 0.005827
O O5 0.500000 0.500000 0.500000
O O6 0.503500 0.602043 0.607435
O O7 0.033140 0.239857 0.703048
O O8 0.729838 0.225142 0.839365
O O9 0.803108 0.111909 0.562459
O O10 0.135920 0.002735 0.695780
O O11 0.552986 0.700966 0.275249
O O12 0.646947 0.686486 0.670096
O O13 0.000000 0.500000 0.500000
O O14 0.115072 0.598427 0.652290
O O15 0.484712 0.315718 0.081842
#
# Coordination Sequence:
#
# PCOD9107938 Si02
#       7
#     2   2   2   2   2   2   2
#     4  11  24  44  66  93 134 173 218 269 320 391
#     4  11  25  42  66  98 132 169 215 272 330 383
#     4   9  21  40  60  95 126 165 218 258 324 397
#     4  11  24  41  61  97 128 163 220 273 317 381
#     4  10  20  40  66  91 127 167 212 269 324 382
#     4  10  21  39  66  91 127 170 211 264 328 384
#     4  10  23  45  67  95 127 177 220 260 329 394
#
# _framework density 22.585236999999999
#
# number of rings (size 3 to 8) (size 9 to 14) (size 15 to 20)
#    0.000    1.714    1.429    1.714    4.000    1.143 
#   10.286    0.000    0.000    0.000    0.000    0.000 
#    0.000    0.000    0.000    0.000    0.000    0.000 
#
# Total GULP energy -78071.599849 kJ/mol
# GULP energy per Si atom -5576.542846 kJ/mol
# Density = 2.253383 g / cm^3
# Si number density = 22.585237 Si / 1000 Ang^3
#
#
#
# Elastic Constant Matrix: (Units=GPa)
#
#
# Indices 1 2 3 4 5 6 
#
# 1 45.1756 31.2904 8.3034 14.9180 2.2067 3.7661
# 2 31.2904 121.0371 23.6307 10.0191 -6.1187 -15.5441
# 3 8.3034 23.6307 83.8696 4.5090 -13.1873 -18.2446
# 4 14.9180 10.0191 4.5090 31.0412 -2.9014 -9.2884
# 5 2.2067 -6.1187 -13.1873 -2.9014 23.3349 6.7319
# 6 3.7661 -15.5441 -18.2446 -9.2884 6.7319 38.8541
#
#
#
# Elastic Compliance Matrix: (Units=1/GPa)
#
#
# Indices 1 2 3 4 5 6 
#
# 1 0.036528 -0.009091 -0.003776 -0.018343 -0.006742 -0.012167
# 2 -0.009091 0.011365 -0.000974 0.002603 0.002105 0.005228
# 3 -0.003776 -0.000974 0.014925 0.002523 0.007011 0.006373
# 4 -0.018343 0.002603 0.002523 0.044425 0.005419 0.013686
# 5 -0.006742 0.002105 0.007011 0.005419 0.049394 -0.002475
# 6 -0.012167 0.005228 0.006373 0.013686 -0.002475 0.035701
#
#
# Mechanical properties :
#
#
# Convention : Reuss Voigt Hill
#
# Bulk Modulus (GPa) = 28.46099 41.83679 35.14889
# Shear Modulus (GPa) = 21.57685 31.10323 26.34004
#
# Velocity S-wave (km/s) = 3.09423 3.71502 3.41875
# Velocity P-wave (km/s) = 5.03931 6.07997 5.58393
#
# Compressibility (1/GPa) = 0.03513582
#
# Stress axis : x y z
#
# Youngs Moduli (GPa) = 27.37659 87.99298 67.00373
#
# Poissons Ratio (x) = 0.79994 0.25299
# Poissons Ratio (y) = 0.24888 0.06524
# Poissons Ratio (z) = 0.10337 0.08568
#
# Static dielectric constant tensor:
#      x y z
#    x 1.914420 -0.078180 -0.044860 
#    y -0.078180 1.891950 0.015010 
#    z -0.044860 0.015010 1.836040 
# 
# From -- ./inp_files/101065.got.cif
#   From: 2010.05.17/outbox.cif.g08.bks.cpg/sg2_51_cif.got.tgz:101065.got - 2010.06.03 11:33:40.
