data_PCOD9107281
_publ_section_title
;
Structure prediction by ZEFSAII (Michael W. Deem and Ramdas Pophale) SiO2 
 PCOD9107281
Probable space group: P -1
;
_chemical_formula_sum "Si O2"
_cell_formula_units_Z 14
_cell_length_a 8.915134
_cell_length_b 20.858589
_cell_length_c 7.763783
_cell_angle_alpha 40.177471
_cell_angle_beta 126.629538
_cell_angle_gamma 143.757298
_cell_volume 549.943639
_symmetry_space_group_name_H-M "P -1"
_symmetry_group_IT_number 2
_symmetry_cell_setting 'triclinic'
loop_
_space_group_symop_operation_xyz
x,y,z
-x,-y,-z
loop_
_atom_site_type_symbol
_atom_site_label
_atom_site_fract_x
_atom_site_fract_y
_atom_site_fract_z
Si Si1 0.971492 0.887280 0.932066
Si Si2 0.124670 0.451968 0.585584
Si Si3 0.346538 0.050322 0.435108
Si Si4 0.466521 0.076605 0.070057
Si Si5 0.223719 0.640820 0.761920
Si Si6 0.683972 0.675089 0.870560
Si Si7 0.612376 0.729430 0.337786
O O1 0.821164 0.816702 0.154574
O O2 0.901595 0.974407 0.656284
O O3 0.854581 0.779369 0.926849
O O4 0.262653 0.981619 0.980424
O O5 0.384000 0.582700 0.405148
O O6 0.000000 0.500000 0.500000
O O7 0.924006 0.352088 0.504843
O O8 0.236060 0.411203 0.878157
O O9 0.349195 0.026770 0.283564
O O10 0.589603 0.210811 0.318561
O O11 0.341430 0.944905 0.747641
O O12 0.517096 0.211778 0.819198
O O13 0.410543 0.623994 0.843917
O O14 0.000000 0.500000 0.000000
O O15 0.719188 0.720577 0.604039
#
# Coordination Sequence:
#
# PCOD9107281 Si02
#       7
#     2   2   2   2   2   2   2
#     4  10  22  43  67  96 130 169 220 269 331 393
#     4  12  25  45  64  95 136 173 220 278 334 393
#     4   9  19  37  63  95 130 164 215 268 317 392
#     4  10  20  40  63  97 133 168 217 273 326 390
#     4  11  23  42  69 100 130 175 223 271 335 396
#     4  11  25  45  65  97 137 167 225 282 320 402
#     4  11  23  43  66  96 130 176 220 270 332 397
#
# _framework density 25.457152000000001
#
# number of rings (size 3 to 8) (size 9 to 14) (size 15 to 20)
#    0.000    1.429    1.429    5.571    0.000    4.000 
#   10.286    2.857    0.000    0.000    0.000    0.000 
#    0.000    0.000    0.000    0.000    0.000    0.000 
#
# Total GULP energy -78283.737911 kJ/mol
# GULP energy per Si atom -5591.695565 kJ/mol
# Density = 2.539921 g / cm^3
# Si number density = 25.457152 Si / 1000 Ang^3
#
#
#
# Elastic Constant Matrix: (Units=GPa)
#
#
# Indices 1 2 3 4 5 6 
#
# 1 106.6124 17.0819 44.3972 10.4651 -12.3961 -2.1517
# 2 17.0819 125.2071 28.8383 31.1532 -9.1106 -8.6158
# 3 44.3972 28.8383 150.6325 28.9719 32.1447 14.9540
# 4 10.4651 31.1532 28.9719 39.5794 5.8141 3.8017
# 5 -12.3961 -9.1106 32.1447 5.8141 43.3668 3.3427
# 6 -2.1517 -8.6158 14.9540 3.8017 3.3427 34.0757
#
#
#
# Elastic Compliance Matrix: (Units=1/GPa)
#
#
# Indices 1 2 3 4 5 6 
#
# 1 0.012685 0.000602 -0.005575 -0.001162 0.007828 0.002762
# 2 0.000602 0.011171 -0.002156 -0.008508 0.004928 0.004274
# 3 -0.005575 -0.002156 0.012036 -0.003696 -0.010104 -0.004775
# 4 -0.001162 -0.008508 -0.003696 0.035951 -0.003873 -0.004234
# 5 0.007828 0.004928 -0.010104 -0.003873 0.034089 0.003263
# 6 0.002762 0.004274 -0.004775 -0.004234 0.003263 0.032849
#
#
# Mechanical properties :
#
#
# Convention : Reuss Voigt Hill
#
# Bulk Modulus (GPa) = 46.22228 62.56520 54.39374
# Shear Modulus (GPa) = 31.20127 42.88002 37.04065
#
# Velocity S-wave (km/s) = 3.50471 4.10860 3.81861
# Velocity P-wave (km/s) = 5.87994 6.86567 6.39183
#
# Compressibility (1/GPa) = 0.02163459
#
# Stress axis : x y z
#
# Youngs Moduli (GPa) = 78.83374 89.51907 83.08571
#
# Poissons Ratio (x) = -0.05392 0.46321
# Poissons Ratio (y) = -0.04748 0.17910
# Poissons Ratio (z) = 0.43951 0.19297
#
# Static dielectric constant tensor:
#      x y z
#    x 1.970270 0.000190 0.009820 
#    y 0.000190 2.031960 -0.095540 
#    z 0.009820 -0.095540 2.098400 
# 
# From -- ./inp_files/284005.got.cif
#   From: 2010.05.17/outbox.cif.g08.bks.cpg/sg2_143_cif.got.tgz:284005.got - 2010.06.03 11:33:40.
