data_PCOD9107417
_publ_section_title
;
Structure prediction by ZEFSAII (Michael W. Deem and Ramdas Pophale) SiO2 
 PCOD9107417
Probable space group: P -1
;
_chemical_formula_sum "Si O2"
_cell_formula_units_Z 16
_cell_length_a 18.664908
_cell_length_b 6.522138
_cell_length_c 7.413850
_cell_angle_alpha 111.878350
_cell_angle_beta 110.934517
_cell_angle_gamma 107.110899
_cell_volume 680.532904
_symmetry_space_group_name_H-M "P -1"
_symmetry_group_IT_number 2
_symmetry_cell_setting 'triclinic'
loop_
_space_group_symop_operation_xyz
x,y,z
-x,-y,-z
loop_
_atom_site_type_symbol
_atom_site_label
_atom_site_fract_x
_atom_site_fract_y
_atom_site_fract_z
Si Si1 0.300634 0.825839 0.411781
Si Si2 0.866699 0.103643 0.638088
Si Si3 0.945015 0.231891 0.106081
Si Si4 0.668059 0.014677 0.914999
Si Si5 0.219248 0.269722 0.093770
Si Si6 0.993329 0.736075 0.456462
Si Si7 0.591396 0.718693 0.080004
Si Si8 0.746079 0.577026 0.220728
O O1 0.207313 0.824603 0.346416
O O2 0.341748 0.918498 0.278282
O O3 0.368260 0.031916 0.677535
O O4 0.276823 0.537518 0.331826
O O5 0.910669 0.206975 0.517332
O O6 0.813248 0.798630 0.483195
O O7 0.947593 0.223122 0.890732
O O8 0.015356 0.282693 0.341803
O O9 0.873174 0.939814 0.982266
O O10 0.926611 0.463594 0.219242
O O11 0.729158 0.887036 0.919248
O O12 0.589387 0.815986 0.907227
O O13 0.715666 0.288814 0.144717
O O14 0.208692 0.354847 0.912848
O O15 0.000000 0.000000 0.500000
O O16 0.661260 0.615932 0.128586
O O17 0.500000 0.500000 0.000000
#
# Coordination Sequence:
#
# PCOD9107417 Si02
#       8
#     2   2   2   2   2   2   2   2
#     4  10  23  39  65  94 122 162 215 259 305 373
#     4  11  22  41  65  91 122 162 216 260 306 374
#     4  11  24  42  62  90 121 167 207 255 321 365
#     4  10  21  40  63  91 127 159 208 260 313 358
#     4  10  20  40  64  91 120 161 213 260 307 368
#     4  11  27  45  59  90 133 164 206 260 321 375
#     4  10  23  41  63  96 132 165 207 252 310 380
#     4   9  21  40  64  94 124 166 210 259 307 367
#
# _framework density 23.510987
#
# number of rings (size 3 to 8) (size 9 to 14) (size 15 to 20)
#    0.000    1.750    2.500    0.375    5.250    1.500 
#    4.500    5.625    0.000    0.000    0.000    0.000 
#    0.000    0.000    0.000    0.000    0.000    0.000 
#
# Total GULP energy -89274.615987 kJ/mol
# GULP energy per Si atom -5579.663499 kJ/mol
# Density = 2.345747 g / cm^3
# Si number density = 23.510987 Si / 1000 Ang^3
#
#
#
# Elastic Constant Matrix: (Units=GPa)
#
#
# Indices 1 2 3 4 5 6 
#
# 1 57.0042 38.5890 23.9465 15.5805 5.5428 17.6664
# 2 38.5890 162.2994 30.0671 44.2890 2.2672 2.4956
# 3 23.9465 30.0671 73.2105 21.4528 -7.6184 -9.0678
# 4 15.5805 44.2890 21.4528 39.0934 -3.9941 -8.8218
# 5 5.5428 2.2672 -7.6184 -3.9941 12.5903 12.9988
# 6 17.6664 2.4956 -9.0678 -8.8218 12.9988 40.5615
#
#
#
# Elastic Compliance Matrix: (Units=1/GPa)
#
#
# Indices 1 2 3 4 5 6 
#
# 1 0.030811 -0.003292 -0.008906 -0.007619 -0.005029 -0.015253
# 2 -0.003292 0.009798 -0.000416 -0.009984 -0.003369 -0.000354
# 3 -0.008906 -0.000416 0.019730 -0.004861 0.010310 0.003954
# 4 -0.007619 -0.009984 -0.004861 0.045633 0.005234 0.011093
# 5 -0.005029 -0.003369 0.010310 0.005234 0.125709 -0.034445
# 6 -0.015253 -0.000354 0.003954 0.011093 -0.034445 0.045655
#
#
# Mechanical properties :
#
#
# Convention : Reuss Voigt Hill
#
# Bulk Modulus (GPa) = 28.48108 53.07993 40.78050
# Shear Modulus (GPa) = 15.90999 31.77647 23.84323
#
# Velocity S-wave (km/s) = 2.60418 3.68034 3.18800
# Velocity P-wave (km/s) = 4.60245 6.37852 5.56184
#
# Compressibility (1/GPa) = 0.03511103
#
# Stress axis : x y z
#
# Youngs Moduli (GPa) = 32.45598 102.05860 50.68389
#
# Poissons Ratio (x) = 0.33598 0.45140
# Poissons Ratio (y) = 0.10685 0.02109
# Poissons Ratio (z) = 0.28906 0.04246
#
# Static dielectric constant tensor:
#      x y z
#    x 1.918920 -0.007700 -0.031550 
#    y -0.007700 1.910410 -0.034310 
#    z -0.031550 -0.034310 1.927380 
# 
# From -- ./inp_files/339947.got.cif
#   From: 2010.05.17/outbox.cif.g08.bks.cpg/sg2_170_cif.got.tgz:339947.got - 2010.06.03 11:33:40.
