data_PCOD9107155
_publ_section_title
;
Structure prediction by ZEFSAII (Michael W. Deem and Ramdas Pophale) SiO2 
 PCOD9107155
Probable space group: P -1
;
_chemical_formula_sum "Si O2"
_cell_formula_units_Z 16
_cell_length_a 11.906996
_cell_length_b 8.328470
_cell_length_c 22.282610
_cell_angle_alpha 64.024483
_cell_angle_beta 38.847769
_cell_angle_gamma 33.827512
_cell_volume 618.149933
_symmetry_space_group_name_H-M "P -1"
_symmetry_group_IT_number 2
_symmetry_cell_setting 'triclinic'
loop_
_space_group_symop_operation_xyz
x,y,z
-x,-y,-z
loop_
_atom_site_type_symbol
_atom_site_label
_atom_site_fract_x
_atom_site_fract_y
_atom_site_fract_z
Si Si1 0.593917 0.517382 0.601167
Si Si2 0.620422 0.312977 0.211201
Si Si3 0.771139 0.949308 0.020700
Si Si4 0.056446 0.615582 0.089390
Si Si5 0.797311 0.387307 0.784056
Si Si6 0.366562 0.472513 0.608462
Si Si7 0.303493 0.055445 0.132835
Si Si8 0.207484 0.372981 0.591433
O O1 0.658357 0.458319 0.654827
O O2 0.562593 0.354523 0.607511
O O3 0.834207 0.430721 0.470988
O O4 0.181039 0.956478 0.700585
O O5 0.413182 0.503772 0.203437
O O6 0.868460 0.920714 0.161411
O O7 0.884303 0.254184 0.119510
O O8 0.470526 0.363708 0.089003
O O9 0.592653 0.931829 0.066669
O O10 0.894547 0.790818 0.062490
O O11 0.029008 0.437757 0.155014
O O12 0.488147 0.241378 0.955116
O O13 0.878315 0.527835 0.714663
O O14 0.500000 0.500000 0.500000
O O15 0.387472 0.272629 0.595988
O O16 0.937774 0.849634 0.737796
O O17 0.500000 0.000000 0.500000
#
# Coordination Sequence:
#
# PCOD9107155 Si02
#       8
#     2   2   2   2   2   2   2   2
#     4  10  23  39  65  90 126 162 210 258 308 374
#     4  11  25  38  62  98 130 164 211 254 306 377
#     4  11  23  40  61  90 133 162 212 253 311 371
#     4  10  24  40  60  97 125 168 209 253 304 378
#     4  10  20  40  63  89 124 168 203 262 313 358
#     4  10  22  41  65  94 121 161 211 258 313 371
#     4  11  23  40  67  88 126 170 207 255 318 361
#     4   9  19  40  68  90 115 163 211 258 314 366
#
# _framework density 25.883687999999999
#
# number of rings (size 3 to 8) (size 9 to 14) (size 15 to 20)
#    0.000    1.750    1.250    2.625    8.750    1.500 
#    0.000    0.000    0.000    8.250    0.000    0.000 
#    0.000    0.000    0.000    0.000    0.000    0.000 
#
# Total GULP energy -89417.666357 kJ/mol
# GULP energy per Si atom -5588.604147 kJ/mol
# Density = 2.582478 g / cm^3
# Si number density = 25.883688 Si / 1000 Ang^3
#
#
#
# Elastic Constant Matrix: (Units=GPa)
#
#
# Indices 1 2 3 4 5 6 
#
# 1 117.3964 18.2890 17.6498 -12.1355 16.7016 25.5925
# 2 18.2890 89.3198 4.4953 4.5194 1.6649 6.2528
# 3 17.6498 4.4953 88.0241 -27.3836 5.6736 6.9999
# 4 -12.1355 4.5194 -27.3836 27.5515 8.1923 4.1768
# 5 16.7016 1.6649 5.6736 8.1923 51.3495 5.9107
# 6 25.5925 6.2528 6.9999 4.1768 5.9107 39.8147
#
#
#
# Elastic Compliance Matrix: (Units=1/GPa)
#
#
# Indices 1 2 3 4 5 6 
#
# 1 0.012116 -0.002432 0.001809 0.010172 -0.004754 -0.008085
# 2 -0.002432 0.012015 -0.001950 -0.005467 0.001446 0.000378
# 3 0.001809 -0.001950 0.018868 0.022376 -0.005523 -0.005701
# 4 0.010172 -0.005467 0.022376 0.070666 -0.015177 -0.014774
# 5 -0.004754 0.001446 -0.005523 -0.015177 0.023791 0.001860
# 6 -0.008085 0.000378 -0.005701 -0.014774 0.001860 0.032530
#
#
# Mechanical properties :
#
#
# Convention : Reuss Voigt Hill
#
# Bulk Modulus (GPa) = 26.41858 41.73426 34.07642
# Shear Modulus (GPa) = 26.63129 40.69688 33.66409
#
# Velocity S-wave (km/s) = 3.21110 3.96952 3.61028
# Velocity P-wave (km/s) = 4.89664 6.09658 5.52925
#
# Compressibility (1/GPa) = 0.03785215
#
# Stress axis : x y z
#
# Youngs Moduli (GPa) = 82.53875 83.22894 53.00023
#
# Poissons Ratio (x) = 0.20240 -0.09587
# Poissons Ratio (y) = 0.20072 0.10336
# Poissons Ratio (z) = -0.14930 0.16230
#
# Static dielectric constant tensor:
#      x y z
#    x 2.062310 -0.019770 -0.019870 
#    y -0.019770 2.143580 -0.023830 
#    z -0.019870 -0.023830 2.136560 
# 
# From -- ./inp_files/609821.got.cif
#   From: 2010.05.17/outbox.cif.g08.bks.cpg/sg2_305_cif.got.tgz:609821.got - 2010.06.03 11:33:40.
