data_PCOD9107537
_publ_section_title
;
Structure prediction by ZEFSAII (Michael W. Deem and Ramdas Pophale) SiO2 
 PCOD9107537
Probable space group: P -1
;
_chemical_formula_sum "Si O2"
_cell_formula_units_Z 15
_cell_length_a 14.644171
_cell_length_b 7.639192
_cell_length_c 11.782366
_cell_angle_alpha 66.954393
_cell_angle_beta 152.122370
_cell_angle_gamma 101.809388
_cell_volume 535.642907
_symmetry_space_group_name_H-M "P -1"
_symmetry_group_IT_number 2
_symmetry_cell_setting 'triclinic'
loop_
_space_group_symop_operation_xyz
x,y,z
-x,-y,-z
loop_
_atom_site_type_symbol
_atom_site_label
_atom_site_fract_x
_atom_site_fract_y
_atom_site_fract_z
Si Si1 0.196640 0.204372 0.784491
Si Si2 0.578858 0.551764 0.934027
Si Si3 0.322654 0.277608 0.681861
Si Si4 0.121110 0.596549 0.883923
Si Si5 0.801588 0.123947 0.640657
Si Si6 0.000000 0.000000 0.500000
Si Si7 0.533254 0.879799 0.370405
Si Si8 0.197398 0.762452 0.143160
O O1 0.287054 0.119723 0.776891
O O2 0.981802 0.173185 0.535261
O O3 0.249125 0.407612 0.806488
O O4 0.338372 0.068153 0.068998
O O5 0.499805 0.361312 0.897857
O O6 0.363228 0.735343 0.662507
O O7 0.678421 0.549583 0.919342
O O8 0.365935 0.206513 0.618118
O O9 0.088643 0.435701 0.381148
O O10 0.100603 0.817885 0.753573
O O11 0.131034 0.613666 0.025216
O O12 0.803492 0.259524 0.717489
O O13 0.692042 0.957054 0.595256
O O14 0.026385 0.986017 0.884838
O O15 0.424078 0.748763 0.352364
#
# Coordination Sequence:
#
# PCOD9107537 Si02
#       8
#     2   2   2   2   2   1   2   2
#     4  10  22  37  64  95 131 168 211 257 321 375
#     4  11  24  44  60  98 133 170 210 267 319 377
#     4  11  22  39  60  95 134 172 205 259 315 394
#     4  11  23  41  67  93 133 169 215 260 322 380
#     4  10  25  41  68  93 123 166 222 273 316 369
#     4  10  20  40  64  98 122 172 210 256 310 382
#     4  11  20  40  66  94 124 169 216 263 315 382
#     4  11  21  44  68  92 123 167 222 268 316 379
#
# _framework density 28.003733
#
# number of rings (size 3 to 8) (size 9 to 14) (size 15 to 20)
#    0.000    1.333    4.000    1.200    0.000    5.867 
#    2.400    0.667    0.000    0.000    0.000    0.000 
#    0.000    0.000    0.000    0.000    0.000    0.000 
#
# Total GULP energy -83600.491469 kJ/mol
# GULP energy per Si atom -5573.366098 kJ/mol
# Density = 2.793999 g / cm^3
# Si number density = 28.003733 Si / 1000 Ang^3
#
#
#
# Elastic Constant Matrix: (Units=GPa)
#
#
# Indices 1 2 3 4 5 6 
#
# 1 111.9284 6.6808 29.5477 1.1171 10.4272 -13.0155
# 2 6.6808 85.8261 40.3163 9.6141 -6.0206 -9.9307
# 3 29.5477 40.3163 110.6125 25.9593 5.7611 -7.6124
# 4 1.1171 9.6141 25.9593 45.4119 -14.4682 -7.6170
# 5 10.4272 -6.0206 5.7611 -14.4682 34.9828 6.5875
# 6 -13.0155 -9.9307 -7.6124 -7.6170 6.5875 32.8331
#
#
#
# Elastic Compliance Matrix: (Units=1/GPa)
#
#
# Indices 1 2 3 4 5 6 
#
# 1 0.010427 0.000716 -0.002822 0.001025 -0.002948 0.004525
# 2 0.000716 0.014812 -0.006014 0.001934 0.003541 0.003108
# 3 -0.002822 -0.006014 0.014368 -0.008907 -0.006162 -0.000437
# 4 0.001025 0.001934 -0.008907 0.031707 0.013952 0.003483
# 5 -0.002948 0.003541 -0.006162 0.013952 0.037971 -0.005908
# 6 0.004525 0.003108 -0.000437 0.003483 -0.005908 0.035083
#
#
# Mechanical properties :
#
#
# Convention : Reuss Voigt Hill
#
# Bulk Modulus (GPa) = 42.79679 51.27295 47.03487
# Shear Modulus (GPa) = 29.69172 38.10039 33.89605
#
# Velocity S-wave (km/s) = 3.25972 3.69256 3.48287
# Velocity P-wave (km/s) = 5.42986 6.04393 5.74511
#
# Compressibility (1/GPa) = 0.02336624
#
# Stress axis : x y z
#
# Youngs Moduli (GPa) = 95.90402 67.51128 69.60072
#
# Poissons Ratio (x) = -0.04833 0.19640
# Poissons Ratio (y) = -0.06865 0.41861
# Poissons Ratio (z) = 0.27062 0.40605
#
# Static dielectric constant tensor:
#      x y z
#    x 2.164520 -0.084930 -0.211320 
#    y -0.084930 2.046340 -0.369380 
#    z -0.211320 -0.369380 1.546160 
# 
# From -- ./inp_files/447404.got.cif
#   From: 2010.05.17/outbox.cif.g08.bks.cpg/sg2_224_cif.got.tgz:447404.got - 2010.06.03 11:33:40.
