data_PCOD9107846
_publ_section_title
;
Structure prediction by ZEFSAII (Michael W. Deem and Ramdas Pophale) SiO2 
 PCOD9107846
Probable space group: P -1
;
_chemical_formula_sum "Si O2"
_cell_formula_units_Z 15
_cell_length_a 26.625431
_cell_length_b 12.437037
_cell_length_c 5.253636
_cell_angle_alpha 57.295198
_cell_angle_beta 53.263866
_cell_angle_gamma 24.740233
_cell_volume 583.453481
_symmetry_space_group_name_H-M "P -1"
_symmetry_group_IT_number 2
_symmetry_cell_setting 'triclinic'
loop_
_space_group_symop_operation_xyz
x,y,z
-x,-y,-z
loop_
_atom_site_type_symbol
_atom_site_label
_atom_site_fract_x
_atom_site_fract_y
_atom_site_fract_z
Si Si1 0.721211 0.966107 0.669712
Si Si2 0.471028 0.469835 0.878857
Si Si3 0.019506 0.264083 0.298621
Si Si4 0.860426 0.184861 0.230485
Si Si5 0.268825 0.245236 0.476899
Si Si6 0.000000 0.500000 0.500000
Si Si7 0.643806 0.771513 0.268560
Si Si8 0.779991 0.129185 0.139440
O O1 0.718402 0.925535 0.432097
O O2 0.855733 0.683529 0.722984
O O3 0.584321 0.167750 0.926667
O O4 0.728625 0.106038 0.504364
O O5 0.500000 0.500000 0.500000
O O6 0.331158 0.666120 0.995926
O O7 0.500000 0.500000 0.000000
O O8 0.031064 0.358971 0.333077
O O9 0.878973 0.464191 0.463669
O O10 0.106726 0.990268 0.458121
O O11 0.084728 0.181949 0.936769
O O12 0.748995 0.471122 0.310397
O O13 0.809914 0.205383 0.100040
O O14 0.000000 0.000000 0.000000
O O15 0.307291 0.225829 0.656858
O O16 0.343297 0.189041 0.101496
O O17 0.500000 0.000000 0.500000
#
# Coordination Sequence:
#
# PCOD9107846 Si02
#       8
#     2   2   2   2   2   1   2   2
#     4  10  23  43  70 106 151 183 247 305 387 441
#     4  10  23  42  67 102 145 186 237 298 371 452
#     4  11  24  42  76 105 148 193 252 312 381 447
#     4  12  26  48  75 105 152 199 263 313 375 453
#     4  11  27  48  75 107 147 199 247 321 374 444
#     4  10  20  40  66 106 142 182 240 296 374 448
#     4  12  29  51  77 108 151 202 262 310 376 447
#     4  11  25  43  74 108 146 200 250 314 389 458
#
# _framework density 25.708991999999999
#
# number of rings (size 3 to 8) (size 9 to 14) (size 15 to 20)
#    0.000    1.067    2.667    2.000    5.600    8.533 
#    0.000    0.000    0.000    0.000    0.000    0.000 
#    0.000    0.000    0.000    0.000    0.000    0.000 
#
# Total GULP energy -83565.582898 kJ/mol
# GULP energy per Si atom -5571.038860 kJ/mol
# Density = 2.565048 g / cm^3
# Si number density = 25.708992 Si / 1000 Ang^3
#
#
#
# Elastic Constant Matrix: (Units=GPa)
#
#
# Indices 1 2 3 4 5 6 
#
# 1 209.9326 96.4224 41.5711 21.9324 14.3872 -12.9181
# 2 96.4224 195.9276 48.1102 51.1734 -2.2296 -11.5380
# 3 41.5711 48.1102 105.2742 39.4912 -5.4461 -2.6505
# 4 21.9324 51.1734 39.4912 54.8220 -6.2021 -10.4729
# 5 14.3872 -2.2296 -5.4461 -6.2021 43.9430 12.0730
# 6 -12.9181 -11.5380 -2.6505 -10.4729 12.0730 55.3196
#
#
#
# Elastic Compliance Matrix: (Units=1/GPa)
#
#
# Indices 1 2 3 4 5 6 
#
# 1 0.006754 -0.003225 -0.001942 0.001721 -0.002856 0.001760
# 2 -0.003225 0.008391 -0.000114 -0.006457 0.000659 -0.000375
# 3 -0.001942 -0.000114 0.013826 -0.009264 0.001561 -0.001909
# 4 0.001721 -0.006457 -0.009264 0.031202 0.001195 0.004257
# 5 -0.002856 0.000659 0.001561 0.001195 0.025691 -0.005835
# 6 0.001760 -0.000375 -0.001909 0.004257 -0.005835 0.020398
#
#
# Mechanical properties :
#
#
# Convention : Reuss Voigt Hill
#
# Bulk Modulus (GPa) = 54.32386 98.14909 76.23647
# Shear Modulus (GPa) = 40.66381 52.48562 46.57471
#
# Velocity S-wave (km/s) = 3.98137 4.52323 4.26092
# Velocity P-wave (km/s) = 6.50471 8.09563 7.34338
#
# Compressibility (1/GPa) = 0.01840812
#
# Stress axis : x y z
#
# Youngs Moduli (GPa) = 148.07003 119.17451 72.32752
#
# Poissons Ratio (x) = 0.38434 0.14045
# Poissons Ratio (y) = 0.47753 0.00827
# Poissons Ratio (z) = 0.28754 0.01362
#
# Static dielectric constant tensor:
#      x y z
#    x 1.590330 0.340410 -0.557970 
#    y 0.340410 1.849580 0.556830 
#    z -0.557970 0.556830 1.331470 
# 
# From -- ./inp_files/123617.got.cif
#   From: 2010.05.17/outbox.cif.g08.bks.cpg/sg2_62_cif.got.tgz:123617.got - 2010.06.03 11:33:40.
