data_PCOD9107084
_publ_section_title
;
Structure prediction by ZEFSAII (Michael W. Deem and Ramdas Pophale) SiO2 
 PCOD9107084
Probable space group: P -1
;
_chemical_formula_sum "Si O2"
_cell_formula_units_Z 16
_cell_length_a 29.308223
_cell_length_b 5.500040
_cell_length_c 12.619098
_cell_angle_alpha 64.930384
_cell_angle_beta 153.797247
_cell_angle_gamma 99.409806
_cell_volume 683.822912
_symmetry_space_group_name_H-M "P -1"
_symmetry_group_IT_number 2
_symmetry_cell_setting 'triclinic'
loop_
_space_group_symop_operation_xyz
x,y,z
-x,-y,-z
loop_
_atom_site_type_symbol
_atom_site_label
_atom_site_fract_x
_atom_site_fract_y
_atom_site_fract_z
Si Si1 0.280408 0.519095 0.733126
Si Si2 0.895633 0.936491 0.116524
Si Si3 0.679630 0.728188 0.492482
Si Si4 0.170635 0.710310 0.691842
Si Si5 0.218408 0.485995 0.055344
Si Si6 0.514589 0.399814 0.928109
Si Si7 0.099863 0.378064 0.325796
Si Si8 0.871271 0.896141 0.842246
O O1 0.249316 0.501682 0.793523
O O2 0.414019 0.462702 0.007895
O O3 0.231829 0.335262 0.596493
O O4 0.192344 0.869708 0.431888
O O5 0.041711 0.750824 0.443385
O O6 0.857108 0.680588 0.094211
O O7 0.846070 0.078150 0.867672
O O8 0.848209 0.198478 0.063849
O O9 0.668994 0.780862 0.588627
O O10 0.814614 0.676273 0.769182
O O11 0.603314 0.014942 0.197305
O O12 0.617418 0.522934 0.395481
O O13 0.127074 0.065746 0.499204
O O14 0.244328 0.587934 0.978395
O O15 0.500000 0.500000 0.000000
O O16 0.000000 0.500000 0.000000
O O17 0.016874 0.681567 0.173076
#
# Coordination Sequence:
#
# PCOD9107084 Si02
#       8
#     2   2   2   2   2   2   2   2
#     4  11  24  38  59  98 130 169 220 271 340 389
#     4  11  23  41  66  97 137 181 220 262 320 390
#     4   9  22  41  64  93 124 161 223 273 333 375
#     4  12  24  40  60  92 139 176 217 260 327 397
#     4  11  26  41  69  96 136 179 222 265 321 398
#     4  10  23  41  69  92 123 165 221 288 331 388
#     4  12  23  36  61  94 141 175 211 264 328 400
#     4  10  20  40  62  99 127 171 216 273 328 390
#
# _framework density 23.397867000000002
#
# number of rings (size 3 to 8) (size 9 to 14) (size 15 to 20)
#    0.000    1.250    2.500    3.375    8.750    1.000 
#    0.000    0.625    0.000    1.500    0.000    0.000 
#    0.000    0.000    0.000    0.000    0.000    0.000 
#
# Total GULP energy -89112.388649 kJ/mol
# GULP energy per Si atom -5569.524291 kJ/mol
# Density = 2.334461 g / cm^3
# Si number density = 23.397867 Si / 1000 Ang^3
#
#
#
# Elastic Constant Matrix: (Units=GPa)
#
#
# Indices 1 2 3 4 5 6 
#
# 1 122.0782 39.3665 26.7065 6.6696 -21.4417 -4.8002
# 2 39.3665 108.9248 18.5154 34.6391 1.9607 10.4733
# 3 26.7065 18.5154 53.9165 18.9373 6.0541 12.9635
# 4 6.6696 34.6391 18.9373 34.9895 8.3835 8.7898
# 5 -21.4417 1.9607 6.0541 8.3835 44.3188 -0.9052
# 6 -4.8002 10.4733 12.9635 8.7898 -0.9052 36.4876
#
#
#
# Elastic Compliance Matrix: (Units=1/GPa)
#
#
# Indices 1 2 3 4 5 6 
#
# 1 0.012803 -0.005187 -0.008016 0.004083 0.006853 0.005208
# 2 -0.005187 0.015683 0.003355 -0.015496 -0.000785 -0.002662
# 3 -0.008016 0.003355 0.029068 -0.013900 -0.005555 -0.009134
# 4 0.004083 -0.015496 -0.013900 0.052707 -0.005470 -0.002909
# 5 0.006853 -0.000785 -0.005555 -0.005470 0.027812 0.005108
# 6 0.005208 -0.002662 -0.009134 -0.002909 0.005108 0.032929
#
#
# Mechanical properties :
#
#
# Convention : Reuss Voigt Hill
#
# Bulk Modulus (GPa) = 26.41551 50.45516 38.43534
# Shear Modulus (GPa) = 24.59210 36.51459 30.55334
#
# Velocity S-wave (km/s) = 3.24549 3.95472 3.61753
# Velocity P-wave (km/s) = 5.03572 6.51643 5.82333
#
# Compressibility (1/GPa) = 0.03785655
#
# Stress axis : x y z
#
# Youngs Moduli (GPa) = 78.10593 63.76302 34.40234
#
# Poissons Ratio (x) = 0.33074 0.27578
# Poissons Ratio (y) = 0.40514 -0.11540
# Poissons Ratio (z) = 0.62611 -0.21390
#
# Static dielectric constant tensor:
#      x y z
#    x 1.950980 -0.055570 -0.018550 
#    y -0.055570 2.092250 -0.014310 
#    z -0.018550 -0.014310 1.946690 
# 
# From -- ./inp_files/476009.got.cif
#   From: 2010.05.17/outbox.cif.g08.bks.cpg/sg2_239_cif.got.tgz:476009.got - 2010.06.03 11:33:40.
