data_PCOD9107810
_publ_section_title
;
Structure prediction by ZEFSAII (Michael W. Deem and Ramdas Pophale) SiO2 
 PCOD9107810
Probable space group: P -1
;
_chemical_formula_sum "Si O2"
_cell_formula_units_Z 16
_cell_length_a 17.023751
_cell_length_b 7.737773
_cell_length_c 10.061569
_cell_angle_alpha 45.946566
_cell_angle_beta 117.404397
_cell_angle_gamma 136.431596
_cell_volume 653.963734
_symmetry_space_group_name_H-M "P -1"
_symmetry_group_IT_number 2
_symmetry_cell_setting 'triclinic'
loop_
_space_group_symop_operation_xyz
x,y,z
-x,-y,-z
loop_
_atom_site_type_symbol
_atom_site_label
_atom_site_fract_x
_atom_site_fract_y
_atom_site_fract_z
Si Si1 0.699381 0.240520 0.013541
Si Si2 0.027371 0.303438 0.044102
Si Si3 0.217430 0.919887 0.611161
Si Si4 0.594753 0.259231 0.333919
Si Si5 0.983036 0.502955 0.645705
Si Si6 0.583552 0.701214 0.575250
Si Si7 0.159265 0.399551 0.640467
Si Si8 0.526764 0.314697 0.985921
O O1 0.713129 0.029962 0.231519
O O2 0.626147 0.309895 0.003855
O O3 0.835252 0.519619 0.939824
O O4 0.602938 0.012834 0.949236
O O5 0.947061 0.956269 0.224328
O O6 0.982582 0.286490 0.867184
O O7 0.000000 0.500000 0.000000
O O8 0.098739 0.840561 0.597145
O O9 0.177624 0.599103 0.680329
O O10 0.293129 0.199178 0.417239
O O11 0.722572 0.532078 0.336406
O O12 0.559961 0.387400 0.126260
O O13 0.500000 0.000000 0.500000
O O14 0.607650 0.021295 0.402293
O O15 0.000000 0.500000 0.500000
O O16 0.870168 0.469820 0.573130
O O17 0.500000 0.500000 0.500000
O O18 0.462320 0.451054 0.236645
#
# Coordination Sequence:
#
# PCOD9107810 Si02
#       8
#     2   2   2   2   2   2   2   2
#     4  10  20  40  65  99 130 161 219 272 328 390
#     4  11  26  43  65  97 133 174 219 271 334 400
#     4   9  18  38  60  98 127 156 214 270 323 388
#     4  11  26  45  61  95 137 176 220 271 328 398
#     4   9  21  39  65  93 125 165 212 264 326 387
#     4  11  20  37  67  96 125 163 219 270 320 390
#     4  10  22  43  62  91 132 166 218 267 323 389
#     4  11  21  39  68  98 130 171 217 273 329 381
#
# _framework density 24.466187999999999
#
# number of rings (size 3 to 8) (size 9 to 14) (size 15 to 20)
#    0.000    1.750    3.750    0.750    1.750   10.500 
#    0.000    0.000    0.000    0.000    0.000    0.000 
#    0.000    0.000    0.000    0.000    0.000    0.000 
#
# Total GULP energy -89069.428207 kJ/mol
# GULP energy per Si atom -5566.839263 kJ/mol
# Density = 2.441050 g / cm^3
# Si number density = 24.466188 Si / 1000 Ang^3
#
#
#
# Elastic Constant Matrix: (Units=GPa)
#
#
# Indices 1 2 3 4 5 6 
#
# 1 66.1693 41.5094 33.0267 12.3052 8.9740 20.4290
# 2 41.5094 121.4507 29.6180 -8.6179 9.1313 43.0344
# 3 33.0267 29.6180 108.9146 -3.9740 21.0586 18.1644
# 4 12.3052 -8.6179 -3.9740 34.8665 11.0199 3.4123
# 5 8.9740 9.1313 21.0586 11.0199 36.5084 -0.4749
# 6 20.4290 43.0344 18.1644 3.4123 -0.4749 41.2143
#
#
#
# Elastic Compliance Matrix: (Units=1/GPa)
#
#
# Indices 1 2 3 4 5 6 
#
# 1 0.025571 -0.008329 -0.006663 -0.012974 0.003558 0.000074
# 2 -0.008329 0.017712 0.002299 0.011525 -0.007401 -0.016418
# 3 -0.006663 0.002299 0.013646 0.007989 -0.009297 -0.005881
# 4 -0.012974 0.011525 0.007989 0.043887 -0.017717 -0.012962
# 5 0.003558 -0.007401 -0.009297 -0.017717 0.039234 0.011980
# 6 0.000074 -0.016418 -0.005881 -0.012962 0.011980 0.045173
#
#
# Mechanical properties :
#
#
# Convention : Reuss Voigt Hill
#
# Bulk Modulus (GPa) = 31.70243 56.09364 43.89804
# Shear Modulus (GPa) = 22.61193 35.34321 28.97757
#
# Velocity S-wave (km/s) = 3.04338 3.80488 3.44523
# Velocity P-wave (km/s) = 5.03342 6.50227 5.81442
#
# Compressibility (1/GPa) = 0.03154332
#
# Stress axis : x y z
#
# Youngs Moduli (GPa) = 39.10739 56.46032 73.27902
#
# Poissons Ratio (x) = 0.47025 0.48823
# Poissons Ratio (y) = 0.32572 -0.16845
# Poissons Ratio (z) = 0.26056 -0.12979
#
# Static dielectric constant tensor:
#      x y z
#    x 0.985760 -0.148710 -0.298990 
#    y -0.148710 2.000440 -0.022710 
#    z -0.298990 -0.022710 1.880640 
# 
# From -- ./inp_files/344166.got.cif
#   From: 2010.05.17/outbox.cif.g08.bks.cpg/sg2_173_cif.got.tgz:344166.got - 2010.06.03 11:33:40.
