data_PCOD9107591
_publ_section_title
;
Structure prediction by ZEFSAII (Michael W. Deem and Ramdas Pophale) SiO2 
 PCOD9107591
Probable space group: P -1
;
_chemical_formula_sum "Si O2"
_cell_formula_units_Z 16
_cell_length_a 15.866554
_cell_length_b 9.739578
_cell_length_c 12.841056
_cell_angle_alpha 128.683222
_cell_angle_beta 68.488673
_cell_angle_gamma 67.800592
_cell_volume 791.159834
_symmetry_space_group_name_H-M "P -1"
_symmetry_group_IT_number 2
_symmetry_cell_setting 'triclinic'
loop_
_space_group_symop_operation_xyz
x,y,z
-x,-y,-z
loop_
_atom_site_type_symbol
_atom_site_label
_atom_site_fract_x
_atom_site_fract_y
_atom_site_fract_z
Si Si1 0.518036 0.770657 0.426631
Si Si2 0.662670 0.624253 0.721563
Si Si3 0.727791 0.374742 0.350970
Si Si4 0.836090 0.755201 0.260445
Si Si5 0.363043 0.659959 0.009019
Si Si6 0.043002 0.673242 0.828691
Si Si7 0.281785 0.763327 0.319457
Si Si8 0.850176 0.658441 0.584403
O O1 0.594055 0.624158 0.438429
O O2 0.636980 0.470156 0.150548
O O3 0.500000 0.000000 0.500000
O O4 0.335604 0.979044 0.598321
O O5 0.654279 0.519459 0.569309
O O6 0.698512 0.440760 0.715861
O O7 0.798339 0.554602 0.604812
O O8 0.500000 0.000000 0.000000
O O9 0.865443 0.303182 0.244014
O O10 0.848369 0.012274 0.102321
O O11 0.856852 0.545463 0.218844
O O12 0.844314 0.907547 0.407291
O O13 0.000000 0.500000 0.000000
O O14 0.554762 0.378137 0.815887
O O15 0.266242 0.749074 0.197305
O O16 0.296669 0.962844 0.160615
O O17 0.087831 0.462765 0.619029
O O18 0.000000 0.500000 0.500000
#
# Coordination Sequence:
#
# PCOD9107591 Si02
#       8
#     2   2   2   2   2   2   2   2
#     4  11  23  40  65  95 125 167 220 265 310 380
#     4  11  23  40  66  91 129 165 212 265 317 378
#     4  10  22  39  63  96 124 166 221 262 316 381
#     4  11  22  40  63  92 131 166 207 261 325 380
#     4  10  21  38  66  91 126 163 216 259 307 382
#     4  10  20  40  65  86 126 172 208 259 319 380
#     4  10  21  40  65  94 120 170 214 254 317 381
#     4  11  22  41  65  94 124 165 211 262 319 381
#
# _framework density 20.223472999999998
#
# number of rings (size 3 to 8) (size 9 to 14) (size 15 to 20)
#    0.000    1.500    3.750    1.500    1.750    0.000 
#    4.500    3.750    0.000    0.000    0.000    0.000 
#    0.000    0.000    0.000    0.000    0.000    0.000 
#
# Total GULP energy -89161.783134 kJ/mol
# GULP energy per Si atom -5572.611446 kJ/mol
# Density = 2.017744 g / cm^3
# Si number density = 20.223473 Si / 1000 Ang^3
#
#
#
# Elastic Constant Matrix: (Units=GPa)
#
#
# Indices 1 2 3 4 5 6 
#
# 1 52.9628 15.6033 22.4529 -13.4340 5.1779 -10.4482
# 2 15.6033 76.3242 12.3779 -12.2318 2.7873 9.5723
# 3 22.4529 12.3779 121.9114 -12.6324 12.4652 0.7344
# 4 -13.4340 -12.2318 -12.6324 32.0216 -0.3367 2.0055
# 5 5.1779 2.7873 12.4652 -0.3367 28.6898 7.2935
# 6 -10.4482 9.5723 0.7344 2.0055 7.2935 32.1268
#
#
#
# Elastic Compliance Matrix: (Units=1/GPa)
#
#
# Indices 1 2 3 4 5 6 
#
# 1 0.026105 -0.004846 -0.003070 0.007153 -0.005574 0.010823
# 2 -0.004846 0.015632 -0.000345 0.004240 0.001280 -0.006781
# 3 -0.003070 -0.000345 0.009383 0.002278 -0.003337 -0.000495
# 4 0.007153 0.004240 0.002278 0.036778 -0.002053 -0.000819
# 5 -0.005574 0.001280 -0.003337 -0.002053 0.039976 -0.011065
# 6 0.010823 -0.006781 -0.000495 -0.000819 -0.011065 0.039241
#
#
# Mechanical properties :
#
#
# Convention : Reuss Voigt Hill
#
# Bulk Modulus (GPa) = 28.90396 39.11852 34.01124
# Shear Modulus (GPa) = 25.61868 31.95191 28.78530
#
# Velocity S-wave (km/s) = 3.56305 3.97916 3.77684
# Velocity P-wave (km/s) = 5.59020 6.36370 5.98945
#
# Compressibility (1/GPa) = 0.03459734
#
# Stress axis : x y z
#
# Youngs Moduli (GPa) = 38.30723 63.97149 106.57230
#
# Poissons Ratio (x) = 0.31002 0.32716
# Poissons Ratio (y) = 0.18565 0.03679
# Poissons Ratio (z) = 0.11760 0.02208
#
# Static dielectric constant tensor:
#      x y z
#    x 1.743790 -0.008060 0.002450 
#    y -0.008060 2.008990 0.006450 
#    z 0.002450 0.006450 1.747950 
# 
# From -- ./inp_files/448194.got.cif
#   From: 2010.05.17/outbox.cif.g08.bks.cpg/sg2_225_cif.got.tgz:448194.got - 2010.06.03 11:33:40.
