data_PCOD9107533
_publ_section_title
;
Structure prediction by ZEFSAII (Michael W. Deem and Ramdas Pophale) SiO2 
 PCOD9107533
Probable space group: P -1
;
_chemical_formula_sum "Si O2"
_cell_formula_units_Z 14
_cell_length_a 14.285471
_cell_length_b 20.306102
_cell_length_c 15.134157
_cell_angle_alpha 24.434762
_cell_angle_beta 139.139015
_cell_angle_gamma 157.391848
_cell_volume 592.307059
_symmetry_space_group_name_H-M "P -1"
_symmetry_group_IT_number 2
_symmetry_cell_setting 'triclinic'
loop_
_space_group_symop_operation_xyz
x,y,z
-x,-y,-z
loop_
_atom_site_type_symbol
_atom_site_label
_atom_site_fract_x
_atom_site_fract_y
_atom_site_fract_z
Si Si1 0.890118 0.218931 0.745131
Si Si2 0.799695 0.574104 0.458643
Si Si3 0.210520 0.750785 0.649552
Si Si4 0.183782 0.136919 0.748528
Si Si5 0.116620 0.933727 0.495810
Si Si6 0.689519 0.281193 0.023983
Si Si7 0.755570 0.067081 0.222735
O O1 0.000000 0.500000 0.500000
O O2 0.086807 0.325044 0.683496
O O3 0.563010 0.931622 0.828529
O O4 0.853291 0.077003 0.980188
O O5 0.875200 0.809222 0.273899
O O6 0.968255 0.599277 0.600540
O O7 0.455760 0.217635 0.649233
O O8 0.270557 0.948067 0.526364
O O9 0.500000 0.000000 0.500000
O O10 0.500000 0.500000 0.500000
O O11 0.795296 0.550708 0.736146
O O12 0.936367 0.948650 0.731160
O O13 0.212960 0.015032 0.567323
O O14 0.584551 0.058456 0.146904
O O15 0.000000 0.500000 0.000000
O O16 0.946641 0.566810 0.044706
#
# Coordination Sequence:
#
# PCOD9107533 Si02
#       7
#     2   2   2   2   2   2   2
#     4  12  24  41  72 106 133 177 233 288 336 406
#     4  11  25  40  66 104 141 175 231 288 342 405
#     4  10  22  34  63 103 141 179 232 282 339 403
#     4  11  24  46  69  96 140 188 226 277 355 408
#     4   9  20  40  66  90 135 186 224 269 343 411
#     4   9  18  35  67  94 133 175 228 260 343 397
#     4  10  20  40  64  97 139 175 228 277 340 402
#
# _framework density 23.636386999999999
#
# number of rings (size 3 to 8) (size 9 to 14) (size 15 to 20)
#    0.000    1.714    2.857    2.143    8.000    1.143 
#    0.000    1.429    0.000    5.143    0.000    0.000 
#    0.000    0.000    0.000    0.000    0.000    0.000 
#
# Total GULP energy -78003.718763 kJ/mol
# GULP energy per Si atom -5571.694197 kJ/mol
# Density = 2.358259 g / cm^3
# Si number density = 23.636387 Si / 1000 Ang^3
#
#
#
# Elastic Constant Matrix: (Units=GPa)
#
#
# Indices 1 2 3 4 5 6 
#
# 1 72.3740 21.4991 36.8640 -2.3984 -27.5606 15.6775
# 2 21.4991 120.3167 61.7144 21.2437 -3.7641 5.7142
# 3 36.8640 61.7144 103.9364 22.7886 -13.3215 6.4543
# 4 -2.3984 21.2437 22.7886 39.7872 3.7599 -9.5429
# 5 -27.5606 -3.7641 -13.3215 3.7599 32.6958 -7.4704
# 6 15.6775 5.7142 6.4543 -9.5429 -7.4704 31.9525
#
#
#
# Elastic Compliance Matrix: (Units=1/GPa)
#
#
# Indices 1 2 3 4 5 6 
#
# 1 0.025176 -0.000813 -0.006479 0.002590 0.016773 -0.006203
# 2 -0.000813 0.012385 -0.006494 -0.003218 -0.001975 -0.001927
# 3 -0.006479 -0.006494 0.017685 -0.007465 0.001607 -0.001086
# 4 0.002590 -0.003218 -0.007465 0.034023 -0.002783 0.010323
# 5 0.016773 -0.001975 0.001607 -0.002783 0.045857 0.001689
# 6 -0.006203 -0.001927 -0.001086 0.010323 0.001689 0.038382
#
#
# Mechanical properties :
#
#
# Convention : Reuss Voigt Hill
#
# Bulk Modulus (GPa) = 36.13465 59.64245 47.88855
# Shear Modulus (GPa) = 23.77499 32.65708 28.21604
#
# Velocity S-wave (km/s) = 3.17498 3.72108 3.45882
# Velocity P-wave (km/s) = 5.36298 6.61438 6.02128
#
# Compressibility (1/GPa) = 0.02767427
#
# Stress axis : x y z
#
# Youngs Moduli (GPa) = 39.72076 80.73998 56.54443
#
# Poissons Ratio (x) = 0.06564 0.36637
# Poissons Ratio (y) = 0.03229 0.36718
# Poissons Ratio (z) = 0.25737 0.52430
#
# Static dielectric constant tensor:
#      x y z
#    x 1.973930 -0.068370 -0.025470 
#    y -0.068370 2.027630 0.064800 
#    z -0.025470 0.064800 1.956210 
# 
# From -- ./inp_files/444048.got.cif
#   From: 2010.05.17/outbox.cif.g08.bks.cpg/sg2_223_cif.got.tgz:444048.got - 2010.06.03 11:33:40.
