data_PCOD9107079
_publ_section_title
;
Structure prediction by ZEFSAII (Michael W. Deem and Ramdas Pophale) SiO2 
 PCOD9107079
Probable space group: P -1
;
_chemical_formula_sum "Si O2"
_cell_formula_units_Z 16
_cell_length_a 14.036796
_cell_length_b 8.674829
_cell_length_c 14.136700
_cell_angle_alpha 57.806406
_cell_angle_beta 29.892391
_cell_angle_gamma 59.367651
_cell_volume 721.347291
_symmetry_space_group_name_H-M "P -1"
_symmetry_group_IT_number 2
_symmetry_cell_setting 'triclinic'
loop_
_space_group_symop_operation_xyz
x,y,z
-x,-y,-z
loop_
_atom_site_type_symbol
_atom_site_label
_atom_site_fract_x
_atom_site_fract_y
_atom_site_fract_z
Si Si1 0.987176 0.796919 0.030459
Si Si2 0.794849 0.945656 0.964600
Si Si3 0.015021 0.284004 0.642312
Si Si4 0.784418 0.523443 0.422683
Si Si5 0.425726 0.150768 0.268601
Si Si6 0.049575 0.164278 0.337172
Si Si7 0.298803 0.429913 0.144448
Si Si8 0.605090 0.361502 0.197365
O O1 0.848392 0.666869 0.244501
O O2 0.201437 0.697789 0.893632
O O3 0.909447 0.814278 0.984904
O O4 0.000000 0.000000 0.000000
O O5 0.839333 0.901965 0.831894
O O6 0.886631 0.135428 0.843803
O O7 0.565486 0.977450 0.169007
O O8 0.122007 0.397497 0.589499
O O9 0.194092 0.166948 0.473322
O O10 0.843050 0.438186 0.707329
O O11 0.557990 0.537661 0.629178
O O12 0.875168 0.313573 0.404855
O O13 0.453855 0.314843 0.115544
O O14 0.512225 0.192503 0.283263
O O15 0.179110 0.275345 0.255630
O O16 0.000000 0.000000 0.500000
O O17 0.353340 0.520452 0.969349
#
# Coordination Sequence:
#
# PCOD9107079 Si02
#       8
#     2   2   2   2   2   2   2   2
#     4  12  21  45  69  99 138 170 226 281 326 394
#     4  12  25  41  68  99 133 178 223 269 338 391
#     4  10  20  40  62  98 130 166 221 278 331 387
#     4  10  23  43  67  97 132 179 221 271 335 389
#     4  11  22  35  67 102 127 172 223 274 340 394
#     4  11  26  47  66  97 141 180 219 277 336 396
#     4  11  21  43  64  92 137 175 222 278 332 397
#     4  11  22  40  69 100 131 176 223 277 334 390
#
# _framework density 22.180719
#
# number of rings (size 3 to 8) (size 9 to 14) (size 15 to 20)
#    0.000    1.000    6.250    1.500    1.750    3.500 
#    2.250    0.625    0.000    0.000    0.000    0.000 
#    0.000    0.000    0.000    0.000    0.000    0.000 
#
# Total GULP energy -89227.601473 kJ/mol
# GULP energy per Si atom -5576.725092 kJ/mol
# Density = 2.213023 g / cm^3
# Si number density = 22.180719 Si / 1000 Ang^3
#
#
#
# Elastic Constant Matrix: (Units=GPa)
#
#
# Indices 1 2 3 4 5 6 
#
# 1 82.6953 32.4975 31.7114 14.2333 11.0452 -34.9571
# 2 32.4975 87.9148 56.8050 6.2369 2.6892 -16.1106
# 3 31.7114 56.8050 118.5549 18.8524 -3.8118 -12.5884
# 4 14.2333 6.2369 18.8524 37.4435 -6.3321 -0.3601
# 5 11.0452 2.6892 -3.8118 -6.3321 29.2122 2.4684
# 6 -34.9571 -16.1106 -12.5884 -0.3601 2.4684 29.9716
#
#
#
# Elastic Compliance Matrix: (Units=1/GPa)
#
#
# Indices 1 2 3 4 5 6 
#
# 1 0.038258 -0.002774 -0.002396 -0.016126 -0.021712 0.043718
# 2 -0.002774 0.018008 -0.007871 0.001792 -0.001525 0.003285
# 3 -0.002396 -0.007871 0.013408 -0.004100 0.002632 -0.001660
# 4 -0.016126 0.001792 -0.004100 0.036965 0.015131 -0.020369
# 5 -0.021712 -0.001525 0.002632 0.015131 0.048644 -0.028862
# 6 0.043718 0.003285 -0.001660 -0.020369 -0.028862 0.087556
#
#
# Mechanical properties :
#
#
# Convention : Reuss Voigt Hill
#
# Bulk Modulus (GPa) = 22.94096 59.02144 40.98120
# Shear Modulus (GPa) = 17.63973 30.53554 24.08764
#
# Velocity S-wave (km/s) = 2.82312 3.71438 3.29898
# Velocity P-wave (km/s) = 4.58169 6.71287 5.74693
#
# Compressibility (1/GPa) = 0.04359015
#
# Stress axis : x y z
#
# Youngs Moduli (GPa) = 26.13854 55.53194 74.58496
#
# Poissons Ratio (x) = 0.15406 0.17868
# Poissons Ratio (y) = 0.07252 0.58709
# Poissons Ratio (z) = 0.06262 0.43711
#
# Static dielectric constant tensor:
#      x y z
#    x 1.832830 0.014890 -0.023360 
#    y 0.014890 1.884940 -0.011180 
#    z -0.023360 -0.011180 1.911530 
# 
# From -- ./inp_files/529353.got.cif
#   From: 2010.05.17/outbox.cif.g08.bks.cpg/sg2_265_cif.got.tgz:529353.got - 2010.06.03 11:33:40.
