data_PCOD9107976
_publ_section_title
;
Structure prediction by ZEFSAII (Michael W. Deem and Ramdas Pophale) SiO2 
 PCOD9107976
Probable space group: P -1
;
_chemical_formula_sum "Si O2"
_cell_formula_units_Z 16
_cell_length_a 21.202707
_cell_length_b 8.677841
_cell_length_c 26.744542
_cell_angle_alpha 39.806532
_cell_angle_beta 18.669103
_cell_angle_gamma 30.714982
_cell_volume 771.651272
_symmetry_space_group_name_H-M "P -1"
_symmetry_group_IT_number 2
_symmetry_cell_setting 'triclinic'
loop_
_space_group_symop_operation_xyz
x,y,z
-x,-y,-z
loop_
_atom_site_type_symbol
_atom_site_label
_atom_site_fract_x
_atom_site_fract_y
_atom_site_fract_z
Si Si1 0.502176 0.948787 0.071242
Si Si2 0.695530 0.170228 0.407649
Si Si3 0.936964 0.304459 0.397871
Si Si4 0.228516 0.818399 0.142395
Si Si5 0.170433 0.110372 0.725076
Si Si6 0.878666 0.331176 0.636386
Si Si7 0.475085 0.839316 0.666749
Si Si8 0.332617 0.704785 0.902540
O O1 0.607039 0.603821 0.088241
O O2 0.203818 0.183929 0.252718
O O3 0.500000 0.000000 0.000000
O O4 0.690899 0.986899 0.945393
O O5 0.500000 0.500000 0.500000
O O6 0.663348 0.156607 0.375633
O O7 0.632020 0.958191 0.530279
O O8 0.991521 0.009038 0.234854
O O9 0.877853 0.578505 0.336463
O O10 0.699869 0.477459 0.571251
O O11 0.991984 0.001225 0.406763
O O12 0.129290 0.740322 0.282556
O O13 0.500000 0.500000 0.000000
O O14 0.300902 0.013182 0.705322
O O15 0.911882 0.157260 0.914045
O O16 0.585557 0.576198 0.775587
O O17 0.000000 0.500000 0.500000
O O18 0.310407 0.896007 0.824266
#
# Coordination Sequence:
#
# PCOD9107976 Si02
#       8
#     2   2   2   2   2   2   2   2
#     4  11  20  38  70  89 122 169 217 266 316 385
#     4  11  26  41  66  98 132 171 221 269 326 388
#     4  10  20  40  66  93 120 169 224 254 319 386
#     4  12  23  39  65  97 127 166 217 270 326 384
#     4  11  22  44  69  87 130 176 221 261 309 394
#     4  11  23  38  65  94 137 161 200 279 337 374
#     4  11  25  41  67  93 131 174 217 263 319 394
#     4  11  22  42  64  98 124 165 220 264 319 390
#
# _framework density 20.734753999999999
#
# number of rings (size 3 to 8) (size 9 to 14) (size 15 to 20)
#    0.000    1.000    3.750    4.875    5.250    3.000 
#    0.000    0.625    0.000    0.000    0.000    0.000 
#    0.000    0.000    0.000    0.000    0.000    0.000 
#
# Total GULP energy -89343.185075 kJ/mol
# GULP energy per Si atom -5583.949067 kJ/mol
# Density = 2.068756 g / cm^3
# Si number density = 20.734754 Si / 1000 Ang^3
#
#
#
# Elastic Constant Matrix: (Units=GPa)
#
#
# Indices 1 2 3 4 5 6 
#
# 1 76.9445 26.0638 28.1571 -5.3803 -15.6247 2.0064
# 2 26.0638 53.6749 36.6520 1.4519 -3.7905 14.4811
# 3 28.1571 36.6520 118.5736 -8.7036 -9.2317 18.1829
# 4 -5.3803 1.4519 -8.7036 39.4116 5.1440 0.6088
# 5 -15.6247 -3.7905 -9.2317 5.1440 40.3339 -3.9250
# 6 2.0064 14.4811 18.1829 0.6088 -3.9250 20.5792
#
#
#
# Elastic Compliance Matrix: (Units=1/GPa)
#
#
# Indices 1 2 3 4 5 6 
#
# 1 0.017932 -0.008919 -0.002066 0.001397 0.006186 0.007492
# 2 -0.008919 0.030982 -0.005345 -0.002887 -0.003024 -0.016700
# 3 -0.002066 -0.005345 0.011787 0.002560 0.000442 -0.006443
# 4 0.001397 -0.002887 0.002560 0.026614 -0.002701 -0.001669
# 5 0.006186 -0.003024 0.000442 -0.002701 0.027989 0.006553
# 6 0.007492 -0.016700 -0.006443 -0.001669 0.006553 0.066606
#
#
# Mechanical properties :
#
#
# Convention : Reuss Voigt Hill
#
# Bulk Modulus (GPa) = 35.66289 47.88208 41.77248
# Shear Modulus (GPa) = 22.32981 30.61962 26.47472
#
# Velocity S-wave (km/s) = 3.28522 3.84699 3.57715
# Velocity P-wave (km/s) = 5.62380 6.54792 6.10338
#
# Compressibility (1/GPa) = 0.02804035
#
# Stress axis : x y z
#
# Youngs Moduli (GPa) = 55.76564 32.27712 84.84157
#
# Poissons Ratio (x) = 0.28788 0.17528
# Poissons Ratio (y) = 0.49738 0.45349
# Poissons Ratio (z) = 0.11521 0.17252
#
# Static dielectric constant tensor:
#      x y z
#    x 1.777180 -0.001080 0.018220 
#    y -0.001080 1.744610 -0.001010 
#    z 0.018220 -0.001010 1.803170 
# 
# From -- ./inp_files/620688.got.cif
#   From: 2010.05.17/outbox.cif.g08.bks.cpg/sg2_311_cif.got.tgz:620688.got - 2010.06.03 11:33:40.
