data_PCOD9107559
_publ_section_title
;
Structure prediction by ZEFSAII (Michael W. Deem and Ramdas Pophale) SiO2 
 PCOD9107559
Probable space group: P -1
;
_chemical_formula_sum "Si O2"
_cell_formula_units_Z 16
_cell_length_a 9.339006
_cell_length_b 5.084604
_cell_length_c 15.640077
_cell_angle_alpha 72.636960
_cell_angle_beta 100.073472
_cell_angle_gamma 96.506694
_cell_volume 696.425143
_symmetry_space_group_name_H-M "P -1"
_symmetry_group_IT_number 2
_symmetry_cell_setting 'triclinic'
loop_
_space_group_symop_operation_xyz
x,y,z
-x,-y,-z
loop_
_atom_site_type_symbol
_atom_site_label
_atom_site_fract_x
_atom_site_fract_y
_atom_site_fract_z
Si Si1 0.117968 0.661315 0.055610
Si Si2 0.304644 0.378653 0.809938
Si Si3 0.346980 0.098731 0.003505
Si Si4 0.410945 0.992186 0.723753
Si Si5 0.167291 0.257379 0.574631
Si Si6 0.011612 0.311370 0.385331
Si Si7 0.019636 0.775209 0.211711
Si Si8 0.285559 0.186986 0.189359
O O1 0.221261 0.865315 0.991385
O O2 0.026989 0.791314 0.108338
O O3 0.228155 0.489054 0.141166
O O4 0.000000 0.500000 0.000000
O O5 0.318060 0.700528 0.757235
O O6 0.150507 0.219282 0.785247
O O7 0.415269 0.199698 0.785773
O O8 0.326051 0.359442 0.915707
O O9 0.328189 0.136857 0.098695
O O10 0.500000 0.000000 0.000000
O O11 0.572538 0.889224 0.736299
O O12 0.324922 0.164943 0.628242
O O13 0.111617 0.523725 0.592217
O O14 0.144023 0.303126 0.467047
O O15 0.052902 0.997342 0.609766
O O16 0.053051 0.489632 0.289151
O O17 0.145945 0.002530 0.226397
#
# Coordination Sequence:
#
# PCOD9107559 Si02
#       8
#     2   2   2   2   2   2   2   2
#     4  11  25  41  63  89 131 175 220 269 317 383
#     4  12  25  39  69  93 122 173 220 267 314 385
#     4  11  23  40  58  89 123 166 220 265 318 373
#     4  12  24  42  65  98 130 164 216 267 327 381
#     4  10  20  40  65 102 124 162 210 275 316 380
#     4  10  21  38  69  96 130 159 216 264 322 380
#     4  11  24  41  62  96 127 172 214 267 323 389
#     4  11  26  40  61  91 135 173 211 272 330 381
#
# _framework density 22.974473
#
# number of rings (size 3 to 8) (size 9 to 14) (size 15 to 20)
#    0.000    1.000    3.750    2.250    8.750    3.000 
#    0.000    0.625    0.000    0.750    0.000    0.000 
#    0.000    0.000    0.000    0.000    0.000    0.000 
#
# Total GULP energy -89353.558030 kJ/mol
# GULP energy per Si atom -5584.597377 kJ/mol
# Density = 2.292218 g / cm^3
# Si number density = 22.974473 Si / 1000 Ang^3
#
#
#
# Elastic Constant Matrix: (Units=GPa)
#
#
# Indices 1 2 3 4 5 6 
#
# 1 95.2034 14.2147 18.2824 -8.5276 27.2252 -7.5001
# 2 14.2147 65.0476 -2.9914 -10.6515 -2.7757 -6.6302
# 3 18.2824 -2.9914 86.4020 -10.3977 23.5743 5.3850
# 4 -8.5276 -10.6515 -10.3977 32.7108 -1.0569 4.8518
# 5 27.2252 -2.7757 23.5743 -1.0569 45.1016 -4.7891
# 6 -7.5001 -6.6302 5.3850 4.8518 -4.7891 21.9075
#
#
#
# Elastic Compliance Matrix: (Units=1/GPa)
#
#
# Indices 1 2 3 4 5 6 
#
# 1 0.013603 -0.002844 -0.000757 0.001851 -0.007748 0.001879
# 2 -0.002844 0.017292 0.000745 0.004675 0.002891 0.003673
# 3 -0.000757 0.000745 0.015005 0.005550 -0.007919 -0.006682
# 4 0.001851 0.004675 0.005550 0.035402 -0.003748 -0.007975
# 5 -0.007748 0.002891 -0.007919 -0.003748 0.031926 0.007978
# 6 0.001879 0.003673 -0.006682 -0.007975 0.007978 0.052554
#
#
# Mechanical properties :
#
#
# Convention : Reuss Voigt Hill
#
# Bulk Modulus (GPa) = 24.88215 33.96272 29.42244
# Shear Modulus (GPa) = 27.04309 34.42049 30.73179
#
# Velocity S-wave (km/s) = 3.43460 3.87487 3.66136
# Velocity P-wave (km/s) = 5.15582 5.90206 5.54152
#
# Compressibility (1/GPa) = 0.04018945
#
# Stress axis : x y z
#
# Youngs Moduli (GPa) = 73.51196 57.82914 66.64423
#
# Poissons Ratio (x) = 0.16444 0.05047
# Poissons Ratio (y) = 0.20903 -0.04967
# Poissons Ratio (z) = 0.05567 -0.04310
#
# Static dielectric constant tensor:
#      x y z
#    x 1.935730 -0.020660 0.106960 
#    y -0.020660 1.889890 0.026290 
#    z 0.106960 0.026290 1.930780 
# 
# From -- ./inp_files/43262.got.cif
#   From: 2010.05.17/outbox.cif.g08.bks.cpg/sg2_22_cif.got.tgz:43262.got - 2010.06.03 11:33:40.
