data_PCOD9107986
_publ_section_title
;
Structure prediction by ZEFSAII (Michael W. Deem and Ramdas Pophale) SiO2 
 PCOD9107986
Probable space group: P -1
;
_chemical_formula_sum "Si O2"
_cell_formula_units_Z 16
_cell_length_a 21.722427
_cell_length_b 9.807227
_cell_length_c 12.343045
_cell_angle_alpha 135.814467
_cell_angle_beta 31.608994
_cell_angle_gamma 152.011550
_cell_volume 640.209820
_symmetry_space_group_name_H-M "P -1"
_symmetry_group_IT_number 2
_symmetry_cell_setting 'triclinic'
loop_
_space_group_symop_operation_xyz
x,y,z
-x,-y,-z
loop_
_atom_site_type_symbol
_atom_site_label
_atom_site_fract_x
_atom_site_fract_y
_atom_site_fract_z
Si Si1 0.646781 0.331317 0.011159
Si Si2 0.314756 0.845176 0.937059
Si Si3 0.269850 0.631464 0.422127
Si Si4 0.418576 0.436710 0.445956
Si Si5 0.862639 0.912799 0.934094
Si Si6 0.234910 0.006562 0.653314
Si Si7 0.235146 0.516475 0.649539
Si Si8 0.704477 0.770430 0.877731
O O1 0.730772 0.347038 0.002716
O O2 0.528979 0.379168 0.228989
O O3 0.805361 0.614906 0.862956
O O4 0.500000 0.000000 0.000000
O O5 0.267485 0.688964 0.804686
O O6 0.527525 0.128279 0.784112
O O7 0.230600 0.957038 0.127774
O O8 0.264524 0.662829 0.577122
O O9 0.204755 0.327006 0.334299
O O10 0.184116 0.718149 0.546939
O O11 0.249593 0.164304 0.616478
O O12 0.557294 0.741398 0.478140
O O13 0.361254 0.485985 0.456292
O O14 0.723023 0.831284 0.012848
O O15 0.860047 0.009812 0.112032
O O16 0.042428 0.188351 0.763398
O O17 0.500000 0.500000 0.000000
#
# Coordination Sequence:
#
# PCOD9107986 Si02
#       8
#     2   2   2   2   2   2   2   2
#     4  11  23  42  73  96 129 167 222 272 319 389
#     4  11  22  40  67 101 125 172 226 264 322 378
#     4  11  22  39  67  94 128 174 220 268 312 389
#     4  10  21  38  66  99 124 168 218 264 318 378
#     4  11  26  43  63 100 133 168 212 271 337 380
#     4  10  20  40  66  93 127 166 224 270 304 382
#     4  12  25  40  65  97 138 169 211 273 328 384
#     4  10  24  41  64  96 129 169 218 267 322 389
#
# _framework density 24.991807000000001
#
# number of rings (size 3 to 8) (size 9 to 14) (size 15 to 20)
#    0.000    1.250    2.500    4.125    8.750    4.500 
#    0.000    0.625    0.000    0.000    0.000    0.000 
#    0.000    0.000    0.000    0.000    0.000    0.000 
#
# Total GULP energy -89454.859150 kJ/mol
# GULP energy per Si atom -5590.928697 kJ/mol
# Density = 2.493492 g / cm^3
# Si number density = 24.991807 Si / 1000 Ang^3
#
#
#
# Elastic Constant Matrix: (Units=GPa)
#
#
# Indices 1 2 3 4 5 6 
#
# 1 59.4011 20.7342 2.4613 -1.7937 7.7554 -25.6267
# 2 20.7342 89.7719 25.7177 17.2086 -20.9245 -25.1786
# 3 2.4613 25.7177 34.4730 14.1454 -6.6065 -2.3972
# 4 -1.7937 17.2086 14.1454 52.7973 -13.0825 -3.2087
# 5 7.7554 -20.9245 -6.6065 -13.0825 19.5127 3.7638
# 6 -25.6267 -25.1786 -2.3972 -3.2087 3.7638 42.0545
#
#
#
# Elastic Compliance Matrix: (Units=1/GPa)
#
#
# Indices 1 2 3 4 5 6 
#
# 1 0.029156 -0.008099 0.001110 -0.001682 -0.023917 0.014993
# 2 -0.008099 0.023883 -0.012852 0.001840 0.024442 0.006584
# 3 0.001110 -0.012852 0.040572 -0.008187 -0.005034 -0.004880
# 4 -0.001682 0.001840 -0.008187 0.024518 0.016305 0.000022
# 5 -0.023917 0.024442 -0.005034 0.016305 0.097683 -0.007726
# 6 0.014993 0.006584 -0.004880 0.000022 -0.007726 0.037272
#
#
# Mechanical properties :
#
#
# Convention : Reuss Voigt Hill
#
# Bulk Modulus (GPa) = 18.54313 31.27469 24.90891
# Shear Modulus (GPa) = 16.09048 31.85507 23.97277
#
# Velocity S-wave (km/s) = 2.54013 3.57406 3.10050
# Velocity P-wave (km/s) = 4.00485 5.43810 4.77555
#
# Compressibility (1/GPa) = 0.05392833
#
# Stress axis : x y z
#
# Youngs Moduli (GPa) = 34.29838 41.87135 24.64731
#
# Poissons Ratio (x) = 0.33912 -0.02735
# Poissons Ratio (y) = 0.27778 0.31677
# Poissons Ratio (z) = -0.03806 0.53813
#
# Static dielectric constant tensor:
#      x y z
#    x 1.981730 0.016950 0.010040 
#    y 0.016950 2.077440 0.019120 
#    z 0.010040 0.019120 2.013280 
# 
# From -- ./inp_files/261635.got.cif
#   From: 2010.05.17/outbox.cif.g08.bks.cpg/sg2_131_cif.got.tgz:261635.got - 2010.06.03 11:33:40.
