data_PCOD9107521
_publ_section_title
;
Structure prediction by ZEFSAII (Michael W. Deem and Ramdas Pophale) SiO2 
 PCOD9107521
Probable space group: P -1
;
_chemical_formula_sum "Si O2"
_cell_formula_units_Z 16
_cell_length_a 15.099977
_cell_length_b 14.209823
_cell_length_c 15.053806
_cell_angle_alpha 40.758851
_cell_angle_beta 19.360290
_cell_angle_gamma 44.304608
_cell_volume 699.086545
_symmetry_space_group_name_H-M "P -1"
_symmetry_group_IT_number 2
_symmetry_cell_setting 'triclinic'
loop_
_space_group_symop_operation_xyz
x,y,z
-x,-y,-z
loop_
_atom_site_type_symbol
_atom_site_label
_atom_site_fract_x
_atom_site_fract_y
_atom_site_fract_z
Si Si1 0.391043 0.631229 0.569759
Si Si2 0.914878 0.248038 0.713639
Si Si3 0.510904 0.848139 0.045170
Si Si4 0.025100 0.083985 0.568173
Si Si5 0.583524 0.331106 0.272709
Si Si6 0.958759 0.828128 0.150333
Si Si7 0.599653 0.580787 0.935286
Si Si8 0.166791 0.236326 0.044124
O O1 0.500000 0.500000 0.500000
O O2 0.402959 0.622492 0.670761
O O3 0.087228 0.663582 0.805298
O O4 0.602441 0.755728 0.253860
O O5 0.975721 0.237803 0.767161
O O6 0.996565 0.104625 0.685412
O O7 0.609302 0.287876 0.957669
O O8 0.102022 0.366762 0.404349
O O9 0.669323 0.739941 0.036856
O O10 0.695302 0.873297 0.767963
O O11 0.207585 0.817980 0.327199
O O12 0.500000 0.000000 0.000000
O O13 0.961013 0.921526 0.719024
O O14 0.331924 0.228547 0.562216
O O15 0.575072 0.474600 0.117355
O O16 0.839015 0.239228 0.064566
O O17 0.000000 0.000000 0.000000
O O18 0.500000 0.500000 0.000000
#
# Coordination Sequence:
#
# PCOD9107521 Si02
#       8
#     2   2   2   2   2   2   2   2
#     4  12  28  46  67 101 132 188 250 282 343 415
#     4  12  25  41  72 106 139 176 231 289 344 428
#     4  10  20  40  64  96 133 173 217 270 345 417
#     4  11  23  39  66 110 133 174 228 279 369 416
#     4  12  27  47  73  99 144 193 232 291 356 401
#     4  12  26  47  71 108 144 180 233 289 355 430
#     4  12  23  46  69  99 139 185 235 287 345 418
#     4  11  23  45  71  89 144 181 220 301 349 413
#
# _framework density 22.887008999999999
#
# number of rings (size 3 to 8) (size 9 to 14) (size 15 to 20)
#    0.000    0.500    2.500    7.125    3.500    3.000 
#    0.000    0.000    0.000    0.000    0.000    0.000 
#    0.000    0.000    0.000    0.000    0.000    0.000 
#
# Total GULP energy -89526.266769 kJ/mol
# GULP energy per Si atom -5595.391673 kJ/mol
# Density = 2.283492 g / cm^3
# Si number density = 22.887009 Si / 1000 Ang^3
#
#
#
# Elastic Constant Matrix: (Units=GPa)
#
#
# Indices 1 2 3 4 5 6 
#
# 1 129.9191 53.9390 46.5620 6.0112 13.0480 7.1496
# 2 53.9390 62.3996 28.6748 4.5788 5.7339 -5.8356
# 3 46.5620 28.6748 135.7650 9.6020 1.2547 -7.8953
# 4 6.0112 4.5788 9.6020 35.1492 4.6124 5.9536
# 5 13.0480 5.7339 1.2547 4.6124 42.3631 3.8475
# 6 7.1496 -5.8356 -7.8953 5.9536 3.8475 31.6419
#
#
#
# Elastic Compliance Matrix: (Units=1/GPa)
#
#
# Indices 1 2 3 4 5 6 
#
# 1 0.013772 -0.011039 -0.002786 0.001119 -0.002262 -0.005779
# 2 -0.011039 0.027139 -0.001313 -0.002510 -0.000663 0.007725
# 3 -0.002786 -0.001313 0.008934 -0.002397 0.000762 0.002975
# 4 0.001119 -0.002510 -0.002397 0.030738 -0.002666 -0.006773
# 5 -0.002262 -0.000663 0.000762 -0.002666 0.024836 -0.001939
# 6 -0.005779 0.007725 0.002975 -0.006773 -0.001939 0.036587
#
#
# Mechanical properties :
#
#
# Convention : Reuss Voigt Hill
#
# Bulk Modulus (GPa) = 51.10250 65.15947 58.13099
# Shear Modulus (GPa) = 27.96343 35.09136 31.52739
#
# Velocity S-wave (km/s) = 3.49922 3.91991 3.71553
# Velocity P-wave (km/s) = 6.22115 7.00139 6.62277
#
# Compressibility (1/GPa) = 0.01956851
#
# Stress axis : x y z
#
# Youngs Moduli (GPa) = 72.60984 36.84709 111.93194
#
# Poissons Ratio (x) = 0.40677 0.31185
# Poissons Ratio (y) = 0.80156 0.14698
# Poissons Ratio (z) = 0.20229 0.04838
#
# Static dielectric constant tensor:
#      x y z
#    x 1.849690 -0.002680 0.024220 
#    y -0.002680 1.903600 -0.010670 
#    z 0.024220 -0.010670 1.821780 
# 
# From -- ./inp_files/534221.got.cif
#   From: 2010.05.17/outbox.cif.g08.bks.cpg/sg2_268_cif.got.tgz:534221.got - 2010.06.03 11:33:40.
