data_PCOD9107225
_publ_section_title
;
Structure prediction by ZEFSAII (Michael W. Deem and Ramdas Pophale) SiO2 
 PCOD9107225
Probable space group: P -1
;
_chemical_formula_sum "Si O2"
_cell_formula_units_Z 16
_cell_length_a 12.848428
_cell_length_b 7.654045
_cell_length_c 12.592019
_cell_angle_alpha 118.989111
_cell_angle_beta 133.581072
_cell_angle_gamma 52.994922
_cell_volume 711.143816
_symmetry_space_group_name_H-M "P -1"
_symmetry_group_IT_number 2
_symmetry_cell_setting 'triclinic'
loop_
_space_group_symop_operation_xyz
x,y,z
-x,-y,-z
loop_
_atom_site_type_symbol
_atom_site_label
_atom_site_fract_x
_atom_site_fract_y
_atom_site_fract_z
Si Si1 0.634695 0.793113 0.757343
Si Si2 0.849827 0.990690 0.077652
Si Si3 0.122660 0.591733 0.069642
Si Si4 0.051349 0.929100 0.397602
Si Si5 0.639747 0.257939 0.519964
Si Si6 0.250557 0.156463 0.381415
Si Si7 0.866525 0.427778 0.171924
Si Si8 0.828120 0.696765 0.421726
O O1 0.726101 0.543076 0.792175
O O2 0.447973 0.858751 0.651100
O O3 0.672249 0.824688 0.669936
O O4 0.712213 0.926226 0.920633
O O5 0.012167 0.851387 0.082946
O O6 0.913873 0.929835 0.225346
O O7 0.804865 0.246926 0.109749
O O8 0.169341 0.523951 0.962334
O O9 0.000000 0.500000 0.000000
O O10 0.212839 0.717964 0.427131
O O11 0.122251 0.102825 0.468137
O O12 0.000000 0.000000 0.500000
O O13 0.500000 0.500000 0.500000
O O14 0.687825 0.102611 0.615013
O O15 0.280104 0.278471 0.543254
O O16 0.059968 0.295985 0.272137
O O17 0.793200 0.635615 0.261507
O O18 0.000000 0.500000 0.500000
#
# Coordination Sequence:
#
# PCOD9107225 Si02
#       8
#     2   2   2   2   2   2   2   2
#     4  11  24  37  63  95 133 169 208 277 340 386
#     4  11  21  37  58  96 125 167 226 265 327 377
#     4  10  21  33  57  93 133 165 218 271 329 379
#     4  11  24  41  69  93 130 175 224 273 313 400
#     4  11  24  44  64  99 137 171 219 266 339 391
#     4  10  20  40  63  92 131 172 215 271 321 390
#     4  11  19  36  62  94 130 172 220 281 307 393
#     4   9  19  34  59  92 123 162 222 261 321 365
#
# _framework density 22.498967
#
# number of rings (size 3 to 8) (size 9 to 14) (size 15 to 20)
#    0.000    1.500    6.250    1.500    3.500    2.000 
#    0.000    0.625    0.000    3.000    0.000    0.000 
#    0.000    0.000    0.000    0.000    0.000    0.000 
#
# Total GULP energy -89071.255277 kJ/mol
# GULP energy per Si atom -5566.953455 kJ/mol
# Density = 2.244776 g / cm^3
# Si number density = 22.498967 Si / 1000 Ang^3
#
#
#
# Elastic Constant Matrix: (Units=GPa)
#
#
# Indices 1 2 3 4 5 6 
#
# 1 56.9033 -4.0848 47.6683 -12.1649 -22.4030 -1.6415
# 2 -4.0848 51.5848 9.4802 -1.8264 -13.3775 1.6657
# 3 47.6683 9.4802 153.6187 -0.0026 -21.3950 -6.9438
# 4 -12.1649 -1.8264 -0.0026 44.0030 -5.2370 0.0528
# 5 -22.4030 -13.3775 -21.3950 -5.2370 55.4577 2.0121
# 6 -1.6415 1.6657 -6.9438 0.0528 2.0121 12.4784
#
#
#
# Elastic Compliance Matrix: (Units=1/GPa)
#
#
# Indices 1 2 3 4 5 6 
#
# 1 0.033269 0.008236 -0.009191 0.011099 0.013073 -0.003993
# 2 0.008236 0.023062 -0.003052 0.004227 0.008295 -0.005049
# 3 -0.009191 -0.003052 0.009600 -0.002814 -0.001183 0.004743
# 4 0.011099 0.004227 -0.002814 0.026807 0.007019 -0.001915
# 5 0.013073 0.008295 -0.001183 0.007019 0.025673 -0.004216
# 6 -0.003993 -0.005049 0.004743 -0.001915 -0.004216 0.083614
#
#
# Mechanical properties :
#
#
# Convention : Reuss Voigt Hill
#
# Bulk Modulus (GPa) = 17.26607 40.91490 29.09049
# Shear Modulus (GPa) = 21.80114 36.32404 29.06259
#
# Velocity S-wave (km/s) = 3.11623 4.02241 3.59796
# Velocity P-wave (km/s) = 4.54298 6.30855 5.49711
#
# Compressibility (1/GPa) = 0.05791706
#
# Stress axis : x y z
#
# Youngs Moduli (GPa) = 30.05778 43.36051 104.17164
#
# Poissons Ratio (x) = -0.35711 0.95747
# Poissons Ratio (y) = -0.24755 0.31790
# Poissons Ratio (z) = 0.27627 0.13232
#
# Static dielectric constant tensor:
#      x y z
#    x -0.670660 2.884420 0.646440 
#    y 2.884420 -1.009640 -0.635620 
#    z 0.646440 -0.635620 1.767230 
# 
# From -- ./inp_files/446338.got.cif
#   From: 2010.05.17/outbox.cif.g08.bks.cpg/sg2_224_cif.got.tgz:446338.got - 2010.06.03 11:33:40.
