data_PCOD9107098
_publ_section_title
;
Structure prediction by ZEFSAII (Michael W. Deem and Ramdas Pophale) SiO2 
 PCOD9107098
Probable space group: P -1
;
_chemical_formula_sum "Si O2"
_cell_formula_units_Z 16
_cell_length_a 17.671938
_cell_length_b 6.838528
_cell_length_c 18.266227
_cell_angle_alpha 80.256195
_cell_angle_beta 20.972423
_cell_angle_gamma 88.762379
_cell_volume 718.099926
_symmetry_space_group_name_H-M "P -1"
_symmetry_group_IT_number 2
_symmetry_cell_setting 'triclinic'
loop_
_space_group_symop_operation_xyz
x,y,z
-x,-y,-z
loop_
_atom_site_type_symbol
_atom_site_label
_atom_site_fract_x
_atom_site_fract_y
_atom_site_fract_z
Si Si1 0.901948 0.272434 0.177530
Si Si2 0.641965 0.478231 0.304338
Si Si3 0.002117 0.438564 0.225685
Si Si4 0.870879 0.000124 0.542546
Si Si5 0.295852 0.164487 0.529401
Si Si6 0.489575 0.680864 0.826097
Si Si7 0.118191 0.016819 0.166463
Si Si8 0.630932 0.285356 0.687961
O O1 0.766788 0.324570 0.230169
O O2 0.961184 0.459233 0.175153
O O3 0.752780 0.044208 0.363024
O O4 0.153385 0.302015 0.919549
O O5 0.500000 0.500000 0.500000
O O6 0.469850 0.367855 0.401519
O O7 0.070437 0.228513 0.174892
O O8 0.762801 0.365956 0.488066
O O9 0.217187 0.597072 0.068183
O O10 0.622750 0.807826 0.768468
O O11 0.809004 0.210695 0.575955
O O12 0.000000 0.000000 0.500000
O O13 0.023411 0.973754 0.337980
O O14 0.407185 0.171014 0.348471
O O15 0.045601 0.156523 0.732205
O O16 0.566156 0.477703 0.764617
O O17 0.387938 0.085242 0.913213
#
# Coordination Sequence:
#
# PCOD9107098 Si02
#       8
#     2   2   2   2   2   2   2   2
#     4  10  22  40  60  84 125 163 202 261 315 362
#     4  11  24  39  56  90 126 161 203 255 316 374
#     4   9  18  37  63  86 117 158 209 260 301 364
#     4  10  22  40  61  92 128 163 204 254 312 376
#     4  10  20  40  63  84 121 161 206 259 304 364
#     4  10  21  39  63  92 120 157 215 256 302 378
#     4   8  19  38  60  90 119 158 210 257 295 369
#     4  10  21  39  63  91 125 161 208 258 313 363
#
# _framework density 22.281020000000002
#
# number of rings (size 3 to 8) (size 9 to 14) (size 15 to 20)
#    0.000    2.250    1.250    1.125    1.750    3.500 
#    0.000    9.375    0.000    0.000    0.000    0.000 
#    0.000    0.000    0.000    0.000    0.000    0.000 
#
# Total GULP energy -89277.341082 kJ/mol
# GULP energy per Si atom -5579.833818 kJ/mol
# Density = 2.223031 g / cm^3
# Si number density = 22.281020 Si / 1000 Ang^3
#
#
#
# Elastic Constant Matrix: (Units=GPa)
#
#
# Indices 1 2 3 4 5 6 
#
# 1 127.7668 17.1630 46.4273 5.2784 -29.0521 -9.4754
# 2 17.1630 57.8538 26.8685 5.1176 -15.9905 -10.6880
# 3 46.4273 26.8685 146.3074 0.4140 -20.1684 -2.7364
# 4 5.2784 5.1176 0.4140 30.4711 -1.5451 -1.2436
# 5 -29.0521 -15.9905 -20.1684 -1.5451 28.7685 -0.3240
# 6 -9.4754 -10.6880 -2.7364 -1.2436 -0.3240 25.7641
#
#
#
# Elastic Compliance Matrix: (Units=1/GPa)
#
#
# Indices 1 2 3 4 5 6 
#
# 1 0.011277 0.001671 -0.002325 -0.001472 0.010661 0.004657
# 2 0.001671 0.023874 -0.002945 -0.003191 0.012837 0.010213
# 3 -0.002325 -0.002945 0.008352 0.000834 0.001903 -0.001125
# 4 -0.001472 -0.003191 0.000834 0.033546 -0.000876 -0.000168
# 5 0.010661 0.012837 0.001903 -0.000876 0.054062 0.010086
# 6 0.004657 0.010213 -0.001125 -0.000168 0.010086 0.044762
#
#
# Mechanical properties :
#
#
# Convention : Reuss Voigt Hill
#
# Bulk Modulus (GPa) = 27.54295 56.98285 42.26290
# Shear Modulus (GPa) = 25.61814 33.09867 29.35841
#
# Velocity S-wave (km/s) = 3.39451 3.85841 3.63387
# Velocity P-wave (km/s) = 5.26802 6.74388 6.05112
#
# Compressibility (1/GPa) = 0.03630693
#
# Stress axis : x y z
#
# Youngs Moduli (GPa) = 88.67351 41.88650 119.72638
#
# Poissons Ratio (x) = -0.07000 0.27832
# Poissons Ratio (y) = -0.14820 0.35260
# Poissons Ratio (z) = 0.20613 0.12336
#
# Static dielectric constant tensor:
#      x y z
#    x 1.796100 0.027180 -0.014350 
#    y 0.027180 1.948890 -0.022260 
#    z -0.014350 -0.022260 1.863920 
# 
# From -- ./inp_files/599488.got.cif
#   From: 2010.05.17/outbox.cif.g08.bks.cpg/sg2_300_cif.got.tgz:599488.got - 2010.06.03 11:33:40.
