data_PCOD9107131
_publ_section_title
;
Structure prediction by ZEFSAII (Michael W. Deem and Ramdas Pophale) SiO2 
 PCOD9107131
Probable space group: P -1
;
_chemical_formula_sum "Si O2"
_cell_formula_units_Z 16
_cell_length_a 11.097736
_cell_length_b 9.059337
_cell_length_c 8.818255
_cell_angle_alpha 84.094285
_cell_angle_beta 53.765592
_cell_angle_gamma 76.585408
_cell_volume 694.939744
_symmetry_space_group_name_H-M "P -1"
_symmetry_group_IT_number 2
_symmetry_cell_setting 'triclinic'
loop_
_space_group_symop_operation_xyz
x,y,z
-x,-y,-z
loop_
_atom_site_type_symbol
_atom_site_label
_atom_site_fract_x
_atom_site_fract_y
_atom_site_fract_z
Si Si1 0.331901 0.553998 0.052209
Si Si2 0.332164 0.278867 0.474198
Si Si3 0.587901 0.228931 0.524723
Si Si4 0.193342 0.614885 0.451888
Si Si5 0.904771 0.610409 0.847885
Si Si6 0.525606 0.013036 0.157199
Si Si7 0.059174 0.263418 0.871466
Si Si8 0.757424 0.158950 0.106432
O O1 0.223684 0.649737 0.251985
O O2 0.260882 0.409643 0.078814
O O3 0.500000 0.500000 0.000000
O O4 0.324456 0.669247 0.905965
O O5 0.445326 0.313930 0.519390
O O6 0.249305 0.433613 0.441425
O O7 0.420011 0.161312 0.299307
O O8 0.204675 0.211210 0.663665
O O9 0.691946 0.319919 0.531775
O O10 0.700029 0.140567 0.320974
O O11 0.517929 0.124516 0.703076
O O12 0.018964 0.656598 0.634278
O O13 0.983053 0.436243 0.855889
O O14 0.898948 0.713397 0.988425
O O15 0.694632 0.040474 0.062158
O O16 0.500000 0.000000 0.000000
O O17 0.934123 0.162015 0.964940
#
# Coordination Sequence:
#
# PCOD9107131 Si02
#       8
#     2   2   2   2   2   2   2   2
#     4  11  22  32  56  93 132 162 204 251 309 366
#     4  10  22  38  64  95 121 160 214 262 292 372
#     4  11  22  39  65  90 121 168 211 248 314 369
#     4  11  21  37  60  94 130 162 204 254 314 366
#     4   9  19  35  56  87 132 172 192 250 318 368
#     4  11  24  45  63  85 128 167 204 256 322 373
#     4   9  18  36  62  90 122 159 214 256 303 359
#     4  10  20  40  63  87 121 170 209 251 308 371
#
# _framework density 23.023581
#
# number of rings (size 3 to 8) (size 9 to 14) (size 15 to 20)
#    0.000    1.750    1.250    4.500    3.500    0.000 
#    0.000    3.125    0.000    0.000    0.000    0.000 
#    0.000    0.000    0.000    0.000    0.000    0.000 
#
# Total GULP energy -89512.666351 kJ/mol
# GULP energy per Si atom -5594.541647 kJ/mol
# Density = 2.297118 g / cm^3
# Si number density = 23.023581 Si / 1000 Ang^3
#
#
#
# Elastic Constant Matrix: (Units=GPa)
#
#
# Indices 1 2 3 4 5 6 
#
# 1 139.9086 33.2665 72.7902 -2.9706 -13.5873 45.0000
# 2 33.2665 62.3158 28.9885 -7.2888 -1.6277 9.2848
# 3 72.7902 28.9885 151.6900 -17.3069 -0.5015 30.1933
# 4 -2.9706 -7.2888 -17.3069 26.7929 8.6271 1.9458
# 5 -13.5873 -1.6277 -0.5015 8.6271 49.0587 -5.1749
# 6 45.0000 9.2848 30.1933 1.9458 -5.1749 34.0087
#
#
#
# Elastic Compliance Matrix: (Units=1/GPa)
#
#
# Indices 1 2 3 4 5 6 
#
# 1 0.015145 -0.004261 -0.003602 -0.001571 0.002692 -0.015179
# 2 -0.004261 0.019249 -0.001409 0.004137 -0.001155 0.001221
# 3 -0.003602 -0.001409 0.010365 0.007139 -0.002708 -0.004872
# 4 -0.001571 0.004137 0.007139 0.046609 -0.009422 -0.009488
# 5 0.002692 -0.001155 -0.002708 -0.009422 0.023058 0.003205
# 6 -0.015179 0.001221 -0.004872 -0.009488 0.003205 0.054511
#
#
# Mechanical properties :
#
#
# Convention : Reuss Voigt Hill
#
# Bulk Modulus (GPa) = 38.14567 69.33389 53.73978
# Shear Modulus (GPa) = 25.48158 36.56333 31.02246
#
# Velocity S-wave (km/s) = 3.33041 3.98940 3.67471
# Velocity P-wave (km/s) = 5.60294 7.16938 6.43401
#
# Compressibility (1/GPa) = 0.02621530
#
# Stress axis : x y z
#
# Youngs Moduli (GPa) = 66.02858 51.95035 96.47440
#
# Poissons Ratio (x) = 0.22137 0.34753
# Poissons Ratio (y) = 0.28136 0.13591
# Poissons Ratio (z) = 0.23785 0.07318
#
# Static dielectric constant tensor:
#      x y z
#    x 1.886600 -0.028310 -0.025270 
#    y -0.028310 1.858680 -0.012430 
#    z -0.025270 -0.012430 1.851180 
# 
# From -- ./inp_files/243316.got.cif
#   From: 2010.05.17/outbox.cif.g08.bks.cpg/sg2_122_cif.got.tgz:243316.got - 2010.06.03 11:33:40.
