data_PCOD9107515
_publ_section_title
;
Structure prediction by ZEFSAII (Michael W. Deem and Ramdas Pophale) SiO2 
 PCOD9107515
Probable space group: P -1
;
_chemical_formula_sum "Si O2"
_cell_formula_units_Z 16
_cell_length_a 6.695211
_cell_length_b 19.569293
_cell_length_c 8.768926
_cell_angle_alpha 53.827328
_cell_angle_beta 101.550121
_cell_angle_gamma 123.228897
_cell_volume 762.775658
_symmetry_space_group_name_H-M "P -1"
_symmetry_group_IT_number 2
_symmetry_cell_setting 'triclinic'
loop_
_space_group_symop_operation_xyz
x,y,z
-x,-y,-z
loop_
_atom_site_type_symbol
_atom_site_label
_atom_site_fract_x
_atom_site_fract_y
_atom_site_fract_z
Si Si1 0.748477 0.717943 0.651900
Si Si2 0.752875 0.892096 0.615519
Si Si3 0.488639 0.926419 0.283013
Si Si4 0.090897 0.927847 0.060476
Si Si5 0.620578 0.274256 0.627498
Si Si6 0.605748 0.403968 0.997884
Si Si7 0.969301 0.370078 0.289857
Si Si8 0.385252 0.237598 0.940925
O O1 0.791628 0.813862 0.627810
O O2 0.579125 0.707536 0.499287
O O3 0.591161 0.623236 0.865896
O O4 0.972496 0.712831 0.637917
O O5 0.551882 0.903818 0.486092
O O6 0.666503 0.846496 0.830276
O O7 0.000000 0.000000 0.500000
O O8 0.250933 0.928749 0.222730
O O9 0.451015 0.836039 0.289507
O O10 0.723284 0.025228 0.115559
O O11 0.863515 0.819441 0.119284
O O12 0.000000 0.000000 0.000000
O O13 0.601571 0.272079 0.808478
O O14 0.863239 0.349636 0.471521
O O15 0.771480 0.366571 0.149166
O O16 0.788623 0.519587 0.832070
O O17 0.459411 0.335784 0.920616
#
# Coordination Sequence:
#
# PCOD9107515 Si02
#       8
#     2   2   2   2   2   2   2   2
#     4   9  20  39  66  90 121 168 209 254 314 381
#     4  10  20  40  64  96 131 160 212 269 312 368
#     4  10  22  40  64  88 119 175 213 243 324 384
#     4  11  22  40  65  86 124 172 211 259 312 384
#     4  10  22  38  61  90 127 163 212 251 312 389
#     4   9  21  41  64  94 128 159 214 268 315 373
#     4  10  20  41  67  90 124 173 210 253 323 389
#     4  11  22  41  61  94 134 158 208 277 308 363
#
# _framework density 20.976023000000001
#
# number of rings (size 3 to 8) (size 9 to 14) (size 15 to 20)
#    0.000    2.000    2.500    1.125    1.750    0.500 
#    6.750    1.250    0.000    0.000    0.000    0.000 
#    0.000    0.000    0.000    0.000    0.000    0.000 
#
# Total GULP energy -89353.617186 kJ/mol
# GULP energy per Si atom -5584.601074 kJ/mol
# Density = 2.092828 g / cm^3
# Si number density = 20.976023 Si / 1000 Ang^3
#
#
#
# Elastic Constant Matrix: (Units=GPa)
#
#
# Indices 1 2 3 4 5 6 
#
# 1 107.8044 35.9843 55.0999 7.8121 5.7559 1.8159
# 2 35.9843 80.5804 35.9331 -7.1951 -8.1508 15.6019
# 3 55.0999 35.9331 136.0668 1.9926 -28.3478 -2.9059
# 4 7.8121 -7.1951 1.9926 32.4120 3.8133 -6.6530
# 5 5.7559 -8.1508 -28.3478 3.8133 31.9170 -2.4462
# 6 1.8159 15.6019 -2.9059 -6.6530 -2.4462 18.1964
#
#
#
# Elastic Compliance Matrix: (Units=1/GPa)
#
#
# Indices 1 2 3 4 5 6 
#
# 1 0.015177 -0.004791 -0.006886 -0.003366 -0.009755 -0.001048
# 2 -0.004791 0.019367 -0.003235 0.002275 0.001468 -0.015615
# 3 -0.006886 -0.003235 0.013935 0.000053 0.013361 0.007502
# 4 -0.003366 0.002275 0.000053 0.034621 -0.002076 0.010773
# 5 -0.009755 0.001468 0.013361 -0.002076 0.046139 0.007292
# 6 -0.001048 -0.015615 0.007502 0.010773 0.007292 0.074566
#
#
# Mechanical properties :
#
#
# Convention : Reuss Voigt Hill
#
# Bulk Modulus (GPa) = 53.60651 64.27625 58.94138
# Shear Modulus (GPa) = 20.84629 29.66737 25.25683
#
# Velocity S-wave (km/s) = 3.15590 3.76486 3.47375
# Velocity P-wave (km/s) = 6.23628 7.04330 6.65204
#
# Compressibility (1/GPa) = 0.01865445
#
# Stress axis : x y z
#
# Youngs Moduli (GPa) = 65.88780 51.63331 71.75972
#
# Poissons Ratio (x) = 0.24739 0.49415
# Poissons Ratio (y) = 0.31568 0.23217
# Poissons Ratio (z) = 0.45371 0.16706
#
# Static dielectric constant tensor:
#      x y z
#    x 1.769080 0.021260 -0.007250 
#    y 0.021260 1.735410 -0.009110 
#    z -0.007250 -0.009110 1.791530 
# 
# From -- ./inp_files/138732.got.cif
#   From: 2010.05.17/outbox.cif.g08.bks.cpg/sg2_70_cif.got.tgz:138732.got - 2010.06.03 11:33:40.
