data_PCOD9107314
_publ_section_title
;
Structure prediction by ZEFSAII (Michael W. Deem and Ramdas Pophale) SiO2 
 PCOD9107314
Probable space group: P -1
;
_chemical_formula_sum "Si O2"
_cell_formula_units_Z 14
_cell_length_a 7.113523
_cell_length_b 12.450287
_cell_length_c 12.450297
_cell_angle_alpha 144.219393
_cell_angle_beta 85.103190
_cell_angle_gamma 85.103203
_cell_volume 619.319872
_symmetry_space_group_name_H-M "P -1"
_symmetry_group_IT_number 2
_symmetry_cell_setting 'triclinic'
loop_
_space_group_symop_operation_xyz
x,y,z
-x,-y,-z
loop_
_atom_site_type_symbol
_atom_site_label
_atom_site_fract_x
_atom_site_fract_y
_atom_site_fract_z
Si Si1 0.750000 0.133012 0.366988
Si Si2 0.629967 0.312214 0.719656
Si Si3 0.952717 0.592599 0.239642
Si Si4 0.912772 0.490725 0.613757
Si Si5 0.587227 0.886242 0.009275
Si Si6 0.452717 0.739642 0.092600
Si Si7 0.129967 0.219656 0.812213
O O1 0.591820 0.202794 0.527064
O O2 0.816101 0.314190 0.472749
O O3 0.683899 0.027250 0.185809
O O4 0.908180 0.972936 0.297206
O O5 0.832030 0.368616 0.736895
O O6 0.656695 0.203532 0.743414
O O7 0.470290 0.514674 0.898002
O O8 0.923312 0.558416 0.338647
O O9 0.843306 0.756586 0.296469
O O10 0.970291 0.398002 0.014674
O O11 0.000000 0.500000 0.500000
O O12 0.749999 0.687315 0.812685
O O13 0.423312 0.838647 0.058416
O O14 0.500000 0.000000 0.000000
O O15 0.667969 0.763105 0.131386
#
# Coordination Sequence:
#
# PCOD9107314 Si02
#       7
#     2   2   2   2   2   2   2
#     4  10  20  40  64  82 122 158 200 254 314 350
#     4   9  17  32  61  84 114 153 186 246 313 356
#     4   9  17  37  56  84 124 146 193 249 304 353
#     4  11  23  43  60  86 124 164 206 254 296 361
#     4  11  23  43  60  86 124 164 206 254 296 361
#     4   9  17  37  56  84 124 146 193 249 304 353
#     4   9  17  32  61  84 114 153 186 246 313 356
#
# _framework density 22.605445
#
# number of rings (size 3 to 8) (size 9 to 14) (size 15 to 20)
#    0.000    2.286    5.714    0.000    0.000    5.714 
#    7.714    2.857    0.000    0.000    0.000    0.000 
#    0.000    0.000    0.000    0.000    0.000    0.000 
#
# Total GULP energy -78020.130953 kJ/mol
# GULP energy per Si atom -5572.866497 kJ/mol
# Density = 2.255399 g / cm^3
# Si number density = 22.605445 Si / 1000 Ang^3
#
#
#
# Elastic Constant Matrix: (Units=GPa)
#
#
# Indices 1 2 3 4 5 6 
#
# 1 26.9991 25.4766 22.3650 -1.7611 -0.4714 2.9888
# 2 25.4766 242.4899 94.6297 -34.9426 6.1926 5.1231
# 3 22.3650 94.6297 162.8825 3.4357 15.7174 11.7263
# 4 -1.7611 -34.9426 3.4357 42.9349 6.7420 -3.5313
# 5 -0.4714 6.1926 15.7174 6.7420 12.7455 -8.6934
# 6 2.9888 5.1231 11.7263 -3.5313 -8.6934 35.2112
#
#
#
# Elastic Compliance Matrix: (Units=1/GPa)
#
#
# Indices 1 2 3 4 5 6 
#
# 1 0.044485 -0.003175 -0.005449 -0.002082 0.011838 0.001215
# 2 -0.003175 0.006688 -0.003435 0.005930 -0.001879 0.000571
# 3 -0.005449 -0.003435 0.010900 -0.002011 -0.015474 -0.006690
# 4 -0.002082 0.005930 -0.002011 0.030863 -0.017680 -0.001286
# 5 0.011838 -0.001879 -0.015474 -0.017680 0.132335 0.035321
# 6 0.001215 0.000571 -0.006690 -0.001286 0.035321 0.039033
#
#
# Mechanical properties :
#
#
# Convention : Reuss Voigt Hill
#
# Bulk Modulus (GPa) = 26.34691 79.70157 53.02424
# Shear Modulus (GPa) = 16.60719 37.50500 27.05609
#
# Velocity S-wave (km/s) = 2.71339 4.07764 3.46335
# Velocity P-wave (km/s) = 4.63649 7.58312 6.28494
#
# Compressibility (1/GPa) = 0.03795511
#
# Stress axis : x y z
#
# Youngs Moduli (GPa) = 22.47965 149.51786 91.74189
#
# Poissons Ratio (x) = 0.47475 0.49992
# Poissons Ratio (y) = 0.07138 0.31509
# Poissons Ratio (z) = 0.12250 0.51352
#
# Static dielectric constant tensor:
#      x y z
#    x 1.916150 -0.012280 -0.034070 
#    y -0.012280 1.905580 0.013460 
#    z -0.034070 0.013460 1.935770 
# 
# From -- ./inp_files/388561.got.cif
#   From: 2010.05.17/outbox.cif.g08.bks.cpg/sg2_195_cif.got.tgz:388561.got - 2010.06.03 11:33:40.
