data_PCOD9107564
_publ_section_title
;
Structure prediction by ZEFSAII (Michael W. Deem and Ramdas Pophale) SiO2 
 PCOD9107564
Probable space group: P -1
;
_chemical_formula_sum "Si O2"
_cell_formula_units_Z 15
_cell_length_a 5.427131
_cell_length_b 18.779730
_cell_length_c 8.499973
_cell_angle_alpha 132.321815
_cell_angle_beta 79.711188
_cell_angle_gamma 101.309731
_cell_volume 626.798217
_symmetry_space_group_name_H-M "P -1"
_symmetry_group_IT_number 2
_symmetry_cell_setting 'triclinic'
loop_
_space_group_symop_operation_xyz
x,y,z
-x,-y,-z
loop_
_atom_site_type_symbol
_atom_site_label
_atom_site_fract_x
_atom_site_fract_y
_atom_site_fract_z
Si Si1 0.023126 0.259216 0.265991
Si Si2 0.252787 0.447691 0.364801
Si Si3 0.717205 0.899444 0.810793
Si Si4 0.843600 0.354787 0.718612
Si Si5 0.251790 0.924815 0.115452
Si Si6 0.318205 0.396743 0.925015
Si Si7 0.500000 0.000000 0.500000
Si Si8 0.485827 0.195054 0.625293
O O1 0.210943 0.338375 0.275178
O O2 0.143282 0.187719 0.267473
O O3 0.856573 0.322229 0.488541
O O4 0.873785 0.183339 0.053411
O O5 0.500000 0.500000 0.500000
O O6 0.280646 0.441570 0.165403
O O7 0.000000 0.500000 0.500000
O O8 0.552796 0.855937 0.616533
O O9 0.870932 0.995045 0.858631
O O10 0.532387 0.927947 0.012619
O O11 0.607593 0.415777 0.862200
O O12 0.758366 0.256942 0.681200
O O13 0.105648 0.403172 0.826850
O O14 0.278812 0.962989 0.343363
O O15 0.306020 0.279587 0.784051
O O16 0.542385 0.886589 0.363858
#
# Coordination Sequence:
#
# PCOD9107564 Si02
#       8
#     2   2   2   2   2   2   1   2
#     4  12  24  43  76 100 143 197 242 301 383 422
#     4  12  31  51  73 110 148 188 248 311 371 451
#     4  10  20  40  65 103 145 185 242 299 351 433
#     4  10  21  41  74 103 127 189 239 290 353 434
#     4  10  22  39  63 105 144 195 241 293 353 441
#     4  10  22  45  72  97 142 183 229 302 363 423
#     4  10  22  36  58 102 152 192 238 288 342 446
#     4   9  20  38  65  96 145 182 241 285 358 412
#
# _framework density 23.931148
#
# number of rings (size 3 to 8) (size 9 to 14) (size 15 to 20)
#    0.800    0.800    2.667    1.200    5.600    0.000 
#    0.000    5.333    0.000    0.000    0.000    0.000 
#    0.000    0.000    0.000    0.000    0.000    0.000 
#
# Total GULP energy -83567.130987 kJ/mol
# GULP energy per Si atom -5571.142066 kJ/mol
# Density = 2.387668 g / cm^3
# Si number density = 23.931148 Si / 1000 Ang^3
#
#
#
# Elastic Constant Matrix: (Units=GPa)
#
#
# Indices 1 2 3 4 5 6 
#
# 1 105.6936 24.4380 54.5610 5.5711 18.1553 4.0121
# 2 24.4380 93.9255 40.2720 25.7824 7.3570 0.2400
# 3 54.5610 40.2720 123.0838 14.5502 23.8598 18.7432
# 4 5.5711 25.7824 14.5502 31.0921 6.6051 8.5306
# 5 18.1553 7.3570 23.8598 6.6051 47.6448 9.2842
# 6 4.0121 0.2400 18.7432 8.5306 9.2842 30.1702
#
#
#
# Elastic Compliance Matrix: (Units=1/GPa)
#
#
# Indices 1 2 3 4 5 6 
#
# 1 0.012729 -0.001204 -0.005183 0.001146 -0.002621 0.002020
# 2 -0.001204 0.016376 -0.004356 -0.013192 0.000724 0.006243
# 3 -0.005183 -0.004356 0.013352 0.000789 -0.002797 -0.006933
# 4 0.001146 -0.013192 0.000789 0.046645 -0.002751 -0.012880
# 5 -0.002621 0.000724 -0.002797 -0.002751 0.024574 -0.004704
# 6 0.002020 0.006243 -0.006933 -0.012880 -0.004704 0.042224
#
#
# Mechanical properties :
#
#
# Convention : Reuss Voigt Hill
#
# Bulk Modulus (GPa) = 47.68573 62.36056 55.02315
# Shear Modulus (GPa) = 27.11828 35.34356 31.23092
#
# Velocity S-wave (km/s) = 3.36992 3.84720 3.61644
# Velocity P-wave (km/s) = 5.92548 6.77122 6.36242
#
# Compressibility (1/GPa) = 0.02097063
#
# Stress axis : x y z
#
# Youngs Moduli (GPa) = 78.56330 61.06405 74.89310
#
# Poissons Ratio (x) = 0.07350 0.38821
# Poissons Ratio (y) = 0.09456 0.32625
# Poissons Ratio (z) = 0.40723 0.26600
#
# Static dielectric constant tensor:
#      x y z
#    x 1.920250 0.017040 -0.011920 
#    y 0.017040 1.996300 0.054570 
#    z -0.011920 0.054570 1.922610 
# 
# From -- ./inp_files/138223.got.cif
#   From: 2010.05.17/outbox.cif.g08.bks.cpg/sg2_70_cif.got.tgz:138223.got - 2010.06.03 11:33:40.
