data_PCOD9107214
_publ_section_title
;
Structure prediction by ZEFSAII (Michael W. Deem and Ramdas Pophale) SiO2 
 PCOD9107214
Probable space group: P -1
;
_chemical_formula_sum "Si O2"
_cell_formula_units_Z 14
_cell_length_a 10.249200
_cell_length_b 7.680841
_cell_length_c 10.946812
_cell_angle_alpha 61.757442
_cell_angle_beta 96.377857
_cell_angle_gamma 130.256959
_cell_volume 554.533732
_symmetry_space_group_name_H-M "P -1"
_symmetry_group_IT_number 2
_symmetry_cell_setting 'triclinic'
loop_
_space_group_symop_operation_xyz
x,y,z
-x,-y,-z
loop_
_atom_site_type_symbol
_atom_site_label
_atom_site_fract_x
_atom_site_fract_y
_atom_site_fract_z
Si Si1 0.236241 0.247254 0.883019
Si Si2 0.801185 0.573022 0.694895
Si Si3 0.159146 0.703518 0.041957
Si Si4 0.573907 0.984670 0.218579
Si Si5 0.406238 0.151521 0.303656
Si Si6 0.100129 0.062048 0.186014
Si Si7 0.687163 0.789653 0.462693
O O1 0.436725 0.525546 0.798475
O O2 0.165659 0.238190 0.011397
O O3 0.104378 0.198019 0.781301
O O4 0.208375 0.983296 0.969165
O O5 0.879325 0.439510 0.784451
O O6 0.591371 0.307252 0.755008
O O7 0.868619 0.765866 0.753076
O O8 0.817626 0.739182 0.526204
O O9 0.667807 0.198222 0.048429
O O10 0.000000 0.500000 0.000000
O O11 0.715783 0.977401 0.296546
O O12 0.494212 0.041201 0.298630
O O13 0.238198 0.028821 0.241244
O O14 0.338579 0.109558 0.449233
O O15 0.500000 0.500000 0.500000
#
# Coordination Sequence:
#
# PCOD9107214 Si02
#       7
#     2   2   2   2   2   2   2
#     4  11  22  37  61  92 134 164 213 263 325 374
#     4  10  20  40  63  92 123 164 214 257 315 381
#     4  12  23  38  61  94 129 162 211 266 316 374
#     4  11  23  40  66  94 125 169 215 260 322 381
#     4  11  22  39  67  90 130 169 211 262 323 378
#     4  10  21  37  59  92 129 168 208 261 321 375
#     4   9  20  40  67  92 123 165 217 258 316 385
#
# _framework density 25.246434000000001
#
# number of rings (size 3 to 8) (size 9 to 14) (size 15 to 20)
#    0.000    1.429    1.429    5.571    2.000    1.143 
#    0.000    0.714    9.429    4.286    0.000    0.000 
#    0.000    0.000    0.000    0.000    0.000    0.000 
#
# Total GULP energy -78186.473921 kJ/mol
# GULP energy per Si atom -5584.748137 kJ/mol
# Density = 2.518897 g / cm^3
# Si number density = 25.246434 Si / 1000 Ang^3
#
#
#
# Elastic Constant Matrix: (Units=GPa)
#
#
# Indices 1 2 3 4 5 6 
#
# 1 56.8639 29.0245 33.8935 -0.7036 18.0339 0.9907
# 2 29.0245 132.3828 48.0997 24.5519 9.4764 -2.2139
# 3 33.8935 48.0997 128.7820 22.5325 33.9515 -1.0442
# 4 -0.7036 24.5519 22.5325 38.1959 3.0790 6.8794
# 5 18.0339 9.4764 33.9515 3.0790 45.9729 9.8798
# 6 0.9907 -2.2139 -1.0442 6.8794 9.8798 24.2242
#
#
#
# Elastic Compliance Matrix: (Units=1/GPa)
#
#
# Indices 1 2 3 4 5 6 
#
# 1 0.024447 -0.004618 -0.004431 0.006706 -0.005545 -0.001256
# 2 -0.004618 0.010338 -0.001772 -0.006199 0.000876 0.002460
# 3 -0.004431 -0.001772 0.013088 -0.007070 -0.008380 0.006009
# 4 0.006706 -0.006199 -0.007070 0.036502 0.004272 -0.013254
# 5 -0.005545 0.000876 -0.008380 0.004272 0.032796 -0.014644
# 6 -0.001256 0.002460 0.006009 -0.013254 -0.014644 0.051553
#
#
# Mechanical properties :
#
#
# Convention : Reuss Voigt Hill
#
# Bulk Modulus (GPa) = 38.12183 60.00714 49.06449
# Shear Modulus (GPa) = 25.11154 35.47933 30.29543
#
# Velocity S-wave (km/s) = 3.15724 3.75283 3.46784
# Velocity P-wave (km/s) = 5.33137 6.52675 5.95911
#
# Compressibility (1/GPa) = 0.02623169
#
# Stress axis : x y z
#
# Youngs Moduli (GPa) = 40.90416 96.72762 76.40414
#
# Poissons Ratio (x) = 0.44666 0.33855
# Poissons Ratio (y) = 0.18889 0.13542
# Poissons Ratio (z) = 0.18125 0.17144
#
# Static dielectric constant tensor:
#      x y z
#    x 2.111640 -0.044530 0.060250 
#    y -0.044530 1.937740 0.009580 
#    z 0.060250 0.009580 2.021750 
# 
# From -- ./inp_files/379714.got.cif
#   From: 2010.05.17/outbox.cif.g08.bks.cpg/sg2_190_cif.got.tgz:379714.got - 2010.06.03 11:33:40.
