data_PCOD9107614
_publ_section_title
;
Structure prediction by ZEFSAII (Michael W. Deem and Ramdas Pophale) SiO2 
 PCOD9107614
Probable space group: P -1
;
_chemical_formula_sum "Si O2"
_cell_formula_units_Z 10
_cell_length_a 9.292301
_cell_length_b 11.365354
_cell_length_c 15.157326
_cell_angle_alpha 151.442019
_cell_angle_beta 151.387859
_cell_angle_gamma 40.764164
_cell_volume 365.804783
_symmetry_space_group_name_H-M "P -1"
_symmetry_group_IT_number 2
_symmetry_cell_setting 'triclinic'
loop_
_space_group_symop_operation_xyz
x,y,z
-x,-y,-z
loop_
_atom_site_type_symbol
_atom_site_label
_atom_site_fract_x
_atom_site_fract_y
_atom_site_fract_z
Si Si1 0.884327 0.377671 0.547250
Si Si2 0.288782 0.620727 0.172610
Si Si3 0.383782 0.749623 0.004013
Si Si4 0.359099 0.750831 0.483970
Si Si5 0.953343 0.914511 0.726664
O O1 0.630111 0.572294 0.526181
O O2 0.818071 0.247815 0.518630
O O3 0.198735 0.537022 0.817729
O O4 0.883320 0.193324 0.342389
O O5 0.375144 0.373151 0.008652
O O6 0.191688 0.640865 0.235863
O O7 0.630044 0.762977 0.456778
O O8 0.097050 0.800037 0.128512
O O9 0.148399 0.865966 0.885819
O O10 0.519999 0.968718 0.281707
#
# Coordination Sequence:
#
# PCOD9107614 Si02
#       5
#     2   2   2   2   2
#     4  10  21  40  63  94 125 162 204 261 306 365
#     4  10  21  41  62  93 127 160 209 258 303 373
#     4  11  21  43  67  88 123 170 204 252 314 366
#     4  11  22  39  67  93 122 165 210 251 310 373
#     4  10  20  40  65  88 129 164 200 262 310 358
#
# _framework density 27.336987000000001
#
# number of rings (size 3 to 8) (size 9 to 14) (size 15 to 20)
#    0.000    1.600    4.000    1.800    0.000    1.600 
#    3.600    4.000    0.000    2.400    0.000    0.000 
#    0.000    0.000    0.000    0.000    0.000    0.000 
#
# Total GULP energy -56223.664326 kJ/mol
# GULP energy per Si atom -5622.366433 kJ/mol
# Density = 2.727477 g / cm^3
# Si number density = 27.336987 Si / 1000 Ang^3
#
#
#
# Elastic Constant Matrix: (Units=GPa)
#
#
# Indices 1 2 3 4 5 6 
#
# 1 140.5500 6.9767 1.3525 0.0801 -19.0558 -13.3718
# 2 6.9767 120.4462 17.1536 10.4666 -5.3764 -17.5317
# 3 1.3525 17.1536 101.7528 12.8861 -41.6965 -7.1638
# 4 0.0801 10.4666 12.8861 38.6166 -12.3712 4.0327
# 5 -19.0558 -5.3764 -41.6965 -12.3712 40.3666 7.7728
# 6 -13.3718 -17.5317 -7.1638 4.0327 7.7728 41.5791
#
#
#
# Elastic Compliance Matrix: (Units=1/GPa)
#
#
# Indices 1 2 3 4 5 6 
#
# 1 0.008144 -0.000425 0.002603 0.001160 0.006533 0.001554
# 2 -0.000425 0.009402 -0.002049 -0.003242 -0.002893 0.004330
# 3 0.002603 -0.002049 0.018269 0.001036 0.020293 -0.000773
# 4 0.001160 -0.003242 0.001036 0.030832 0.011792 -0.006010
# 5 0.006533 -0.002893 0.020293 0.011792 0.053344 -0.006738
# 6 0.001554 0.004330 -0.000773 -0.006010 -0.006738 0.028085
#
#
# Mechanical properties :
#
#
# Convention : Reuss Voigt Hill
#
# Bulk Modulus (GPa) = 27.72315 45.96828 36.84571
# Shear Modulus (GPa) = 31.28080 46.59687 38.93884
#
# Velocity S-wave (km/s) = 3.38637 4.13308 3.77822
# Velocity P-wave (km/s) = 5.04512 6.29511 5.70446
#
# Compressibility (1/GPa) = 0.03607094
#
# Stress axis : x y z
#
# Youngs Moduli (GPa) = 122.79078 106.36274 54.73896
#
# Poissons Ratio (x) = 0.04525 -0.14249
# Poissons Ratio (y) = 0.05224 0.11218
# Poissons Ratio (z) = -0.31963 0.21797
#
# Static dielectric constant tensor:
#      x y z
#    x 2.188540 -0.009390 0.121200 
#    y -0.009390 2.019560 -0.046390 
#    z 0.121200 -0.046390 2.132340 
# 
# From -- ./inp_files/144137.got.cif
#   From: 2010.05.17/outbox.cif.g08.bks.cpg/sg2_73_cif.got.tgz:144137.got - 2010.06.03 11:33:40.
