data_PCOD9107258
_publ_section_title
;
Structure prediction by ZEFSAII (Michael W. Deem and Ramdas Pophale) SiO2 
 PCOD9107258
Probable space group: P -1
;
_chemical_formula_sum "Si O2"
_cell_formula_units_Z 15
_cell_length_a 9.063975
_cell_length_b 8.124696
_cell_length_c 13.877349
_cell_angle_alpha 38.171182
_cell_angle_beta 105.082369
_cell_angle_gamma 112.914351
_cell_volume 579.849381
_symmetry_space_group_name_H-M "P -1"
_symmetry_group_IT_number 2
_symmetry_cell_setting 'triclinic'
loop_
_space_group_symop_operation_xyz
x,y,z
-x,-y,-z
loop_
_atom_site_type_symbol
_atom_site_label
_atom_site_fract_x
_atom_site_fract_y
_atom_site_fract_z
Si Si1 0.000000 0.000000 0.000000
Si Si2 0.003371 0.616765 0.554278
Si Si3 0.248347 0.968722 0.903836
Si Si4 0.335774 0.996746 0.528138
Si Si5 0.572006 0.104430 0.193747
Si Si6 0.215787 0.533214 0.248327
Si Si7 0.741813 0.762714 0.902205
Si Si8 0.996000 0.168159 0.235386
O O1 0.135762 0.106258 0.881578
O O2 0.136090 0.178557 0.015739
O O3 0.876079 0.406266 0.700780
O O4 0.000000 0.500000 0.500000
O O5 0.179752 0.762633 0.563228
O O6 0.928883 0.873043 0.412770
O O7 0.391971 0.089533 0.796229
O O8 0.122586 0.789956 0.884378
O O9 0.303623 0.794813 0.076106
O O10 0.359331 0.937844 0.671446
O O11 0.500000 0.000000 0.500000
O O12 0.303605 0.298629 0.377557
O O13 0.385287 0.069014 0.187716
O O14 0.646063 0.433316 0.028589
O O15 0.054154 0.398823 0.219013
O O16 0.845143 0.846950 0.784798
#
# Coordination Sequence:
#
# PCOD9107258 Si02
#       8
#     1   2   2   2   2   2   2   2
#     4  10  26  40  62 102 134 168 204 280 326 380
#     4  11  25  40  67  97 134 171 219 270 329 387
#     4  11  23  38  69  95 132 167 223 268 326 378
#     4  11  25  44  69  95 132 174 220 266 328 390
#     4  11  22  42  70  96 127 175 218 269 317 399
#     4  11  22  41  63  98 126 176 220 266 316 394
#     4  10  23  39  69  98 130 163 223 264 328 379
#     4  10  20  40  63  95 130 169 219 268 315 390
#
# _framework density 25.868787999999999
#
# number of rings (size 3 to 8) (size 9 to 14) (size 15 to 20)
#    0.000    1.333    1.333    5.200   11.200    0.533 
#    0.000    0.667    2.933    0.000    0.000    0.000 
#    0.000    0.000    0.000    0.000    0.000    0.000 
#
# Total GULP energy -83641.768448 kJ/mol
# GULP energy per Si atom -5576.117897 kJ/mol
# Density = 2.580991 g / cm^3
# Si number density = 25.868788 Si / 1000 Ang^3
#
#
#
# Elastic Constant Matrix: (Units=GPa)
#
#
# Indices 1 2 3 4 5 6 
#
# 1 202.9442 47.5942 39.8494 19.0611 4.0760 -26.7240
# 2 47.5942 114.3311 25.3632 36.4572 -10.0018 8.7805
# 3 39.8494 25.3632 75.8399 17.7200 -4.1679 -9.8917
# 4 19.0611 36.4572 17.7200 44.0943 -10.5259 -14.4943
# 5 4.0760 -10.0018 -4.1679 -10.5259 38.6821 12.0251
# 6 -26.7240 8.7805 -9.8917 -14.4943 12.0251 47.3442
#
#
#
# Elastic Compliance Matrix: (Units=1/GPa)
#
#
# Indices 1 2 3 4 5 6 
#
# 1 0.006829 -0.003687 -0.002297 0.002090 -0.003053 0.005474
# 2 -0.003687 0.016119 -0.001414 -0.013692 0.003962 -0.010564
# 3 -0.002297 -0.001414 0.015911 -0.003831 0.000218 0.001062
# 4 0.002090 -0.013692 -0.003831 0.039950 0.002159 0.014601
# 5 -0.003053 0.003962 0.000218 0.002159 0.030784 -0.009571
# 6 0.005474 -0.010564 0.001062 0.014601 -0.009571 0.033294
#
#
# Mechanical properties :
#
#
# Convention : Reuss Voigt Hill
#
# Bulk Modulus (GPa) = 41.56009 68.74764 55.15387
# Shear Modulus (GPa) = 30.17391 44.71135 37.44263
#
# Velocity S-wave (km/s) = 3.41900 4.16190 3.80861
# Velocity P-wave (km/s) = 5.62909 7.05184 6.38025
#
# Compressibility (1/GPa) = 0.02406155
#
# Stress axis : x y z
#
# Youngs Moduli (GPa) = 146.43105 62.03798 62.84833
#
# Poissons Ratio (x) = 0.22875 0.14439
# Poissons Ratio (y) = 0.53993 0.08889
# Poissons Ratio (z) = 0.33641 0.08774
#
# Static dielectric constant tensor:
#      x y z
#    x 2.152390 -0.021130 0.005260 
#    y -0.021130 1.968430 0.029870 
#    z 0.005260 0.029870 2.141870 
# 
# From -- ./inp_files/494302.got.cif
#   From: 2010.05.17/outbox.cif.g08.bks.cpg/sg2_248_cif.got.tgz:494302.got - 2010.06.03 11:33:40.
