data_PCOD9107814
_publ_section_title
;
Structure prediction by ZEFSAII (Michael W. Deem and Ramdas Pophale) SiO2 
 PCOD9107814
Probable space group: P -1
;
_chemical_formula_sum "Si O2"
_cell_formula_units_Z 16
_cell_length_a 8.194686
_cell_length_b 14.085317
_cell_length_c 9.679458
_cell_angle_alpha 91.352157
_cell_angle_beta 101.026890
_cell_angle_gamma 139.761964
_cell_volume 682.563687
_symmetry_space_group_name_H-M "P -1"
_symmetry_group_IT_number 2
_symmetry_cell_setting 'triclinic'
loop_
_space_group_symop_operation_xyz
x,y,z
-x,-y,-z
loop_
_atom_site_type_symbol
_atom_site_label
_atom_site_fract_x
_atom_site_fract_y
_atom_site_fract_z
Si Si1 0.600654 0.660391 0.100100
Si Si2 0.012309 0.408805 0.907041
Si Si3 0.841010 0.093861 0.451826
Si Si4 0.107084 0.941190 0.032363
Si Si5 0.432928 0.389436 0.597384
Si Si6 0.518447 0.899795 0.646961
Si Si7 0.432118 0.125317 0.841170
Si Si8 0.198998 0.612604 0.414058
O O1 0.615327 0.612271 0.247603
O O2 0.589660 0.770588 0.134895
O O3 0.861336 0.770571 0.047762
O O4 0.314743 0.508995 0.979859
O O5 0.742729 0.233881 0.906086
O O6 0.947998 0.399017 0.734948
O O7 0.000000 0.500000 0.000000
O O8 0.741528 0.150891 0.382263
O O9 0.153423 0.219252 0.497882
O O10 0.740534 0.049047 0.591749
O O11 0.679785 0.946179 0.330701
O O12 0.344905 0.055202 0.184771
O O13 0.244271 0.982412 0.909489
O O14 0.000000 0.000000 0.000000
O O15 0.500000 0.500000 0.500000
O O16 0.674479 0.423927 0.633178
O O17 0.429266 0.770731 0.539073
O O18 0.000000 0.500000 0.500000
#
# Coordination Sequence:
#
# PCOD9107814 Si02
#       8
#     2   2   2   2   2   2   2   2
#     4  10  21  41  69 102 138 180 224 289 341 418
#     4  10  20  40  65  99 135 178 221 278 343 410
#     4  11  24  43  69  98 139 178 229 284 342 405
#     4  10  23  39  69 103 135 172 230 283 340 404
#     4  12  25  43  68 100 142 180 229 284 352 407
#     4  11  24  44  69  97 138 180 227 287 337 409
#     4  10  21  40  70 102 130 179 228 278 347 407
#     4  12  26  41  72 104 135 181 236 282 345 414
#
# _framework density 23.441037000000001
#
# number of rings (size 3 to 8) (size 9 to 14) (size 15 to 20)
#    0.000    1.250    5.000    0.750    8.750    2.500 
#    0.000    0.000    0.000    3.000    0.000    0.000 
#    0.000    0.000    0.000    0.000    0.000    0.000 
#
# Total GULP energy -89431.167710 kJ/mol
# GULP energy per Si atom -5589.447982 kJ/mol
# Density = 2.338768 g / cm^3
# Si number density = 23.441037 Si / 1000 Ang^3
#
#
#
# Elastic Constant Matrix: (Units=GPa)
#
#
# Indices 1 2 3 4 5 6 
#
# 1 53.6644 28.9029 24.3573 -12.1119 0.3903 19.6900
# 2 28.9029 106.9616 30.4109 -18.4928 -3.9427 35.4950
# 3 24.3573 30.4109 83.0101 -18.1475 4.4987 17.5537
# 4 -12.1119 -18.4928 -18.1475 43.4869 4.9933 -5.2491
# 5 0.3903 -3.9427 4.4987 4.9933 34.6140 -0.3775
# 6 19.6900 35.4950 17.5537 -5.2491 -0.3775 43.5116
#
#
#
# Elastic Compliance Matrix: (Units=1/GPa)
#
#
# Indices 1 2 3 4 5 6 
#
# 1 0.025398 -0.002736 -0.004159 0.003379 -0.000623 -0.007181
# 2 -0.002736 0.014307 -0.001828 0.003286 0.001323 -0.009288
# 3 -0.004159 -0.001828 0.015609 0.004620 -0.002883 -0.002392
# 4 0.003379 0.003286 0.004620 0.027412 -0.004249 -0.002804
# 5 -0.000623 0.001323 -0.002883 -0.004249 0.030037 0.000114
# 6 -0.007181 -0.009288 -0.002392 -0.002804 0.000114 0.034436
#
#
# Mechanical properties :
#
#
# Convention : Reuss Voigt Hill
#
# Bulk Modulus (GPa) = 26.40761 45.66426 36.03593
# Shear Modulus (GPa) = 28.20617 34.98683 31.59650
#
# Velocity S-wave (km/s) = 3.47260 3.86754 3.67538
# Velocity P-wave (km/s) = 5.23150 6.28224 5.78079
#
# Compressibility (1/GPa) = 0.03786787
#
# Stress axis : x y z
#
# Youngs Moduli (GPa) = 39.37376 69.89457 64.06687
#
# Poissons Ratio (x) = 0.19125 0.26644
# Poissons Ratio (y) = 0.10774 0.11710
# Poissons Ratio (z) = 0.16375 0.12776
#
# Static dielectric constant tensor:
#      x y z
#    x 1.924520 -0.066430 -0.021060 
#    y -0.066430 1.952090 -0.018810 
#    z -0.021060 -0.018810 1.834910 
# 
# From -- ./inp_files/207402.got.cif
#   From: 2010.05.17/outbox.cif.g08.bks.cpg/sg2_104_cif.got.tgz:207402.got - 2010.06.03 11:33:40.
