data_PCOD9107912
_publ_section_title
;
Structure prediction by ZEFSAII (Michael W. Deem and Ramdas Pophale) SiO2 
 PCOD9107912
Probable space group: P -1
;
_chemical_formula_sum "Si O2"
_cell_formula_units_Z 16
_cell_length_a 7.894711
_cell_length_b 11.509038
_cell_length_c 8.297943
_cell_angle_alpha 93.974678
_cell_angle_beta 118.516800
_cell_angle_gamma 92.891052
_cell_volume 657.882595
_symmetry_space_group_name_H-M "P -1"
_symmetry_group_IT_number 2
_symmetry_cell_setting 'triclinic'
loop_
_space_group_symop_operation_xyz
x,y,z
-x,-y,-z
loop_
_atom_site_type_symbol
_atom_site_label
_atom_site_fract_x
_atom_site_fract_y
_atom_site_fract_z
Si Si1 0.066026 0.028984 0.215653
Si Si2 0.449445 0.249540 0.727636
Si Si3 0.772792 0.522061 0.395644
Si Si4 0.772350 0.557437 0.755901
Si Si5 0.311389 0.055858 0.861490
Si Si6 0.771723 0.393592 0.053825
Si Si7 0.365364 0.881366 0.468427
Si Si8 0.364249 0.204391 0.205985
O O1 0.159124 0.919806 0.329095
O O2 0.871378 0.039563 0.225307
O O3 0.221132 0.139373 0.270157
O O4 0.000000 0.000000 0.000000
O O5 0.303484 0.349333 0.652593
O O6 0.337844 0.126017 0.715682
O O7 0.573594 0.222845 0.625724
O O8 0.615542 0.284002 0.940129
O O9 0.714635 0.496882 0.553351
O O10 0.709495 0.452340 0.197137
O O11 0.000000 0.500000 0.500000
O O12 0.646432 0.660759 0.758087
O O13 0.996088 0.615381 0.839327
O O14 0.755360 0.471125 0.891861
O O15 0.287447 0.156860 0.994800
O O16 0.500000 0.000000 0.000000
O O17 0.426336 0.840067 0.667321
O O18 0.500000 0.000000 0.500000
#
# Coordination Sequence:
#
# PCOD9107912 Si02
#       8
#     2   2   2   2   2   2   2   2
#     4   9  20  38  63  91 127 167 219 271 322 404
#     4  12  23  42  67  94 136 177 221 280 347 392
#     4  10  22  44  65  98 140 169 225 291 333 408
#     4  10  21  43  68  95 130 180 219 277 348 407
#     4  11  24  40  63  96 133 174 223 279 339 401
#     4  10  24  40  67  99 134 171 231 278 337 410
#     4  10  21  41  64  94 130 169 219 277 321 403
#     4  10  20  40  66  90 127 169 223 266 340 405
#
# _framework density 24.320449
#
# number of rings (size 3 to 8) (size 9 to 14) (size 15 to 20)
#    0.000    1.750    1.250    3.375    5.250    0.500 
#    2.250    6.875    0.000    0.000    0.000    0.000 
#    0.000    0.000    0.000    0.000    0.000    0.000 
#
# Total GULP energy -89341.959865 kJ/mol
# GULP energy per Si atom -5583.872492 kJ/mol
# Density = 2.426509 g / cm^3
# Si number density = 24.320449 Si / 1000 Ang^3
#
#
#
# Elastic Constant Matrix: (Units=GPa)
#
#
# Indices 1 2 3 4 5 6 
#
# 1 115.4282 25.4812 22.5415 -5.4341 9.6855 -6.4778
# 2 25.4812 51.0585 20.3392 -1.6145 6.6274 -17.5268
# 3 22.5415 20.3392 113.9502 0.0991 -16.6030 -9.4590
# 4 -5.4341 -1.6145 0.0991 40.6790 -13.1883 -0.4502
# 5 9.6855 6.6274 -16.6030 -13.1883 44.8182 1.4894
# 6 -6.4778 -17.5268 -9.4590 -0.4502 1.4894 36.4689
#
#
#
# Elastic Compliance Matrix: (Units=1/GPa)
#
#
# Indices 1 2 3 4 5 6 
#
# 1 0.010081 -0.004360 -0.001549 0.000546 -0.001926 -0.000621
# 2 -0.004360 0.028085 -0.003946 -0.001072 -0.005384 0.011906
# 3 -0.001549 -0.003946 0.010575 0.001303 0.005207 0.000375
# 4 0.000546 -0.001072 0.001303 0.027393 0.008587 -0.000093
# 5 -0.001926 -0.005384 0.005207 0.008587 0.028067 -0.002619
# 6 -0.000621 0.011906 0.000375 -0.000093 -0.002619 0.033236
#
#
# Mechanical properties :
#
#
# Convention : Reuss Voigt Hill
#
# Bulk Modulus (GPa) = 34.44425 46.35119 40.39772
# Shear Modulus (GPa) = 29.97206 38.53154 34.25180
#
# Velocity S-wave (km/s) = 3.51434 3.98468 3.75688
# Velocity P-wave (km/s) = 5.53722 6.34587 5.95529
#
# Compressibility (1/GPa) = 0.02903242
#
# Stress axis : x y z
#
# Youngs Moduli (GPa) = 99.19894 35.60634 94.56275
#
# Poissons Ratio (x) = 0.15524 0.14644
# Poissons Ratio (y) = 0.43249 0.37311
# Poissons Ratio (z) = 0.15362 0.14049
#
# Static dielectric constant tensor:
#      x y z
#    x 2.066630 0.040370 0.008080 
#    y 0.040370 1.888580 0.000660 
#    z 0.008080 0.000660 2.014710 
# 
# From -- ./inp_files/187909.got.cif
#   From: 2010.05.17/outbox.cif.g08.bks.cpg/sg2_94_cif.got.tgz:187909.got - 2010.06.03 11:33:40.
