data_PCOD9107390
_publ_section_title
;
Structure prediction by ZEFSAII (Michael W. Deem and Ramdas Pophale) SiO2 
 PCOD9107390
Probable space group: P -1
;
_chemical_formula_sum "Si O2"
_cell_formula_units_Z 16
_cell_length_a 8.961925
_cell_length_b 9.706149
_cell_length_c 13.254731
_cell_angle_alpha 114.376389
_cell_angle_beta 43.088089
_cell_angle_gamma 114.275403
_cell_volume 706.169240
_symmetry_space_group_name_H-M "P -1"
_symmetry_group_IT_number 2
_symmetry_cell_setting 'triclinic'
loop_
_space_group_symop_operation_xyz
x,y,z
-x,-y,-z
loop_
_atom_site_type_symbol
_atom_site_label
_atom_site_fract_x
_atom_site_fract_y
_atom_site_fract_z
Si Si1 0.495983 0.703353 0.653645
Si Si2 0.420860 0.663389 0.082561
Si Si3 0.117615 0.803297 0.138774
Si Si4 0.334720 0.782199 0.387611
Si Si5 0.634637 0.635292 0.341339
Si Si6 0.270694 0.958509 0.760033
Si Si7 0.098809 0.090412 0.379553
Si Si8 0.208220 0.058575 0.037941
O O1 0.622224 0.669140 0.477337
O O2 0.382976 0.546313 0.713238
O O3 0.317688 0.798735 0.728850
O O4 0.674347 0.802391 0.668097
O O5 0.218085 0.674071 0.110337
O O6 0.360540 0.715209 0.241414
O O7 0.500000 0.500000 0.000000
O O8 0.612593 0.794046 0.978905
O O9 0.863751 0.732770 0.216989
O O10 0.135253 0.951853 0.247796
O O11 0.245581 0.891801 0.007478
O O12 0.429241 0.680907 0.394761
O O13 0.085472 0.810364 0.532685
O O14 0.500458 0.946996 0.366767
O O15 0.042898 0.932494 0.804024
O O16 0.223228 0.058868 0.909890
O O17 0.000000 0.000000 0.500000
#
# Coordination Sequence:
#
# PCOD9107390 Si02
#       8
#     2   2   2   2   2   2   2   2
#     4  11  24  42  62  93 130 167 203 264 324 368
#     4  11  25  42  63  93 134 165 206 262 316 375
#     4  12  23  43  68  94 125 170 216 255 316 380
#     4  11  22  42  67  94 123 164 215 258 314 373
#     4  11  25  40  64  98 128 160 208 268 321 373
#     4  10  20  40  64  89 123 161 215 260 297 371
#     4  12  21  41  69  92 124 167 210 261 312 376
#     4  10  23  39  63  93 120 168 215 254 303 373
#
# _framework density 22.657457999999998
#
# number of rings (size 3 to 8) (size 9 to 14) (size 15 to 20)
#    0.000    1.000    5.000    1.125    3.500    3.500 
#    0.000    1.250    0.000    0.000    0.000    0.000 
#    0.000    0.000    0.000    0.000    0.000    0.000 
#
# Total GULP energy -89411.392502 kJ/mol
# GULP energy per Si atom -5588.212031 kJ/mol
# Density = 2.260589 g / cm^3
# Si number density = 22.657458 Si / 1000 Ang^3
#
#
#
# Elastic Constant Matrix: (Units=GPa)
#
#
# Indices 1 2 3 4 5 6 
#
# 1 82.4930 19.6417 23.8925 6.8066 -19.9840 -15.6327
# 2 19.6417 116.7070 11.6180 4.2263 -15.8247 -14.7125
# 3 23.8925 11.6180 47.9475 4.9953 -7.6085 5.2501
# 4 6.8066 4.2263 4.9953 31.4095 -8.5609 -10.6742
# 5 -19.9840 -15.8247 -7.6085 -8.5609 38.8005 7.0501
# 6 -15.6327 -14.7125 5.2501 -10.6742 7.0501 35.2508
#
#
#
# Elastic Compliance Matrix: (Units=1/GPa)
#
#
# Indices 1 2 3 4 5 6 
#
# 1 0.017703 -0.000257 -0.008935 0.002198 0.006201 0.008499
# 2 -0.000257 0.009710 -0.002349 0.001310 0.002911 0.004103
# 3 -0.008935 -0.002349 0.027766 -0.005711 0.000611 -0.010929
# 4 0.002198 0.001310 -0.005711 0.038198 0.006685 0.012602
# 5 0.006201 0.002911 0.000611 0.006685 0.031834 -0.000469
# 6 0.008499 0.004103 -0.010929 0.012602 -0.000469 0.039387
#
#
# Mechanical properties :
#
#
# Convention : Reuss Voigt Hill
#
# Bulk Modulus (GPa) = 31.15443 39.71687 35.43565
# Shear Modulus (GPa) = 25.20439 33.89183 29.54811
#
# Velocity S-wave (km/s) = 3.33890 3.87180 3.61518
# Velocity P-wave (km/s) = 5.35204 6.12822 5.75324
#
# Compressibility (1/GPa) = 0.03209817
#
# Stress axis : x y z
#
# Youngs Moduli (GPa) = 56.48815 102.98639 36.01508
#
# Poissons Ratio (x) = 0.02649 0.32178
# Poissons Ratio (y) = 0.01453 0.08458
# Poissons Ratio (z) = 0.50470 0.24187
#
# Static dielectric constant tensor:
#      x y z
#    x 1.932970 -0.029680 0.091360 
#    y -0.029680 1.811410 -0.022170 
#    z 0.091360 -0.022170 1.977230 
# 
# From -- ./inp_files/205523.got.cif
#   From: 2010.05.17/outbox.cif.g08.bks.cpg/sg2_103_cif.got.tgz:205523.got - 2010.06.03 11:33:40.
