data_PCOD9107194
_publ_section_title
;
Structure prediction by ZEFSAII (Michael W. Deem and Ramdas Pophale) SiO2 
 PCOD9107194
Probable space group: P -1
;
_chemical_formula_sum "Si O2"
_cell_formula_units_Z 14
_cell_length_a 7.581175
_cell_length_b 12.537716
_cell_length_c 8.179498
_cell_angle_alpha 101.660780
_cell_angle_beta 54.326654
_cell_angle_gamma 109.129185
_cell_volume 596.642710
_symmetry_space_group_name_H-M "P -1"
_symmetry_group_IT_number 2
_symmetry_cell_setting 'triclinic'
loop_
_space_group_symop_operation_xyz
x,y,z
-x,-y,-z
loop_
_atom_site_type_symbol
_atom_site_label
_atom_site_fract_x
_atom_site_fract_y
_atom_site_fract_z
Si Si1 0.377263 0.390910 0.320506
Si Si2 0.262391 0.041466 0.562065
Si Si3 0.452356 0.640396 0.414401
Si Si4 0.007171 0.813248 0.461114
Si Si5 0.761211 0.829650 0.075129
Si Si6 0.375787 0.754968 0.020834
Si Si7 0.256299 0.813553 0.740100
O O1 0.357121 0.517026 0.351684
O O2 0.436967 0.376702 0.475615
O O3 0.563814 0.362498 0.090933
O O4 0.158279 0.288131 0.384144
O O5 0.208613 0.067159 0.784353
O O6 0.527856 0.088260 0.402889
O O7 0.142484 0.122937 0.547005
O O8 0.161037 0.914990 0.514898
O O9 0.628528 0.720280 0.220495
O O10 0.274102 0.708168 0.584873
O O11 0.166406 0.757512 0.248366
O O12 0.594857 0.834142 0.016690
O O13 0.003793 0.821586 0.888479
O O14 0.323664 0.796841 0.885692
#
# Coordination Sequence:
#
# PCOD9107194 Si02
#       7
#     2   2   2   2   2   2   2
#     4  10  20  40  63  91 122 162 206 247 303 365
#     4  10  22  40  65  86 122 166 202 244 314 358
#     4   9  20  39  63  90 124 162 203 245 307 363
#     4  11  21  40  65  87 122 164 203 253 299 362
#     4  11  22  41  63  94 124 159 203 253 302 363
#     4  11  23  37  64  94 122 159 207 247 306 361
#     4  10  20  43  63  90 124 163 200 253 301 361
#
# _framework density 23.46463
#
# number of rings (size 3 to 8) (size 9 to 14) (size 15 to 20)
#    0.000    1.714    5.714    0.000    0.000    6.286 
#    0.000    7.143    0.000    0.000    0.000    0.000 
#    0.000    0.000    0.000    0.000    0.000    0.000 
#
# Total GULP energy -78360.884554 kJ/mol
# GULP energy per Si atom -5597.206040 kJ/mol
# Density = 2.341122 g / cm^3
# Si number density = 23.464630 Si / 1000 Ang^3
#
#
#
# Elastic Constant Matrix: (Units=GPa)
#
#
# Indices 1 2 3 4 5 6 
#
# 1 121.1202 28.7396 47.5179 3.4903 -17.0449 8.4372
# 2 28.7396 168.0757 78.3140 23.6590 -18.1447 -3.4159
# 3 47.5179 78.3140 178.8963 14.5219 -37.4993 -9.5087
# 4 3.4903 23.6590 14.5219 25.2902 3.4247 2.6948
# 5 -17.0449 -18.1447 -37.4993 3.4247 49.0798 9.0121
# 6 8.4372 -3.4159 -9.5087 2.6948 9.0121 21.4319
#
#
#
# Elastic Compliance Matrix: (Units=1/GPa)
#
#
# Indices 1 2 3 4 5 6 
#
# 1 0.010072 -0.000632 -0.002242 0.000798 0.002648 -0.006275
# 2 -0.000632 0.008351 -0.002694 -0.006407 0.001125 0.000717
# 3 -0.002242 -0.002694 0.008729 -0.003102 0.004600 0.002782
# 4 0.000798 -0.006407 -0.003102 0.048760 -0.006762 -0.005999
# 5 0.002648 0.001125 0.004600 -0.006762 0.027444 -0.009512
# 6 -0.006275 0.000717 0.002782 -0.005999 -0.009512 0.055232
#
#
# Mechanical properties :
#
#
# Convention : Reuss Voigt Hill
#
# Bulk Modulus (GPa) = 62.43580 86.35945 74.39762
# Shear Modulus (GPa) = 28.56131 40.06177 34.31154
#
# Velocity S-wave (km/s) = 3.49263 4.13646 3.82811
# Velocity P-wave (km/s) = 6.55217 7.72643 7.16340
#
# Compressibility (1/GPa) = 0.01601645
#
# Stress axis : x y z
#
# Youngs Moduli (GPa) = 99.28032 119.74923 114.56650
#
# Poissons Ratio (x) = 0.07564 0.25688
# Poissons Ratio (y) = 0.06271 0.30863
# Poissons Ratio (z) = 0.22261 0.32259
#
# Static dielectric constant tensor:
#      x y z
#    x 1.944610 -0.040400 0.045070 
#    y -0.040400 1.889110 0.002690 
#    z 0.045070 0.002690 1.860730 
# 
# From -- ./inp_files/197388.got.cif
#   From: 2010.05.17/outbox.cif.g08.bks.cpg/sg2_99_cif.got.tgz:197388.got - 2010.06.03 11:33:40.
