data_PCOD9107792
_publ_section_title
;
Structure prediction by ZEFSAII (Michael W. Deem and Ramdas Pophale) SiO2 
 PCOD9107792
Probable space group: P -1
;
_chemical_formula_sum "Si O2"
_cell_formula_units_Z 14
_cell_length_a 7.675250
_cell_length_b 15.876857
_cell_length_c 12.241589
_cell_angle_alpha 134.051506
_cell_angle_beta 146.717743
_cell_angle_gamma 43.843959
_cell_volume 550.055178
_symmetry_space_group_name_H-M "P -1"
_symmetry_group_IT_number 2
_symmetry_cell_setting 'triclinic'
loop_
_space_group_symop_operation_xyz
x,y,z
-x,-y,-z
loop_
_atom_site_type_symbol
_atom_site_label
_atom_site_fract_x
_atom_site_fract_y
_atom_site_fract_z
Si Si1 0.192024 0.111981 0.149611
Si Si2 0.339541 0.678394 0.052506
Si Si3 0.230927 0.631986 0.345657
Si Si4 0.272831 0.371960 0.199177
Si Si5 0.332193 0.448945 0.702092
Si Si6 0.162947 0.872895 0.812021
Si Si7 0.109304 0.891064 0.549358
O O1 0.482775 0.159563 0.302299
O O2 0.136713 0.129185 0.265832
O O3 0.828451 0.189356 0.974130
O O4 0.293890 0.971020 0.032268
O O5 0.658907 0.638251 0.266129
O O6 0.386266 0.570662 0.890547
O O7 0.036372 0.667462 0.959858
O O8 0.137335 0.508717 0.197102
O O9 0.517900 0.613883 0.571965
O O10 0.386296 0.626523 0.303431
O O11 0.980934 0.774807 0.359159
O O12 0.544675 0.263143 0.172208
O O13 0.000000 0.500000 0.500000
O O14 0.052854 0.924013 0.677616
O O15 0.000000 0.000000 0.500000
#
# Coordination Sequence:
#
# PCOD9107792 Si02
#       7
#     2   2   2   2   2   2   2
#     4  11  22  44  67  97 135 185 233 281 353 412
#     4  11  23  39  68  98 132 186 234 281 353 424
#     4  10  21  39  64  92 135 176 224 291 342 404
#     4  10  20  40  65  97 130 176 236 282 344 410
#     4  11  22  40  62  96 136 177 226 284 351 416
#     4  10  23  41  70  96 137 179 233 293 334 421
#     4  11  24  42  68 102 138 183 230 287 353 412
#
# _framework density 25.451989999999999
#
# number of rings (size 3 to 8) (size 9 to 14) (size 15 to 20)
#    0.000    1.429    4.286    1.286    2.000    1.143 
#    2.571    5.714    0.000    0.000    0.000    0.000 
#    0.000    0.000    0.000    0.000    0.000    0.000 
#
# Total GULP energy -78289.826478 kJ/mol
# GULP energy per Si atom -5592.130463 kJ/mol
# Density = 2.539406 g / cm^3
# Si number density = 25.451990 Si / 1000 Ang^3
#
#
#
# Elastic Constant Matrix: (Units=GPa)
#
#
# Indices 1 2 3 4 5 6 
#
# 1 100.6326 27.9293 54.0165 4.6854 -49.9403 -4.8396
# 2 27.9293 137.7100 59.5356 -5.8581 -29.9701 20.8309
# 3 54.0165 59.5356 113.8888 -15.9016 -35.3048 -6.1075
# 4 4.6854 -5.8581 -15.9016 44.9868 -5.4603 -13.7004
# 5 -49.9403 -29.9701 -35.3048 -5.4603 41.2471 2.6254
# 6 -4.8396 20.8309 -6.1075 -13.7004 2.6254 44.5297
#
#
#
# Elastic Compliance Matrix: (Units=1/GPa)
#
#
# Indices 1 2 3 4 5 6 
#
# 1 0.027127 0.003831 -0.005552 -0.001080 0.030844 -0.001756
# 2 0.003831 0.011947 -0.006241 -0.002255 0.008137 -0.007202
# 3 -0.005552 -0.006241 0.017715 0.008771 0.004610 0.007173
# 4 -0.001080 -0.002255 0.008771 0.029353 0.007765 0.010714
# 5 0.030844 0.008137 0.004610 0.007765 0.072584 -0.001713
# 6 -0.001756 -0.007202 0.007173 0.010714 -0.001713 0.030016
#
#
# Mechanical properties :
#
#
# Convention : Reuss Voigt Hill
#
# Bulk Modulus (GPa) = 24.47112 70.57714 47.52413
# Shear Modulus (GPa) = 22.90545 40.20273 31.55409
#
# Velocity S-wave (km/s) = 3.00317 3.97867 3.52483
# Velocity P-wave (km/s) = 4.65412 6.99258 5.93957
#
# Compressibility (1/GPa) = 0.04086450
#
# Stress axis : x y z
#
# Youngs Moduli (GPa) = 36.86403 83.70103 56.44980
#
# Poissons Ratio (x) = -0.32067 0.31342
# Poissons Ratio (y) = -0.14123 0.35231
# Poissons Ratio (z) = 0.20468 0.52238
#
# Static dielectric constant tensor:
#      x y z
#    x 2.007090 0.023140 0.054610 
#    y 0.023140 2.098310 -0.093730 
#    z 0.054610 -0.093730 2.057440 
# 
# From -- ./inp_files/401378.got.cif
#   From: 2010.05.17/outbox.cif.g08.bks.cpg/sg2_201_cif.got.tgz:401378.got - 2010.06.03 11:33:40.
