data_PCOD9107512
_publ_section_title
;
Structure prediction by ZEFSAII (Michael W. Deem and Ramdas Pophale) SiO2 
 PCOD9107512
Probable space group: P -1
;
_chemical_formula_sum "Si O2"
_cell_formula_units_Z 15
_cell_length_a 11.855113
_cell_length_b 5.127802
_cell_length_c 11.696644
_cell_angle_alpha 99.716290
_cell_angle_beta 131.256962
_cell_angle_gamma 86.722807
_cell_volume 525.461170
_symmetry_space_group_name_H-M "P -1"
_symmetry_group_IT_number 2
_symmetry_cell_setting 'triclinic'
loop_
_space_group_symop_operation_xyz
x,y,z
-x,-y,-z
loop_
_atom_site_type_symbol
_atom_site_label
_atom_site_fract_x
_atom_site_fract_y
_atom_site_fract_z
Si Si1 0.500000 0.000000 0.500000
Si Si2 0.926776 0.750845 0.583133
Si Si3 0.880318 0.768705 0.859271
Si Si4 0.554388 0.191114 0.155293
Si Si5 0.628745 0.021307 0.793566
Si Si6 0.799774 0.566186 0.258927
Si Si7 0.851041 0.479112 0.055671
Si Si8 0.258952 0.784323 0.501669
O O1 0.519305 0.167768 0.647524
O O2 0.384055 0.784610 0.485194
O O3 0.896501 0.739367 0.425571
O O4 0.868283 0.023349 0.610090
O O5 0.100642 0.691559 0.707168
O O6 0.812345 0.502864 0.529011
O O7 0.978206 0.612459 0.826400
O O8 0.718837 0.884426 0.738285
O O9 0.850716 0.594644 0.938064
O O10 0.000000 0.000000 0.000000
O O11 0.633758 0.461626 0.178545
O O12 0.426418 0.195298 0.166322
O O13 0.674999 0.096217 0.323195
O O14 0.500000 0.000000 0.000000
O O15 0.733398 0.226197 0.950331
O O16 0.806767 0.666363 0.141967
#
# Coordination Sequence:
#
# PCOD9107512 Si02
#       8
#     1   2   2   2   2   2   2   2
#     4  10  24  44  66  98 138 182 230 280 344 418
#     4  10  24  45  68 103 137 179 237 284 350 404
#     4   9  21  38  61  91 127 164 222 273 336 401
#     4  10  20  41  64  96 136 171 226 276 345 404
#     4  10  21  42  62  94 130 177 218 279 337 414
#     4  10  22  40  68  98 132 180 222 295 336 416
#     4  10  20  40  64  96 126 169 225 279 341 403
#     4  10  24  46  70 101 139 184 232 286 344 415
#
# _framework density 28.546351999999999
#
# number of rings (size 3 to 8) (size 9 to 14) (size 15 to 20)
#    0.000    2.133    1.333    0.000    1.867    9.600 
#   19.200    3.333    0.000    0.000    0.000    0.000 
#    0.000    0.000    0.000    0.000    0.000    0.000 
#
# Total GULP energy -83588.951354 kJ/mol
# GULP energy per Si atom -5572.596757 kJ/mol
# Density = 2.848138 g / cm^3
# Si number density = 28.546352 Si / 1000 Ang^3
#
#
#
# Elastic Constant Matrix: (Units=GPa)
#
#
# Indices 1 2 3 4 5 6 
#
# 1 135.1393 38.3865 18.8571 3.7437 -28.3593 39.1328
# 2 38.3865 90.5925 4.5574 3.9251 6.1744 13.1743
# 3 18.8571 4.5574 132.8065 15.6600 -28.5489 10.8277
# 4 3.7437 3.9251 15.6600 31.3330 -3.0732 9.0185
# 5 -28.3593 6.1744 -28.5489 -3.0732 44.2643 -7.7481
# 6 39.1328 13.1743 10.8277 9.0185 -7.7481 41.8875
#
#
#
# Elastic Compliance Matrix: (Units=1/GPa)
#
#
# Indices 1 2 3 4 5 6 
#
# 1 0.013163 -0.004790 0.000513 0.002417 0.007851 -0.009991
# 2 -0.004790 0.013601 -0.000834 -0.001159 -0.005651 -0.000383
# 3 0.000513 -0.000834 0.009292 -0.003812 0.006054 -0.000678
# 4 0.002417 -0.001159 -0.003812 0.036192 0.000250 -0.008654
# 5 0.007851 -0.005651 0.006054 0.000250 0.032115 -0.001235
# 6 -0.009991 -0.000383 -0.000678 -0.008654 -0.001235 0.035138
#
#
# Mechanical properties :
#
#
# Convention : Reuss Voigt Hill
#
# Bulk Modulus (GPa) = 38.70905 53.57114 46.14010
# Shear Modulus (GPa) = 31.57880 43.27945 37.42912
#
# Velocity S-wave (km/s) = 3.32961 3.89795 3.62494
# Velocity P-wave (km/s) = 5.32647 6.25027 5.80677
#
# Compressibility (1/GPa) = 0.02583375
#
# Stress axis : x y z
#
# Youngs Moduli (GPa) = 75.97334 73.52353 107.62205
#
# Poissons Ratio (x) = 0.35217 -0.05517
# Poissons Ratio (y) = 0.36391 0.08971
# Poissons Ratio (z) = -0.03895 0.06128
#
# Static dielectric constant tensor:
#      x y z
#    x 2.182660 -0.069010 0.031260 
#    y -0.069010 1.995100 -0.083450 
#    z 0.031260 -0.083450 2.273420 
# 
# From -- ./inp_files/409380.got.cif
#   From: 2010.05.17/outbox.cif.g08.bks.cpg/sg2_205_cif.got.tgz:409380.got - 2010.06.03 11:33:40.
