data_PCOD9107962
_publ_section_title
;
Structure prediction by ZEFSAII (Michael W. Deem and Ramdas Pophale) SiO2 
 PCOD9107962
Probable space group: P -1
;
_chemical_formula_sum "Si O2"
_cell_formula_units_Z 16
_cell_length_a 8.538689
_cell_length_b 26.648634
_cell_length_c 9.664130
_cell_angle_alpha 126.979198
_cell_angle_beta 134.033097
_cell_angle_gamma 25.748567
_cell_volume 684.682185
_symmetry_space_group_name_H-M "P -1"
_symmetry_group_IT_number 2
_symmetry_cell_setting 'triclinic'
loop_
_space_group_symop_operation_xyz
x,y,z
-x,-y,-z
loop_
_atom_site_type_symbol
_atom_site_label
_atom_site_fract_x
_atom_site_fract_y
_atom_site_fract_z
Si Si1 0.556827 0.843256 0.521131
Si Si2 0.541007 0.994375 0.182519
Si Si3 0.756234 0.500002 0.685023
Si Si4 0.447579 0.750879 0.144214
Si Si5 0.837869 0.310937 0.143389
Si Si6 0.686051 0.303071 0.451720
Si Si7 0.056128 0.228019 0.849159
Si Si8 0.672768 0.179187 0.094328
O O1 0.366363 0.956976 0.626978
O O2 0.325291 0.844550 0.300178
O O3 0.767316 0.762750 0.653445
O O4 0.929625 0.768919 0.524248
O O5 0.860207 0.864674 0.213721
O O6 0.122749 0.073629 0.132928
O O7 0.500000 0.000000 0.000000
O O8 0.500000 0.500000 0.500000
O O9 0.563084 0.571043 0.828297
O O10 0.671577 0.571140 0.631257
O O11 0.207769 0.367577 0.755475
O O12 0.603795 0.732006 0.057590
O O13 0.142644 0.768923 0.953993
O O14 0.857001 0.313760 0.996757
O O15 0.791623 0.293466 0.657483
O O16 0.638895 0.240150 0.292441
O O17 0.491215 0.156154 0.981778
#
# Coordination Sequence:
#
# PCOD9107962 Si02
#       8
#     2   2   2   2   2   2   2   2
#     4  10  20  40  66  92 128 162 222 262 307 389
#     4  11  22  44  68  97 130 170 219 267 317 389
#     4  11  20  40  72  94 124 176 219 262 321 387
#     4  12  20  41  73  90 126 175 215 265 323 375
#     4  11  23  40  64  98 128 166 220 266 310 390
#     4  10  22  41  61  96 131 163 220 260 316 391
#     4  12  24  44  65  91 141 169 205 276 329 370
#     4  11  23  41  66  95 133 173 213 261 328 386
#
# _framework density 23.368506
#
# number of rings (size 3 to 8) (size 9 to 14) (size 15 to 20)
#    0.000    1.000    8.750    0.750    0.000    3.000 
#    2.250    4.375    0.000    0.000    0.000    0.000 
#    0.000    0.000    0.000    0.000    0.000    0.000 
#
# Total GULP energy -89363.556563 kJ/mol
# GULP energy per Si atom -5585.222285 kJ/mol
# Density = 2.331532 g / cm^3
# Si number density = 23.368506 Si / 1000 Ang^3
#
#
#
# Elastic Constant Matrix: (Units=GPa)
#
#
# Indices 1 2 3 4 5 6 
#
# 1 60.0577 5.6218 36.9944 8.9557 -3.8394 4.4705
# 2 5.6218 80.0279 20.5139 12.6909 -12.3903 5.6449
# 3 36.9944 20.5139 168.7906 15.6953 -11.6599 4.3029
# 4 8.9557 12.6909 15.6953 33.0461 8.3844 0.7408
# 5 -3.8394 -12.3903 -11.6599 8.3844 54.2013 -3.2688
# 6 4.4705 5.6449 4.3029 0.7408 -3.2688 19.1073
#
#
#
# Elastic Compliance Matrix: (Units=1/GPa)
#
#
# Indices 1 2 3 4 5 6 
#
# 1 0.019935 0.000667 -0.003907 -0.004007 0.001125 -0.003633
# 2 0.000667 0.014526 -0.000979 -0.006214 0.003919 -0.003316
# 3 -0.003907 -0.000979 0.007218 -0.002349 0.001410 -0.000090
# 4 -0.004007 -0.006214 -0.002349 0.036835 -0.007876 0.000527
# 5 0.001125 0.003919 0.001410 -0.007876 0.021078 0.002173
# 6 -0.003633 -0.003316 -0.000090 0.000527 0.002173 0.054537
#
#
# Mechanical properties :
#
#
# Convention : Reuss Voigt Hill
#
# Bulk Modulus (GPa) = 30.08344 48.34848 39.21596
# Shear Modulus (GPa) = 28.79403 37.65401 33.22402
#
# Velocity S-wave (km/s) = 3.51404 4.01847 3.77469
# Velocity P-wave (km/s) = 5.41905 6.50118 5.98462
#
# Compressibility (1/GPa) = 0.03324088
#
# Stress axis : x y z
#
# Youngs Moduli (GPa) = 50.16317 68.84376 138.54292
#
# Poissons Ratio (x) = -0.04592 0.54134
# Poissons Ratio (y) = -0.03346 0.13556
# Poissons Ratio (z) = 0.19601 0.06736
#
# Static dielectric constant tensor:
#      x y z
#    x 1.912200 -0.046810 0.000700 
#    y -0.046810 1.935530 -0.007200 
#    z 0.000700 -0.007200 1.909150 
# 
# From -- ./inp_files/202301.got.cif
#   From: 2010.05.17/outbox.cif.g08.bks.cpg/sg2_102_cif.got.tgz:202301.got - 2010.06.03 11:33:40.
