data_PCOD9107529
_publ_section_title
;
Structure prediction by ZEFSAII (Michael W. Deem and Ramdas Pophale) SiO2 
 PCOD9107529
Probable space group: P -1
;
_chemical_formula_sum "Si O2"
_cell_formula_units_Z 16
_cell_length_a 5.388271
_cell_length_b 8.616063
_cell_length_c 15.404463
_cell_angle_alpha 65.936705
_cell_angle_beta 104.067612
_cell_angle_gamma 96.821255
_cell_volume 633.271685
_symmetry_space_group_name_H-M "P -1"
_symmetry_group_IT_number 2
_symmetry_cell_setting 'triclinic'
loop_
_space_group_symop_operation_xyz
x,y,z
-x,-y,-z
loop_
_atom_site_type_symbol
_atom_site_label
_atom_site_fract_x
_atom_site_fract_y
_atom_site_fract_z
Si Si1 0.379816 0.130831 0.358606
Si Si2 0.314462 0.686150 0.783807
Si Si3 0.004075 0.869411 0.836040
Si Si4 0.123486 0.237130 0.710424
Si Si5 0.079467 0.197164 0.967635
Si Si6 0.469487 0.653818 0.147241
Si Si7 0.937585 0.145434 0.532244
Si Si8 0.095430 0.420981 0.354471
O O1 0.632772 0.168575 0.316727
O O2 0.173940 0.140335 0.261086
O O3 0.323587 0.291870 0.380161
O O4 0.325797 0.942120 0.434008
O O5 0.255760 0.770847 0.850363
O O6 0.526255 0.544884 0.830405
O O7 0.072456 0.584555 0.746151
O O8 0.061904 0.070715 0.801192
O O9 0.888309 0.783078 0.930463
O O10 0.389321 0.313416 0.755038
O O11 0.906523 0.381017 0.666200
O O12 0.118930 0.175721 0.624373
O O13 0.819359 0.287122 0.895456
O O14 0.335354 0.253460 0.925566
O O15 0.000000 0.000000 0.000000
O O16 0.946898 0.323100 0.442235
O O17 0.000000 0.000000 0.500000
#
# Coordination Sequence:
#
# PCOD9107529 Si02
#       8
#     2   2   2   2   2   2   2   2
#     4   9  20  38  62  90 131 175 221 276 338 401
#     4  10  23  40  63  95 131 178 224 279 336 403
#     4  10  23  39  64  91 134 175 227 276 343 393
#     4  10  20  40  64  97 127 179 217 281 341 405
#     4  12  26  46  69 103 137 179 229 284 336 405
#     4  11  27  44  72  98 139 179 229 282 338 398
#     4   9  18  37  65  94 131 173 218 281 332 411
#     4   9  19  37  62  93 131 171 222 282 330 408
#
# _framework density 25.265618
#
# number of rings (size 3 to 8) (size 9 to 14) (size 15 to 20)
#    0.000    2.000    1.250    1.500    7.000    1.500 
#    0.000    0.000    0.000    7.500    0.000    0.000 
#    0.000    0.000    0.000    0.000    0.000    0.000 
#
# Total GULP energy -89330.207710 kJ/mol
# GULP energy per Si atom -5583.137982 kJ/mol
# Density = 2.520811 g / cm^3
# Si number density = 25.265618 Si / 1000 Ang^3
#
#
#
# Elastic Constant Matrix: (Units=GPa)
#
#
# Indices 1 2 3 4 5 6 
#
# 1 78.0730 28.1457 37.1051 -4.6911 -13.2322 -0.5130
# 2 28.1457 144.7028 45.0551 -9.5184 -6.0052 -8.6157
# 3 37.1051 45.0551 103.3964 -0.1997 -12.4878 -1.9321
# 4 -4.6911 -9.5184 -0.1997 39.6346 4.1754 -0.8328
# 5 -13.2322 -6.0052 -12.4878 4.1754 51.4698 -9.6892
# 6 -0.5130 -8.6157 -1.9321 -0.8328 -9.6892 27.9428
#
#
#
# Elastic Compliance Matrix: (Units=1/GPa)
#
#
# Indices 1 2 3 4 5 6 
#
# 1 0.016172 -0.001407 -0.004838 0.001266 0.002820 0.000544
# 2 -0.001407 0.008426 -0.003095 0.001874 0.000185 0.002478
# 3 -0.004838 -0.003095 0.012971 -0.001425 0.001736 0.000413
# 4 0.001266 0.001874 -0.001425 0.026026 -0.001789 0.000658
# 5 0.002820 0.000185 0.001736 -0.001789 0.022225 0.007882
# 6 0.000544 0.002478 0.000413 0.000658 0.007882 0.039343
#
#
# Mechanical properties :
#
#
# Convention : Reuss Voigt Hill
#
# Bulk Modulus (GPa) = 52.93389 60.75379 56.84384
# Shear Modulus (GPa) = 33.30267 38.20054 35.75161
#
# Velocity S-wave (km/s) = 3.63451 3.89261 3.76577
# Velocity P-wave (km/s) = 6.21364 6.65593 6.43858
#
# Compressibility (1/GPa) = 0.01889149
#
# Stress axis : x y z
#
# Youngs Moduli (GPa) = 61.83427 118.67410 77.09725
#
# Poissons Ratio (x) = 0.16694 0.37296
# Poissons Ratio (y) = 0.08698 0.23859
# Poissons Ratio (z) = 0.29912 0.36726
#
# Static dielectric constant tensor:
#      x y z
#    x 2.145660 -0.018520 -0.006970 
#    y -0.018520 2.011010 0.001290 
#    z -0.006970 0.001290 2.048010 
# 
# From -- ./inp_files/139585.got.cif
#   From: 2010.05.17/outbox.cif.g08.bks.cpg/sg2_70_cif.got.tgz:139585.got - 2010.06.03 11:33:40.
