data_PCOD9107588
_publ_section_title
;
Structure prediction by ZEFSAII (Michael W. Deem and Ramdas Pophale) SiO2 
 PCOD9107588
Probable space group: P -1
;
_chemical_formula_sum "Si O2"
_cell_formula_units_Z 16
_cell_length_a 12.809854
_cell_length_b 18.674561
_cell_length_c 20.087134
_cell_angle_alpha 158.845829
_cell_angle_beta 158.102549
_cell_angle_gamma 29.172335
_cell_volume 645.630653
_symmetry_space_group_name_H-M "P -1"
_symmetry_group_IT_number 2
_symmetry_cell_setting 'triclinic'
loop_
_space_group_symop_operation_xyz
x,y,z
-x,-y,-z
loop_
_atom_site_type_symbol
_atom_site_label
_atom_site_fract_x
_atom_site_fract_y
_atom_site_fract_z
Si Si1 0.797529 0.271414 0.933734
Si Si2 0.025880 0.161431 0.319102
Si Si3 0.886501 0.789394 0.731405
Si Si4 0.320277 0.523742 0.826358
Si Si5 0.420532 0.571359 0.348041
Si Si6 0.955547 0.161731 0.538444
Si Si7 0.256322 0.567942 0.464735
Si Si8 0.622922 0.804639 0.078230
O O1 0.616008 0.404923 0.890108
O O2 0.855499 0.042034 0.754675
O O3 0.656293 0.317103 0.962155
O O4 0.087504 0.371199 0.200320
O O5 0.194797 0.194077 0.378880
O O6 0.116052 0.350152 0.578167
O O7 0.705796 0.146677 0.091266
O O8 0.643814 0.710384 0.566029
O O9 0.153052 0.631825 0.761779
O O10 0.000000 0.000000 0.000000
O O11 0.217119 0.702875 0.390329
O O12 0.578007 0.407268 0.347568
O O13 0.310162 0.426843 0.100975
O O14 0.915023 0.256460 0.523723
O O15 0.271424 0.154824 0.748594
O O16 0.813804 0.950827 0.275623
O O17 0.500000 0.500000 0.500000
#
# Coordination Sequence:
#
# PCOD9107588 Si02
#       8
#     2   2   2   2   2   2   2   2
#     4  11  23  43  63  90 133 163 209 270 309 379
#     4  12  23  40  66  93 126 168 212 256 320 385
#     4  12  22  40  65  93 128 167 208 259 319 377
#     4  11  24  41  62  93 127 167 211 258 320 378
#     4  11  22  43  63  90 130 169 210 262 314 383
#     4  10  24  41  62  95 124 166 214 267 317 371
#     4  10  20  40  65  86 122 169 210 255 320 368
#     4  11  23  41  66  93 127 164 214 265 319 379
#
# _framework density 24.781970999999999
#
# number of rings (size 3 to 8) (size 9 to 14) (size 15 to 20)
#    0.000    1.000    3.750    3.375    1.750    0.500 
#    0.000    2.500    0.000    0.000    0.000    0.000 
#    0.000    0.000    0.000    0.000    0.000    0.000 
#
# Total GULP energy -89406.286782 kJ/mol
# GULP energy per Si atom -5587.892924 kJ/mol
# Density = 2.472557 g / cm^3
# Si number density = 24.781971 Si / 1000 Ang^3
#
#
#
# Elastic Constant Matrix: (Units=GPa)
#
#
# Indices 1 2 3 4 5 6 
#
# 1 56.6464 0.3927 15.2589 0.9226 4.4847 9.5349
# 2 0.3927 103.9123 29.2835 12.7719 2.4388 3.0318
# 3 15.2589 29.2835 131.3951 14.6474 -11.6073 -1.6801
# 4 0.9226 12.7719 14.6474 54.2498 -1.8994 0.7294
# 5 4.4847 2.4388 -11.6073 -1.8994 23.9129 3.6416
# 6 9.5349 3.0318 -1.6801 0.7294 3.6416 39.9881
#
#
#
# Elastic Compliance Matrix: (Units=1/GPa)
#
#
# Indices 1 2 3 4 5 6 
#
# 1 0.019548 0.000979 -0.002959 0.000138 -0.004514 -0.004451
# 2 0.000979 0.010646 -0.002505 -0.001923 -0.002503 -0.000883
# 3 -0.002959 -0.002505 0.009150 -0.001667 0.004989 0.000856
# 4 0.000138 -0.001923 -0.001667 0.019373 0.000960 -0.000398
# 5 -0.004514 -0.002503 0.004989 0.000960 0.045832 -0.002716
# 6 -0.004451 -0.000883 0.000856 -0.000398 -0.002716 0.026426
#
#
# Mechanical properties :
#
#
# Convention : Reuss Voigt Hill
#
# Bulk Modulus (GPa) = 32.92207 42.42487 37.67347
# Shear Modulus (GPa) = 33.31783 40.09809 36.70796
#
# Velocity S-wave (km/s) = 3.67064 4.02684 3.85286
# Velocity P-wave (km/s) = 5.59270 6.22712 5.91842
#
# Compressibility (1/GPa) = 0.03037476
#
# Stress axis : x y z
#
# Youngs Moduli (GPa) = 51.15596 93.92825 109.28944
#
# Poissons Ratio (x) = -0.09195 0.32342
# Poissons Ratio (y) = -0.05008 0.27372
# Poissons Ratio (z) = 0.15139 0.23524
#
# Static dielectric constant tensor:
#      x y z
#    x 2.056380 -0.009290 0.009780 
#    y -0.009290 2.106360 -0.033680 
#    z 0.009780 -0.033680 1.974240 
# 
# From -- ./inp_files/612278.got.cif
#   From: 2010.05.17/outbox.cif.g08.bks.cpg/sg2_307_cif.got.tgz:612278.got - 2010.06.03 11:33:40.
