data_PCOD9107666
_publ_section_title
;
Structure prediction by ZEFSAII (Michael W. Deem and Ramdas Pophale) SiO2 
 PCOD9107666
Probable space group: P -1
;
_chemical_formula_sum "Si O2"
_cell_formula_units_Z 16
_cell_length_a 15.884570
_cell_length_b 9.652788
_cell_length_c 9.173736
_cell_angle_alpha 137.166716
_cell_angle_beta 112.912655
_cell_angle_gamma 85.262468
_cell_volume 833.331471
_symmetry_space_group_name_H-M "P -1"
_symmetry_group_IT_number 2
_symmetry_cell_setting 'triclinic'
loop_
_space_group_symop_operation_xyz
x,y,z
-x,-y,-z
loop_
_atom_site_type_symbol
_atom_site_label
_atom_site_fract_x
_atom_site_fract_y
_atom_site_fract_z
Si Si1 0.626400 0.130768 0.802139
Si Si2 0.113714 0.453938 0.668196
Si Si3 0.933895 0.302441 0.896202
Si Si4 0.293724 0.413477 0.898058
Si Si5 0.035416 0.989809 0.852930
Si Si6 0.244886 0.969721 0.635004
Si Si7 0.793973 0.161273 0.167098
Si Si8 0.574245 0.841844 0.277484
O O1 0.533745 0.171591 0.843611
O O2 0.590769 0.921334 0.516346
O O3 0.673228 0.329163 0.874135
O O4 0.703724 0.118204 0.963983
O O5 0.205012 0.371005 0.692962
O O6 0.137087 0.603124 0.656288
O O7 0.021684 0.244296 0.431815
O O8 0.101705 0.602631 0.909724
O O9 0.842760 0.157336 0.628378
O O10 0.001953 0.162484 0.876034
O O11 0.000000 0.500000 0.000000
O O12 0.389108 0.362567 0.870693
O O13 0.251696 0.225168 0.844815
O O14 0.146537 0.004514 0.942854
O O15 0.000000 0.000000 0.000000
O O16 0.233237 0.858659 0.697559
O O17 0.346636 0.990892 0.643386
#
# Coordination Sequence:
#
# PCOD9107666 Si02
#       8
#     2   2   2   2   2   2   2   2
#     4  10  20  40  65  91 116 162 204 252 300 371
#     4  11  23  42  62  88 121 164 210 245 301 373
#     4  12  26  41  64  89 123 164 210 252 303 363
#     4   9  20  36  64  84 120 152 203 248 296 360
#     4  12  25  41  62  89 124 164 206 256 301 362
#     4  10  22  40  59  91 123 161 198 256 305 354
#     4  11  24  38  61  91 126 161 203 252 309 358
#     4   9  20  38  68  87 119 157 210 244 308 361
#
# _framework density 19.200042
#
# number of rings (size 3 to 8) (size 9 to 14) (size 15 to 20)
#    0.750    0.750    2.500    3.000    5.250    1.500 
#    0.000    0.000    0.000    1.500    0.000    0.000 
#    0.000    0.000    0.000    0.000    0.000    0.000 
#
# Total GULP energy -89116.740167 kJ/mol
# GULP energy per Si atom -5569.796260 kJ/mol
# Density = 1.915634 g / cm^3
# Si number density = 19.200042 Si / 1000 Ang^3
#
#
#
# Elastic Constant Matrix: (Units=GPa)
#
#
# Indices 1 2 3 4 5 6 
#
# 1 110.4890 53.7993 22.4656 -10.2118 10.5779 -15.8920
# 2 53.7993 137.6733 33.1612 -11.1326 6.7757 7.8984
# 3 22.4656 33.1612 58.4147 -8.6296 4.9991 -11.1154
# 4 -10.2118 -11.1326 -8.6296 12.7935 4.7638 7.8185
# 5 10.5779 6.7757 4.9991 4.7638 26.2875 -7.3316
# 6 -15.8920 7.8984 -11.1154 7.8185 -7.3316 35.9199
#
#
#
# Elastic Compliance Matrix: (Units=1/GPa)
#
#
# Indices 1 2 3 4 5 6 
#
# 1 0.012839 -0.004735 -0.000436 0.003889 -0.003146 0.005098
# 2 -0.004735 0.011954 -0.004719 0.011190 -0.004995 -0.009639
# 3 -0.000436 -0.004719 0.022498 0.008553 -0.002946 0.005344
# 4 0.003889 0.011190 0.008553 0.133251 -0.040062 -0.035274
# 5 -0.003146 -0.004995 -0.002946 -0.040062 0.053559 0.018447
# 6 0.005098 -0.009639 0.005344 -0.035274 0.018447 0.045311
#
#
# Mechanical properties :
#
#
# Convention : Reuss Voigt Hill
#
# Bulk Modulus (GPa) = 36.34833 58.38105 47.36469
# Shear Modulus (GPa) = 16.21468 28.14357 22.17912
#
# Velocity S-wave (km/s) = 2.90920 3.83274 3.40245
# Velocity P-wave (km/s) = 5.50065 7.07526 6.33705
#
# Compressibility (1/GPa) = 0.02751158
#
# Stress axis : x y z
#
# Youngs Moduli (GPa) = 77.88829 83.65188 44.44889
#
# Poissons Ratio (x) = 0.39612 0.01936
# Poissons Ratio (y) = 0.36883 0.20974
# Poissons Ratio (z) = 0.03393 0.39473
#
# Static dielectric constant tensor:
#      x y z
#    x 1.704070 -0.006220 0.013350 
#    y -0.006220 1.674570 0.033920 
#    z 0.013350 0.033920 1.684880 
# 
# From -- ./inp_files/326796.got.cif
#   From: 2010.05.17/outbox.cif.g08.bks.cpg/sg2_164_cif.got.tgz:326796.got - 2010.06.03 11:33:40.
