data_PCOD9107269
_publ_section_title
;
Structure prediction by ZEFSAII (Michael W. Deem and Ramdas Pophale) SiO2 
 PCOD9107269
Probable space group: P -1
;
_chemical_formula_sum "Si O2"
_cell_formula_units_Z 16
_cell_length_a 8.789550
_cell_length_b 18.009693
_cell_length_c 7.717641
_cell_angle_alpha 106.577476
_cell_angle_beta 121.739188
_cell_angle_gamma 41.610316
_cell_volume 677.210650
_symmetry_space_group_name_H-M "P -1"
_symmetry_group_IT_number 2
_symmetry_cell_setting 'triclinic'
loop_
_space_group_symop_operation_xyz
x,y,z
-x,-y,-z
loop_
_atom_site_type_symbol
_atom_site_label
_atom_site_fract_x
_atom_site_fract_y
_atom_site_fract_z
Si Si1 0.982184 0.227242 0.884007
Si Si2 0.191229 0.157564 0.589630
Si Si3 0.023042 0.365655 0.508082
Si Si4 0.407721 0.380558 0.649278
Si Si5 0.760249 0.998320 0.982879
Si Si6 0.563966 0.641152 0.760902
Si Si7 0.069681 0.895859 0.754111
Si Si8 0.054016 0.594771 0.096793
O O1 0.701993 0.291804 0.835446
O O2 0.996426 0.219364 0.678141
O O3 0.004185 0.310759 0.985132
O O4 0.210857 0.096408 0.985962
O O5 0.095399 0.252016 0.454150
O O6 0.472839 0.096831 0.790738
O O7 0.173066 0.074550 0.458490
O O8 0.261715 0.349172 0.601913
O O9 0.969614 0.386472 0.697098
O O10 0.779819 0.485075 0.344926
O O11 0.449691 0.364571 0.456645
O O12 0.838258 0.044630 0.188658
O O13 0.980694 0.928007 0.919555
O O14 0.317100 0.762625 0.774537
O O15 0.653744 0.532985 0.834966
O O16 0.820577 0.612091 0.920223
#
# Coordination Sequence:
#
# PCOD9107269 Si02
#       8
#     2   2   2   2   2   2   2   2
#     4  11  23  41  65  96 126 169 210 263 320 388
#     4  11  23  44  69  94 124 173 217 267 318 378
#     4   9  21  38  66  95 131 163 203 264 322 381
#     4  10  21  38  64  98 129 163 206 259 324 384
#     4  11  27  44  62  94 133 168 220 270 317 370
#     4  10  20  40  63  96 127 163 216 256 324 379
#     4  11  24  43  67  93 123 178 215 269 318 377
#     4   9  21  38  67  91 132 167 199 267 323 380
#
# _framework density 23.626327
#
# number of rings (size 3 to 8) (size 9 to 14) (size 15 to 20)
#    0.000    1.750    1.250    2.250    7.000    3.000 
#    2.250    0.625    0.000    0.000    0.000    0.000 
#    0.000    0.000    0.000    0.000    0.000    0.000 
#
# Total GULP energy -89257.484311 kJ/mol
# GULP energy per Si atom -5578.592769 kJ/mol
# Density = 2.357255 g / cm^3
# Si number density = 23.626327 Si / 1000 Ang^3
#
#
#
# Elastic Constant Matrix: (Units=GPa)
#
#
# Indices 1 2 3 4 5 6 
#
# 1 91.9690 56.3688 18.8050 -29.1674 6.9175 19.2383
# 2 56.3688 104.2958 18.6129 -12.3012 9.4138 15.8628
# 3 18.8050 18.6129 39.8336 -13.4194 12.9621 23.6238
# 4 -29.1674 -12.3012 -13.4194 32.8030 2.3279 -4.6660
# 5 6.9175 9.4138 12.9621 2.3279 25.7686 0.9053
# 6 19.2383 15.8628 23.6238 -4.6660 0.9053 47.7068
#
#
#
# Elastic Compliance Matrix: (Units=1/GPa)
#
#
# Indices 1 2 3 4 5 6 
#
# 1 0.024246 -0.010100 0.007492 0.020277 -0.008139 -0.007992
# 2 -0.010100 0.015148 -0.004313 -0.004949 -0.000230 0.000692
# 3 0.007492 -0.004313 0.060058 0.027917 -0.032185 -0.027986
# 4 0.020277 -0.004949 0.027917 0.057635 -0.022382 -0.014294
# 5 -0.008139 -0.000230 -0.032185 -0.022382 0.058726 0.015993
# 6 -0.007992 0.000692 -0.027986 -0.014294 0.015993 0.036111
#
#
# Mechanical properties :
#
#
# Convention : Reuss Voigt Hill
#
# Bulk Modulus (GPa) = 11.68073 47.07464 29.37769
# Shear Modulus (GPa) = 16.98929 30.74313 23.86621
#
# Velocity S-wave (km/s) = 2.68448 3.61116 3.18174
# Velocity P-wave (km/s) = 3.81619 6.11189 5.09502
#
# Compressibility (1/GPa) = 0.08561107
#
# Stress axis : x y z
#
# Youngs Moduli (GPa) = 41.24338 66.01430 16.65048
#
# Poissons Ratio (x) = 0.66673 -0.12475
# Poissons Ratio (y) = 0.41655 0.07182
# Poissons Ratio (z) = -0.30900 0.28473
#
# Static dielectric constant tensor:
#      x y z
#    x 1.920150 0.068090 0.008620 
#    y 0.068090 1.997380 0.018620 
#    z 0.008620 0.018620 1.903390 
# 
# From -- ./inp_files/217912.got.cif
#   From: 2010.05.17/outbox.cif.g08.bks.cpg/sg2_109_cif.got.tgz:217912.got - 2010.06.03 11:33:40.
