data_PCOD9107668
_publ_section_title
;
Structure prediction by ZEFSAII (Michael W. Deem and Ramdas Pophale) SiO2 
 PCOD9107668
Probable space group: P -1
;
_chemical_formula_sum "Si O2"
_cell_formula_units_Z 14
_cell_length_a 12.664758
_cell_length_b 11.730257
_cell_length_c 10.062051
_cell_angle_alpha 140.455495
_cell_angle_beta 123.561881
_cell_angle_gamma 36.517537
_cell_volume 557.441008
_symmetry_space_group_name_H-M "P -1"
_symmetry_group_IT_number 2
_symmetry_cell_setting 'triclinic'
loop_
_space_group_symop_operation_xyz
x,y,z
-x,-y,-z
loop_
_atom_site_type_symbol
_atom_site_label
_atom_site_fract_x
_atom_site_fract_y
_atom_site_fract_z
Si Si1 0.197891 0.004200 0.043413
Si Si2 0.331268 0.930650 0.567283
Si Si3 0.838714 0.379131 0.265344
Si Si4 0.471821 0.820989 0.287500
Si Si5 0.815472 0.578334 0.975442
Si Si6 0.097552 0.029788 0.722734
Si Si7 0.281227 0.473193 0.410707
O O1 0.019693 0.264661 0.220764
O O2 0.373806 0.878775 0.134515
O O3 0.158121 0.831735 0.877664
O O4 0.204063 0.029061 0.913046
O O5 0.348789 0.873271 0.372113
O O6 0.173892 0.998152 0.602296
O O7 0.516382 0.682834 0.543802
O O8 0.298767 0.176473 0.789318
O O9 0.671512 0.546548 0.199010
O O10 0.796999 0.528006 0.506862
O O11 0.500000 0.000000 0.500000
O O12 0.716498 0.643696 0.826194
O O13 0.894627 0.311136 0.846485
O O14 0.000000 0.500000 0.000000
O O15 0.155347 0.768276 0.552473
#
# Coordination Sequence:
#
# PCOD9107668 Si02
#       7
#     2   2   2   2   2   2   2
#     4  10  22  43  67  90 129 163 210 265 307 374
#     4  10  23  42  60  92 124 164 203 255 319 369
#     4   9  22  42  66  94 121 168 213 256 317 365
#     4  11  25  41  64  94 128 167 209 255 318 383
#     4  10  22  36  58  89 128 158 198 249 312 367
#     4  10  22  40  64  94 118 161 214 254 312 365
#     4  10  20  40  65  91 121 162 210 260 302 374
#
# _framework density 25.114765999999999
#
# number of rings (size 3 to 8) (size 9 to 14) (size 15 to 20)
#    0.000    2.000    0.000    1.714    6.000    6.286 
#    2.571    0.000    0.000    0.000    0.000    0.000 
#    0.000    0.000    0.000    0.000    0.000    0.000 
#
# Total GULP energy -78262.115090 kJ/mol
# GULP energy per Si atom -5590.151078 kJ/mol
# Density = 2.505760 g / cm^3
# Si number density = 25.114766 Si / 1000 Ang^3
#
#
#
# Elastic Constant Matrix: (Units=GPa)
#
#
# Indices 1 2 3 4 5 6 
#
# 1 47.3367 11.5663 -6.3243 8.7062 -5.0299 8.3704
# 2 11.5663 116.9502 42.7010 -2.8132 -9.7659 -1.2535
# 3 -6.3243 42.7010 43.1570 -8.5828 5.5408 12.5398
# 4 8.7062 -2.8132 -8.5828 47.6922 -1.5734 -4.6891
# 5 -5.0299 -9.7659 5.5408 -1.5734 21.2452 4.5232
# 6 8.3704 -1.2535 12.5398 -4.6891 4.5232 15.9974
#
#
#
# Elastic Compliance Matrix: (Units=1/GPa)
#
#
# Indices 1 2 3 4 5 6 
#
# 1 0.044616 -0.020932 0.043438 -0.007573 0.002227 -0.061884
# 2 -0.020932 0.029025 -0.046452 0.002172 0.010596 0.047280
# 3 0.043438 -0.046452 0.108351 -0.002266 -0.016660 -0.107255
# 4 -0.007573 0.002172 -0.002266 0.023317 -0.001266 0.013101
# 5 0.002227 0.010596 -0.016660 -0.001266 0.057553 -0.003920
# 6 -0.061884 0.047280 -0.107255 0.013101 -0.003920 0.187617
#
#
# Mechanical properties :
#
#
# Convention : Reuss Voigt Hill
#
# Bulk Modulus (GPa) = 7.45718 33.70331 20.58025
# Shear Modulus (GPa) = 9.20691 27.62036 18.41363
#
# Velocity S-wave (km/s) = 1.91674 3.31987 2.71067
# Velocity P-wave (km/s) = 2.80610 5.30511 4.24373
#
# Compressibility (1/GPa) = 0.13409893
#
# Stress axis : x y z
#
# Youngs Moduli (GPa) = 22.41373 34.45258 9.22928
#
# Poissons Ratio (x) = 0.72117 -0.40090
# Poissons Ratio (y) = 0.46917 0.42872
# Poissons Ratio (z) = -0.97361 1.60041
#
# Static dielectric constant tensor:
#      x y z
#    x 2.028910 0.107470 0.055900 
#    y 0.107470 2.034540 0.083090 
#    z 0.055900 0.083090 2.071780 
# 
# From -- ./inp_files/258675.got.cif
#   From: 2010.05.17/outbox.cif.g08.bks.cpg/sg2_130_cif.got.tgz:258675.got - 2010.06.03 11:33:40.
