data_PCOD9107335
_publ_section_title
;
Structure prediction by ZEFSAII (Michael W. Deem and Ramdas Pophale) SiO2 
 PCOD9107335
Probable space group: P -1
;
_chemical_formula_sum "Si O2"
_cell_formula_units_Z 16
_cell_length_a 20.506059
_cell_length_b 23.248760
_cell_length_c 8.610725
_cell_angle_alpha 146.022222
_cell_angle_beta 30.838790
_cell_angle_gamma 158.259239
_cell_volume 768.522788
_symmetry_space_group_name_H-M "P -1"
_symmetry_group_IT_number 2
_symmetry_cell_setting 'triclinic'
loop_
_space_group_symop_operation_xyz
x,y,z
-x,-y,-z
loop_
_atom_site_type_symbol
_atom_site_label
_atom_site_fract_x
_atom_site_fract_y
_atom_site_fract_z
Si Si1 0.659094 0.729883 0.220933
Si Si2 0.532523 0.257654 0.844148
Si Si3 0.222134 0.401867 0.453733
Si Si4 0.145882 0.682728 0.646937
Si Si5 0.557675 0.874961 0.612890
Si Si6 0.187005 0.762486 0.102175
Si Si7 0.206128 0.178785 0.502910
Si Si8 0.815127 0.612663 0.131889
O O1 0.426894 0.564495 0.328603
O O2 0.666217 0.852881 0.435549
O O3 0.746515 0.767824 0.296843
O O4 0.770244 0.716609 0.854678
O O5 0.645136 0.231666 0.637222
O O6 0.466251 0.182249 0.641009
O O7 0.360363 0.192369 0.154145
O O8 0.678811 0.445029 0.952191
O O9 0.219738 0.419750 0.684062
O O10 0.033141 0.342648 0.633024
O O11 0.000000 0.500000 0.500000
O O12 0.162435 0.707918 0.854104
O O13 0.039742 0.717946 0.876768
O O14 0.691383 0.057539 0.746864
O O15 0.339631 0.774639 0.893233
O O16 0.225038 0.297091 0.636436
O O17 0.000000 0.000000 0.500000
#
# Coordination Sequence:
#
# PCOD9107335 Si02
#       8
#     2   2   2   2   2   2   2   2
#     4  11  25  39  57  92 124 152 201 251 291 344
#     4  10  20  40  64  86 115 161 200 236 298 362
#     4  10  22  40  64  87 118 160 202 242 291 355
#     4   8  17  35  65  88 107 146 209 243 279 351
#     4  10  22  39  64  90 121 156 196 247 296 355
#     4   9  20  39  64  89 116 158 202 236 297 360
#     4  12  27  39  57  90 125 155 198 249 300 349
#     4  10  20  41  64  84 116 162 200 242 293 359
#
# _framework density 20.819161999999999
#
# number of rings (size 3 to 8) (size 9 to 14) (size 15 to 20)
#    0.000    2.000    1.250    1.125    8.750    1.000 
#    0.000    1.875    0.000    0.000    0.000    0.000 
#    0.000    0.000    0.000    0.000    0.000    0.000 
#
# Total GULP energy -89253.042964 kJ/mol
# GULP energy per Si atom -5578.315185 kJ/mol
# Density = 2.077178 g / cm^3
# Si number density = 20.819162 Si / 1000 Ang^3
#
#
#
# Elastic Constant Matrix: (Units=GPa)
#
#
# Indices 1 2 3 4 5 6 
#
# 1 7.1294 -17.5969 6.3356 -40.6064 -9.9096 -4.6518
# 2 -17.5969 44.4197 18.6552 -34.7622 -5.6733 10.7354
# 3 6.3356 18.6552 117.7575 -10.4560 -10.4217 10.6179
# 4 -40.6064 -34.7622 -10.4560 -126.7074 -67.6309 -73.6232
# 5 -9.9096 -5.6733 -10.4217 -67.6309 -29.0833 -33.5961
# 6 -4.6518 10.7354 10.6179 -73.6232 -33.5961 -5.7198
#
#
#
# Elastic Compliance Matrix: (Units=1/GPa)
#
#
# Indices 1 2 3 4 5 6 
#
# 1 -0.010697 -0.026691 0.005784 -0.029986 0.057723 0.016262
# 2 -0.026691 0.002723 0.002629 -0.015239 0.038053 0.004332
# 3 0.005784 0.002629 0.008671 0.002573 -0.001352 -0.008848
# 4 -0.029986 -0.015239 0.002573 0.001790 -0.005890 0.012115
# 5 0.057723 0.038053 -0.001352 -0.005890 0.027700 -0.064921
# 6 0.016262 0.004332 -0.008848 0.012115 -0.064921 0.029028
#
#
# Mechanical properties :
#
#
# Convention : Reuss Voigt Hill
#
# Bulk Modulus (GPa) = -27.88656 20.45491 -3.71582
# Shear Modulus (GPa) = 59.65269 -21.50791 19.07239
#
# Velocity S-wave (km/s) = 5.35864 -3.21765 3.02999
# Velocity P-wave (km/s) = 4.98627 1.98946 3.23303
#
# Compressibility (1/GPa) = -0.03585957
#
# Stress axis : x y z
#
# Youngs Moduli (GPa) = -93.48678 367.29101 115.32608
#
# Poissons Ratio (x) = 9.80321 -0.66699
# Poissons Ratio (y) = -2.49522 -0.30316
# Poissons Ratio (z) = 0.54068 -0.96552
#
# Static dielectric constant tensor:
#      x y z
#    x 1.637180 0.009710 -0.061980 
#    y 0.009710 1.743030 -0.039890 
#    z -0.061980 -0.039890 1.757520 
# 
# From -- ./inp_files/186052.got.cif
#   From: 2010.05.17/outbox.cif.g08.bks.cpg/sg2_94_cif.got.tgz:186052.got - 2010.06.03 11:33:40.
