data_PCOD9107267
_publ_section_title
;
Structure prediction by ZEFSAII (Michael W. Deem and Ramdas Pophale) SiO2 
 PCOD9107267
Probable space group: P -1
;
_chemical_formula_sum "Si O2"
_cell_formula_units_Z 14
_cell_length_a 7.161930
_cell_length_b 9.282769
_cell_length_c 26.732556
_cell_angle_alpha 27.996519
_cell_angle_beta 137.817941
_cell_angle_gamma 133.161880
_cell_volume 557.701261
_symmetry_space_group_name_H-M "P -1"
_symmetry_group_IT_number 2
_symmetry_cell_setting 'triclinic'
loop_
_space_group_symop_operation_xyz
x,y,z
-x,-y,-z
loop_
_atom_site_type_symbol
_atom_site_label
_atom_site_fract_x
_atom_site_fract_y
_atom_site_fract_z
Si Si1 0.306844 0.927239 0.094555
Si Si2 0.650036 0.672786 0.824370
Si Si3 0.114292 0.907139 0.497517
Si Si4 0.751958 0.805615 0.160419
Si Si5 0.815580 0.715564 0.952435
Si Si6 0.766043 0.794184 0.671139
Si Si7 0.930406 0.216768 0.666205
O O1 0.484600 0.990432 0.060397
O O2 0.269924 0.566620 0.212127
O O3 0.383445 0.167491 0.080486
O O4 0.000000 0.000000 0.000000
O O5 0.390122 0.502794 0.796676
O O6 0.636755 0.633818 0.892738
O O7 0.951223 0.527559 0.916175
O O8 0.674266 0.026660 0.702604
O O9 0.952862 0.579376 0.548954
O O10 0.446462 0.882931 0.578476
O O11 0.102941 0.141371 0.377244
O O12 0.000000 0.000000 0.500000
O O13 0.843413 0.785294 0.243028
O O14 0.990434 0.981920 0.121521
O O15 0.934405 0.012932 0.678970
#
# Coordination Sequence:
#
# PCOD9107267 Si02
#       7
#     2   2   2   2   2   2   2
#     4  12  23  42  69 103 141 183 229 275 339 420
#     4  10  20  40  63  95 138 179 233 283 326 410
#     4  11  26  47  77  99 132 185 232 288 357 401
#     4  11  22  42  66  93 143 184 223 282 335 406
#     4  10  23  39  63  96 136 190 229 277 341 399
#     4  11  25  47  69 104 144 171 234 293 332 422
#     4  11  21  44  69  97 139 178 222 293 347 396
#
# _framework density 25.103045000000002
#
# number of rings (size 3 to 8) (size 9 to 14) (size 15 to 20)
#    0.000    1.143    4.286    0.857    4.000    0.571 
#    2.571    8.571    0.000    0.000    0.000    0.000 
#    0.000    0.000    0.000    0.000    0.000    0.000 
#
# Total GULP energy -78225.501760 kJ/mol
# GULP energy per Si atom -5587.535840 kJ/mol
# Density = 2.504591 g / cm^3
# Si number density = 25.103045 Si / 1000 Ang^3
#
#
#
# Elastic Constant Matrix: (Units=GPa)
#
#
# Indices 1 2 3 4 5 6 
#
# 1 91.9850 35.2292 11.8574 -0.7453 -5.8125 -24.5815
# 2 35.2292 206.9958 47.0127 -9.2951 -17.2886 -5.2435
# 3 11.8574 47.0127 86.7759 -2.9046 -20.9072 1.6050
# 4 -0.7453 -9.2951 -2.9046 43.6127 5.3658 -14.6031
# 5 -5.8125 -17.2886 -20.9072 5.3658 34.9891 -1.0891
# 6 -24.5815 -5.2435 1.6050 -14.6031 -1.0891 43.3245
#
#
#
# Elastic Compliance Matrix: (Units=1/GPa)
#
#
# Indices 1 2 3 4 5 6 
#
# 1 0.014063 -0.001801 -0.000820 0.002611 0.000826 0.008692
# 2 -0.001801 0.005869 -0.002701 0.000984 0.000840 0.000142
# 3 -0.000820 -0.002701 0.014912 -0.001028 0.007550 -0.001501
# 4 0.002611 0.000984 -0.001028 0.027129 -0.003522 0.010694
# 5 0.000826 0.000840 0.007550 -0.003522 0.034184 -0.000037
# 6 0.008692 0.000142 -0.001501 0.010694 -0.000037 0.031690
#
#
# Mechanical properties :
#
#
# Convention : Reuss Voigt Hill
#
# Bulk Modulus (GPa) = 41.32208 63.77281 52.54744
# Shear Modulus (GPa) = 34.11664 43.82908 38.97286
#
# Velocity S-wave (km/s) = 3.69055 4.18301 3.94447
# Velocity P-wave (km/s) = 5.88701 6.98496 6.45936
#
# Compressibility (1/GPa) = 0.02420014
#
# Stress axis : x y z
#
# Youngs Moduli (GPa) = 71.10874 170.39166 67.06143
#
# Poissons Ratio (x) = 0.30682 0.05501
# Poissons Ratio (y) = 0.12804 0.18111
# Poissons Ratio (z) = 0.05833 0.46018
#
# Static dielectric constant tensor:
#      x y z
#    x 2.145720 -0.080400 0.036040 
#    y -0.080400 2.146550 0.060020 
#    z 0.036040 0.060020 2.070740 
# 
# From -- ./inp_files/606574.got.cif
#   From: 2010.05.17/outbox.cif.g08.bks.cpg/sg2_304_cif.got.tgz:606574.got - 2010.06.03 11:33:40.
