data_PCOD9107360
_publ_section_title
;
Structure prediction by ZEFSAII (Michael W. Deem and Ramdas Pophale) SiO2 
 PCOD9107360
Probable space group: P -1
;
_chemical_formula_sum "Si O2"
_cell_formula_units_Z 16
_cell_length_a 14.924150
_cell_length_b 8.832574
_cell_length_c 10.749281
_cell_angle_alpha 43.814051
_cell_angle_beta 55.438242
_cell_angle_gamma 71.127052
_cell_volume 798.639444
_symmetry_space_group_name_H-M "P -1"
_symmetry_group_IT_number 2
_symmetry_cell_setting 'triclinic'
loop_
_space_group_symop_operation_xyz
x,y,z
-x,-y,-z
loop_
_atom_site_type_symbol
_atom_site_label
_atom_site_fract_x
_atom_site_fract_y
_atom_site_fract_z
Si Si1 0.032395 0.192426 0.463036
Si Si2 0.482469 0.353224 0.768312
Si Si3 0.265647 0.297066 0.834266
Si Si4 0.103581 0.516238 0.001288
Si Si5 0.636069 0.014254 0.749947
Si Si6 0.220297 0.009955 0.581737
Si Si7 0.703695 0.606230 0.520727
Si Si8 0.792701 0.177094 0.751731
O O1 0.129711 0.123885 0.510067
O O2 0.923817 0.210438 0.618369
O O3 0.068961 0.412956 0.223347
O O4 0.000000 0.000000 0.500000
O O5 0.387437 0.400546 0.722061
O O6 0.549839 0.179992 0.749186
O O7 0.573371 0.546798 0.632316
O O8 0.419221 0.221319 0.012323
O O9 0.183804 0.367566 0.959371
O O10 0.242190 0.381098 0.666594
O O11 0.252876 0.030602 0.002514
O O12 0.163513 0.767047 0.810613
O O13 0.000000 0.500000 0.000000
O O14 0.741392 0.098288 0.704139
O O15 0.679806 0.010606 0.579094
O O16 0.262964 0.168054 0.567401
O O17 0.744669 0.402356 0.681904
#
# Coordination Sequence:
#
# PCOD9107360 Si02
#       8
#     2   2   2   2   2   2   2   2
#     4  12  20  39  67  91 114 153 206 253 295 353
#     4   9  19  38  64  87 111 163 209 245 291 354
#     4  11  21  39  66  88 116 161 209 244 291 360
#     4  12  22  39  68  92 117 156 208 251 292 358
#     4   9  17  37  64  87 115 154 208 249 291 350
#     4  12  25  39  58  94 127 157 194 251 310 355
#     4  11  25  39  57  89 132 158 193 251 308 355
#     4  10  20  40  64  88 116 159 204 249 295 356
#
# _framework density 20.034071999999998
#
# number of rings (size 3 to 8) (size 9 to 14) (size 15 to 20)
#    0.000    1.250    3.750    4.125    0.000    2.000 
#    0.000    6.875    0.000    0.000    0.000    0.000 
#    0.000    0.000    0.000    0.000    0.000    0.000 
#
# Total GULP energy -89436.853015 kJ/mol
# GULP energy per Si atom -5589.803313 kJ/mol
# Density = 1.998847 g / cm^3
# Si number density = 20.034072 Si / 1000 Ang^3
#
#
#
# Elastic Constant Matrix: (Units=GPa)
#
#
# Indices 1 2 3 4 5 6 
#
# 1 62.7751 21.6106 20.0757 0.7409 -8.8117 -8.1149
# 2 21.6106 37.7436 29.1563 -14.5968 -18.9076 2.1957
# 3 20.0757 29.1563 130.0863 -19.2068 1.3513 8.1978
# 4 0.7409 -14.5968 -19.2068 31.2929 -9.6221 -8.0419
# 5 -8.8117 -18.9076 1.3513 -9.6221 30.6268 -3.5676
# 6 -8.1149 2.1957 8.1978 -8.0419 -3.5676 28.9268
#
#
#
# Elastic Compliance Matrix: (Units=1/GPa)
#
#
# Indices 1 2 3 4 5 6 
#
# 1 0.024609 -0.032690 0.000527 -0.021352 -0.019732 0.000866
# 2 -0.032690 0.186926 -0.021412 0.131581 0.152719 0.038125
# 3 0.000527 -0.021412 0.011523 -0.009938 -0.017445 -0.006407
# 4 -0.021352 0.131581 -0.009938 0.135697 0.122785 0.039707
# 5 -0.019732 0.152719 -0.017445 0.122785 0.165537 0.042367
# 6 0.000866 0.038125 -0.006407 0.039707 0.042367 0.049999
#
#
# Mechanical properties :
#
#
# Convention : Reuss Voigt Hill
#
# Bulk Modulus (GPa) = 8.62761 41.36558 24.99660
# Shear Modulus (GPa) = 6.94370 28.82014 17.88192
#
# Velocity S-wave (km/s) = 1.86372 3.79695 2.99084
# Velocity P-wave (km/s) = 2.99117 6.31782 4.94277
#
# Compressibility (1/GPa) = 0.11590691
#
# Stress axis : x y z
#
# Youngs Moduli (GPa) = 40.63503 5.34972 86.78566
#
# Poissons Ratio (x) = 0.17488 -0.04571
# Poissons Ratio (y) = 1.32835 1.85828
# Poissons Ratio (z) = -0.02140 0.11455
#
# Static dielectric constant tensor:
#      x y z
#    x 1.698320 -0.028760 0.003270 
#    y -0.028760 1.692090 -0.005110 
#    z 0.003270 -0.005110 1.736230 
# 
# From -- ./inp_files/398283.got.cif
#   From: 2010.05.17/outbox.cif.g08.bks.cpg/sg2_200_cif.got.tgz:398283.got - 2010.06.03 11:33:40.
