data_PCOD9107663
_publ_section_title
;
Structure prediction by ZEFSAII (Michael W. Deem and Ramdas Pophale) SiO2 
 PCOD9107663
Probable space group: P -1
;
_chemical_formula_sum "Si O2"
_cell_formula_units_Z 14
_cell_length_a 7.592338
_cell_length_b 13.050506
_cell_length_c 12.553889
_cell_angle_alpha 134.169507
_cell_angle_beta 127.946608
_cell_angle_gamma 86.822335
_cell_volume 528.889629
_symmetry_space_group_name_H-M "P -1"
_symmetry_group_IT_number 2
_symmetry_cell_setting 'triclinic'
loop_
_space_group_symop_operation_xyz
x,y,z
-x,-y,-z
loop_
_atom_site_type_symbol
_atom_site_label
_atom_site_fract_x
_atom_site_fract_y
_atom_site_fract_z
Si Si1 0.924324 0.739453 0.012679
Si Si2 0.472300 0.131134 0.297989
Si Si3 0.422295 0.315293 0.889535
Si Si4 0.201780 0.470641 0.382805
Si Si5 0.263519 0.959086 0.488677
Si Si6 0.289498 0.455168 0.644629
Si Si7 0.942910 0.059506 0.178019
O O1 0.207950 0.864634 0.284423
O O2 0.000526 0.697780 0.898997
O O3 0.629080 0.543576 0.811025
O O4 0.834772 0.867255 0.051578
O O5 0.718216 0.340332 0.493569
O O6 0.605171 0.084625 0.401948
O O7 0.223337 0.125390 0.258686
O O8 0.306982 0.992138 0.034106
O O9 0.088209 0.173618 0.707644
O O10 0.413558 0.178056 0.707865
O O11 0.500000 0.500000 0.000000
O O12 0.650924 0.404673 0.139539
O O13 0.500000 0.500000 0.500000
O O14 0.162286 0.450937 0.480199
O O15 0.072165 0.232239 0.430545
#
# Coordination Sequence:
#
# PCOD9107663 Si02
#       7
#     2   2   2   2   2   2   2
#     4  10  19  36  60  88 122 165 187 244 306 361
#     4  11  21  36  59  96 126 160 194 246 300 366
#     4  10  22  47  66  81 115 167 212 253 298 351
#     4  10  16  35  56  88 126 156 190 233 310 362
#     4  10  24  42  63  88 124 156 207 256 298 347
#     4  10  19  36  63  87 114 163 202 243 298 356
#     4  11  19  35  61  88 131 158 190 238 305 372
#
# _framework density 26.470549999999999
#
# number of rings (size 3 to 8) (size 9 to 14) (size 15 to 20)
#    0.000    1.714    5.714    1.714    0.000    1.143 
#    5.143    1.429    0.000    0.000    0.000    0.000 
#    0.000    0.000    0.000    0.000    0.000    0.000 
#
# Total GULP energy -78389.346384 kJ/mol
# GULP energy per Si atom -5599.239027 kJ/mol
# Density = 2.641030 g / cm^3
# Si number density = 26.470550 Si / 1000 Ang^3
#
#
#
# Elastic Constant Matrix: (Units=GPa)
#
#
# Indices 1 2 3 4 5 6 
#
# 1 65.8318 1.7577 42.7291 -4.2800 -25.6414 -10.3967
# 2 1.7577 145.6350 95.0115 -4.9292 -20.9981 1.4926
# 3 42.7291 95.0115 272.9190 -15.4895 -38.1965 -10.0856
# 4 -4.2800 -4.9292 -15.4895 60.5116 0.2903 3.0967
# 5 -25.6414 -20.9981 -38.1965 0.2903 45.9891 2.2900
# 6 -10.3967 1.4926 -10.0856 3.0967 2.2900 19.2070
#
#
#
# Elastic Compliance Matrix: (Units=1/GPa)
#
#
# Indices 1 2 3 4 5 6 
#
# 1 0.022773 0.003022 -0.002641 0.000653 0.011419 0.009239
# 2 0.003022 0.009519 -0.003363 0.000179 0.003302 -0.001292
# 3 -0.002641 -0.003363 0.005566 0.000884 0.001539 0.001429
# 4 0.000653 0.000179 0.000884 0.016913 0.001176 -0.002063
# 5 0.011419 0.003302 0.001539 0.001176 0.030746 0.002878
# 6 0.009239 -0.001292 0.001429 -0.002063 0.002878 0.057905
#
#
# Mechanical properties :
#
#
# Convention : Reuss Voigt Hill
#
# Bulk Modulus (GPa) = 31.35225 84.82026 58.08625
# Shear Modulus (GPa) = 31.24666 48.13405 39.69036
#
# Velocity S-wave (km/s) = 3.43947 4.26890 3.87643
# Velocity P-wave (km/s) = 5.25768 7.51071 6.48282
#
# Compressibility (1/GPa) = 0.03189564
#
# Stress axis : x y z
#
# Youngs Moduli (GPa) = 43.91189 105.05295 179.64767
#
# Poissons Ratio (x) = -0.31745 0.47439
# Poissons Ratio (y) = -0.13269 0.60407
# Poissons Ratio (z) = 0.11596 0.35324
#
# Static dielectric constant tensor:
#      x y z
#    x 2.181680 0.002650 -0.016390 
#    y 0.002650 2.052970 -0.034870 
#    z -0.016390 -0.034870 2.101910 
# 
# From -- ./inp_files/254126.got.cif
#   From: 2010.05.17/outbox.cif.g08.bks.cpg/sg2_128_cif.got.tgz:254126.got - 2010.06.03 11:33:40.
