data_PCOD9107309
_publ_section_title
;
Structure prediction by ZEFSAII (Michael W. Deem and Ramdas Pophale) SiO2 
 PCOD9107309
Probable space group: P -1
;
_chemical_formula_sum "Si O2"
_cell_formula_units_Z 16
_cell_length_a 13.897158
_cell_length_b 11.653261
_cell_length_c 12.449097
_cell_angle_alpha 99.815422
_cell_angle_beta 98.205661
_cell_angle_gamma 20.573800
_cell_volume 697.283422
_symmetry_space_group_name_H-M "P -1"
_symmetry_group_IT_number 2
_symmetry_cell_setting 'triclinic'
loop_
_space_group_symop_operation_xyz
x,y,z
-x,-y,-z
loop_
_atom_site_type_symbol
_atom_site_label
_atom_site_fract_x
_atom_site_fract_y
_atom_site_fract_z
Si Si1 0.483016 0.892978 0.534468
Si Si2 0.149878 0.042513 0.169585
Si Si3 0.653348 0.526316 0.317462
Si Si4 0.304245 0.383290 0.961286
Si Si5 0.257685 0.662299 0.105822
Si Si6 0.179727 0.345260 0.103283
Si Si7 0.759619 0.147090 0.253127
Si Si8 0.995168 0.663833 0.332513
O O1 0.571751 0.697966 0.430433
O O2 0.700646 0.651979 0.627400
O O3 0.500000 0.000000 0.500000
O O4 0.187680 0.190002 0.581383
O O5 0.931406 0.258929 0.263702
O O6 0.977271 0.312712 0.101531
O O7 0.415287 0.794577 0.231821
O O8 0.216892 0.841991 0.094658
O O9 0.695144 0.344488 0.326630
O O10 0.554764 0.031591 0.895193
O O11 0.348666 0.471023 0.997999
O O12 0.280809 0.355768 0.072527
O O13 0.487930 0.406566 0.193001
O O14 0.980555 0.926644 0.159523
O O15 0.011497 0.559263 0.216914
O O16 0.000000 0.500000 0.000000
O O17 0.865916 0.930018 0.315422
#
# Coordination Sequence:
#
# PCOD9107309 Si02
#       8
#     2   2   2   2   2   2   2   2
#     4  12  29  48  72 100 135 181 230 288 338 416
#     4  10  23  40  72  99 138 181 217 283 338 402
#     4  10  24  46  67 104 135 174 231 283 345 392
#     4  11  24  40  65 100 139 184 230 267 336 408
#     4  10  20  40  64 104 141 174 222 273 337 401
#     4  11  27  42  66 100 138 185 227 281 322 409
#     4  10  21  41  72  99 138 174 222 287 335 413
#     4  12  26  47  73 100 136 183 227 281 353 387
#
# _framework density 22.946193999999998
#
# number of rings (size 3 to 8) (size 9 to 14) (size 15 to 20)
#    0.000    1.250    1.250    3.000    7.000    1.000 
#    0.000    3.750    0.000    0.000    0.000    0.000 
#    0.000    0.000    0.000    0.000    0.000    0.000 
#
# Total GULP energy -89654.517751 kJ/mol
# GULP energy per Si atom -5603.407359 kJ/mol
# Density = 2.289397 g / cm^3
# Si number density = 22.946194 Si / 1000 Ang^3
#
#
#
# Elastic Constant Matrix: (Units=GPa)
#
#
# Indices 1 2 3 4 5 6 
#
# 1 58.2679 16.9276 30.7965 11.3439 4.0880 12.5298
# 2 16.9276 96.6332 18.2960 -3.2453 9.3995 28.8837
# 3 30.7965 18.2960 85.5443 24.3931 18.1002 25.1491
# 4 11.3439 -3.2453 24.3931 44.5594 5.3695 -8.7151
# 5 4.0880 9.3995 18.1002 5.3695 38.6160 4.1427
# 6 12.5298 28.8837 25.1491 -8.7151 4.1427 38.5019
#
#
#
# Elastic Compliance Matrix: (Units=1/GPa)
#
#
# Indices 1 2 3 4 5 6 
#
# 1 0.022114 -0.002295 -0.006381 -0.002952 0.001852 -0.002174
# 2 -0.002295 0.013875 0.002068 -0.001365 -0.002731 -0.011028
# 3 -0.006381 0.002068 0.024383 -0.014168 -0.007375 -0.017815
# 4 -0.002952 -0.001365 -0.014168 0.034513 0.000448 0.019003
# 5 0.001852 -0.002731 -0.007375 0.000448 0.029416 0.003200
# 6 -0.002174 -0.011028 -0.017815 0.019003 0.003200 0.050547
#
#
# Mechanical properties :
#
#
# Convention : Reuss Voigt Hill
#
# Bulk Modulus (GPa) = 21.20686 41.38728 31.29707
# Shear Modulus (GPa) = 24.53597 35.96383 30.24990
#
# Velocity S-wave (km/s) = 3.27354 3.96322 3.63478
# Velocity P-wave (km/s) = 4.85285 6.24649 5.59325
#
# Compressibility (1/GPa) = 0.04715456
#
# Stress axis : x y z
#
# Youngs Moduli (GPa) = 45.22056 72.07258 41.01246
#
# Poissons Ratio (x) = 0.16541 0.26171
# Poissons Ratio (y) = 0.10378 -0.08480
# Poissons Ratio (z) = 0.28856 -0.14902
#
# Static dielectric constant tensor:
#      x y z
#    x 1.912150 0.008480 -0.013230 
#    y 0.008480 1.839120 0.001940 
#    z -0.013230 0.001940 1.802880 
# 
# From -- ./inp_files/433635.got.cif
#   From: 2010.05.17/outbox.cif.g08.bks.cpg/sg2_217_cif.got.tgz:433635.got - 2010.06.03 11:33:40.
