data_PCOD9107207
_publ_section_title
;
Structure prediction by ZEFSAII (Michael W. Deem and Ramdas Pophale) SiO2 
 PCOD9107207
Probable space group: P -1
;
_chemical_formula_sum "Si O2"
_cell_formula_units_Z 16
_cell_length_a 9.972279
_cell_length_b 17.590849
_cell_length_c 9.613023
_cell_angle_alpha 69.844928
_cell_angle_beta 60.486346
_cell_angle_gamma 122.679733
_cell_volume 682.392347
_symmetry_space_group_name_H-M "P -1"
_symmetry_group_IT_number 2
_symmetry_cell_setting 'triclinic'
loop_
_space_group_symop_operation_xyz
x,y,z
-x,-y,-z
loop_
_atom_site_type_symbol
_atom_site_label
_atom_site_fract_x
_atom_site_fract_y
_atom_site_fract_z
Si Si1 0.993411 0.414685 0.143712
Si Si2 0.842512 0.364093 0.564258
Si Si3 0.600225 0.083144 0.539196
Si Si4 0.609916 0.109744 0.993267
Si Si5 0.556023 0.555674 0.777759
Si Si6 0.046553 0.125613 0.524018
Si Si7 0.117417 0.074879 0.048073
Si Si8 0.201415 0.253604 0.086272
O O1 0.016660 0.440520 0.280189
O O2 0.686733 0.217302 0.407754
O O3 0.000000 0.500000 0.000000
O O4 0.292850 0.498465 0.897845
O O5 0.000000 0.500000 0.500000
O O6 0.844792 0.279154 0.696159
O O7 0.483168 0.219634 0.794932
O O8 0.935983 0.193042 0.319330
O O9 0.500000 0.000000 0.500000
O O10 0.354505 0.935656 0.868300
O O11 0.316308 0.033213 0.230077
O O12 0.500000 0.000000 0.000000
O O13 0.855610 0.749214 0.518379
O O14 0.500000 0.500000 0.000000
O O15 0.494517 0.445856 0.791710
O O16 0.237201 0.210045 0.228614
O O17 0.079372 0.067162 0.650358
O O18 0.099981 0.158821 0.061382
O O19 0.000000 0.000000 0.000000
#
# Coordination Sequence:
#
# PCOD9107207 Si02
#       8
#     2   2   2   2   2   2   2   2
#     4  11  25  42  66  99 136 173 220 287 341 397
#     4  11  27  43  64  97 137 178 224 270 346 411
#     4  10  22  38  65  93 125 173 224 272 333 398
#     4  10  20  40  63  91 129 171 224 276 327 392
#     4   9  20  39  69  93 122 169 232 267 323 395
#     4   9  20  37  63  93 118 171 220 265 319 395
#     4  11  25  41  63  95 134 170 212 277 339 387
#     4   9  20  39  62  90 124 168 224 265 319 399
#
# _framework density 23.446919000000001
#
# number of rings (size 3 to 8) (size 9 to 14) (size 15 to 20)
#    0.000    2.000    1.250    1.125    8.750    0.000 
#    0.000    0.625    0.000    0.000    0.000    0.000 
#    0.000    0.000    0.000    0.000    0.000    0.000 
#
# Total GULP energy -89265.047806 kJ/mol
# GULP energy per Si atom -5579.065488 kJ/mol
# Density = 2.339355 g / cm^3
# Si number density = 23.446919 Si / 1000 Ang^3
#
#
#
# Elastic Constant Matrix: (Units=GPa)
#
#
# Indices 1 2 3 4 5 6 
#
# 1 97.3371 43.2665 51.2494 -16.0709 31.4678 -3.8509
# 2 43.2665 207.5547 48.0286 -10.6650 42.3091 -1.3856
# 3 51.2494 48.0286 81.1868 -7.4738 28.2222 0.6384
# 4 -16.0709 -10.6650 -7.4738 33.7991 -0.4680 5.8017
# 5 31.4678 42.3091 28.2222 -0.4680 48.7926 -4.3790
# 6 -3.8509 -1.3856 0.6384 5.8017 -4.3790 36.6799
#
#
#
# Elastic Compliance Matrix: (Units=1/GPa)
#
#
# Indices 1 2 3 4 5 6 
#
# 1 0.017936 -0.000135 -0.008378 0.006506 -0.006523 0.000216
# 2 -0.000135 0.006238 -0.002009 0.001484 -0.004189 -0.000478
# 3 -0.008378 -0.002009 0.020530 0.000185 -0.004901 -0.001927
# 4 0.006506 0.001484 0.000185 0.034025 -0.005742 -0.005331
# 5 -0.006523 -0.004189 -0.004901 -0.005742 0.031465 0.003907
# 6 0.000216 -0.000478 -0.001927 -0.005331 0.003907 0.028611
#
#
# Mechanical properties :
#
#
# Convention : Reuss Voigt Hill
#
# Bulk Modulus (GPa) = 42.26239 74.57418 58.41829
# Shear Modulus (GPa) = 29.80926 40.08993 34.94960
#
# Velocity S-wave (km/s) = 3.56947 4.13948 3.86500
# Velocity P-wave (km/s) = 5.92047 7.39741 6.69976
#
# Compressibility (1/GPa) = 0.02366170
#
# Stress axis : x y z
#
# Youngs Moduli (GPa) = 55.75400 160.31130 48.70956
#
# Poissons Ratio (x) = 0.02162 0.40807
# Poissons Ratio (y) = 0.00752 0.09783
# Poissons Ratio (z) = 0.46708 0.32199
#
# Static dielectric constant tensor:
#      x y z
#    x 1.979600 -0.011820 -0.075100 
#    y -0.011820 1.866620 -0.042440 
#    z -0.075100 -0.042440 1.957920 
# 
# From -- ./inp_files/277780.got.cif
#   From: 2010.05.17/outbox.cif.g08.bks.cpg/sg2_139_cif.got.tgz:277780.got - 2010.06.03 11:33:40.
