data_PCOD9107080
_publ_section_title
;
Structure prediction by ZEFSAII (Michael W. Deem and Ramdas Pophale) SiO2 
 PCOD9107080
Probable space group: P -1
;
_chemical_formula_sum "Si O2"
_cell_formula_units_Z 15
_cell_length_a 11.812010
_cell_length_b 5.358270
_cell_length_c 23.485317
_cell_angle_alpha 121.464221
_cell_angle_beta 152.127061
_cell_angle_gamma 67.833837
_cell_volume 579.410169
_symmetry_space_group_name_H-M "P -1"
_symmetry_group_IT_number 2
_symmetry_cell_setting 'triclinic'
loop_
_space_group_symop_operation_xyz
x,y,z
-x,-y,-z
loop_
_atom_site_type_symbol
_atom_site_label
_atom_site_fract_x
_atom_site_fract_y
_atom_site_fract_z
Si Si1 0.015324 0.752349 0.084156
Si Si2 0.000699 0.717559 0.605088
Si Si3 0.249583 0.784885 0.839683
Si Si4 0.000000 0.000000 0.500000
Si Si5 0.385671 0.581438 0.054407
Si Si6 0.402364 0.914808 0.714525
Si Si7 0.955788 0.634859 0.797051
Si Si8 0.547611 0.350244 0.654331
O O1 0.251267 0.762848 0.231252
O O2 0.041717 0.099075 0.124025
O O3 0.000000 0.500000 0.000000
O O4 0.759611 0.654747 0.993075
O O5 0.170915 0.852151 0.749546
O O6 0.127692 0.834471 0.614448
O O7 0.736223 0.811206 0.501247
O O8 0.975170 0.356205 0.553825
O O9 0.343693 0.475404 0.841815
O O10 0.019203 0.755434 0.776475
O O11 0.500000 0.000000 0.000000
O O12 0.308747 0.110120 0.647483
O O13 0.419476 0.898303 0.138459
O O14 0.204948 0.529396 0.914067
O O15 0.502774 0.643860 0.702934
O O16 0.695217 0.421065 0.668569
#
# Coordination Sequence:
#
# PCOD9107080 Si02
#       8
#     2   2   2   1   2   2   2   2
#     4  11  23  40  66  96 135 177 215 276 335 388
#     4  11  25  42  67 102 133 177 219 276 331 393
#     4  12  24  45  71  95 133 176 225 274 334 393
#     4  10  20  40  62  98 132 172 212 262 338 384
#     4  11  23  41  67 100 126 172 225 277 329 391
#     4  11  22  39  68 101 134 166 220 274 335 388
#     4  11  24  42  65  92 134 177 218 276 323 394
#     4  10  24  41  62  97 137 170 220 267 333 401
#
# _framework density 25.888397000000001
#
# number of rings (size 3 to 8) (size 9 to 14) (size 15 to 20)
#    0.000    1.067    2.667    4.400    1.867    8.000 
#    0.000    0.667    0.000    0.000    0.000    0.000 
#    0.000    0.000    0.000    0.000    0.000    0.000 
#
# Total GULP energy -83622.162480 kJ/mol
# GULP energy per Si atom -5574.810832 kJ/mol
# Density = 2.582947 g / cm^3
# Si number density = 25.888397 Si / 1000 Ang^3
#
#
#
# Elastic Constant Matrix: (Units=GPa)
#
#
# Indices 1 2 3 4 5 6 
#
# 1 114.1301 2.5779 42.9672 -1.7727 18.6504 -0.5329
# 2 2.5779 46.2510 9.8660 -15.9894 7.5002 -16.9672
# 3 42.9672 9.8660 130.6967 -24.5737 6.4055 -0.2299
# 4 -1.7727 -15.9894 -24.5737 29.6460 -7.9292 9.9478
# 5 18.6504 7.5002 6.4055 -7.9292 46.9778 1.7341
# 6 -0.5329 -16.9672 -0.2299 9.9478 1.7341 27.4393
#
#
#
# Elastic Compliance Matrix: (Units=1/GPa)
#
#
# Indices 1 2 3 4 5 6 
#
# 1 0.011111 0.000287 -0.004354 -0.004882 -0.004777 0.002429
# 2 0.000287 0.031864 -0.000310 0.010452 -0.003992 0.016169
# 3 -0.004354 -0.000310 0.011001 0.010701 0.002240 -0.004205
# 4 -0.004882 0.010452 0.010701 0.054947 0.008602 -0.014006
# 5 -0.004777 -0.003992 0.002240 0.008602 0.025235 -0.007255
# 6 0.002429 0.016169 -0.004205 -0.014006 -0.007255 0.051990
#
#
# Mechanical properties :
#
#
# Convention : Reuss Voigt Hill
#
# Bulk Modulus (GPa) = 22.11362 44.65555 33.38459
# Shear Modulus (GPa) = 23.81226 36.52373 30.16800
#
# Velocity S-wave (km/s) = 3.03612 3.76016 3.41737
# Velocity P-wave (km/s) = 4.56630 6.01152 5.33805
#
# Compressibility (1/GPa) = 0.04522101
#
# Stress axis : x y z
#
# Youngs Moduli (GPa) = 90.00300 31.38377 90.90071
#
# Poissons Ratio (x) = -0.00902 0.39578
# Poissons Ratio (y) = -0.02586 0.02822
# Poissons Ratio (z) = 0.39187 0.00974
#
# Static dielectric constant tensor:
#      x y z
#    x 1.961610 -0.147230 0.128560 
#    y -0.147230 1.954310 0.197030 
#    z 0.128560 0.197030 1.956050 
# 
# From -- ./inp_files/71403.got.cif
#   From: 2010.05.17/outbox.cif.g08.bks.cpg/sg2_36_cif.got.tgz:71403.got - 2010.06.03 11:33:40.
