data_PCOD9107677
_publ_section_title
;
Structure prediction by ZEFSAII (Michael W. Deem and Ramdas Pophale) SiO2 
 PCOD9107677
Probable space group: P -1
;
_chemical_formula_sum "Si O2"
_cell_formula_units_Z 16
_cell_length_a 23.466393
_cell_length_b 9.297987
_cell_length_c 19.679102
_cell_angle_alpha 40.675101
_cell_angle_beta 160.785465
_cell_angle_gamma 147.764819
_cell_volume 733.588832
_symmetry_space_group_name_H-M "P -1"
_symmetry_group_IT_number 2
_symmetry_cell_setting 'triclinic'
loop_
_space_group_symop_operation_xyz
x,y,z
-x,-y,-z
loop_
_atom_site_type_symbol
_atom_site_label
_atom_site_fract_x
_atom_site_fract_y
_atom_site_fract_z
Si Si1 0.913355 0.763008 0.082520
Si Si2 0.061188 0.411745 0.437930
Si Si3 0.348983 0.708999 0.148129
Si Si4 0.507137 0.740115 0.885987
Si Si5 0.710403 0.675777 0.016076
Si Si6 0.252746 0.384315 0.274869
Si Si7 0.810096 0.877739 0.567533
Si Si8 0.736934 0.818899 0.345660
O O1 0.752836 0.760646 0.955173
O O2 0.993671 0.593579 0.266127
O O3 0.780749 0.574945 0.937155
O O4 0.108437 0.084686 0.182912
O O5 0.256912 0.603293 0.642090
O O6 0.155169 0.309979 0.524452
O O7 0.869209 0.136238 0.358620
O O8 0.252978 0.611216 0.151044
O O9 0.603662 0.848213 0.376464
O O10 0.345652 0.953827 0.026347
O O11 0.500000 0.500000 0.000000
O O12 0.612196 0.785618 0.914113
O O13 0.510481 0.349956 0.900746
O O14 0.953019 0.822241 0.266580
O O15 0.500000 0.500000 0.500000
O O16 0.185254 0.322014 0.300749
O O17 0.758509 0.800941 0.457631
#
# Coordination Sequence:
#
# PCOD9107677 Si02
#       8
#     2   2   2   2   2   2   2   2
#     4  11  22  40  65  96 124 167 211 263 314 376
#     4  10  23  38  62  88 132 164 213 252 321 375
#     4  11  23  40  68  92 125 170 215 253 320 379
#     4  11  24  41  63  93 128 171 210 257 321 379
#     4  10  22  38  62  89 131 157 212 261 310 369
#     4   9  20  40  66  90 122 164 213 266 308 373
#     4  10  20  40  65  91 126 163 213 262 315 364
#     4  10  21  39  59  93 127 170 205 263 310 381
#
# _framework density 21.810582
#
# number of rings (size 3 to 8) (size 9 to 14) (size 15 to 20)
#    0.000    1.750    1.250    3.375    7.000    1.500 
#    0.000    6.875    2.750    3.000    0.000    0.000 
#    0.000    0.000    0.000    0.000    0.000    0.000 
#
# Total GULP energy -89081.805475 kJ/mol
# GULP energy per Si atom -5567.612842 kJ/mol
# Density = 2.176094 g / cm^3
# Si number density = 21.810582 Si / 1000 Ang^3
#
#
#
# Elastic Constant Matrix: (Units=GPa)
#
#
# Indices 1 2 3 4 5 6 
#
# 1 50.4200 30.6126 -1.5409 39.6802 -10.2572 14.8009
# 2 30.6126 131.4689 27.0569 50.3194 -3.6538 17.6851
# 3 -1.5409 27.0569 76.3024 57.7044 -1.2917 14.0273
# 4 39.6802 50.3194 57.7044 13.2201 5.8405 -3.2211
# 5 -10.2572 -3.6538 -1.2917 5.8405 25.3460 6.0363
# 6 14.8009 17.6851 14.0273 -3.2211 6.0363 24.7247
#
#
#
# Elastic Compliance Matrix: (Units=1/GPa)
#
#
# Indices 1 2 3 4 5 6 
#
# 1 0.014065 -0.006651 -0.006681 0.012022 0.001294 0.001378
# 2 -0.006651 0.009782 -0.003936 0.000491 -0.001512 -0.000350
# 3 -0.006681 -0.003936 0.007057 0.008224 -0.006085 0.005367
# 4 0.012022 0.000491 0.008224 -0.006732 0.010643 -0.015689
# 5 0.001294 -0.001512 -0.006085 0.010643 0.037980 -0.004128
# 6 0.001378 -0.000350 0.005367 -0.015689 -0.004128 0.035789
#
#
# Mechanical properties :
#
#
# Convention : Reuss Voigt Hill
#
# Bulk Modulus (GPa) = -275.50270 41.16095 -117.17088
# Shear Modulus (GPa) = 38.09045 26.12901 32.10973
#
# Velocity S-wave (km/s) = 4.18355 3.46496 3.84110
# Velocity P-wave (km/s) = 10.16140 5.90939 5.84522
#
# Compressibility (1/GPa) = -0.00362973
#
# Stress axis : x y z
#
# Youngs Moduli (GPa) = 71.09758 102.22782 141.70002
#
# Poissons Ratio (x) = 0.67990 0.94663
# Poissons Ratio (y) = 0.47286 0.55769
# Poissons Ratio (z) = 0.47497 0.40234
#
# Static dielectric constant tensor:
#      x y z
#    x 1.850420 0.005030 -0.034550 
#    y 0.005030 1.807570 -0.020220 
#    z -0.034550 -0.020220 1.855400 
# 
# From -- ./inp_files/528022.got.cif
#   From: 2010.05.17/outbox.cif.g08.bks.cpg/sg2_265_cif.got.tgz:528022.got - 2010.06.03 11:33:40.
