data_PCOD9107304
_publ_section_title
;
Structure prediction by ZEFSAII (Michael W. Deem and Ramdas Pophale) SiO2 
 PCOD9107304
Probable space group: P -1
;
_chemical_formula_sum "Si O2"
_cell_formula_units_Z 16
_cell_length_a 5.340933
_cell_length_b 11.064026
_cell_length_c 11.845695
_cell_angle_alpha 96.115665
_cell_angle_beta 80.828159
_cell_angle_gamma 117.527750
_cell_volume 612.372357
_symmetry_space_group_name_H-M "P -1"
_symmetry_group_IT_number 2
_symmetry_cell_setting 'triclinic'
loop_
_space_group_symop_operation_xyz
x,y,z
-x,-y,-z
loop_
_atom_site_type_symbol
_atom_site_label
_atom_site_fract_x
_atom_site_fract_y
_atom_site_fract_z
Si Si1 0.098264 0.895124 0.241320
Si Si2 0.876491 0.423605 0.619284
Si Si3 0.855637 0.672364 0.042065
Si Si4 0.633271 0.092258 0.337181
Si Si5 0.633105 0.859299 0.438310
Si Si6 0.418979 0.511699 0.754321
Si Si7 0.793849 0.891677 0.917386
Si Si8 0.263659 0.729217 0.844776
O O1 0.031102 0.782854 0.138229
O O2 0.877847 0.837051 0.354949
O O3 0.419710 0.961798 0.267361
O O4 0.072614 0.024747 0.200014
O O5 0.661491 0.264045 0.599151
O O6 0.675831 0.488730 0.685634
O O7 0.000000 0.500000 0.500000
O O8 0.134587 0.447670 0.688557
O O9 0.636606 0.553141 0.122935
O O10 0.035080 0.629229 0.937979
O O11 0.760233 0.754417 0.968179
O O12 0.435036 0.146161 0.424747
O O13 0.827519 0.211070 0.249941
O O14 0.731438 0.019157 0.417232
O O15 0.460550 0.664828 0.778109
O O16 0.466114 0.858413 0.919060
O O17 0.000000 0.000000 0.000000
#
# Coordination Sequence:
#
# PCOD9107304 Si02
#       8
#     2   2   2   2   2   2   2   2
#     4  10  20  40  64 102 139 184 238 296 366 430
#     4  12  28  52  78 107 145 195 244 301 365 435
#     4  11  23  41  69 102 143 192 241 295 354 433
#     4  10  23  41  66 104 138 187 240 303 371 428
#     4  11  22  42  71 100 140 183 242 309 361 437
#     4  12  28  48  77 108 146 193 249 298 359 433
#     4   9  22  38  65  99 138 188 234 295 356 426
#     4  11  25  44  67 103 149 191 241 299 360 431
#
# _framework density 26.127893
#
# number of rings (size 3 to 8) (size 9 to 14) (size 15 to 20)
#    0.000    1.250    1.250    3.375    3.500    7.000 
#    9.000    0.000    0.000    0.000    0.000    0.000 
#    0.000    0.000    0.000    0.000    0.000    0.000 
#
# Total GULP energy -89270.703492 kJ/mol
# GULP energy per Si atom -5579.418968 kJ/mol
# Density = 2.606843 g / cm^3
# Si number density = 26.127893 Si / 1000 Ang^3
#
#
#
# Elastic Constant Matrix: (Units=GPa)
#
#
# Indices 1 2 3 4 5 6 
#
# 1 88.5433 26.9137 41.1557 -10.1630 -11.2832 -4.3713
# 2 26.9137 104.0188 43.8107 -13.9517 1.0901 -6.1898
# 3 41.1557 43.8107 152.1250 -39.4181 -22.3343 -9.6935
# 4 -10.1630 -13.9517 -39.4181 48.8519 10.6161 6.6287
# 5 -11.2832 1.0901 -22.3343 10.6161 45.8281 5.9738
# 6 -4.3713 -6.1898 -9.6935 6.6287 5.9738 47.1221
#
#
#
# Elastic Compliance Matrix: (Units=1/GPa)
#
#
# Indices 1 2 3 4 5 6 
#
# 1 0.013543 -0.002420 -0.002802 -0.000626 0.002148 0.000178
# 2 -0.002420 0.011614 -0.002740 0.001036 -0.002567 0.000917
# 3 -0.002802 -0.002740 0.010157 0.006175 0.002864 0.000238
# 4 -0.000626 0.001036 0.006175 0.026554 -0.003060 -0.001999
# 5 0.002148 -0.002567 0.002864 -0.003060 0.024810 -0.002264
# 6 0.000178 0.000917 0.000238 -0.001999 -0.002264 0.021976
#
#
# Mechanical properties :
#
#
# Convention : Reuss Voigt Hill
#
# Bulk Modulus (GPa) = 51.57605 63.16081 57.36843
# Shear Modulus (GPa) = 38.15605 43.88089 41.01847
#
# Velocity S-wave (km/s) = 3.82561 4.10257 3.96651
# Velocity P-wave (km/s) = 6.26868 6.83137 6.55607
#
# Compressibility (1/GPa) = 0.01938884
#
# Stress axis : x y z
#
# Youngs Moduli (GPa) = 73.84096 86.10135 98.45910
#
# Poissons Ratio (x) = 0.20832 0.27593
# Poissons Ratio (y) = 0.17866 0.26980
# Poissons Ratio (z) = 0.20694 0.23594
#
# Static dielectric constant tensor:
#      x y z
#    x 2.196310 0.051650 -0.068060 
#    y 0.051650 1.980530 0.172130 
#    z -0.068060 0.172130 1.905700 
# 
# From -- ./inp_files/69586.got.cif
#   From: 2010.05.17/outbox.cif.g08.bks.cpg/sg2_35_cif.got.tgz:69586.got - 2010.06.03 11:33:40.
