data_PCOD9107655
_publ_section_title
;
Structure prediction by ZEFSAII (Michael W. Deem and Ramdas Pophale) SiO2 
 PCOD9107655
Probable space group: P -1
;
_chemical_formula_sum "Si O2"
_cell_formula_units_Z 16
_cell_length_a 8.209987
_cell_length_b 16.118786
_cell_length_c 8.013334
_cell_angle_alpha 85.237270
_cell_angle_beta 125.176932
_cell_angle_gamma 124.441965
_cell_volume 666.856175
_symmetry_space_group_name_H-M "P -1"
_symmetry_group_IT_number 2
_symmetry_cell_setting 'triclinic'
loop_
_space_group_symop_operation_xyz
x,y,z
-x,-y,-z
loop_
_atom_site_type_symbol
_atom_site_label
_atom_site_fract_x
_atom_site_fract_y
_atom_site_fract_z
Si Si1 0.586253 0.902329 0.908532
Si Si2 0.236355 0.315609 0.448131
Si Si3 0.962823 0.333916 0.770542
Si Si4 0.774750 0.282191 0.044947
Si Si5 0.559391 0.760120 0.648623
Si Si6 0.890572 0.151702 0.550474
Si Si7 0.086799 0.027425 0.355477
Si Si8 0.725760 0.449726 0.936825
O O1 0.428083 0.839645 0.992938
O O2 0.617773 0.822966 0.843120
O O3 0.396429 0.905999 0.681132
O O4 0.863144 0.007679 0.110892
O O5 0.305086 0.288569 0.319214
O O6 0.500563 0.409731 0.679891
O O7 0.035364 0.336108 0.295377
O O8 0.082770 0.209957 0.495029
O O9 0.746760 0.327836 0.541307
O O10 0.983766 0.252003 0.704782
O O11 0.851389 0.291711 0.897325
O O12 0.212807 0.457698 0.921340
O O13 0.660975 0.343675 0.997201
O O14 0.658178 0.853907 0.553798
O O15 0.887996 0.063388 0.655628
O O16 0.000000 0.000000 0.500000
O O17 0.000000 0.500000 0.000000
#
# Coordination Sequence:
#
# PCOD9107655 Si02
#       8
#     2   2   2   2   2   2   2   2
#     4  10  24  42  60  93 129 159 205 255 308 365
#     4  11  21  40  63  93 128 159 207 254 305 367
#     4  10  22  42  65  89 127 163 204 260 305 360
#     4  10  21  40  64  90 121 169 200 252 309 362
#     4  11  22  42  61  92 129 163 203 262 301 363
#     4  10  24  43  62  95 125 159 207 256 307 368
#     4  12  23  41  68  91 121 167 207 251 314 364
#     4  10  20  40  65  90 126 161 208 252 308 360
#
# _framework density 23.993181
#
# number of rings (size 3 to 8) (size 9 to 14) (size 15 to 20)
#    0.000    1.500    3.750    1.875    1.750    5.000 
#    2.250    5.625    0.000    0.000    0.000    0.000 
#    0.000    0.000    0.000    0.000    0.000    0.000 
#
# Total GULP energy -89468.271213 kJ/mol
# GULP energy per Si atom -5591.766951 kJ/mol
# Density = 2.393857 g / cm^3
# Si number density = 23.993181 Si / 1000 Ang^3
#
#
#
# Elastic Constant Matrix: (Units=GPa)
#
#
# Indices 1 2 3 4 5 6 
#
# 1 67.8348 -4.8284 7.4423 3.0295 -3.3672 -7.5196
# 2 -4.8284 13.7752 4.1123 -2.8550 7.9461 -9.4145
# 3 7.4423 4.1123 126.1096 20.0535 26.2420 -6.9790
# 4 3.0295 -2.8550 20.0535 26.3809 5.9847 -2.1143
# 5 -3.3672 7.9461 26.2420 5.9847 32.0342 -0.3836
# 6 -7.5196 -9.4145 -6.9790 -2.1143 -0.3836 34.4451
#
#
#
# Elastic Compliance Matrix: (Units=1/GPa)
#
#
# Indices 1 2 3 4 5 6 
#
# 1 0.016257 0.010401 -0.001031 0.000553 -0.000056 0.006216
# 2 0.010401 0.126965 0.001030 0.022773 -0.035041 0.038189
# 3 -0.001031 0.001030 0.010653 -0.005920 -0.007963 0.001763
# 4 0.000553 0.022773 -0.005920 0.047610 -0.009540 0.007962
# 5 -0.000056 -0.035041 -0.007963 -0.009540 0.048074 -0.011253
# 6 0.006216 0.038189 0.001763 0.007962 -0.011253 0.041547
#
#
# Mechanical properties :
#
#
# Convention : Reuss Voigt Hill
#
# Bulk Modulus (GPa) = 5.72493 24.57468 15.14981
# Shear Modulus (GPa) = 15.21926 31.97160 23.59543
#
# Velocity S-wave (km/s) = 2.52130 3.65434 3.13936
# Velocity P-wave (km/s) = 3.29654 5.29813 4.41233
#
# Compressibility (1/GPa) = 0.17467462
#
# Stress axis : x y z
#
# Youngs Moduli (GPa) = 61.51294 7.87617 93.87100
#
# Poissons Ratio (x) = -0.08192 0.09678
# Poissons Ratio (y) = -0.63980 -0.09666
# Poissons Ratio (z) = 0.06342 -0.00811
#
# Static dielectric constant tensor:
#      x y z
#    x 1.959480 -0.014830 -0.005960 
#    y -0.014830 1.926020 0.001480 
#    z -0.005960 0.001480 1.906320 
# 
# From -- ./inp_files/217752.got.cif
#   From: 2010.05.17/outbox.cif.g08.bks.cpg/sg2_109_cif.got.tgz:217752.got - 2010.06.03 11:33:40.
