data_PCOD9107241
_publ_section_title
;
Structure prediction by ZEFSAII (Michael W. Deem and Ramdas Pophale) SiO2 
 PCOD9107241
Probable space group: P -1
;
_chemical_formula_sum "Si O2"
_cell_formula_units_Z 14
_cell_length_a 16.992707
_cell_length_b 8.739430
_cell_length_c 9.789316
_cell_angle_alpha 103.423463
_cell_angle_beta 58.491534
_cell_angle_gamma 55.867411
_cell_volume 684.934122
_symmetry_space_group_name_H-M "P -1"
_symmetry_group_IT_number 2
_symmetry_cell_setting 'triclinic'
loop_
_space_group_symop_operation_xyz
x,y,z
-x,-y,-z
loop_
_atom_site_type_symbol
_atom_site_label
_atom_site_fract_x
_atom_site_fract_y
_atom_site_fract_z
Si Si1 0.504500 0.162112 0.100880
Si Si2 0.465229 0.406230 0.701954
Si Si3 0.181050 0.739269 0.413305
Si Si4 0.698919 0.079039 0.681832
Si Si5 0.662301 0.081583 0.185607
Si Si6 0.021360 0.503923 0.141478
Si Si7 0.845982 0.341779 0.876720
O O1 0.612187 0.123797 0.898644
O O2 0.320673 0.485079 0.334972
O O3 0.585512 0.055314 0.153236
O O4 0.500000 0.000000 0.000000
O O5 0.568014 0.274756 0.719948
O O6 0.584539 0.183735 0.427300
O O7 0.393255 0.675840 0.779417
O O8 0.316423 0.497304 0.877339
O O9 0.233379 0.840712 0.335972
O O10 0.173493 0.639555 0.266409
O O11 0.003020 0.010931 0.693946
O O12 0.849093 0.763237 0.426993
O O13 0.855172 0.792689 0.964400
O O14 0.108762 0.549834 0.090210
O O15 0.000000 0.500000 0.000000
#
# Coordination Sequence:
#
# PCOD9107241 Si02
#       7
#     2   2   2   2   2   2   2
#     4  12  24  38  63  98 130 158 213 263 311 367
#     4  11  22  42  67  94 122 172 212 251 312 378
#     4  10  20  40  63  94 124 162 211 258 303 374
#     4  11  22  42  70  86 127 177 205 246 324 378
#     4  11  25  40  64  95 131 160 210 267 308 367
#     4  11  24  43  63  93 129 166 208 261 317 372
#     4  10  22  37  67  93 121 165 215 251 308 373
#
# _framework density 20.439921999999999
#
# number of rings (size 3 to 8) (size 9 to 14) (size 15 to 20)
#    0.000    1.143    4.286    2.143    0.000    3.429 
#    0.000    1.429    0.000    0.000    0.000    0.000 
#    0.000    0.000    0.000    0.000    0.000    0.000 
#
# Total GULP energy -78309.555484 kJ/mol
# GULP energy per Si atom -5593.539677 kJ/mol
# Density = 2.039340 g / cm^3
# Si number density = 20.439922 Si / 1000 Ang^3
#
#
#
# Elastic Constant Matrix: (Units=GPa)
#
#
# Indices 1 2 3 4 5 6 
#
# 1 105.0659 11.5266 21.1691 -4.8467 9.9028 -10.6946
# 2 11.5266 39.4409 28.2789 22.5785 -0.6724 -17.2932
# 3 21.1691 28.2789 86.2458 17.7845 -8.8849 -9.7021
# 4 -4.8467 22.5785 17.7845 35.5569 -7.6287 -7.1128
# 5 9.9028 -0.6724 -8.8849 -7.6287 40.8833 2.0021
# 6 -10.6946 -17.2932 -9.7021 -7.1128 2.0021 30.3416
#
#
#
# Elastic Compliance Matrix: (Units=1/GPa)
#
#
# Indices 1 2 3 4 5 6 
#
# 1 0.011110 -0.002812 -0.002727 0.004647 -0.002595 0.002702
# 2 -0.002812 0.062998 -0.011555 -0.031416 -0.007850 0.024373
# 3 -0.002727 -0.011555 0.016336 -0.000910 0.003988 -0.002799
# 4 0.004647 -0.031416 -0.000910 0.049733 0.007705 -0.005408
# 5 -0.002595 -0.007850 0.003988 0.007705 0.027465 -0.004120
# 6 0.002702 0.024373 -0.002799 -0.005408 -0.004120 0.045911
#
#
# Mechanical properties :
#
#
# Convention : Reuss Voigt Hill
#
# Bulk Modulus (GPa) = 17.77532 39.18909 28.48220
# Shear Modulus (GPa) = 18.76229 32.67489 25.71859
#
# Velocity S-wave (km/s) = 3.03301 4.00256 3.55103
# Velocity P-wave (km/s) = 4.58048 6.36986 5.54779
#
# Compressibility (1/GPa) = 0.05625779
#
# Stress axis : x y z
#
# Youngs Moduli (GPa) = 90.01148 15.87347 61.21373
#
# Poissons Ratio (x) = 0.04463 0.16691
# Poissons Ratio (y) = 0.25308 0.70732
# Poissons Ratio (z) = 0.24543 0.18342
#
# Static dielectric constant tensor:
#      x y z
#    x 1.710960 0.009170 0.014690 
#    y 0.009170 1.725380 0.042520 
#    z 0.014690 0.042520 1.710940 
# 
# From -- ./inp_files/150298.got.cif
#   From: 2010.05.17/outbox.cif.g08.bks.cpg/sg2_76_cif.got.tgz:150298.got - 2010.06.03 11:33:40.
