data_PCOD9107703
_publ_section_title
;
Structure prediction by ZEFSAII (Michael W. Deem and Ramdas Pophale) SiO2 
 PCOD9107703
Probable space group: P -1
;
_chemical_formula_sum "Si O2"
_cell_formula_units_Z 16
_cell_length_a 19.008528
_cell_length_b 9.185264
_cell_length_c 10.374158
_cell_angle_alpha 73.019756
_cell_angle_beta 103.983923
_cell_angle_gamma 39.560298
_cell_volume 708.799903
_symmetry_space_group_name_H-M "P -1"
_symmetry_group_IT_number 2
_symmetry_cell_setting 'triclinic'
loop_
_space_group_symop_operation_xyz
x,y,z
-x,-y,-z
loop_
_atom_site_type_symbol
_atom_site_label
_atom_site_fract_x
_atom_site_fract_y
_atom_site_fract_z
Si Si1 0.915369 0.554360 0.337959
Si Si2 0.721111 0.427347 0.767380
Si Si3 0.514832 0.346273 0.897980
Si Si4 0.112415 0.259272 0.240456
Si Si5 0.344616 0.527919 0.544978
Si Si6 0.094020 0.628270 0.176416
Si Si7 0.833777 0.436842 0.495847
Si Si8 0.498554 0.721257 0.820561
O O1 0.917915 0.374587 0.435256
O O2 0.000000 0.500000 0.500000
O O3 0.004284 0.412019 0.277564
O O4 0.715381 0.976769 0.118713
O O5 0.611491 0.621400 0.537696
O O6 0.779067 0.490156 0.796493
O O7 0.627738 0.535156 0.819367
O O8 0.905334 0.994414 0.935869
O O9 0.488208 0.294990 0.773713
O O10 0.446039 0.649081 0.776470
O O11 0.426002 0.440974 0.959507
O O12 0.175587 0.308055 0.288916
O O13 0.255639 0.859081 0.392304
O O14 0.000000 0.500000 0.000000
O O15 0.218250 0.640057 0.521424
O O16 0.060525 0.743435 0.279188
O O17 0.657910 0.863941 0.340214
#
# Coordination Sequence:
#
# PCOD9107703 Si02
#       8
#     2   2   2   2   2   2   2   2
#     4  11  24  44  73  95 129 177 220 267 328 394
#     4  10  22  41  65  96 128 177 214 270 324 388
#     4  10  24  43  65 102 129 169 222 277 318 395
#     4  12  24  43  65 100 133 171 216 276 332 383
#     4  11  25  43  63  97 141 166 217 275 328 385
#     4  10  20  40  65  92 135 166 223 262 320 394
#     4  10  23  44  67  97 130 174 222 271 320 393
#     4  10  22  42  68  94 127 175 222 261 328 390
#
# _framework density 22.573369
#
# number of rings (size 3 to 8) (size 9 to 14) (size 15 to 20)
#    0.000    1.500    2.500    1.500    3.500    5.000 
#    6.750    0.000    0.000    0.000    0.000    0.000 
#    0.000    0.000    0.000    0.000    0.000    0.000 
#
# Total GULP energy -89414.995022 kJ/mol
# GULP energy per Si atom -5588.437189 kJ/mol
# Density = 2.252199 g / cm^3
# Si number density = 22.573369 Si / 1000 Ang^3
#
#
#
# Elastic Constant Matrix: (Units=GPa)
#
#
# Indices 1 2 3 4 5 6 
#
# 1 148.4535 40.2775 35.7283 12.6982 -23.4721 -10.4247
# 2 40.2775 40.1931 25.4346 10.6950 6.3259 -14.4549
# 3 35.7283 25.4346 110.0478 30.0027 3.8537 -0.0224
# 4 12.6982 10.6950 30.0027 25.2868 7.1680 -16.2863
# 5 -23.4721 6.3259 3.8537 7.1680 31.9398 6.3745
# 6 -10.4247 -14.4549 -0.0224 -16.2863 6.3745 45.6412
#
#
#
# Elastic Compliance Matrix: (Units=1/GPa)
#
#
# Indices 1 2 3 4 5 6 
#
# 1 0.015693 -0.021457 0.003949 -0.017793 0.021815 -0.012605
# 2 -0.021457 0.066863 -0.017490 0.038538 -0.042732 0.035987
# 3 0.003949 -0.017490 0.021686 -0.038212 0.016428 -0.020556
# 4 -0.017793 0.038538 -0.038212 0.136392 -0.059706 0.065131
# 5 0.021815 -0.042732 0.016428 -0.059706 0.075277 -0.040362
# 6 -0.012605 0.035987 -0.020556 0.065131 -0.040362 0.059296
#
#
# Mechanical properties :
#
#
# Convention : Reuss Voigt Hill
#
# Bulk Modulus (GPa) = 29.20198 55.73058 42.46628
# Shear Modulus (GPa) = 10.95001 33.72382 22.33692
#
# Velocity S-wave (km/s) = 2.20485 3.86938 3.14908
# Velocity P-wave (km/s) = 4.40981 6.68618 5.66354
#
# Compressibility (1/GPa) = 0.03424425
#
# Stress axis : x y z
#
# Youngs Moduli (GPa) = 63.72096 14.95584 46.11328
#
# Poissons Ratio (x) = 0.32091 -0.18208
# Poissons Ratio (y) = 1.36728 0.80654
# Poissons Ratio (z) = -0.25161 0.26158
#
# Static dielectric constant tensor:
#      x y z
#    x 1.839660 0.002660 -0.018100 
#    y 0.002660 1.860050 0.016450 
#    z -0.018100 0.016450 1.917110 
# 
# From -- ./inp_files/462054.got.cif
#   From: 2010.05.17/outbox.cif.g08.bks.cpg/sg2_232_cif.got.tgz:462054.got - 2010.06.03 11:33:40.
