data_PCOD9107855
_publ_section_title
;
Structure prediction by ZEFSAII (Michael W. Deem and Ramdas Pophale) SiO2 
 PCOD9107855
Probable space group: P -1
;
_chemical_formula_sum "Si O2"
_cell_formula_units_Z 14
_cell_length_a 11.571411
_cell_length_b 14.373180
_cell_length_c 15.199742
_cell_angle_alpha 142.814008
_cell_angle_beta 37.609634
_cell_angle_gamma 151.141693
_cell_volume 697.728650
_symmetry_space_group_name_H-M "P -1"
_symmetry_group_IT_number 2
_symmetry_cell_setting 'triclinic'
loop_
_space_group_symop_operation_xyz
x,y,z
-x,-y,-z
loop_
_atom_site_type_symbol
_atom_site_label
_atom_site_fract_x
_atom_site_fract_y
_atom_site_fract_z
Si Si1 0.792648 0.653817 0.543706
Si Si2 0.314822 0.990675 0.411071
Si Si3 0.247837 0.422380 0.141809
Si Si4 0.730542 0.104447 0.124056
Si Si5 0.447040 0.152104 0.636535
Si Si6 0.579202 0.794289 0.655659
Si Si7 0.889113 0.851657 0.815139
O O1 0.709438 0.770534 0.636337
O O2 0.603161 0.422599 0.449765
O O3 0.802924 0.689459 0.667849
O O4 0.074380 0.770756 0.426878
O O5 0.554240 0.021936 0.256081
O O6 0.398696 0.146715 0.557458
O O7 0.240831 0.040877 0.404816
O O8 0.329128 0.622904 0.292502
O O9 0.161635 0.252772 0.139396
O O10 0.010830 0.311676 0.136362
O O11 0.500000 0.500000 0.000000
O O12 0.594375 0.151127 0.175519
O O13 0.747844 0.938512 0.958880
O O14 0.500000 0.000000 0.500000
O O15 0.185462 0.043871 0.763568
#
# Coordination Sequence:
#
# PCOD9107855 Si02
#       7
#     2   2   2   2   2   2   2
#     4  10  20  40  66  85 122 153 197 254 294 343
#     4   9  21  37  61  88 117 152 197 243 291 357
#     4  12  25  39  62  85 127 162 189 255 297 350
#     4  10  23  39  61  88 124 157 204 236 298 362
#     4  11  24  38  62  89 119 159 201 243 298 354
#     4   9  21  38  63  91 116 155 204 238 300 355
#     4  11  24  41  58  92 120 158 202 244 296 359
#
# _framework density 20.065107000000001
#
# number of rings (size 3 to 8) (size 9 to 14) (size 15 to 20)
#    0.857    0.857    1.429    2.571    6.000    1.714 
#    0.000    0.000    0.000    2.571    0.000    0.000 
#    0.000    0.000    0.000    0.000    0.000    0.000 
#
# Total GULP energy -78103.082605 kJ/mol
# GULP energy per Si atom -5578.791615 kJ/mol
# Density = 2.001944 g / cm^3
# Si number density = 20.065107 Si / 1000 Ang^3
#
#
#
# Elastic Constant Matrix: (Units=GPa)
#
#
# Indices 1 2 3 4 5 6 
#
# 1 48.5493 -7.5876 -2.3272 -12.8386 -15.6608 -6.0403
# 2 -7.5876 32.0393 32.2601 -13.8730 -2.5757 6.5934
# 3 -2.3272 32.2601 70.7773 -15.6211 -19.5008 -2.9932
# 4 -12.8386 -13.8730 -15.6211 39.2344 -0.4276 -2.3266
# 5 -15.6608 -2.5757 -19.5008 -0.4276 34.6853 3.0212
# 6 -6.0403 6.5934 -2.9932 -2.3266 3.0212 30.1589
#
#
#
# Elastic Compliance Matrix: (Units=1/GPa)
#
#
# Indices 1 2 3 4 5 6 
#
# 1 0.033849 0.010586 0.005588 0.017516 0.019038 0.004464
# 2 0.010586 0.078161 -0.034300 0.016395 -0.007070 -0.016399
# 3 0.005588 -0.034300 0.037068 0.005311 0.019949 0.010708
# 4 0.017516 0.016395 0.005311 0.039400 0.012402 0.002248
# 5 0.019038 -0.007070 0.019949 0.012402 0.047966 0.003490
# 6 0.004464 -0.016399 0.010708 0.002248 0.003490 0.038523
#
#
# Mechanical properties :
#
#
# Convention : Reuss Voigt Hill
#
# Bulk Modulus (GPa) = 8.86334 21.78408 15.32371
# Shear Modulus (GPa) = 14.33371 29.41710 21.87540
#
# Velocity S-wave (km/s) = 2.67565 3.83310 3.30543
# Velocity P-wave (km/s) = 3.73796 5.52001 4.71396
#
# Compressibility (1/GPa) = 0.11282431
#
# Stress axis : x y z
#
# Youngs Moduli (GPa) = 29.54339 12.79417 26.97727
#
# Poissons Ratio (x) = -0.13544 -0.15075
# Poissons Ratio (y) = -0.31274 0.92533
# Poissons Ratio (z) = -0.16509 0.43885
#
# Static dielectric constant tensor:
#      x y z
#    x 1.729250 -0.006060 -0.014730 
#    y -0.006060 1.687880 -0.006100 
#    z -0.014730 -0.006100 1.712740 
# 
# From -- ./inp_files/201619.got.cif
#   From: 2010.05.17/outbox.cif.g08.bks.cpg/sg2_101_cif.got.tgz:201619.got - 2010.06.03 11:33:40.
