data_PCOD9107773
_publ_section_title
;
Structure prediction by ZEFSAII (Michael W. Deem and Ramdas Pophale) SiO2 
 PCOD9107773
Probable space group: P -1
;
_chemical_formula_sum "Si O2"
_cell_formula_units_Z 14
_cell_length_a 5.180341
_cell_length_b 15.594583
_cell_length_c 8.608328
_cell_angle_alpha 88.285433
_cell_angle_beta 55.937238
_cell_angle_gamma 72.853557
_cell_volume 542.413275
_symmetry_space_group_name_H-M "P -1"
_symmetry_group_IT_number 2
_symmetry_cell_setting 'triclinic'
loop_
_space_group_symop_operation_xyz
x,y,z
-x,-y,-z
loop_
_atom_site_type_symbol
_atom_site_label
_atom_site_fract_x
_atom_site_fract_y
_atom_site_fract_z
Si Si1 0.828459 0.947752 0.172595
Si Si2 0.176706 0.249952 0.308757
Si Si3 0.432804 0.608893 0.015343
Si Si4 0.351541 0.426469 0.387684
Si Si5 0.945690 0.232448 0.044721
Si Si6 0.551810 0.391564 0.645663
Si Si7 0.865696 0.920777 0.499503
O O1 0.983603 0.897752 0.283753
O O2 0.522254 0.028164 0.341530
O O3 0.794223 0.864587 0.087304
O O4 0.000000 0.000000 0.000000
O O5 0.582336 0.217414 0.184886
O O6 0.057090 0.167445 0.415336
O O7 0.056058 0.264349 0.168664
O O8 0.939684 0.333118 0.490459
O O9 0.608525 0.615938 0.794021
O O10 0.095452 0.689905 0.078057
O O11 0.500000 0.500000 0.000000
O O12 0.531372 0.630076 0.151645
O O13 0.405908 0.372667 0.533019
O O14 0.565334 0.496367 0.318951
O O15 0.000000 0.500000 0.500000
O O16 0.000000 0.000000 0.500000
#
# Coordination Sequence:
#
# PCOD9107773 Si02
#       7
#     2   2   2   2   2   2   2
#     4  11  24  47  74 110 150 196 250 314 382 457
#     4  12  26  47  74 107 148 195 247 311 378 453
#     4  10  22  45  66 105 142 193 249 307 378 445
#     4  10  20  40  65  95 135 183 237 302 367 437
#     4  12  26  47  75 107 149 197 252 311 378 454
#     4  10  22  40  65  95 140 183 239 302 367 439
#     4  11  26  45  75 109 149 198 250 312 384 461
#
# _framework density 25.810580000000002
#
# number of rings (size 3 to 8) (size 9 to 14) (size 15 to 20)
#    0.000    1.143    2.857    2.571    4.000    1.714 
#    5.143    0.000    0.000    0.000    0.000    0.000 
#    0.000    0.000    0.000    0.000    0.000    0.000 
#
# Total GULP energy -77961.196671 kJ/mol
# GULP energy per Si atom -5568.656905 kJ/mol
# Density = 2.575183 g / cm^3
# Si number density = 25.810580 Si / 1000 Ang^3
#
#
#
# Elastic Constant Matrix: (Units=GPa)
#
#
# Indices 1 2 3 4 5 6 
#
# 1 123.1637 -4.7393 66.4250 -15.8676 34.6456 -18.4981
# 2 -4.7393 131.8161 35.6812 -7.4177 9.0928 -7.3787
# 3 66.4250 35.6812 176.5077 -28.9023 54.4215 -10.3530
# 4 -15.8676 -7.4177 -28.9023 51.3507 2.4366 18.0974
# 5 34.6456 9.0928 54.4215 2.4366 48.8355 -7.1197
# 6 -18.4981 -7.3787 -10.3530 18.0974 -7.1197 31.6317
#
#
#
# Elastic Compliance Matrix: (Units=1/GPa)
#
#
# Indices 1 2 3 4 5 6 
#
# 1 0.012017 0.001897 -0.002982 0.000799 -0.004875 0.004939
# 2 0.001897 0.008408 -0.002380 -0.000456 0.000141 0.002584
# 3 -0.002982 -0.002380 0.011944 0.008027 -0.011980 -0.005679
# 4 0.000799 -0.000456 0.008027 0.031116 -0.013585 -0.017872
# 5 -0.004875 0.000141 -0.011980 -0.013585 0.039380 0.009897
# 6 0.004939 0.002584 -0.005679 -0.017872 0.009897 0.045699
#
#
# Mechanical properties :
#
#
# Convention : Reuss Voigt Hill
#
# Bulk Modulus (GPa) = 39.31092 69.58015 54.44554
# Shear Modulus (GPa) = 30.49280 48.63826 39.56553
#
# Velocity S-wave (km/s) = 3.44089 4.34571 3.91950
# Velocity P-wave (km/s) = 5.57224 7.22474 6.45162
#
# Compressibility (1/GPa) = 0.02543822
#
# Stress axis : x y z
#
# Youngs Moduli (GPa) = 83.21768 118.93313 83.72615
#
# Poissons Ratio (x) = -0.22562 0.24968
# Poissons Ratio (y) = -0.15786 0.19927
# Poissons Ratio (z) = 0.24816 0.28307
#
# Static dielectric constant tensor:
#      x y z
#    x 2.225290 0.105320 -0.108650 
#    y 0.105320 2.295400 -0.014380 
#    z -0.108650 -0.014380 1.978880 
# 
# From -- ./inp_files/138916.got.cif
#   From: 2010.05.17/outbox.cif.g08.bks.cpg/sg2_70_cif.got.tgz:138916.got - 2010.06.03 11:33:40.
