data_PCOD9107227
_publ_section_title
;
Structure prediction by ZEFSAII (Michael W. Deem and Ramdas Pophale) SiO2 
 PCOD9107227
Probable space group: P -1
;
_chemical_formula_sum "Si O2"
_cell_formula_units_Z 14
_cell_length_a 11.432918
_cell_length_b 13.554969
_cell_length_c 8.178810
_cell_angle_alpha 126.943817
_cell_angle_beta 85.174042
_cell_angle_gamma 52.465642
_cell_volume 565.282336
_symmetry_space_group_name_H-M "P -1"
_symmetry_group_IT_number 2
_symmetry_cell_setting 'triclinic'
loop_
_space_group_symop_operation_xyz
x,y,z
-x,-y,-z
loop_
_atom_site_type_symbol
_atom_site_label
_atom_site_fract_x
_atom_site_fract_y
_atom_site_fract_z
Si Si1 0.008828 0.978974 0.732980
Si Si2 0.330602 0.107978 0.870450
Si Si3 0.172980 0.023133 0.988178
Si Si4 0.495366 0.695129 0.080289
Si Si5 0.262888 0.646648 0.068949
Si Si6 0.769825 0.839206 0.436012
Si Si7 0.119390 0.532578 0.377042
O O1 0.898019 0.201212 0.906022
O O2 0.844579 0.028500 0.884398
O O3 0.129491 0.805751 0.401887
O O4 0.167270 0.902070 0.763964
O O5 0.212621 0.211540 0.809080
O O6 0.566938 0.945337 0.639585
O O7 0.334208 0.977033 0.840152
O O8 0.204253 0.322375 0.201445
O O9 0.980951 0.288321 0.299895
O O10 0.420026 0.622133 0.990652
O O11 0.306760 0.953150 0.367814
O O12 0.618348 0.580115 0.125044
O O13 0.666518 0.589038 0.827369
O O14 0.958724 0.665396 0.371318
#
# Coordination Sequence:
#
# PCOD9107227 Si02
#       7
#     2   2   2   2   2   2   2
#     4  10  22  39  66  90 123 167 205 247 311 358
#     4  10  23  41  64  92 123 158 210 255 299 363
#     4  11  22  38  61  95 128 161 200 252 308 374
#     4  10  21  35  67  94 121 151 212 255 298 358
#     4  10  20  40  63  93 119 165 209 254 296 357
#     4  10  22  42  66  93 118 159 212 258 297 359
#     4  11  22  41  65  91 124 164 200 252 310 367
#
# _framework density 24.766385
#
# number of rings (size 3 to 8) (size 9 to 14) (size 15 to 20)
#    0.000    1.714    1.429    2.571    4.000    0.571 
#    0.000    2.143   12.571    0.000    0.000    0.000 
#    0.000    0.000    0.000    0.000    0.000    0.000 
#
# Total GULP energy -78058.597286 kJ/mol
# GULP energy per Si atom -5575.614092 kJ/mol
# Density = 2.471002 g / cm^3
# Si number density = 24.766385 Si / 1000 Ang^3
#
#
#
# Elastic Constant Matrix: (Units=GPa)
#
#
# Indices 1 2 3 4 5 6 
#
# 1 74.3161 32.3846 33.2082 -17.0621 -6.3755 18.3909
# 2 32.3846 63.3134 13.6771 4.7578 -1.3043 23.6255
# 3 33.2082 13.6771 84.6433 -8.2332 3.4512 -0.3946
# 4 -17.0621 4.7578 -8.2332 24.7598 6.3549 -2.0055
# 5 -6.3755 -1.3043 3.4512 6.3549 34.7592 -1.3180
# 6 18.3909 23.6255 -0.3946 -2.0055 -1.3180 37.2390
#
#
#
# Elastic Compliance Matrix: (Units=1/GPa)
#
#
# Indices 1 2 3 4 5 6 
#
# 1 0.027321 -0.011857 -0.007165 0.017848 0.001824 -0.005020
# 2 -0.011857 0.028159 -0.001520 -0.015478 0.001377 -0.012810
# 3 -0.007165 -0.001520 0.015164 0.001538 -0.002982 0.004640
# 4 0.017848 -0.015478 0.001538 0.058546 -0.008016 0.003891
# 5 0.001824 0.001377 -0.002982 -0.008016 0.030874 -0.001145
# 6 -0.005020 -0.012810 0.004640 0.003891 -0.001145 0.037678
#
#
# Mechanical properties :
#
#
# Convention : Reuss Voigt Hill
#
# Bulk Modulus (GPa) = 33.82827 42.31252 38.07039
# Shear Modulus (GPa) = 20.10621 28.88512 24.49567
#
# Velocity S-wave (km/s) = 2.85236 3.41882 3.14836
# Velocity P-wave (km/s) = 4.95344 5.71894 5.34990
#
# Compressibility (1/GPa) = 0.02956108
#
# Stress axis : x y z
#
# Youngs Moduli (GPa) = 36.60139 35.51217 65.94729
#
# Poissons Ratio (x) = 0.42108 0.47249
# Poissons Ratio (y) = 0.43400 0.10021
# Poissons Ratio (z) = 0.26224 0.05396
#
# Static dielectric constant tensor:
#      x y z
#    x 1.997230 -0.043920 -0.003200 
#    y -0.043920 2.084320 -0.011520 
#    z -0.003200 -0.011520 1.953970 
# 
# From -- ./inp_files/271075.got.cif
#   From: 2010.05.17/outbox.cif.g08.bks.cpg/sg2_136_cif.got.tgz:271075.got - 2010.06.03 11:33:40.
