data_PCOD9107387
_publ_section_title
;
Structure prediction by ZEFSAII (Michael W. Deem and Ramdas Pophale) SiO2 
 PCOD9107387
Probable space group: P -1
;
_chemical_formula_sum "Si O2"
_cell_formula_units_Z 14
_cell_length_a 20.721605
_cell_length_b 12.757738
_cell_length_c 8.825576
_cell_angle_alpha 141.527325
_cell_angle_beta 152.049893
_cell_angle_gamma 39.296736
_cell_volume 652.686520
_symmetry_space_group_name_H-M "P -1"
_symmetry_group_IT_number 2
_symmetry_cell_setting 'triclinic'
loop_
_space_group_symop_operation_xyz
x,y,z
-x,-y,-z
loop_
_atom_site_type_symbol
_atom_site_label
_atom_site_fract_x
_atom_site_fract_y
_atom_site_fract_z
Si Si1 0.288172 0.801628 0.645779
Si Si2 0.292387 0.241392 0.402083
Si Si3 0.051214 0.104993 0.592580
Si Si4 0.232102 0.642320 0.851584
Si Si5 0.450861 0.707282 0.173839
Si Si6 0.662354 0.495804 0.784331
Si Si7 0.559721 0.863491 0.103377
O O1 0.291074 0.601911 0.386905
O O2 0.144826 0.957303 0.505547
O O3 0.332889 0.801847 0.913121
O O4 0.417529 0.830566 0.846949
O O5 0.261771 0.443183 0.624213
O O6 0.415044 0.219309 0.501543
O O7 0.350778 0.124087 0.541862
O O8 0.155767 0.205214 0.000651
O O9 0.914162 0.236642 0.380671
O O10 0.000000 0.000000 0.500000
O O11 0.367874 0.712940 0.165222
O O12 0.233830 0.625413 0.015393
O O13 0.500000 0.500000 0.000000
O O14 0.500000 0.500000 0.500000
O O15 0.659123 0.694664 0.029143
O O16 0.500000 0.000000 0.000000
#
# Coordination Sequence:
#
# PCOD9107387 Si02
#       7
#     2   2   2   2   2   2   2
#     4  10  21  39  55  91 125 157 204 244 305 372
#     4   9  21  39  62  89 123 158 209 260 296 362
#     4  12  24  39  57  90 132 165 200 250 305 368
#     4  10  20  40  64  89 119 167 201 249 316 361
#     4   9  17  36  63  90 112 153 213 251 301 351
#     4   9  19  38  63  87 121 156 199 254 302 366
#     4   9  19  39  63  93 119 150 208 259 309 345
#
# _framework density 21.449807
#
# number of rings (size 3 to 8) (size 9 to 14) (size 15 to 20)
#    0.000    2.286    1.429    3.000    0.000    5.143 
#   12.857    0.000    0.000    3.429    0.000    0.000 
#    0.000    0.000    0.000    0.000    0.000    0.000 
#
# Total GULP energy -78100.408407 kJ/mol
# GULP energy per Si atom -5578.600601 kJ/mol
# Density = 2.140099 g / cm^3
# Si number density = 21.449807 Si / 1000 Ang^3
#
#
#
# Elastic Constant Matrix: (Units=GPa)
#
#
# Indices 1 2 3 4 5 6 
#
# 1 46.7702 21.8688 17.2802 -2.2990 -5.3836 0.4556
# 2 21.8688 109.3510 21.6091 -29.5461 -8.9950 12.1166
# 3 17.2802 21.6091 83.3276 -15.9419 2.7334 2.3081
# 4 -2.2990 -29.5461 -15.9419 34.4630 -1.6261 -6.4149
# 5 -5.3836 -8.9950 2.7334 -1.6261 21.4294 0.2290
# 6 0.4556 12.1166 2.3081 -6.4149 0.2290 40.5420
#
#
#
# Elastic Compliance Matrix: (Units=1/GPa)
#
#
# Indices 1 2 3 4 5 6 
#
# 1 0.025981 -0.005154 -0.005123 -0.004692 0.004653 0.000771
# 2 -0.005154 0.014045 -0.000533 0.011273 0.005549 -0.002357
# 3 -0.005123 -0.000533 0.014394 0.005783 -0.002912 0.000329
# 4 -0.004692 0.011273 0.005783 0.041874 0.005961 0.002946
# 5 0.004653 0.005549 -0.002912 0.005961 0.050996 -0.000890
# 6 0.000771 -0.002357 0.000329 0.002946 -0.000890 0.025814
#
#
# Mechanical properties :
#
#
# Convention : Reuss Voigt Hill
#
# Bulk Modulus (GPa) = 30.48824 40.10722 35.29773
# Shear Modulus (GPa) = 24.31219 31.19959 27.75589
#
# Velocity S-wave (km/s) = 3.37032 3.81798 3.60111
# Velocity P-wave (km/s) = 5.42126 6.17857 5.81226
#
# Compressibility (1/GPa) = 0.03279953
#
# Stress axis : x y z
#
# Youngs Moduli (GPa) = 38.48919 71.20156 69.47167
#
# Poissons Ratio (x) = 0.36698 0.35590
# Poissons Ratio (y) = 0.19838 0.03705
# Poissons Ratio (z) = 0.19718 0.03797
#
# Static dielectric constant tensor:
#      x y z
#    x 1.788420 -0.002670 -0.023840 
#    y -0.002670 1.830700 0.055600 
#    z -0.023840 0.055600 1.803100 
# 
# From -- ./inp_files/198461.got.cif
#   From: 2010.05.17/outbox.cif.g08.bks.cpg/sg2_100_cif.got.tgz:198461.got - 2010.06.03 11:33:40.
