data_PCOD9107718
_publ_section_title
;
Structure prediction by ZEFSAII (Michael W. Deem and Ramdas Pophale) SiO2 
 PCOD9107718
Probable space group: P -1
;
_chemical_formula_sum "Si O2"
_cell_formula_units_Z 14
_cell_length_a 9.563301
_cell_length_b 17.151253
_cell_length_c 12.334361
_cell_angle_alpha 30.593698
_cell_angle_beta 142.291543
_cell_angle_gamma 126.518630
_cell_volume 605.318509
_symmetry_space_group_name_H-M "P -1"
_symmetry_group_IT_number 2
_symmetry_cell_setting 'triclinic'
loop_
_space_group_symop_operation_xyz
x,y,z
-x,-y,-z
loop_
_atom_site_type_symbol
_atom_site_label
_atom_site_fract_x
_atom_site_fract_y
_atom_site_fract_z
Si Si1 0.288084 0.342936 0.766299
Si Si2 0.822084 0.202745 0.188363
Si Si3 0.240984 0.139848 0.423222
Si Si4 0.320487 0.622017 0.324776
Si Si5 0.443051 0.188817 0.271068
Si Si6 0.021876 0.875752 0.260943
Si Si7 0.625109 0.083058 0.889347
O O1 0.199171 0.519774 0.450112
O O2 0.134221 0.243007 0.728442
O O3 0.572774 0.301937 0.963565
O O4 0.305929 0.295546 0.960094
O O5 0.085569 0.224882 0.331686
O O6 0.826221 0.025662 0.435371
O O7 0.815256 0.244351 0.004913
O O8 0.277265 0.221258 0.236704
O O9 0.506322 0.075817 0.709686
O O10 0.500000 0.500000 0.500000
O O11 0.421248 0.732529 0.332439
O O12 0.703886 0.208580 0.438254
O O13 0.500000 0.000000 0.500000
O O14 0.896154 0.981539 0.159697
O O15 0.000000 0.000000 0.000000
O O16 0.500000 0.000000 0.000000
#
# Coordination Sequence:
#
# PCOD9107718 Si02
#       7
#     2   2   2   2   2   2   2
#     4  11  23  46  63  95 136 177 211 271 336 385
#     4  10  20  40  65  93 129 163 215 273 327 380
#     4  11  22  38  64 104 123 160 229 273 315 387
#     4  10  23  43  63  93 137 170 213 271 340 387
#     4  12  23  40  69  97 134 170 219 272 325 385
#     4  12  23  42  69  98 130 170 229 265 319 396
#     4  12  22  40  69  98 125 172 223 273 320 391
#
# _framework density 23.128321
#
# number of rings (size 3 to 8) (size 9 to 14) (size 15 to 20)
#    0.000    0.857    7.143    0.857    4.000    0.000 
#    2.571    5.000    0.000    0.000    0.000    0.000 
#    0.000    0.000    0.000    0.000    0.000    0.000 
#
# Total GULP energy -77965.389428 kJ/mol
# GULP energy per Si atom -5568.956388 kJ/mol
# Density = 2.307568 g / cm^3
# Si number density = 23.128321 Si / 1000 Ang^3
#
#
#
# Elastic Constant Matrix: (Units=GPa)
#
#
# Indices 1 2 3 4 5 6 
#
# 1 154.3519 38.7224 41.2289 -5.5187 -6.5266 14.7959
# 2 38.7224 113.3698 38.7676 -10.3617 -8.3036 12.1842
# 3 41.2289 38.7676 112.1481 -13.8846 -33.5134 3.3851
# 4 -5.5187 -10.3617 -13.8846 30.7954 7.2949 -5.5874
# 5 -6.5266 -8.3036 -33.5134 7.2949 56.2837 6.8398
# 6 14.7959 12.1842 3.3851 -5.5874 6.8398 20.2091
#
#
#
# Elastic Compliance Matrix: (Units=1/GPa)
#
#
# Indices 1 2 3 4 5 6 
#
# 1 0.007905 -0.001464 -0.002383 -0.001017 -0.000005 -0.004785
# 2 -0.001464 0.010948 -0.002914 0.001215 0.000130 -0.004749
# 3 -0.002383 -0.002914 0.013197 0.002893 0.006803 -0.000212
# 4 -0.001017 0.001215 0.002893 0.037088 -0.004393 0.011269
# 5 -0.000005 0.000130 0.006803 -0.004393 0.023675 -0.010442
# 6 -0.004785 -0.004749 -0.000212 0.011269 -0.010442 0.062534
#
#
# Mechanical properties :
#
#
# Convention : Reuss Voigt Hill
#
# Bulk Modulus (GPa) = 53.96956 68.58974 61.27965
# Shear Modulus (GPa) = 28.56414 38.86770 33.71592
#
# Velocity S-wave (km/s) = 3.51811 4.10387 3.82223
# Velocity P-wave (km/s) = 6.31572 7.22331 6.78471
#
# Compressibility (1/GPa) = 0.01852896
#
# Stress axis : x y z
#
# Youngs Moduli (GPa) = 126.50879 91.34029 75.77230
#
# Poissons Ratio (x) = 0.13374 0.18055
# Poissons Ratio (y) = 0.18523 0.22077
# Poissons Ratio (z) = 0.30145 0.26613
#
# Static dielectric constant tensor:
#      x y z
#    x 1.636910 -0.246560 -0.115240 
#    y -0.246560 1.731160 0.040950 
#    z -0.115240 0.040950 2.108320 
# 
# From -- ./inp_files/402762.got.cif
#   From: 2010.05.17/outbox.cif.g08.bks.cpg/sg2_202_cif.got.tgz:402762.got - 2010.06.03 11:33:40.
