data_PCOD9107282
_publ_section_title
;
Structure prediction by ZEFSAII (Michael W. Deem and Ramdas Pophale) SiO2 
 PCOD9107282
Probable space group: P -1
;
_chemical_formula_sum "Si O2"
_cell_formula_units_Z 14
_cell_length_a 8.423274
_cell_length_b 12.449475
_cell_length_c 14.498990
_cell_angle_alpha 56.493520
_cell_angle_beta 57.418656
_cell_angle_gamma 104.736159
_cell_volume 661.609104
_symmetry_space_group_name_H-M "P -1"
_symmetry_group_IT_number 2
_symmetry_cell_setting 'triclinic'
loop_
_space_group_symop_operation_xyz
x,y,z
-x,-y,-z
loop_
_atom_site_type_symbol
_atom_site_label
_atom_site_fract_x
_atom_site_fract_y
_atom_site_fract_z
Si Si1 0.384236 0.105031 0.406221
Si Si2 0.347491 0.281051 0.174668
Si Si3 0.581885 0.165942 0.522201
Si Si4 0.349587 0.658895 0.308648
Si Si5 0.753095 0.384017 0.848063
Si Si6 0.254063 0.904429 0.047056
Si Si7 0.760727 0.827549 0.237146
O O1 0.438021 0.259831 0.252661
O O2 0.541356 0.188861 0.417523
O O3 0.483266 0.022787 0.366442
O O4 0.016786 0.902189 0.629301
O O5 0.500000 0.500000 0.000000
O O6 0.489270 0.266920 0.058775
O O7 0.358443 0.135802 0.667364
O O8 0.932115 0.372279 0.347458
O O9 0.388813 0.656971 0.188652
O O10 0.478747 0.628246 0.356557
O O11 0.000000 0.500000 0.500000
O O12 0.531197 0.884332 0.178502
O O13 0.844293 0.282923 0.874973
O O14 0.969275 0.827577 0.213978
O O15 0.500000 0.000000 0.000000
O O16 0.000000 0.000000 0.000000
#
# Coordination Sequence:
#
# PCOD9107282 Si02
#       7
#     2   2   2   2   2   2   2
#     4  10  26  46  72 101 139 184 235 304 344 420
#     4  11  24  48  70 102 133 185 248 283 365 413
#     4  11  23  46  68 104 142 182 237 290 357 414
#     4  10  20  40  63  97 133 177 229 281 348 418
#     4  11  23  41  66  94 143 181 222 297 342 426
#     4   9  22  40  58  95 131 180 222 275 350 404
#     4  10  22  39  65  99 138 183 230 281 350 427
#
# _framework density 21.160530999999999
#
# number of rings (size 3 to 8) (size 9 to 14) (size 15 to 20)
#    0.000    1.714    2.857    0.000   10.000    1.143 
#    2.571    0.000    0.000    0.000    0.000    0.000 
#    0.000    0.000    0.000    0.000    0.000    0.000 
#
# Total GULP energy -77942.330961 kJ/mol
# GULP energy per Si atom -5567.309354 kJ/mol
# Density = 2.111237 g / cm^3
# Si number density = 21.160531 Si / 1000 Ang^3
#
#
#
# Elastic Constant Matrix: (Units=GPa)
#
#
# Indices 1 2 3 4 5 6 
#
# 1 132.8289 49.4970 35.6071 8.1050 -14.1340 4.9578
# 2 49.4970 100.8891 36.4922 15.6308 -2.6323 -2.1107
# 3 35.6071 36.4922 80.1655 11.4297 -0.5052 -13.1647
# 4 8.1050 15.6308 11.4297 41.9341 -11.2337 -6.9862
# 5 -14.1340 -2.6323 -0.5052 -11.2337 42.8305 7.7570
# 6 4.9578 -2.1107 -13.1647 -6.9862 7.7570 31.9717
#
#
#
# Elastic Compliance Matrix: (Units=1/GPa)
#
#
# Indices 1 2 3 4 5 6 
#
# 1 0.010537 -0.003953 -0.003671 0.000852 0.004181 -0.004235
# 2 -0.003953 0.013884 -0.004147 -0.003758 -0.001365 -0.000668
# 3 -0.003671 -0.004147 0.017559 -0.002087 -0.003229 0.007853
# 4 0.000852 -0.003758 -0.002087 0.028009 0.006786 0.003234
# 5 0.004181 -0.001365 -0.003229 0.006786 0.027709 -0.007308
# 6 -0.004235 -0.000668 0.007853 0.003234 -0.007308 0.037604
#
#
# Mechanical properties :
#
#
# Convention : Reuss Voigt Hill
#
# Bulk Modulus (GPa) = 54.23620 61.89734 58.06677
# Shear Modulus (GPa) = 30.30508 36.16642 33.23575
#
# Velocity S-wave (km/s) = 3.78848 4.13867 3.96744
# Velocity P-wave (km/s) = 6.69502 7.22170 6.96334
#
# Compressibility (1/GPa) = 0.01843787
#
# Stress axis : x y z
#
# Youngs Moduli (GPa) = 94.90708 72.02663 56.94970
#
# Poissons Ratio (x) = 0.28472 0.20907
# Poissons Ratio (y) = 0.37517 0.23616
# Poissons Ratio (z) = 0.34842 0.29868
#
# Static dielectric constant tensor:
#      x y z
#    x 2.299890 -0.071800 0.113580 
#    y -0.071800 1.803360 -0.007290 
#    z 0.113580 -0.007290 1.789060 
# 
# From -- ./inp_files/180802.got.cif
#   From: 2010.05.17/outbox.cif.g08.bks.cpg/sg2_91_cif.got.tgz:180802.got - 2010.06.03 11:33:40.
