data_PCOD9107088
_publ_section_title
;
Structure prediction by ZEFSAII (Michael W. Deem and Ramdas Pophale) SiO2 
 PCOD9107088
Probable space group: P -1
;
_chemical_formula_sum "Si O2"
_cell_formula_units_Z 16
_cell_length_a 11.068201
_cell_length_b 9.685927
_cell_length_c 9.445961
_cell_angle_alpha 134.233346
_cell_angle_beta 97.147964
_cell_angle_gamma 82.733416
_cell_volume 718.815305
_symmetry_space_group_name_H-M "P -1"
_symmetry_group_IT_number 2
_symmetry_cell_setting 'triclinic'
loop_
_space_group_symop_operation_xyz
x,y,z
-x,-y,-z
loop_
_atom_site_type_symbol
_atom_site_label
_atom_site_fract_x
_atom_site_fract_y
_atom_site_fract_z
Si Si1 0.705337 0.886458 0.326418
Si Si2 0.629333 0.435051 0.401845
Si Si3 0.206045 0.959981 0.246314
Si Si4 0.054842 0.938829 0.613324
Si Si5 0.006908 0.505877 0.336627
Si Si6 0.262305 0.527957 0.854665
Si Si7 0.394565 0.000598 0.867080
Si Si8 0.775021 0.748432 0.799330
O O1 0.706359 0.655896 0.174143
O O2 0.733037 0.960045 0.543306
O O3 0.816581 0.964955 0.304796
O O4 0.587929 0.967797 0.276420
O O5 0.500000 0.500000 0.500000
O O6 0.643468 0.470339 0.261654
O O7 0.656867 0.209454 0.270992
O O8 0.725919 0.562039 0.583586
O O9 0.235894 0.084635 0.201649
O O10 0.249996 0.737373 0.074571
O O11 0.057833 0.990905 0.252740
O O12 0.064638 0.707153 0.451666
O O13 0.000000 0.000000 0.500000
O O14 0.091194 0.318148 0.174514
O O15 0.000000 0.500000 0.500000
O O16 0.872310 0.504931 0.252126
O O17 0.500000 0.000000 0.000000
O O18 0.310327 0.181590 0.036536
#
# Coordination Sequence:
#
# PCOD9107088 Si02
#       8
#     2   2   2   2   2   2   2   2
#     4  11  25  47  69 101 150 186 233 294 355 422
#     4  12  24  47  76  98 142 183 237 304 347 411
#     4  11  23  43  71 101 151 189 232 283 353 432
#     4  10  20  40  63 101 148 192 219 278 353 416
#     4  12  21  39  70 105 150 186 231 285 350 425
#     4  12  25  43  72 109 143 190 237 286 359 433
#     4  12  28  48  73 105 133 183 250 298 354 419
#     4  12  24  44  73 104 141 190 237 291 355 415
#
# _framework density 22.258848
#
# number of rings (size 3 to 8) (size 9 to 14) (size 15 to 20)
#    0.000    0.500    8.750    0.750    1.750    4.000 
#    0.000    3.125    0.000    0.000    0.000    0.000 
#    0.000    0.000    0.000    0.000    0.000    0.000 
#
# Total GULP energy -89350.698822 kJ/mol
# GULP energy per Si atom -5584.418676 kJ/mol
# Density = 2.220819 g / cm^3
# Si number density = 22.258848 Si / 1000 Ang^3
#
#
#
# Elastic Constant Matrix: (Units=GPa)
#
#
# Indices 1 2 3 4 5 6 
#
# 1 50.8659 17.8236 9.0420 -3.3140 -11.6028 -7.3899
# 2 17.8236 169.5767 41.7407 13.8775 18.5054 -1.0820
# 3 9.0420 41.7407 98.4395 22.8036 4.7981 -3.6574
# 4 -3.3140 13.8775 22.8036 38.9609 -1.9551 9.3174
# 5 -11.6028 18.5054 4.7981 -1.9551 32.0827 0.9508
# 6 -7.3899 -1.0820 -3.6574 9.3174 0.9508 25.1548
#
#
#
# Elastic Compliance Matrix: (Units=1/GPa)
#
#
# Indices 1 2 3 4 5 6 
#
# 1 0.024921 -0.003673 -0.002041 0.004020 0.011535 0.004941
# 2 -0.003673 0.007574 -0.002147 -0.002001 -0.005495 -0.000116
# 3 -0.002041 -0.002147 0.013497 -0.008493 -0.002169 0.004498
# 4 0.004020 -0.002001 -0.008493 0.035227 0.006423 -0.013431
# 5 0.011535 -0.005495 -0.002169 0.006423 0.039257 -0.001026
# 6 0.004941 -0.000116 0.004498 -0.013431 -0.001026 0.046868
#
#
# Mechanical properties :
#
#
# Convention : Reuss Voigt Hill
#
# Bulk Modulus (GPa) = 33.03801 50.67719 41.85760
# Shear Modulus (GPa) = 25.88582 35.92471 30.90527
#
# Velocity S-wave (km/s) = 3.41390 4.02176 3.73023
# Velocity P-wave (km/s) = 5.51493 6.66204 6.11544
#
# Compressibility (1/GPa) = 0.03026816
#
# Stress axis : x y z
#
# Youngs Moduli (GPa) = 40.12757 132.02577 74.09191
#
# Poissons Ratio (x) = 0.48494 0.15126
# Poissons Ratio (y) = 0.14739 0.15909
# Poissons Ratio (z) = 0.08192 0.28348
#
# Static dielectric constant tensor:
#      x y z
#    x 1.994630 -0.006090 0.020650 
#    y -0.006090 1.795600 -0.026300 
#    z 0.020650 -0.026300 1.828540 
# 
# From -- ./inp_files/206215.got.cif
#   From: 2010.05.17/outbox.cif.g08.bks.cpg/sg2_104_cif.got.tgz:206215.got - 2010.06.03 11:33:40.
