data_PCOD9107182
_publ_section_title
;
Structure prediction by ZEFSAII (Michael W. Deem and Ramdas Pophale) SiO2 
 PCOD9107182
Probable space group: P -1
;
_chemical_formula_sum "Si O2"
_cell_formula_units_Z 15
_cell_length_a 15.215133
_cell_length_b 8.378798
_cell_length_c 9.819598
_cell_angle_alpha 76.201821
_cell_angle_beta 61.314449
_cell_angle_gamma 127.356553
_cell_volume 567.642541
_symmetry_space_group_name_H-M "P -1"
_symmetry_group_IT_number 2
_symmetry_cell_setting 'triclinic'
loop_
_space_group_symop_operation_xyz
x,y,z
-x,-y,-z
loop_
_atom_site_type_symbol
_atom_site_label
_atom_site_fract_x
_atom_site_fract_y
_atom_site_fract_z
Si Si1 0.872524 0.710415 0.888300
Si Si2 0.358624 0.676837 0.596676
Si Si3 0.624974 0.790239 0.216219
Si Si4 0.858692 0.374712 0.783992
Si Si5 0.500000 0.000000 0.000000
Si Si6 0.581820 0.431549 0.968678
Si Si7 0.254308 0.123600 0.605935
Si Si8 0.236897 0.799407 0.503857
O O1 0.834288 0.474351 0.903903
O O2 0.768380 0.575790 0.137959
O O3 0.780897 0.702632 0.844775
O O4 0.096751 0.023386 0.681264
O O5 0.491381 0.739027 0.401168
O O6 0.234393 0.610828 0.596659
O O7 0.500000 0.000000 0.500000
O O8 0.469206 0.456510 0.334211
O O9 0.738571 0.864122 0.239653
O O10 0.773989 0.083804 0.951236
O O11 0.079693 0.653210 0.548933
O O12 0.719542 0.255838 0.802180
O O13 0.567003 0.293236 0.876235
O O14 0.444520 0.123944 0.225971
O O15 0.500000 0.500000 0.000000
O O16 0.209661 0.878105 0.639522
#
# Coordination Sequence:
#
# PCOD9107182 Si02
#       8
#     2   2   2   2   1   2   2   2
#     4  10  20  40  63  90 126 167 209 252 322 378
#     4  12  18  35  65  89 124 167 203 256 308 388
#     4  11  21  36  59  93 129 162 202 256 319 365
#     4  10  21  40  64  88 120 167 212 259 308 381
#     4  10  24  46  64  88 128 164 216 268 312 366
#     4  11  24  44  67  95 126 168 214 268 319 378
#     4  10  22  37  59  94 128 160 200 259 316 384
#     4  11  22  41  65  92 121 163 214 252 322 383
#
# _framework density 26.425080999999999
#
# number of rings (size 3 to 8) (size 9 to 14) (size 15 to 20)
#    0.000    1.333    4.000    1.600    1.867    3.200 
#    4.800    2.000    0.000    0.000    0.000    0.000 
#    0.000    0.000    0.000    0.000    0.000    0.000 
#
# Total GULP energy -83681.504776 kJ/mol
# GULP energy per Si atom -5578.766985 kJ/mol
# Density = 2.636494 g / cm^3
# Si number density = 26.425081 Si / 1000 Ang^3
#
#
#
# Elastic Constant Matrix: (Units=GPa)
#
#
# Indices 1 2 3 4 5 6 
#
# 1 137.5235 32.7788 -0.9553 -25.9707 -30.5109 26.8487
# 2 32.7788 80.9677 0.2970 -3.5338 -14.3723 0.8517
# 3 -0.9553 0.2970 56.0111 -2.4098 -20.7575 11.2773
# 4 -25.9707 -3.5338 -2.4098 25.7726 10.4079 1.9074
# 5 -30.5109 -14.3723 -20.7575 10.4079 47.0192 -19.9409
# 6 26.8487 0.8517 11.2773 1.9074 -19.9409 30.8137
#
#
#
# Elastic Compliance Matrix: (Units=1/GPa)
#
#
# Indices 1 2 3 4 5 6 
#
# 1 0.014144 -0.004967 0.003783 0.015101 -0.000227 -0.014653
# 2 -0.004967 0.015145 0.000270 -0.006111 0.006416 0.008340
# 3 0.003783 0.000270 0.022721 0.002469 0.009688 -0.005503
# 4 0.015101 -0.006111 0.002469 0.062396 -0.016981 -0.028745
# 5 -0.000227 0.006416 0.009688 -0.016981 0.041442 0.024345
# 6 -0.014653 0.008340 -0.005503 -0.028745 0.024345 0.064538
#
#
# Mechanical properties :
#
#
# Convention : Reuss Voigt Hill
#
# Bulk Modulus (GPa) = 19.92689 37.63814 28.78251
# Shear Modulus (GPa) = 20.92568 36.87987 28.90278
#
# Velocity S-wave (km/s) = 2.81710 3.73988 3.31080
# Velocity P-wave (km/s) = 4.25895 5.73787 5.05281
#
# Compressibility (1/GPa) = 0.05018344
#
# Stress axis : x y z
#
# Youngs Moduli (GPa) = 70.70242 66.02948 44.01160
#
# Poissons Ratio (x) = 0.32796 -0.16651
# Poissons Ratio (y) = 0.35117 -0.01190
# Poissons Ratio (z) = -0.26749 -0.01785
#
# Static dielectric constant tensor:
#      x y z
#    x 2.079370 0.059170 0.057210 
#    y 0.059170 2.500970 0.233830 
#    z 0.057210 0.233830 2.124620 
# 
# From -- ./inp_files/213761.got.cif
#   From: 2010.05.17/outbox.cif.g08.bks.cpg/sg2_107_cif.got.tgz:213761.got - 2010.06.03 11:33:40.
