data_PCOD9107921
_publ_section_title
;
Structure prediction by ZEFSAII (Michael W. Deem and Ramdas Pophale) SiO2 
 PCOD9107921
Probable space group: P -1
;
_chemical_formula_sum "Si O2"
_cell_formula_units_Z 16
_cell_length_a 9.112258
_cell_length_b 18.718141
_cell_length_c 10.021306
_cell_angle_alpha 128.930414
_cell_angle_beta 42.466139
_cell_angle_gamma 96.377236
_cell_volume 665.552317
_symmetry_space_group_name_H-M "P -1"
_symmetry_group_IT_number 2
_symmetry_cell_setting 'triclinic'
loop_
_space_group_symop_operation_xyz
x,y,z
-x,-y,-z
loop_
_atom_site_type_symbol
_atom_site_label
_atom_site_fract_x
_atom_site_fract_y
_atom_site_fract_z
Si Si1 0.809985 0.806755 0.619696
Si Si2 0.030659 0.933459 0.035152
Si Si3 0.067127 0.416713 0.479730
Si Si4 0.389141 0.483170 0.868110
Si Si5 0.563327 0.389896 0.244675
Si Si6 0.044961 0.235185 0.221904
Si Si7 0.443078 0.301270 0.445699
Si Si8 0.106152 0.032582 0.349055
O O1 0.780130 0.709430 0.479705
O O2 0.939535 0.791230 0.661138
O O3 0.955640 0.840830 0.464034
O O4 0.459578 0.926810 0.996971
O O5 0.874131 0.879013 0.049086
O O6 0.361198 0.809541 0.707832
O O7 0.965911 0.022057 0.302252
O O8 0.000000 0.000000 0.000000
O O9 0.223261 0.280352 0.158495
O O10 0.000000 0.500000 0.500000
O O11 0.272620 0.417560 0.435799
O O12 0.786464 0.470532 0.821377
O O13 0.355006 0.587382 0.928807
O O14 0.730363 0.360332 0.524840
O O15 0.294117 0.425552 0.771225
O O16 0.500000 0.500000 0.500000
O O17 0.664006 0.287719 0.173737
O O18 0.000000 0.000000 0.500000
#
# Coordination Sequence:
#
# PCOD9107921 Si02
#       8
#     2   2   2   2   2   2   2   2
#     4  10  20  41  65  90 132 161 213 275 314 383
#     4  10  20  40  66  90 132 168 205 268 325 383
#     4  12  24  42  62  91 134 172 219 272 324 385
#     4  10  23  42  62  90 134 172 216 269 325 387
#     4  10  21  40  61  88 127 166 216 265 322 376
#     4  11  21  40  65  95 124 179 212 258 330 385
#     4   9  20  39  63  94 123 170 217 262 326 383
#     4  10  22  43  66  93 126 171 217 267 325 379
#
# _framework density 24.040185999999999
#
# number of rings (size 3 to 8) (size 9 to 14) (size 15 to 20)
#    0.000    1.750    3.750    0.375    0.000    2.000 
#    9.000    0.625    0.000    0.000    0.000    0.000 
#    0.000    0.000    0.000    0.000    0.000    0.000 
#
# Total GULP energy -89128.953652 kJ/mol
# GULP energy per Si atom -5570.559603 kJ/mol
# Density = 2.398547 g / cm^3
# Si number density = 24.040186 Si / 1000 Ang^3
#
#
#
# Elastic Constant Matrix: (Units=GPa)
#
#
# Indices 1 2 3 4 5 6 
#
# 1 140.9350 59.6146 24.5336 -0.5833 20.7696 10.0336
# 2 59.6146 227.9321 56.1597 -15.0245 22.9233 9.9671
# 3 24.5336 56.1597 37.8386 -9.3225 5.2321 1.5239
# 4 -0.5833 -15.0245 -9.3225 40.5329 -0.6147 11.4714
# 5 20.7696 22.9233 5.2321 -0.6147 24.6381 1.2521
# 6 10.0336 9.9671 1.5239 11.4714 1.2521 60.8651
#
#
#
# Elastic Compliance Matrix: (Units=1/GPa)
#
#
# Indices 1 2 3 4 5 6 
#
# 1 0.009094 -0.000781 -0.004087 -0.000915 -0.006044 -0.000972
# 2 -0.000781 0.007535 -0.009889 0.000699 -0.004189 -0.000903
# 3 -0.004087 -0.009889 0.044963 0.006713 0.003274 -0.000165
# 4 -0.000915 0.000699 0.006713 0.027985 -0.000332 -0.005399
# 5 -0.006044 -0.004189 0.003274 -0.000332 0.048843 0.000658
# 6 -0.000972 -0.000903 -0.000165 -0.005399 0.000658 0.017746
#
#
# Mechanical properties :
#
#
# Convention : Reuss Voigt Hill
#
# Bulk Modulus (GPa) = 31.17492 76.36908 53.77200
# Shear Modulus (GPa) = 25.46192 42.96707 34.21449
#
# Velocity S-wave (km/s) = 3.25797 4.23224 3.77665
# Velocity P-wave (km/s) = 5.21042 7.46449 6.43689
#
# Compressibility (1/GPa) = 0.03207707
#
# Stress axis : x y z
#
# Youngs Moduli (GPa) = 109.96754 132.71447 22.24058
#
# Poissons Ratio (x) = 0.10370 0.09090
# Poissons Ratio (y) = 0.08592 0.21993
# Poissons Ratio (z) = 0.44943 1.31239
#
# Static dielectric constant tensor:
#      x y z
#    x 1.969170 -0.024100 0.028130 
#    y -0.024100 2.006230 0.052810 
#    z 0.028130 0.052810 2.031760 
# 
# From -- ./inp_files/218181.got.cif
#   From: 2010.05.17/outbox.cif.g08.bks.cpg/sg2_110_cif.got.tgz:218181.got - 2010.06.03 11:33:40.
