data_PCOD9107110
_publ_section_title
;
Structure prediction by ZEFSAII (Michael W. Deem and Ramdas Pophale) SiO2 
 PCOD9107110
Probable space group: P -1
;
_chemical_formula_sum "Si O2"
_cell_formula_units_Z 16
_cell_length_a 12.458822
_cell_length_b 9.137691
_cell_length_c 7.410040
_cell_angle_alpha 63.236709
_cell_angle_beta 93.579045
_cell_angle_gamma 120.197830
_cell_volume 636.123390
_symmetry_space_group_name_H-M "P -1"
_symmetry_group_IT_number 2
_symmetry_cell_setting 'triclinic'
loop_
_space_group_symop_operation_xyz
x,y,z
-x,-y,-z
loop_
_atom_site_type_symbol
_atom_site_label
_atom_site_fract_x
_atom_site_fract_y
_atom_site_fract_z
Si Si1 0.259882 0.073866 0.068353
Si Si2 0.397614 0.498478 0.860419
Si Si3 0.053537 0.314237 0.283193
Si Si4 0.309258 0.758147 0.754813
Si Si5 0.457700 0.284698 0.572502
Si Si6 0.801237 0.892554 0.546806
Si Si7 0.591419 0.103081 0.699557
Si Si8 0.096142 0.706963 0.043274
O O1 0.245320 0.116150 0.249873
O O2 0.353412 0.994690 0.117903
O O3 0.322153 0.288389 0.874274
O O4 0.136941 0.894659 0.064443
O O5 0.306346 0.560500 0.899311
O O6 0.480653 0.681450 0.638636
O O7 0.500000 0.500000 0.000000
O O8 0.158894 0.266114 0.374429
O O9 0.026933 0.336511 0.057616
O O10 0.073015 0.514698 0.250928
O O11 0.924095 0.109125 0.427274
O O12 0.309650 0.797568 0.515516
O O13 0.204995 0.752241 0.879954
O O14 0.448686 0.936906 0.721831
O O15 0.500000 0.500000 0.500000
O O16 0.308496 0.151747 0.584292
O O17 0.552668 0.241436 0.715540
#
# Coordination Sequence:
#
# PCOD9107110 Si02
#       8
#     2   2   2   2   2   2   2   2
#     4  12  24  38  66  98 133 163 211 269 321 380
#     4  11  21  39  59 100 132 168 202 251 334 387
#     4  10  25  46  67  86 122 177 225 264 316 365
#     4  10  20  40  63  85 137 171 207 252 319 388
#     4  11  25  39  67  98 133 168 207 256 324 396
#     4  11  23  46  67  89 131 173 210 268 319 380
#     4  10  21  38  61  96 129 176 200 249 326 393
#     4  11  25  41  65  96 119 170 224 273 307 366
#
# _framework density 25.152352
#
# number of rings (size 3 to 8) (size 9 to 14) (size 15 to 20)
#    0.000    1.250    2.500    3.750    5.250    1.500 
#    0.000    0.000    0.000    0.000    0.000    0.000 
#    0.000    0.000    0.000    0.000    0.000    0.000 
#
# Total GULP energy -89274.527539 kJ/mol
# GULP energy per Si atom -5579.657971 kJ/mol
# Density = 2.509510 g / cm^3
# Si number density = 25.152352 Si / 1000 Ang^3
#
#
#
# Elastic Constant Matrix: (Units=GPa)
#
#
# Indices 1 2 3 4 5 6 
#
# 1 87.5659 10.1773 8.2053 -12.9982 10.9843 -4.7682
# 2 10.1773 122.2805 2.7708 -28.9866 -4.4834 -1.4069
# 3 8.2053 2.7708 61.1217 -28.7187 -8.2022 -8.1238
# 4 -12.9982 -28.9866 -28.7187 49.4621 -7.7099 6.6819
# 5 10.9843 -4.4834 -8.2022 -7.7099 34.8815 -14.1438
# 6 -4.7682 -1.4069 -8.1238 6.6819 -14.1438 31.0204
#
#
#
# Elastic Compliance Matrix: (Units=1/GPa)
#
#
# Indices 1 2 3 4 5 6 
#
# 1 0.012385 -0.000926 -0.001888 0.001025 -0.004627 -0.000963
# 2 -0.000926 0.010695 0.005354 0.009752 0.006056 0.002406
# 3 -0.001888 0.005354 0.030387 0.021521 0.017804 0.011393
# 4 0.001025 0.009752 0.021521 0.040652 0.017120 0.005285
# 5 -0.004627 0.006056 0.017804 0.017120 0.047960 0.022406
# 6 -0.000963 0.002406 0.011393 0.005285 0.022406 0.044259
#
#
# Mechanical properties :
#
#
# Convention : Reuss Voigt Hill
#
# Bulk Modulus (GPa) = 17.08043 34.80833 25.94438
# Shear Modulus (GPa) = 24.90383 39.72712 32.31548
#
# Velocity S-wave (km/s) = 3.15003 3.97855 3.58828
# Velocity P-wave (km/s) = 4.47613 5.91390 5.24452
#
# Compressibility (1/GPa) = 0.05854654
#
# Stress axis : x y z
#
# Youngs Moduli (GPa) = 80.74580 93.50077 32.90901
#
# Poissons Ratio (x) = 0.08657 0.06214
# Poissons Ratio (y) = 0.07476 -0.17619
# Poissons Ratio (z) = 0.15246 -0.50060
#
# Static dielectric constant tensor:
#      x y z
#    x 2.210980 -0.141080 -0.120550 
#    y -0.141080 2.090280 0.001890 
#    z -0.120550 0.001890 2.191710 
# 
# From -- ./inp_files/242583.got.cif
#   From: 2010.05.17/outbox.cif.g08.bks.cpg/sg2_122_cif.got.tgz:242583.got - 2010.06.03 11:33:40.
