data_PCOD9107731
_publ_section_title
;
Structure prediction by ZEFSAII (Michael W. Deem and Ramdas Pophale) SiO2 
 PCOD9107731
Probable space group: P -1
;
_chemical_formula_sum "Si O2"
_cell_formula_units_Z 16
_cell_length_a 10.623336
_cell_length_b 26.069340
_cell_length_c 19.992891
_cell_angle_alpha 168.749250
_cell_angle_beta 35.094021
_cell_angle_gamma 145.770545
_cell_volume 606.310699
_symmetry_space_group_name_H-M "P -1"
_symmetry_group_IT_number 2
_symmetry_cell_setting 'triclinic'
loop_
_space_group_symop_operation_xyz
x,y,z
-x,-y,-z
loop_
_atom_site_type_symbol
_atom_site_label
_atom_site_fract_x
_atom_site_fract_y
_atom_site_fract_z
Si Si1 0.244286 0.201845 0.583381
Si Si2 0.254646 0.847867 0.929103
Si Si3 0.360558 0.341143 0.182700
Si Si4 0.746074 0.122931 0.703375
Si Si5 0.978360 0.867770 0.692103
Si Si6 0.523682 0.749958 0.214930
Si Si7 0.050645 0.493415 0.281901
Si Si8 0.673294 0.010013 0.122056
O O1 0.457736 0.142042 0.372964
O O2 0.993499 0.181666 0.638456
O O3 0.222646 0.976064 0.362065
O O4 0.328169 0.494630 0.955872
O O5 0.241688 0.591637 0.557294
O O6 0.177396 0.699054 0.841322
O O7 0.103586 0.062876 0.255206
O O8 0.500000 0.000000 0.000000
O O9 0.606690 0.359474 0.067228
O O10 0.191100 0.104188 0.916173
O O11 0.382873 0.231209 0.107869
O O12 0.574081 0.870542 0.421378
O O13 0.778982 0.907579 0.879818
O O14 0.033685 0.590680 0.337883
O O15 0.500000 0.000000 0.500000
O O16 0.751954 0.655608 0.980643
O O17 0.132482 0.763490 0.636500
#
# Coordination Sequence:
#
# PCOD9107731 Si02
#       8
#     2   2   2   2   2   2   2   2
#     4   9  21  41  66  97 128 171 224 274 318 395
#     4  12  26  39  60 101 133 165 209 267 333 390
#     4  10  20  40  65  94 126 162 218 267 318 392
#     4  10  22  42  66  96 129 175 221 269 330 384
#     4  11  21  40  72  89 121 180 208 270 326 376
#     4  11  25  41  66  94 133 179 215 272 328 391
#     4  10  22  44  61  96 131 161 224 267 316 394
#     4   9  17  38  70  90 122 170 216 266 323 377
#
# _framework density 26.389109000000001
#
# number of rings (size 3 to 8) (size 9 to 14) (size 15 to 20)
#    0.000    1.750    2.500    2.250    1.750    4.000 
#    6.750    0.000    0.000    0.000    0.000    0.000 
#    0.000    0.000    0.000    0.000    0.000    0.000 
#
# Total GULP energy -89479.987077 kJ/mol
# GULP energy per Si atom -5592.499192 kJ/mol
# Density = 2.632905 g / cm^3
# Si number density = 26.389109 Si / 1000 Ang^3
#
#
#
# Elastic Constant Matrix: (Units=GPa)
#
#
# Indices 1 2 3 4 5 6 
#
# 1 55.8401 16.0646 32.0860 10.8784 -13.2386 19.3965
# 2 16.0646 113.7782 30.5622 -4.4419 -4.1621 32.3262
# 3 32.0860 30.5622 91.5481 4.7959 -26.0839 16.6697
# 4 10.8784 -4.4419 4.7959 42.0282 1.0717 -0.3284
# 5 -13.2386 -4.1621 -26.0839 1.0717 50.5338 0.6582
# 6 19.3965 32.3262 16.6697 -0.3284 0.6582 28.7476
#
#
#
# Elastic Compliance Matrix: (Units=1/GPa)
#
#
# Indices 1 2 3 4 5 6 
#
# 1 0.030344 0.003135 -0.005942 -0.007149 0.005563 -0.020763
# 2 0.003135 0.013629 -0.002547 0.000774 0.000821 -0.015974
# 3 -0.005942 -0.002547 0.016307 -0.000784 0.006703 -0.002746
# 4 -0.007149 0.000774 -0.000784 0.025925 -0.002826 0.004769
# 5 0.005563 0.000821 0.006703 -0.002826 0.024953 -0.009167
# 6 -0.020763 -0.015974 -0.002746 0.004769 -0.009167 0.068614
#
#
# Mechanical properties :
#
#
# Convention : Reuss Voigt Hill
#
# Bulk Modulus (GPa) = 20.17198 46.51022 33.34110
# Shear Modulus (GPa) = 24.15432 36.42549 30.28990
#
# Velocity S-wave (km/s) = 3.02870 3.71930 3.39162
# Velocity P-wave (km/s) = 4.45997 6.00893 5.29144
#
# Compressibility (1/GPa) = 0.04957372
#
# Stress axis : x y z
#
# Youngs Moduli (GPa) = 32.95540 73.37135 61.32461
#
# Poissons Ratio (x) = -0.23003 0.36437
# Poissons Ratio (y) = -0.10332 0.15617
# Poissons Ratio (z) = 0.19581 0.18685
#
# Static dielectric constant tensor:
#      x y z
#    x 2.117250 -0.018990 -0.003670 
#    y -0.018990 2.100530 -0.084270 
#    z -0.003670 -0.084270 2.159040 
# 
# From -- ./inp_files/308753.got.cif
#   From: 2010.05.17/outbox.cif.g08.bks.cpg/sg2_155_cif.got.tgz:308753.got - 2010.06.03 11:33:40.
