data_PCOD9107035
_publ_section_title
;
Structure prediction by ZEFSAII (Michael W. Deem and Ramdas Pophale) SiO2 
 PCOD9107035
Probable space group: P -1
;
_chemical_formula_sum "Si O2"
_cell_formula_units_Z 16
_cell_length_a 13.104501
_cell_length_b 9.345208
_cell_length_c 14.603295
_cell_angle_alpha 68.614647
_cell_angle_beta 29.882394
_cell_angle_gamma 52.800137
_cell_volume 649.811016
_symmetry_space_group_name_H-M "P -1"
_symmetry_group_IT_number 2
_symmetry_cell_setting 'triclinic'
loop_
_space_group_symop_operation_xyz
x,y,z
-x,-y,-z
loop_
_atom_site_type_symbol
_atom_site_label
_atom_site_fract_x
_atom_site_fract_y
_atom_site_fract_z
Si Si1 0.686009 0.780376 0.370014
Si Si2 0.045009 0.123971 0.369292
Si Si3 0.948643 0.040540 0.770296
Si Si4 0.235727 0.318150 0.298891
Si Si5 0.482452 0.939605 0.295491
Si Si6 0.334630 0.660316 0.669909
Si Si7 0.757712 0.432813 0.915527
Si Si8 0.530975 0.619663 0.230106
O O1 0.667430 0.813083 0.267007
O O2 0.530363 0.701946 0.539603
O O3 0.969150 0.652433 0.225698
O O4 0.500000 0.000000 0.500000
O O5 0.183711 0.995678 0.200050
O O6 0.748695 0.299884 0.530430
O O7 0.154451 0.215515 0.318513
O O8 0.000000 0.000000 0.500000
O O9 0.193300 0.019319 0.537523
O O10 0.081043 0.859821 0.779018
O O11 0.792281 0.244134 0.897348
O O12 0.297670 0.429302 0.157417
O O13 0.000000 0.500000 0.500000
O O14 0.442172 0.132999 0.247877
O O15 0.560331 0.786662 0.188474
O O16 0.500000 0.500000 0.500000
O O17 0.269243 0.571501 0.820691
O O18 0.543266 0.562056 0.129871
#
# Coordination Sequence:
#
# PCOD9107035 Si02
#       8
#     2   2   2   2   2   2   2   2
#     4  11  20  40  68  94 124 174 213 265 309 386
#     4  11  20  41  71  87 123 178 216 247 317 391
#     4  10  20  40  62  93 126 166 214 261 301 395
#     4  12  22  41  73  96 120 175 223 257 309 392
#     4  10  20  40  63  91 131 162 220 256 309 386
#     4  11  19  39  69  86 123 171 222 244 314 391
#     4  12  25  40  66  99 136 157 215 276 326 357
#     4  11  24  40  64  99 130 162 210 279 316 374
#
# _framework density 24.622541999999999
#
# number of rings (size 3 to 8) (size 9 to 14) (size 15 to 20)
#    0.000    1.000   10.000    0.750    0.000    1.500 
#    0.000    2.500    0.000    0.000    0.000    0.000 
#    0.000    0.000    0.000    0.000    0.000    0.000 
#
# Total GULP energy -89531.088346 kJ/mol
# GULP energy per Si atom -5595.693022 kJ/mol
# Density = 2.456650 g / cm^3
# Si number density = 24.622542 Si / 1000 Ang^3
#
#
#
# Elastic Constant Matrix: (Units=GPa)
#
#
# Indices 1 2 3 4 5 6 
#
# 1 102.4683 35.2361 26.1884 16.4679 6.0201 -3.7287
# 2 35.2361 205.7625 43.7615 7.9308 24.7963 -12.3005
# 3 26.1884 43.7615 74.3006 18.3197 27.4719 1.0714
# 4 16.4679 7.9308 18.3197 29.8400 0.0935 17.3916
# 5 6.0201 24.7963 27.4719 0.0935 50.0665 3.8394
# 6 -3.7287 -12.3005 1.0714 17.3916 3.8394 53.7883
#
#
#
# Elastic Compliance Matrix: (Units=1/GPa)
#
#
# Indices 1 2 3 4 5 6 
#
# 1 0.011817 -0.001210 -0.001849 -0.006657 -0.000004 0.002732
# 2 -0.001210 0.005868 -0.002403 -0.000292 -0.001557 0.001511
# 3 -0.001849 -0.002403 0.023733 -0.015649 -0.011946 0.004762
# 4 -0.006657 -0.000292 -0.015649 0.058430 0.010948 -0.019890
# 5 -0.000004 -0.001557 -0.011946 0.010948 0.027712 -0.005636
# 6 0.002732 0.001511 0.004762 -0.019890 -0.005636 0.025865
#
#
# Mechanical properties :
#
#
# Convention : Reuss Voigt Hill
#
# Bulk Modulus (GPa) = 32.79453 65.87816 49.33634
# Shear Modulus (GPa) = 28.65116 45.22866 36.93991
#
# Velocity S-wave (km/s) = 3.41488 4.29053 3.87750
# Velocity P-wave (km/s) = 5.37553 7.16646 6.33461
#
# Compressibility (1/GPa) = 0.03049289
#
# Stress axis : x y z
#
# Youngs Moduli (GPa) = 84.62148 170.42726 42.13603
#
# Poissons Ratio (x) = 0.20622 0.07791
# Poissons Ratio (y) = 0.10239 0.10127
# Poissons Ratio (z) = 0.15646 0.40961
#
# Static dielectric constant tensor:
#      x y z
#    x 2.073110 -0.025560 -0.042280 
#    y -0.025560 1.857880 0.003720 
#    z -0.042280 0.003720 2.001020 
# 
# From -- ./inp_files/527409.got.cif
#   From: 2010.05.17/outbox.cif.g08.bks.cpg/sg2_264_cif.got.tgz:527409.got - 2010.06.03 11:33:40.
