data_PCOD9107234
_publ_section_title
;
Structure prediction by ZEFSAII (Michael W. Deem and Ramdas Pophale) SiO2 
 PCOD9107234
Probable space group: P -1
;
_chemical_formula_sum "Si O2"
_cell_formula_units_Z 12
_cell_length_a 5.361730
_cell_length_b 4.962411
_cell_length_c 19.649438
_cell_angle_alpha 110.995415
_cell_angle_beta 64.123763
_cell_angle_gamma 91.406019
_cell_volume 433.724404
_symmetry_space_group_name_H-M "P -1"
_symmetry_group_IT_number 2
_symmetry_cell_setting 'triclinic'
loop_
_space_group_symop_operation_xyz
x,y,z
-x,-y,-z
loop_
_atom_site_type_symbol
_atom_site_label
_atom_site_fract_x
_atom_site_fract_y
_atom_site_fract_z
Si Si1 0.211505 0.306710 0.171898
Si Si2 0.315676 0.934877 0.254994
Si Si3 0.973299 0.480233 0.406098
Si Si4 0.247991 0.772596 0.984928
Si Si5 0.106550 0.311383 0.862493
Si Si6 0.578438 0.295482 0.552271
O O1 0.192982 0.069237 0.210147
O O2 0.454128 0.187848 0.077714
O O3 0.958819 0.447698 0.166450
O O4 0.279379 0.596156 0.230690
O O5 0.155793 0.163138 0.347300
O O6 0.648644 0.936697 0.214652
O O7 0.755804 0.461554 0.492597
O O8 0.738635 0.546923 0.380329
O O9 0.196155 0.703694 0.413012
O O10 0.240448 0.455468 0.923807
O O11 0.169905 0.750674 0.071110
O O12 0.000000 0.000000 0.000000
O O13 0.500000 0.000000 0.500000
#
# Coordination Sequence:
#
# PCOD9107234 Si02
#       6
#     2   2   2   2   2   2
#     4  11  25  42  66  96 136 186 237 293 372 427
#     4  11  26  44  63 104 139 183 239 298 367 438
#     4  10  24  44  71 108 147 190 248 303 367 452
#     4  10  20  40  63  93 130 178 239 296 354 433
#     4  10  23  41  64  93 135 179 237 300 356 435
#     4  10  22  46  75 106 142 193 245 299 370 445
#
# _framework density 27.667338000000001
#
# number of rings (size 3 to 8) (size 9 to 14) (size 15 to 20)
#    0.000    1.667    1.667    1.000    7.000    0.667 
#    0.000    0.000    0.000    0.000    0.000    0.000 
#    0.000    0.000    0.000    0.000    0.000    0.000 
#
# Total GULP energy -67042.234567 kJ/mol
# GULP energy per Si atom -5586.852881 kJ/mol
# Density = 2.760437 g / cm^3
# Si number density = 27.667338 Si / 1000 Ang^3
#
#
#
# Elastic Constant Matrix: (Units=GPa)
#
#
# Indices 1 2 3 4 5 6 
#
# 1 187.1111 40.4748 45.8930 6.8950 -29.3804 12.2676
# 2 40.4748 81.6512 5.0554 4.3602 -4.1239 4.5323
# 3 45.8930 5.0554 120.4388 26.2442 -28.0735 -11.6959
# 4 6.8950 4.3602 26.2442 38.3011 -10.1846 5.0533
# 5 -29.3804 -4.1239 -28.0735 -10.1846 46.8432 7.8137
# 6 12.2676 4.5323 -11.6959 5.0533 7.8137 60.6769
#
#
#
# Elastic Compliance Matrix: (Units=1/GPa)
#
#
# Indices 1 2 3 4 5 6 
#
# 1 0.007308 -0.003263 -0.002466 0.002026 0.003650 -0.002348
# 2 -0.003263 0.013869 0.000895 -0.001791 -0.000684 0.000034
# 3 -0.002466 0.000895 0.011901 -0.007229 0.003615 0.002862
# 4 0.002026 -0.001791 -0.007229 0.032827 0.004755 -0.005016
# 5 0.003650 -0.000684 0.003615 0.004755 0.027431 -0.003918
# 6 -0.002348 0.000034 0.002862 -0.005016 -0.003918 0.018427
#
#
# Mechanical properties :
#
#
# Convention : Reuss Voigt Hill
#
# Bulk Modulus (GPa) = 42.71847 63.56084 53.13965
# Shear Modulus (GPa) = 38.68955 49.01610 43.85283
#
# Velocity S-wave (km/s) = 3.74355 4.21363 3.98553
# Velocity P-wave (km/s) = 5.84458 6.83345 6.35827
#
# Compressibility (1/GPa) = 0.02340908
#
# Stress axis : x y z
#
# Youngs Moduli (GPa) = 136.84294 72.10531 84.02653
#
# Poissons Ratio (x) = 0.23530 0.20723
# Poissons Ratio (y) = 0.44655 -0.07524
# Poissons Ratio (z) = 0.33749 -0.06457
#
# Static dielectric constant tensor:
#      x y z
#    x 2.429610 0.086740 0.049120 
#    y 0.086740 2.279700 0.011310 
#    z 0.049120 0.011310 2.165500 
# 
# From -- ./inp_files/602632.got.cif
#   From: 2010.05.17/outbox.cif.g08.bks.cpg/sg2_302_cif.got.tgz:602632.got - 2010.06.03 11:33:40.
