data_PCOD9107946
_publ_section_title
;
Structure prediction by ZEFSAII (Michael W. Deem and Ramdas Pophale) SiO2 
 PCOD9107946
Probable space group: P -1
;
_chemical_formula_sum "Si O2"
_cell_formula_units_Z 14
_cell_length_a 10.062679
_cell_length_b 9.435284
_cell_length_c 9.774019
_cell_angle_alpha 44.993336
_cell_angle_beta 81.314734
_cell_angle_gamma 75.836149
_cell_volume 635.834772
_symmetry_space_group_name_H-M "P -1"
_symmetry_group_IT_number 2
_symmetry_cell_setting 'triclinic'
loop_
_space_group_symop_operation_xyz
x,y,z
-x,-y,-z
loop_
_atom_site_type_symbol
_atom_site_label
_atom_site_fract_x
_atom_site_fract_y
_atom_site_fract_z
Si Si1 0.353008 0.443608 0.406085
Si Si2 0.916901 0.914103 0.868150
Si Si3 0.806806 0.268835 0.130677
Si Si4 0.896088 0.293010 0.809528
Si Si5 0.486452 0.785426 0.707923
Si Si6 0.302017 0.308030 0.023688
Si Si7 0.532198 0.766494 0.207149
O O1 0.188564 0.494598 0.378628
O O2 0.430739 0.378250 0.297802
O O3 0.404523 0.649322 0.305554
O O4 0.403742 0.267674 0.629008
O O5 0.956572 0.132243 0.225746
O O6 0.963877 0.742003 0.099872
O O7 0.777530 0.878065 0.850089
O O8 0.089001 0.874524 0.196783
O O9 0.672907 0.216182 0.253667
O O10 0.797819 0.248193 0.980971
O O11 0.799252 0.501610 0.020837
O O12 0.564112 0.744127 0.867524
O O13 0.500000 0.000000 0.500000
O O14 0.354650 0.351126 0.836194
O O15 0.500000 0.000000 0.000000
#
# Coordination Sequence:
#
# PCOD9107946 Si02
#       7
#     2   2   2   2   2   2   2
#     4  11  22  42  63  98 136 173 218 279 325 405
#     4   9  21  38  69  96 126 180 219 267 333 404
#     4  10  20  40  66  91 132 171 214 271 337 388
#     4   9  19  40  68  89 133 172 221 263 334 390
#     4  12  24  39  65  97 132 170 221 278 336 391
#     4  12  21  40  67  96 126 171 222 271 334 391
#     4  11  24  39  65 100 136 170 222 273 338 392
#
# _framework density 22.018298000000001
#
# number of rings (size 3 to 8) (size 9 to 14) (size 15 to 20)
#    0.857    0.571    2.857    3.429    0.000    2.286 
#    0.000    1.429    3.143    0.000    0.000    0.000 
#    0.000    0.000    0.000    0.000    0.000    0.000 
#
# Total GULP energy -78083.404125 kJ/mol
# GULP energy per Si atom -5577.386009 kJ/mol
# Density = 2.196818 g / cm^3
# Si number density = 22.018298 Si / 1000 Ang^3
#
#
#
# Elastic Constant Matrix: (Units=GPa)
#
#
# Indices 1 2 3 4 5 6 
#
# 1 54.9111 17.6597 7.8518 6.9062 7.8154 -6.6249
# 2 17.6597 74.9801 -2.0675 1.5084 -10.1469 -12.3678
# 3 7.8518 -2.0675 59.2286 -0.0267 3.8602 6.4376
# 4 6.9062 1.5084 -0.0267 31.0962 -1.1460 0.9599
# 5 7.8154 -10.1469 3.8602 -1.1460 12.7113 2.1141
# 6 -6.6249 -12.3678 6.4376 0.9599 2.1141 31.6201
#
#
#
# Elastic Compliance Matrix: (Units=1/GPa)
#
#
# Indices 1 2 3 4 5 6 
#
# 1 0.025958 -0.008472 -0.002708 -0.006348 -0.023208 0.004420
# 2 -0.008472 0.018627 0.000051 0.001569 0.019514 0.004148
# 3 -0.002708 0.000051 0.017876 0.000627 -0.003000 -0.004005
# 4 -0.006348 0.001569 0.000627 0.033878 0.008425 -0.002436
# 5 -0.023208 0.019514 -0.003000 0.008425 0.110901 -0.004289
# 6 0.004420 0.004148 -0.004005 -0.002436 -0.004289 0.035350
#
#
# Mechanical properties :
#
#
# Convention : Reuss Voigt Hill
#
# Bulk Modulus (GPa) = 24.87333 26.22308 25.54821
# Shear Modulus (GPa) = 17.96956 26.13059 22.05007
#
# Velocity S-wave (km/s) = 2.85988 3.44869 3.16799
# Velocity P-wave (km/s) = 4.71449 5.27195 5.00099
#
# Compressibility (1/GPa) = 0.04020370
#
# Stress axis : x y z
#
# Youngs Moduli (GPa) = 38.52362 53.68504 55.94222
#
# Poissons Ratio (x) = 0.45484 0.15147
# Poissons Ratio (y) = 0.32638 -0.00288
# Poissons Ratio (z) = 0.10431 -0.00276
#
# Static dielectric constant tensor:
#      x y z
#    x 1.826260 0.001120 0.034690 
#    y 0.001120 1.836570 -0.015120 
#    z 0.034690 -0.015120 1.824510 
# 
# From -- ./inp_files/242134.got.cif
#   From: 2010.05.17/outbox.cif.g08.bks.cpg/sg2_122_cif.got.tgz:242134.got - 2010.06.03 11:33:40.
