data_PCOD9107135
_publ_section_title
;
Structure prediction by ZEFSAII (Michael W. Deem and Ramdas Pophale) SiO2 
 PCOD9107135
Probable space group: P -1
;
_chemical_formula_sum "Si O2"
_cell_formula_units_Z 16
_cell_length_a 6.650920
_cell_length_b 12.103876
_cell_length_c 26.870575
_cell_angle_alpha 154.066382
_cell_angle_beta 128.558279
_cell_angle_gamma 51.060597
_cell_volume 724.997770
_symmetry_space_group_name_H-M "P -1"
_symmetry_group_IT_number 2
_symmetry_cell_setting 'triclinic'
loop_
_space_group_symop_operation_xyz
x,y,z
-x,-y,-z
loop_
_atom_site_type_symbol
_atom_site_label
_atom_site_fract_x
_atom_site_fract_y
_atom_site_fract_z
Si Si1 0.181779 0.814413 0.683892
Si Si2 0.560253 0.838190 0.393710
Si Si3 0.955221 0.581911 0.725725
Si Si4 0.628504 0.927034 0.273987
Si Si5 0.189490 0.055658 0.976708
Si Si6 0.593613 0.736382 0.540168
Si Si7 0.123211 0.534091 0.228202
Si Si8 0.075344 0.985089 0.177749
O O1 0.376285 0.544083 0.592914
O O2 0.890083 0.769277 0.609499
O O3 0.252226 0.018933 0.738773
O O4 0.151836 0.915640 0.776806
O O5 0.847617 0.661183 0.364682
O O6 0.345879 0.656161 0.284598
O O7 0.500000 0.000000 0.500000
O O8 0.527313 0.040648 0.426212
O O9 0.803800 0.495102 0.713978
O O10 0.846779 0.765887 0.737220
O O11 0.113314 0.777341 0.857216
O O12 0.843473 0.723546 0.254045
O O13 0.346587 0.847088 0.189170
O O14 0.566837 0.189990 0.403849
O O15 0.108252 0.264628 0.091175
O O16 0.045252 0.155292 0.942560
O O17 0.500000 0.000000 0.000000
#
# Coordination Sequence:
#
# PCOD9107135 Si02
#       8
#     2   2   2   2   2   2   2   2
#     4  10  20  40  63  87 132 170 213 254 325 380
#     4  12  24  40  65  98 133 168 215 266 320 382
#     4  10  23  44  65  97 128 167 221 258 318 392
#     4  11  22  39  65  94 132 163 213 264 325 383
#     4  10  22  44  70  92 126 177 215 265 324 381
#     4  10  21  38  60  92 126 174 211 257 313 391
#     4  12  23  43  69  94 130 174 212 270 329 372
#     4   9  23  40  62  97 123 163 217 261 312 383
#
# _framework density 22.069036000000001
#
# number of rings (size 3 to 8) (size 9 to 14) (size 15 to 20)
#    0.750    0.750    3.750    1.500    0.000    4.000 
#    2.250    0.625    0.000    0.000    0.000    0.000 
#    0.000    0.000    0.000    0.000    0.000    0.000 
#
# Total GULP energy -89303.567688 kJ/mol
# GULP energy per Si atom -5581.472981 kJ/mol
# Density = 2.201881 g / cm^3
# Si number density = 22.069036 Si / 1000 Ang^3
#
#
#
# Elastic Constant Matrix: (Units=GPa)
#
#
# Indices 1 2 3 4 5 6 
#
# 1 73.9491 8.0919 23.9055 -8.0268 -25.3433 13.2022
# 2 8.0919 65.5255 1.1902 -9.0088 -10.3309 1.6726
# 3 23.9055 1.1902 71.9841 -5.9024 -24.2845 0.6281
# 4 -8.0268 -9.0088 -5.9024 30.1560 3.1087 -5.7777
# 5 -25.3433 -10.3309 -24.2845 3.1087 38.2108 -1.2386
# 6 13.2022 1.6726 0.6281 -5.7777 -1.2386 34.5156
#
#
#
# Elastic Compliance Matrix: (Units=1/GPa)
#
#
# Indices 1 2 3 4 5 6 
#
# 1 0.019531 -0.000172 -0.002572 0.002249 0.010874 -0.006649
# 2 -0.000172 0.016736 0.001951 0.004835 0.005265 0.000217
# 3 -0.002572 0.001951 0.018415 0.002699 0.010350 0.001378
# 4 0.002249 0.004835 0.002699 0.036520 0.001706 0.005031
# 5 0.010874 0.005265 0.010350 0.001706 0.041153 -0.002840
# 6 -0.006649 0.000217 0.001378 0.005031 -0.002840 0.032220
#
#
# Mechanical properties :
#
#
# Convention : Reuss Voigt Hill
#
# Bulk Modulus (GPa) = 18.83398 30.87044 24.85221
# Shear Modulus (GPa) = 27.19452 32.46124 29.82788
#
# Velocity S-wave (km/s) = 3.51415 3.83939 3.68036
# Velocity P-wave (km/s) = 5.00183 5.80284 5.41716
#
# Compressibility (1/GPa) = 0.05309552
#
# Stress axis : x y z
#
# Youngs Moduli (GPa) = 51.20062 59.75070 54.30391
#
# Poissons Ratio (x) = 0.01027 0.13969
# Poissons Ratio (y) = 0.00880 -0.10594
# Poissons Ratio (z) = 0.13171 -0.11657
#
# Static dielectric constant tensor:
#      x y z
#    x 1.812000 0.013350 0.005250 
#    y 0.013350 1.825710 -0.024590 
#    z 0.005250 -0.024590 1.817720 
# 
# From -- ./inp_files/604510.got.cif
#   From: 2010.05.17/outbox.cif.g08.bks.cpg/sg2_303_cif.got.tgz:604510.got - 2010.06.03 11:33:40.
