data_PCOD9107372
_publ_section_title
;
Structure prediction by ZEFSAII (Michael W. Deem and Ramdas Pophale) SiO2 
 PCOD9107372
Probable space group: P -1
;
_chemical_formula_sum "Si O2"
_cell_formula_units_Z 16
_cell_length_a 8.328020
_cell_length_b 14.285411
_cell_length_c 8.654997
_cell_angle_alpha 53.337195
_cell_angle_beta 112.157293
_cell_angle_gamma 103.347691
_cell_volume 764.951544
_symmetry_space_group_name_H-M "P -1"
_symmetry_group_IT_number 2
_symmetry_cell_setting 'triclinic'
loop_
_space_group_symop_operation_xyz
x,y,z
-x,-y,-z
loop_
_atom_site_type_symbol
_atom_site_label
_atom_site_fract_x
_atom_site_fract_y
_atom_site_fract_z
Si Si1 0.137420 0.099898 0.398747
Si Si2 0.505486 0.995694 0.318986
Si Si3 0.933815 0.252130 0.376596
Si Si4 0.545783 0.256424 0.098538
Si Si5 0.872282 0.029797 0.786473
Si Si6 0.491965 0.501177 0.677471
Si Si7 0.348494 0.402764 0.091484
Si Si8 0.125241 0.531029 0.655093
O O1 0.144802 0.076172 0.240592
O O2 0.064902 0.221306 0.316267
O O3 0.316826 0.070720 0.579066
O O4 0.000000 0.000000 0.500000
O O5 0.516788 0.130357 0.139358
O O6 0.322455 0.944807 0.249822
O O7 0.500000 0.000000 0.500000
O O8 0.742984 0.261229 0.223146
O O9 0.955569 0.365550 0.376536
O O10 0.933381 0.142437 0.601414
O O11 0.425096 0.280845 0.181274
O O12 0.502417 0.365391 0.866983
O O13 0.000000 0.000000 0.000000
O O14 0.500000 0.500000 0.500000
O O15 0.646590 0.571768 0.750630
O O16 0.311253 0.557283 0.615097
O O17 0.500000 0.500000 0.000000
O O18 0.181258 0.434827 0.898745
O O19 0.000000 0.500000 0.500000
#
# Coordination Sequence:
#
# PCOD9107372 Si02
#       8
#     2   2   2   2   2   2   2   2
#     4   9  18  34  59  83 116 162 203 236 291 371
#     4  10  18  34  62  88 115 155 205 238 289 368
#     4  11  18  38  62  80 121 168 193 237 317 355
#     4  10  16  34  66  81 111 166 197 237 308 355
#     4  10  22  37  56  90 127 150 201 257 291 354
#     4  10  20  37  59  88 112 149 209 250 296 366
#     4   8  16  33  58  81 105 151 197 233 295 363
#     4  10  20  38  62  88 115 155 202 255 306 365
#
# _framework density 20.916357999999999
#
# number of rings (size 3 to 8) (size 9 to 14) (size 15 to 20)
#    0.000    2.500    7.500    0.000    0.000    2.000 
#    2.250    6.875    2.750    1.500    0.000    0.000 
#    0.000    0.000    0.000    0.000    0.000    0.000 
#
# Total GULP energy -89172.926907 kJ/mol
# GULP energy per Si atom -5573.307932 kJ/mol
# Density = 2.086875 g / cm^3
# Si number density = 20.916358 Si / 1000 Ang^3
#
#
#
# Elastic Constant Matrix: (Units=GPa)
#
#
# Indices 1 2 3 4 5 6 
#
# 1 59.2577 32.1449 40.2748 6.4379 25.2551 -16.1566
# 2 32.1449 84.8484 45.3131 -1.3278 15.0120 -31.0571
# 3 40.2748 45.3131 120.4774 16.3399 22.8397 -9.9714
# 4 6.4379 -1.3278 16.3399 38.0716 2.7431 6.2510
# 5 25.2551 15.0120 22.8397 2.7431 36.2506 -2.5961
# 6 -16.1566 -31.0571 -9.9714 6.2510 -2.5961 34.5842
#
#
#
# Elastic Compliance Matrix: (Units=1/GPa)
#
#
# Indices 1 2 3 4 5 6 
#
# 1 0.032536 -0.002621 -0.005206 -0.003882 -0.017238 0.010753
# 2 -0.002621 0.022635 -0.005872 0.001158 -0.002718 0.016995
# 3 -0.005206 -0.005872 0.012915 -0.004168 -0.002005 -0.003379
# 4 -0.003882 0.001158 -0.004168 0.029785 0.002081 -0.007203
# 5 -0.017238 -0.002718 -0.002005 0.002081 0.041228 -0.008353
# 6 0.010753 0.016995 -0.003379 -0.007203 -0.008353 0.048901
#
#
# Mechanical properties :
#
#
# Convention : Reuss Voigt Hill
#
# Bulk Modulus (GPa) = 24.57823 55.56102 40.06963
# Shear Modulus (GPa) = 21.83790 31.57131 26.70460
#
# Velocity S-wave (km/s) = 3.23469 3.88932 3.57702
# Velocity P-wave (km/s) = 5.07220 6.84034 6.02152
#
# Compressibility (1/GPa) = 0.04068641
#
# Stress axis : x y z
#
# Youngs Moduli (GPa) = 30.73549 44.18027 77.42889
#
# Poissons Ratio (x) = 0.11579 0.40313
# Poissons Ratio (y) = 0.08055 0.45467
# Poissons Ratio (z) = 0.16002 0.25943
#
# Static dielectric constant tensor:
#      x y z
#    x 1.869450 0.012920 -0.041410 
#    y 0.012920 1.746620 0.024530 
#    z -0.041410 0.024530 1.730150 
# 
# From -- ./inp_files/206071.got.cif
#   From: 2010.05.17/outbox.cif.g08.bks.cpg/sg2_104_cif.got.tgz:206071.got - 2010.06.03 11:33:40.
