data_PCOD9107071
_publ_section_title
;
Structure prediction by ZEFSAII (Michael W. Deem and Ramdas Pophale) SiO2 
 PCOD9107071
Probable space group: P -1
;
_chemical_formula_sum "Si O2"
_cell_formula_units_Z 16
_cell_length_a 8.719928
_cell_length_b 17.361901
_cell_length_c 5.243304
_cell_angle_alpha 108.413761
_cell_angle_beta 92.140216
_cell_angle_gamma 114.908364
_cell_volume 669.583990
_symmetry_space_group_name_H-M "P -1"
_symmetry_group_IT_number 2
_symmetry_cell_setting 'triclinic'
loop_
_space_group_symop_operation_xyz
x,y,z
-x,-y,-z
loop_
_atom_site_type_symbol
_atom_site_label
_atom_site_fract_x
_atom_site_fract_y
_atom_site_fract_z
Si Si1 0.140515 0.566042 0.876312
Si Si2 0.172595 0.994247 0.956032
Si Si3 0.787652 0.268004 0.660170
Si Si4 0.796060 0.753468 0.809959
Si Si5 0.514895 0.809709 0.848023
Si Si6 0.107935 0.399421 0.487460
Si Si7 0.595738 0.059879 0.811691
Si Si8 0.022514 0.848213 0.410821
O O1 0.221428 0.502886 0.702539
O O2 0.027090 0.588844 0.693313
O O3 0.258923 0.665039 0.101526
O O4 0.000000 0.500000 0.000000
O O5 0.139461 0.952018 0.624569
O O6 0.218494 0.930883 0.081768
O O7 0.319265 0.096398 0.120019
O O8 0.000000 0.000000 0.000000
O O9 0.641135 0.228800 0.398531
O O10 0.836949 0.189129 0.661703
O O11 0.978840 0.336703 0.632759
O O12 0.603133 0.743324 0.805775
O O13 0.804838 0.657137 0.697348
O O14 0.900647 0.803885 0.610562
O O15 0.892185 0.812386 0.127831
O O16 0.439166 0.851509 0.104639
O O17 0.500000 0.000000 0.500000
O O18 0.500000 0.000000 0.000000
#
# Coordination Sequence:
#
# PCOD9107071 Si02
#       8
#     2   2   2   2   2   2   2   2
#     4   9  17  36  69  94 122 158 212 256 317 388
#     4  11  23  44  64  91 125 178 226 269 313 372
#     4  10  20  40  62  96 127 170 208 267 320 382
#     4  11  24  41  64  97 129 171 214 270 318 383
#     4  11  24  42  61  92 134 171 216 267 328 371
#     4   9  19  37  64  98 123 162 211 260 314 391
#     4  10  24  43  61  89 122 166 216 269 320 368
#     4  11  23  42  64  90 128 172 227 267 311 376
#
# _framework density 23.895433000000001
#
# number of rings (size 3 to 8) (size 9 to 14) (size 15 to 20)
#    0.000    1.750    3.750    0.000    1.750    2.500 
#    6.750    0.625    0.000    6.750    0.000    0.000 
#    0.000    0.000    0.000    0.000    0.000    0.000 
#
# Total GULP energy -89222.526740 kJ/mol
# GULP energy per Si atom -5576.407921 kJ/mol
# Density = 2.384105 g / cm^3
# Si number density = 23.895433 Si / 1000 Ang^3
#
#
#
# Elastic Constant Matrix: (Units=GPa)
#
#
# Indices 1 2 3 4 5 6 
#
# 1 162.1670 20.1070 33.1142 6.7281 -8.2174 -29.5461
# 2 20.1070 50.0727 25.1464 28.4641 -20.4263 -24.9070
# 3 33.1142 25.1464 148.1224 14.8139 -9.4264 -10.9283
# 4 6.7281 28.4641 14.8139 44.4035 -6.6030 -8.2583
# 5 -8.2174 -20.4263 -9.4264 -6.6030 33.3047 5.6575
# 6 -29.5461 -24.9070 -10.9283 -8.2583 5.6575 34.5508
#
#
#
# Elastic Compliance Matrix: (Units=1/GPa)
#
#
# Indices 1 2 3 4 5 6 
#
# 1 0.007597 0.002095 -0.001382 -0.000475 0.001448 0.007219
# 2 0.002095 0.072519 -0.004583 -0.033386 0.030339 0.039671
# 3 -0.001382 -0.004583 0.007641 0.000145 -0.000632 -0.001930
# 4 -0.000475 -0.033386 0.000145 0.039949 -0.010393 -0.013177
# 5 0.001448 0.030339 -0.000632 -0.010393 0.044519 0.013134
# 6 0.007219 0.039671 -0.001930 -0.013177 0.013134 0.057804
#
#
# Mechanical properties :
#
#
# Convention : Reuss Voigt Hill
#
# Bulk Modulus (GPa) = 12.49739 57.45525 34.97632
# Shear Modulus (GPa) = 18.90770 41.25142 30.07956
#
# Velocity S-wave (km/s) = 2.81600 4.15942 3.55181
# Velocity P-wave (km/s) = 3.97675 6.86763 5.61155
#
# Compressibility (1/GPa) = 0.08001670
#
# Stress axis : x y z
#
# Youngs Moduli (GPa) = 131.62593 13.78950 130.87337
#
# Poissons Ratio (x) = -0.02888 0.18084
# Poissons Ratio (y) = -0.27571 0.59981
# Poissons Ratio (z) = 0.18188 0.06320
#
# Static dielectric constant tensor:
#      x y z
#    x 2.138690 0.296300 -0.163530 
#    y 0.296300 2.403460 -0.227320 
#    z -0.163530 -0.227320 1.977240 
# 
# From -- ./inp_files/53773.got.cif
#   From: 2010.05.17/outbox.cif.g08.bks.cpg/sg2_27_cif.got.tgz:53773.got - 2010.06.03 11:33:40.
