data_PCOD9107329
_publ_section_title
;
Structure prediction by ZEFSAII (Michael W. Deem and Ramdas Pophale) SiO2 
 PCOD9107329
Probable space group: P -1
;
_chemical_formula_sum "Si O2"
_cell_formula_units_Z 16
_cell_length_a 13.195389
_cell_length_b 11.825272
_cell_length_c 7.543883
_cell_angle_alpha 121.971828
_cell_angle_beta 47.611778
_cell_angle_gamma 133.942939
_cell_volume 621.791041
_symmetry_space_group_name_H-M "P -1"
_symmetry_group_IT_number 2
_symmetry_cell_setting 'triclinic'
loop_
_space_group_symop_operation_xyz
x,y,z
-x,-y,-z
loop_
_atom_site_type_symbol
_atom_site_label
_atom_site_fract_x
_atom_site_fract_y
_atom_site_fract_z
Si Si1 0.374339 0.693306 0.338087
Si Si2 0.846845 0.039931 0.496447
Si Si3 0.891342 0.260813 0.318647
Si Si4 0.193778 0.198054 0.282662
Si Si5 0.187898 0.246246 0.908486
Si Si6 0.536846 0.209666 0.281971
Si Si7 0.659948 0.008158 0.092696
Si Si8 0.530707 0.434658 0.192425
O O1 0.183868 0.631428 0.502670
O O2 0.429237 0.723441 0.501790
O O3 0.487046 0.864847 0.250813
O O4 0.414168 0.585638 0.085519
O O5 0.881156 0.918480 0.247245
O O6 0.651336 0.925928 0.637055
O O7 0.873682 0.185153 0.466835
O O8 0.010963 0.135054 0.502411
O O9 0.766574 0.116329 0.218909
O O10 0.068676 0.310908 0.085582
O O11 0.337278 0.354793 0.338663
O O12 0.206210 0.221114 0.074229
O O13 0.247596 0.073900 0.155963
O O14 0.360589 0.381732 0.740019
O O15 0.636972 0.122588 0.087004
O O16 0.575322 0.338233 0.193835
#
# Coordination Sequence:
#
# PCOD9107329 Si02
#       8
#     2   2   2   2   2   2   2   2
#     4  10  20  38  65  92 124 161 209 263 312 356
#     4  11  18  36  65  96 114 165 214 261 304 361
#     4  10  16  34  65  93 117 161 216 260 304 358
#     4  10  20  36  64  89 123 159 212 261 305 352
#     4  11  21  37  63  92 131 166 207 248 315 386
#     4  11  22  38  66  94 125 164 208 255 317 369
#     4  10  16  36  62  96 115 154 210 263 303 350
#     4  11  26  40  57  99 131 167 200 253 316 385
#
# _framework density 25.732116999999999
#
# number of rings (size 3 to 8) (size 9 to 14) (size 15 to 20)
#    0.000    1.500    5.000    2.625    0.000    3.500 
#    0.000    2.500    0.000    0.000    0.000    0.000 
#    0.000    0.000    0.000    0.000    0.000    0.000 
#
# Total GULP energy -89513.620133 kJ/mol
# GULP energy per Si atom -5594.601258 kJ/mol
# Density = 2.567355 g / cm^3
# Si number density = 25.732117 Si / 1000 Ang^3
#
#
#
# Elastic Constant Matrix: (Units=GPa)
#
#
# Indices 1 2 3 4 5 6 
#
# 1 171.7914 30.3025 32.2068 -6.1223 -28.7446 -1.5644
# 2 30.3025 88.4478 10.7245 -11.5444 -7.9155 -0.2075
# 3 32.2068 10.7245 60.6399 14.6177 -15.3670 9.5683
# 4 -6.1223 -11.5444 14.6177 28.7891 13.6495 3.8543
# 5 -28.7446 -7.9155 -15.3670 13.6495 48.1824 -4.3937
# 6 -1.5644 -0.2075 9.5683 3.8543 -4.3937 32.3718
#
#
#
# Elastic Compliance Matrix: (Units=1/GPa)
#
#
# Indices 1 2 3 4 5 6 
#
# 1 0.007273 -0.001701 -0.003323 0.000978 0.002868 0.001596
# 2 -0.001701 0.013217 -0.003993 0.008134 -0.002432 -0.000116
# 3 -0.003323 -0.003993 0.027860 -0.021563 0.011970 -0.004229
# 4 0.000978 0.008134 -0.021563 0.060260 -0.022369 -0.003738
# 5 0.002868 -0.002432 0.011970 -0.022369 0.032555 0.003667
# 6 0.001596 -0.000116 -0.004229 -0.003738 0.003667 0.033160
#
#
# Mechanical properties :
#
#
# Convention : Reuss Voigt Hill
#
# Bulk Modulus (GPa) = 32.98442 51.92740 42.45591
# Shear Modulus (GPa) = 24.69569 38.37834 31.53702
#
# Velocity S-wave (km/s) = 3.10130 3.86613 3.50464
# Velocity P-wave (km/s) = 5.06659 6.33664 5.73687
#
# Compressibility (1/GPa) = 0.03031734
#
# Stress axis : x y z
#
# Youngs Moduli (GPa) = 137.48899 75.66175 35.89312
#
# Poissons Ratio (x) = 0.12869 0.11927
# Poissons Ratio (y) = 0.23384 0.14332
# Poissons Ratio (z) = 0.45687 0.30210
#
# Static dielectric constant tensor:
#      x y z
#    x 2.016200 -0.045270 0.019910 
#    y -0.045270 2.011250 -0.016670 
#    z 0.019910 -0.016670 2.207820 
# 
# From -- ./inp_files/259437.got.cif
#   From: 2010.05.17/outbox.cif.g08.bks.cpg/sg2_130_cif.got.tgz:259437.got - 2010.06.03 11:33:40.
