data_PCOD9107089
_publ_section_title
;
Structure prediction by ZEFSAII (Michael W. Deem and Ramdas Pophale) SiO2 
 PCOD9107089
Probable space group: P -1
;
_chemical_formula_sum "Si O2"
_cell_formula_units_Z 16
_cell_length_a 11.432071
_cell_length_b 21.074889
_cell_length_c 6.186957
_cell_angle_alpha 78.783111
_cell_angle_beta 74.193534
_cell_angle_gamma 29.747510
_cell_volume 708.892521
_symmetry_space_group_name_H-M "P -1"
_symmetry_group_IT_number 2
_symmetry_cell_setting 'triclinic'
loop_
_space_group_symop_operation_xyz
x,y,z
-x,-y,-z
loop_
_atom_site_type_symbol
_atom_site_label
_atom_site_fract_x
_atom_site_fract_y
_atom_site_fract_z
Si Si1 0.438857 0.297707 0.464102
Si Si2 0.144824 0.842334 0.869761
Si Si3 0.435226 0.479959 0.741767
Si Si4 0.409007 0.025712 0.776161
Si Si5 0.784646 0.115571 0.793925
Si Si6 0.119569 0.715796 0.041111
Si Si7 0.432732 0.192639 0.213848
Si Si8 0.912608 0.479031 0.206382
O O1 0.568875 0.281953 0.230297
O O2 0.630724 0.213886 0.614461
O O3 0.439407 0.224185 0.424483
O O4 0.189704 0.439775 0.580272
O O5 0.098130 0.883329 0.115512
O O6 0.075032 0.802437 0.873496
O O7 0.987508 0.968709 0.742536
O O8 0.500000 0.500000 0.500000
O O9 0.685558 0.356420 0.825669
O O10 0.304719 0.471268 0.770118
O O11 0.244728 0.604824 0.906807
O O12 0.142050 0.179397 0.806578
O O13 0.500000 0.000000 0.500000
O O14 0.446478 0.931373 0.803931
O O15 0.500000 0.000000 0.000000
O O16 0.585309 0.170189 0.000817
O O17 0.150922 0.325792 0.209577
O O18 0.000000 0.500000 0.000000
#
# Coordination Sequence:
#
# PCOD9107089 Si02
#       8
#     2   2   2   2   2   2   2   2
#     4  11  23  40  66 103 141 197 239 313 383 464
#     4  10  21  39  66 101 141 183 248 301 389 460
#     4  11  27  49  75 109 148 206 267 327 400 479
#     4  12  30  52  79 114 155 209 266 329 400 480
#     4  10  20  40  63 102 143 181 239 306 384 452
#     4  11  25  47  77 105 150 203 260 331 393 480
#     4  11  25  44  69 105 146 194 249 315 385 470
#     4  12  25  46  73 102 153 199 257 325 396 470
#
# _framework density 22.570418
#
# number of rings (size 3 to 8) (size 9 to 14) (size 15 to 20)
#    0.000    1.000    2.500    3.000    7.000    1.000 
#    4.500    0.000    0.000    0.000    0.000    0.000 
#    0.000    0.000    0.000    0.000    0.000    0.000 
#
# Total GULP energy -89147.606756 kJ/mol
# GULP energy per Si atom -5571.725422 kJ/mol
# Density = 2.251905 g / cm^3
# Si number density = 22.570418 Si / 1000 Ang^3
#
#
#
# Elastic Constant Matrix: (Units=GPa)
#
#
# Indices 1 2 3 4 5 6 
#
# 1 101.1882 29.2483 42.7614 5.4050 13.4109 -5.5433
# 2 29.2483 134.3922 35.6708 24.7572 8.9131 -17.3270
# 3 42.7614 35.6708 78.2343 12.8500 -6.8405 -12.7781
# 4 5.4050 24.7572 12.8500 37.5207 -8.8816 -5.3106
# 5 13.4109 8.9131 -6.8405 -8.8816 26.3463 0.2169
# 6 -5.5433 -17.3270 -12.7781 -5.3106 0.2169 41.8833
#
#
#
# Elastic Compliance Matrix: (Units=1/GPa)
#
#
# Indices 1 2 3 4 5 6 
#
# 1 0.015183 0.000023 -0.009108 -0.001742 -0.010681 -0.000925
# 2 0.000023 0.010500 -0.003892 -0.006909 -0.006923 0.002319
# 3 -0.009108 -0.003892 0.021135 -0.000168 0.011355 0.003553
# 4 -0.001742 -0.006909 -0.000168 0.035261 0.015057 0.001253
# 5 -0.010681 -0.006923 0.011355 0.015057 0.053752 0.000818
# 6 -0.000925 0.002319 0.003553 0.001253 0.000818 0.025951
#
#
# Mechanical properties :
#
#
# Convention : Reuss Voigt Hill
#
# Bulk Modulus (GPa) = 47.92737 58.79731 53.36234
# Shear Modulus (GPa) = 25.68185 34.89233 30.28709
#
# Velocity S-wave (km/s) = 3.37687 3.93610 3.66716
# Velocity P-wave (km/s) = 6.04028 6.83845 6.45172
#
# Compressibility (1/GPa) = 0.02086490
#
# Stress axis : x y z
#
# Youngs Moduli (GPa) = 65.86383 95.24122 47.31382
#
# Poissons Ratio (x) = -0.00221 0.43094
# Poissons Ratio (y) = -0.00153 0.18413
# Poissons Ratio (z) = 0.59989 0.37065
#
# Static dielectric constant tensor:
#      x y z
#    x 1.917110 -0.021010 -0.015290 
#    y -0.021010 1.849220 -0.005830 
#    z -0.015290 -0.005830 1.952130 
# 
# From -- ./inp_files/69781.got.cif
#   From: 2010.05.17/outbox.cif.g08.bks.cpg/sg2_35_cif.got.tgz:69781.got - 2010.06.03 11:33:40.
