data_PCOD9107923
_publ_section_title
;
Structure prediction by ZEFSAII (Michael W. Deem and Ramdas Pophale) SiO2 
 PCOD9107923
Probable space group: P -1
;
_chemical_formula_sum "Si O2"
_cell_formula_units_Z 16
_cell_length_a 7.729013
_cell_length_b 11.775747
_cell_length_c 11.481002
_cell_angle_alpha 91.092226
_cell_angle_beta 39.196903
_cell_angle_gamma 103.954503
_cell_volume 616.441174
_symmetry_space_group_name_H-M "P -1"
_symmetry_group_IT_number 2
_symmetry_cell_setting 'triclinic'
loop_
_space_group_symop_operation_xyz
x,y,z
-x,-y,-z
loop_
_atom_site_type_symbol
_atom_site_label
_atom_site_fract_x
_atom_site_fract_y
_atom_site_fract_z
Si Si1 0.473680 0.678044 0.446509
Si Si2 0.112684 0.288010 0.337803
Si Si3 0.112032 0.071237 0.823051
Si Si4 0.194379 0.676564 0.828776
Si Si5 0.886298 0.563108 0.454888
Si Si6 0.511757 0.950201 0.683607
Si Si7 0.146407 0.024069 0.274254
Si Si8 0.738146 0.446113 0.967367
O O1 0.764582 0.783224 0.252251
O O2 0.428439 0.669941 0.608525
O O3 0.418390 0.544434 0.422131
O O4 0.192307 0.710473 0.552417
O O5 0.110880 0.317254 0.476957
O O6 0.160728 0.162809 0.284313
O O7 0.386962 0.396191 0.140222
O O8 0.407102 0.038163 0.660654
O O9 0.868009 0.011299 0.852660
O O10 0.000000 0.000000 0.000000
O O11 0.257749 0.818981 0.809203
O O12 0.890491 0.585298 0.932861
O O13 0.224911 0.629065 0.939798
O O14 0.000000 0.500000 0.500000
O O15 0.092273 0.581008 0.233672
O O16 0.621171 0.994604 0.758383
O O17 0.814312 0.942132 0.480501
#
# Coordination Sequence:
#
# PCOD9107923 Si02
#       8
#     2   2   2   2   2   2   2   2
#     4  10  21  42  65  96 139 181 232 285 351 418
#     4  11  21  41  71  97 136 184 225 288 352 417
#     4  12  26  43  69 106 143 183 238 297 348 427
#     4  10  20  40  66  90 140 174 225 290 335 421
#     4   9  22  39  65  99 137 175 223 292 338 417
#     4  11  22  43  69 100 132 188 235 283 353 421
#     4  11  23  41  73  99 130 190 236 280 356 423
#     4  10  22  40  65 102 129 183 233 275 349 416
#
# _framework density 25.955437
#
# number of rings (size 3 to 8) (size 9 to 14) (size 15 to 20)
#    0.000    1.500    3.750    1.125    0.000    8.000 
#    0.000    9.375    0.000    0.000    0.000    0.000 
#    0.000    0.000    0.000    0.000    0.000    0.000 
#
# Total GULP energy -89472.829658 kJ/mol
# GULP energy per Si atom -5592.051854 kJ/mol
# Density = 2.589636 g / cm^3
# Si number density = 25.955437 Si / 1000 Ang^3
#
#
#
# Elastic Constant Matrix: (Units=GPa)
#
#
# Indices 1 2 3 4 5 6 
#
# 1 90.9616 14.0116 10.3740 8.2790 24.3807 26.0255
# 2 14.0116 87.3606 67.3852 -36.8321 -10.5408 27.1363
# 3 10.3740 67.3852 166.4041 10.1329 17.3689 24.3581
# 4 8.2790 -36.8321 10.1329 42.1775 8.6995 8.5896
# 5 24.3807 -10.5408 17.3689 8.6995 37.4361 11.5355
# 6 26.0255 27.1363 24.3581 8.5896 11.5355 32.8562
#
#
#
# Elastic Compliance Matrix: (Units=1/GPa)
#
#
# Indices 1 2 3 4 5 6 
#
# 1 0.015356 0.008315 -0.001774 0.009189 -0.003109 -0.019026
# 2 0.008315 -0.096435 0.037039 -0.102173 -0.054150 0.091325
# 3 -0.001774 0.037039 -0.007246 0.038878 0.018369 -0.040426
# 4 0.009189 -0.102173 0.038878 -0.082557 -0.061824 0.091574
# 5 -0.003109 -0.054150 0.018369 -0.061824 0.004497 0.048152
# 6 -0.019026 0.091325 -0.040426 0.091574 0.048152 -0.040796
#
#
# Mechanical properties :
#
#
# Convention : Reuss Voigt Hill
#
# Bulk Modulus (GPa) = -856.62459 58.69642 -398.96408
# Shear Modulus (GPa) = -16.96480 39.35766 11.19643
#
# Velocity S-wave (km/s) = -2.55936 3.89826 2.07920
# Velocity P-wave (km/s) = 18.42517 6.55174 12.17706
#
# Compressibility (1/GPa) = -0.00116737
#
# Stress axis : x y z
#
# Youngs Moduli (GPa) = 65.12197 -10.36966 -138.01070
#
# Poissons Ratio (x) = 0.08622 -0.24488
# Poissons Ratio (y) = -0.54146 5.11174
# Poissons Ratio (z) = 0.11555 0.38408
#
# Static dielectric constant tensor:
#      x y z
#    x 2.154490 -0.059450 -0.015650 
#    y -0.059450 2.097960 0.097980 
#    z -0.015650 0.097980 2.158330 
# 
# From -- ./inp_files/397416.got.cif
#   From: 2010.05.17/outbox.cif.g08.bks.cpg/sg2_199_cif.got.tgz:397416.got - 2010.06.03 11:33:40.
