data_PCOD9107647
_publ_section_title
;
Structure prediction by ZEFSAII (Michael W. Deem and Ramdas Pophale) SiO2 
 PCOD9107647
Probable space group: P -1
;
_chemical_formula_sum "Si O2"
_cell_formula_units_Z 16
_cell_length_a 19.762896
_cell_length_b 14.100639
_cell_length_c 20.043019
_cell_angle_alpha 147.452465
_cell_angle_beta 159.490425
_cell_angle_gamma 45.644881
_cell_volume 923.809462
_symmetry_space_group_name_H-M "P -1"
_symmetry_group_IT_number 2
_symmetry_cell_setting 'triclinic'
loop_
_space_group_symop_operation_xyz
x,y,z
-x,-y,-z
loop_
_atom_site_type_symbol
_atom_site_label
_atom_site_fract_x
_atom_site_fract_y
_atom_site_fract_z
Si Si1 0.003610 0.788757 0.194174
Si Si2 0.773723 0.705254 0.796178
Si Si3 0.731533 0.327514 0.476402
Si Si4 0.464647 0.559314 0.758915
Si Si5 0.975923 0.798449 0.889044
Si Si6 0.691709 0.324024 0.663750
Si Si7 0.771154 0.357334 0.905419
Si Si8 0.178623 0.029371 0.624581
O O1 0.224981 0.783298 0.374823
O O2 0.047610 0.949331 0.386945
O O3 0.904500 0.810514 0.045740
O O4 0.843623 0.565665 0.942424
O O5 0.724401 0.471797 0.613911
O O6 0.887569 0.778385 0.872257
O O7 0.552528 0.718391 0.597845
O O8 0.562557 0.332881 0.269298
O O9 0.709106 0.113239 0.344154
O O10 0.983968 0.450036 0.755573
O O11 0.211470 0.391532 0.437503
O O12 0.592511 0.431115 0.792478
O O13 0.624067 0.743681 0.061677
O O14 0.198564 0.782091 0.094426
O O15 0.000000 0.000000 0.000000
O O16 0.726937 0.264870 0.735677
O O17 0.000000 0.000000 0.500000
#
# Coordination Sequence:
#
# PCOD9107647 Si02
#       8
#     2   2   2   2   2   2   2   2
#     4  11  21  32  51  80 115 150 179 215 263 329
#     4  10  20  35  56  81 111 140 185 232 271 319
#     4  10  18  32  53  76 111 148 181 215 258 322
#     4  10  20  35  53  77 114 145 180 222 270 326
#     4  10  22  37  60  85 106 135 185 245 283 310
#     4  11  17  34  52  80 115 145 180 217 268 328
#     4  10  16  35  56  78 111 142 174 229 271 323
#     4  12  22  34  51  76 119 161 181 205 264 337
#
# _framework density 17.319589000000001
#
# number of rings (size 3 to 8) (size 9 to 14) (size 15 to 20)
#    0.000    1.750    7.500    1.500    0.000    0.500 
#    2.250    0.000    0.000    0.750    0.000    1.750 
#    0.000    0.000    0.000    0.000    0.000    0.000 
#
# Total GULP energy -89113.377070 kJ/mol
# GULP energy per Si atom -5569.586067 kJ/mol
# Density = 1.728017 g / cm^3
# Si number density = 17.319589 Si / 1000 Ang^3
#
#
#
# Elastic Constant Matrix: (Units=GPa)
#
#
# Indices 1 2 3 4 5 6 
#
# 1 52.0991 28.5938 31.2639 0.5004 -21.7626 -4.8440
# 2 28.5938 98.1571 31.5224 -18.6998 -1.4530 5.8605
# 3 31.2639 31.5224 70.7548 -4.8205 -21.6979 -5.0514
# 4 0.5004 -18.6998 -4.8205 37.4088 -7.0911 4.7257
# 5 -21.7626 -1.4530 -21.6979 -7.0911 24.3591 0.8572
# 6 -4.8440 5.8605 -5.0514 4.7257 0.8572 20.2691
#
#
#
# Elastic Compliance Matrix: (Units=1/GPa)
#
#
# Indices 1 2 3 4 5 6 
#
# 1 0.042968 -0.012488 -0.001993 -0.002034 0.034840 0.012384
# 2 -0.012488 0.017841 -0.007014 0.006917 -0.013943 -0.010914
# 3 -0.001993 -0.007014 0.025185 0.002930 0.020867 0.006263
# 4 -0.002034 0.006917 0.002930 0.034056 0.011477 -0.010182
# 5 0.034840 -0.013943 0.020867 0.011477 0.092891 0.010954
# 6 0.012384 -0.010914 0.006263 -0.010182 0.010954 0.058923
#
#
# Mechanical properties :
#
#
# Convention : Reuss Voigt Hill
#
# Bulk Modulus (GPa) = 23.25357 44.86346 34.05851
# Shear Modulus (GPa) = 15.18887 25.04946 20.11916
#
# Velocity S-wave (km/s) = 2.96459 3.80716 3.41198
# Velocity P-wave (km/s) = 5.01734 6.72945 5.93545
#
# Compressibility (1/GPa) = 0.04300415
#
# Stress axis : x y z
#
# Youngs Moduli (GPa) = 23.27305 56.04987 39.70675
#
# Poissons Ratio (x) = 0.69996 0.07912
# Poissons Ratio (y) = 0.29064 0.27851
# Poissons Ratio (z) = 0.04637 0.39315
#
# Static dielectric constant tensor:
#      x y z
#    x 1.617460 0.010840 -0.000130 
#    y 0.010840 1.627340 -0.018980 
#    z -0.000130 -0.018980 1.624210 
# 
# From -- ./inp_files/472633.got.cif
#   From: 2010.05.17/outbox.cif.g08.bks.cpg/sg2_237_cif.got.tgz:472633.got - 2010.06.03 11:33:40.
