data_PCOD9107367
_publ_section_title
;
Structure prediction by ZEFSAII (Michael W. Deem and Ramdas Pophale) SiO2 
 PCOD9107367
Probable space group: P -1
;
_chemical_formula_sum "Si O2"
_cell_formula_units_Z 15
_cell_length_a 11.011349
_cell_length_b 13.740433
_cell_length_c 8.051340
_cell_angle_alpha 85.306429
_cell_angle_beta 106.379180
_cell_angle_gamma 35.892947
_cell_volume 571.522033
_symmetry_space_group_name_H-M "P -1"
_symmetry_group_IT_number 2
_symmetry_cell_setting 'triclinic'
loop_
_space_group_symop_operation_xyz
x,y,z
-x,-y,-z
loop_
_atom_site_type_symbol
_atom_site_label
_atom_site_fract_x
_atom_site_fract_y
_atom_site_fract_z
Si Si1 0.916950 0.880492 0.133541
Si Si2 0.830431 0.317895 0.382925
Si Si3 0.000000 0.000000 0.000000
Si Si4 0.659503 0.959271 0.438794
Si Si5 0.396282 0.181474 0.765582
Si Si6 0.366231 0.491632 0.177734
Si Si7 0.486265 0.312733 0.601430
Si Si8 0.742761 0.638301 0.970470
O O1 0.629340 0.369033 0.249055
O O2 0.032175 0.797507 0.370916
O O3 0.808868 0.060708 0.035728
O O4 0.688980 0.962766 0.974294
O O5 0.656074 0.527061 0.336254
O O6 0.072984 0.174445 0.377350
O O7 0.210123 0.871623 0.248979
O O8 0.735943 0.826217 0.350250
O O9 0.500000 0.000000 0.500000
O O10 0.487759 0.155265 0.251631
O O11 0.419214 0.245452 0.618651
O O12 0.257133 0.321126 0.849447
O O13 0.392635 0.418188 0.374900
O O14 0.284406 0.460013 0.030727
O O15 0.000000 0.500000 0.000000
O O16 0.146097 0.720416 0.105177
#
# Coordination Sequence:
#
# PCOD9107367 Si02
#       8
#     2   2   1   2   2   2   2   2
#     4  10  19  40  70 103 138 184 226 284 354 419
#     4  11  22  42  73 101 140 181 235 287 361 413
#     4  10  16  34  66 108 142 168 236 272 360 410
#     4  12  28  49  70 101 140 189 244 293 350 421
#     4  11  25  46  71 100 138 190 237 293 348 418
#     4  11  22  44  71 108 141 182 231 293 357 428
#     4  10  21  38  72 105 136 184 227 290 353 422
#     4  12  28  46  72 103 145 190 238 291 352 416
#
# _framework density 26.245706999999999
#
# number of rings (size 3 to 8) (size 9 to 14) (size 15 to 20)
#    0.000    1.067    4.000    2.800    5.600    1.067 
#    0.000    3.333    0.000    0.000    0.000    0.000 
#    0.000    0.000    0.000    0.000    0.000    0.000 
#
# Total GULP energy -83821.082200 kJ/mol
# GULP energy per Si atom -5588.072147 kJ/mol
# Density = 2.618597 g / cm^3
# Si number density = 26.245707 Si / 1000 Ang^3
#
#
#
# Elastic Constant Matrix: (Units=GPa)
#
#
# Indices 1 2 3 4 5 6 
#
# 1 115.9669 32.9929 9.4569 -8.8035 28.2691 -15.4898
# 2 32.9929 98.9387 20.9160 -4.4882 29.9519 -20.5693
# 3 9.4569 20.9160 72.8826 -6.9554 -3.5309 -9.0143
# 4 -8.8035 -4.4882 -6.9554 40.1934 -7.7640 7.4607
# 5 28.2691 29.9519 -3.5309 -7.7640 55.2593 -3.3571
# 6 -15.4898 -20.5693 -9.0143 7.4607 -3.3571 37.7261
#
#
#
# Elastic Compliance Matrix: (Units=1/GPa)
#
#
# Indices 1 2 3 4 5 6 
#
# 1 0.010602 -0.001396 -0.000773 0.000637 -0.004452 0.002885
# 2 -0.001396 0.014883 -0.003854 -0.001933 -0.007486 0.006337
# 3 -0.000773 -0.003854 0.015505 0.002633 0.003913 0.001114
# 4 0.000637 -0.001933 0.002633 0.027056 0.004380 -0.005124
# 5 -0.004452 -0.007486 0.003913 0.004380 0.025078 -0.003609
# 6 0.002885 0.006337 0.001114 -0.005124 -0.003609 0.032105
#
#
# Mechanical properties :
#
#
# Convention : Reuss Voigt Hill
#
# Bulk Modulus (GPa) = 34.54647 46.05777 40.30212
# Shear Modulus (GPa) = 34.03131 41.59725 37.81428
#
# Velocity S-wave (km/s) = 3.60480 3.98542 3.79988
# Velocity P-wave (km/s) = 5.52425 6.22614 5.88567
#
# Compressibility (1/GPa) = 0.02894652
#
# Stress axis : x y z
#
# Youngs Moduli (GPa) = 94.31954 67.18918 64.49334
#
# Poissons Ratio (x) = 0.09376 0.04987
# Poissons Ratio (y) = 0.13162 0.24853
# Poissons Ratio (z) = 0.07293 0.25892
#
# Static dielectric constant tensor:
#      x y z
#    x 4.856910 3.607530 -1.008940 
#    y 3.607530 6.813460 -1.210540 
#    z -1.008940 -1.210540 2.451130 
# 
# From -- ./inp_files/277826.got.cif
#   From: 2010.05.17/outbox.cif.g08.bks.cpg/sg2_139_cif.got.tgz:277826.got - 2010.06.03 11:33:40.
