data_PCOD9107860
_publ_section_title
;
Structure prediction by ZEFSAII (Michael W. Deem and Ramdas Pophale) SiO2 
 PCOD9107860
Probable space group: P -1
;
_chemical_formula_sum "Si O2"
_cell_formula_units_Z 16
_cell_length_a 16.099680
_cell_length_b 7.759550
_cell_length_c 14.221793
_cell_angle_alpha 41.353230
_cell_angle_beta 143.758975
_cell_angle_gamma 130.515747
_cell_volume 689.496116
_symmetry_space_group_name_H-M "P -1"
_symmetry_group_IT_number 2
_symmetry_cell_setting 'triclinic'
loop_
_space_group_symop_operation_xyz
x,y,z
-x,-y,-z
loop_
_atom_site_type_symbol
_atom_site_label
_atom_site_fract_x
_atom_site_fract_y
_atom_site_fract_z
Si Si1 0.811613 0.218056 0.080610
Si Si2 0.311352 0.052809 0.747291
Si Si3 0.608735 0.499097 0.016366
Si Si4 0.362124 0.422285 0.342219
Si Si5 0.829255 0.220911 0.729777
Si Si6 0.535301 0.369628 0.348654
Si Si7 0.124963 0.306244 0.903637
Si Si8 0.129184 0.236828 0.345138
O O1 0.739906 0.985217 0.176272
O O2 0.964189 0.165855 0.201705
O O3 0.711886 0.328259 0.866376
O O4 0.840826 0.454950 0.087830
O O5 0.414583 0.318537 0.721030
O O6 0.180919 0.076713 0.546887
O O7 0.384340 0.800491 0.886595
O O8 0.544653 0.662710 0.808320
O O9 0.772153 0.625261 0.118663
O O10 0.500000 0.500000 0.000000
O O11 0.500000 0.500000 0.500000
O O12 0.427550 0.294344 0.364565
O O13 0.241060 0.238109 0.362206
O O14 0.678643 0.242688 0.538992
O O15 0.852663 0.460545 0.727296
O O16 0.842039 0.955495 0.905967
O O17 0.956885 0.271503 0.750876
#
# Coordination Sequence:
#
# PCOD9107860 Si02
#       8
#     2   2   2   2   2   2   2   2
#     4  10  21  38  60  87 124 158 198 248 302 354
#     4  10  20  40  66  86 123 156 205 248 305 355
#     4  11  24  40  61  86 121 159 201 247 303 362
#     4  12  21  36  58  89 123 154 197 251 296 356
#     4   9  19  37  62  82 117 153 197 239 300 353
#     4  11  22  40  61  90 118 160 198 254 303 351
#     4   9  19  39  59  83 115 158 193 244 294 357
#     4  10  21  36  62  93 116 156 203 248 299 358
#
# _framework density 23.205352999999999
#
# number of rings (size 3 to 8) (size 9 to 14) (size 15 to 20)
#    0.000    1.750    5.000    1.125    0.000    3.500 
#    2.250    0.625    0.000    0.000    0.000    0.000 
#    0.000    0.000    0.000    0.000    0.000    0.000 
#
# Total GULP energy -89496.320913 kJ/mol
# GULP energy per Si atom -5593.520057 kJ/mol
# Density = 2.315254 g / cm^3
# Si number density = 23.205353 Si / 1000 Ang^3
#
#
#
# Elastic Constant Matrix: (Units=GPa)
#
#
# Indices 1 2 3 4 5 6 
#
# 1 187.4516 40.6805 58.6315 19.9027 15.2191 49.5736
# 2 40.6805 68.1219 16.7492 -6.9471 12.6710 24.8356
# 3 58.6315 16.7492 118.1726 23.3608 13.6757 20.6989
# 4 19.9027 -6.9471 23.3608 31.4691 6.2861 2.9250
# 5 15.2191 12.6710 13.6757 6.2861 38.8926 8.1967
# 6 49.5736 24.8356 20.6989 2.9250 8.1967 26.3268
#
#
#
# Elastic Compliance Matrix: (Units=1/GPa)
#
#
# Indices 1 2 3 4 5 6 
#
# 1 0.011628 0.000421 -0.001373 -0.004478 0.000947 -0.021010
# 2 0.000421 0.024816 -0.000935 0.008950 -0.004508 -0.023058
# 3 -0.001373 -0.000935 0.011650 -0.007343 -0.001113 -0.004530
# 4 -0.004478 0.008950 -0.007343 0.042993 -0.006141 0.002898
# 5 0.000947 -0.004508 -0.001113 -0.006141 0.029265 -0.005086
# 6 -0.021010 -0.023058 -0.004530 0.002898 -0.005086 0.104120
#
#
# Mechanical properties :
#
#
# Convention : Reuss Voigt Hill
#
# Bulk Modulus (GPa) = 22.56373 67.31872 44.94123
# Shear Modulus (GPa) = 20.57446 36.51670 28.54558
#
# Velocity S-wave (km/s) = 2.98086 3.97121 3.51112
# Velocity P-wave (km/s) = 4.64671 7.07816 5.98716
#
# Compressibility (1/GPa) = 0.04431890
#
# Stress axis : x y z
#
# Youngs Moduli (GPa) = 86.00164 40.29671 85.83932
#
# Poissons Ratio (x) = -0.01695 0.11786
# Poissons Ratio (y) = -0.03617 0.08024
# Poissons Ratio (z) = 0.11809 0.03767
#
# Static dielectric constant tensor:
#      x y z
#    x 1.902720 0.008210 0.003810 
#    y 0.008210 1.891630 0.012720 
#    z 0.003810 0.012720 1.876770 
# 
# From -- ./inp_files/528136.got.cif
#   From: 2010.05.17/outbox.cif.g08.bks.cpg/sg2_265_cif.got.tgz:528136.got - 2010.06.03 11:33:40.
