data_PCOD9107199
_publ_section_title
;
Structure prediction by ZEFSAII (Michael W. Deem and Ramdas Pophale) SiO2 
 PCOD9107199
Probable space group: P -1
;
_chemical_formula_sum "Si O2"
_cell_formula_units_Z 16
_cell_length_a 9.044013
_cell_length_b 9.393738
_cell_length_c 15.395661
_cell_angle_alpha 44.275283
_cell_angle_beta 68.529757
_cell_angle_gamma 93.986023
_cell_volume 730.729895
_symmetry_space_group_name_H-M "P -1"
_symmetry_group_IT_number 2
_symmetry_cell_setting 'triclinic'
loop_
_space_group_symop_operation_xyz
x,y,z
-x,-y,-z
loop_
_atom_site_type_symbol
_atom_site_label
_atom_site_fract_x
_atom_site_fract_y
_atom_site_fract_z
Si Si1 0.969559 0.997991 0.202773
Si Si2 0.827932 0.756523 0.109722
Si Si3 0.440974 0.435011 0.324926
Si Si4 0.062894 0.272972 0.391176
Si Si5 0.483441 0.730072 0.801390
Si Si6 0.561048 0.819715 0.387796
Si Si7 0.160638 0.496355 0.615715
Si Si8 0.806762 0.681381 0.837115
O O1 0.759170 0.916510 0.258948
O O2 0.972260 0.755833 0.291735
O O3 0.027231 0.103367 0.240354
O O4 0.111913 0.211524 0.017130
O O5 0.617090 0.698498 0.187158
O O6 0.825520 0.563093 0.259795
O O7 0.000000 0.000000 0.000000
O O8 0.244047 0.395880 0.358592
O O9 0.504456 0.352571 0.261793
O O10 0.419207 0.273765 0.481977
O O11 0.121566 0.390047 0.231725
O O12 0.914157 0.323854 0.444108
O O13 0.000000 0.000000 0.500000
O O14 0.662700 0.758140 0.800507
O O15 0.473792 0.964108 0.692448
O O16 0.310234 0.539666 0.978084
O O17 0.367192 0.610740 0.481842
#
# Coordination Sequence:
#
# PCOD9107199 Si02
#       8
#     2   2   2   2   2   2   2   2
#     4  11  22  41  62  95 128 166 214 262 314 380
#     4   9  20  39  61  87 128 166 205 258 314 378
#     4  10  20  40  63  91 126 168 211 263 314 379
#     4  11  23  42  66  95 129 168 214 261 321 381
#     4  10  21  39  62  92 130 165 206 264 319 370
#     4  11  23  37  64  93 125 169 217 261 311 374
#     4  10  23  43  64  89 130 171 209 262 321 376
#     4  10  22  39  64  94 129 160 212 264 313 374
#
# _framework density 21.895916
#
# number of rings (size 3 to 8) (size 9 to 14) (size 15 to 20)
#    0.000    1.750    1.250    3.000    1.750    3.500 
#    0.000   11.875    0.000    0.000    0.000    0.000 
#    0.000    0.000    0.000    0.000    0.000    0.000 
#
# Total GULP energy -89271.340608 kJ/mol
# GULP energy per Si atom -5579.458788 kJ/mol
# Density = 2.184608 g / cm^3
# Si number density = 21.895916 Si / 1000 Ang^3
#
#
#
# Elastic Constant Matrix: (Units=GPa)
#
#
# Indices 1 2 3 4 5 6 
#
# 1 89.0661 41.1807 38.0543 -16.3847 -29.2761 5.6744
# 2 41.1807 42.6289 10.0595 -9.6919 2.4566 12.4313
# 3 38.0543 10.0595 105.2688 3.2316 -23.8767 3.5827
# 4 -16.3847 -9.6919 3.2316 26.7178 8.4515 -2.7879
# 5 -29.2761 2.4566 -23.8767 8.4515 33.2643 1.2762
# 6 5.6744 12.4313 3.5827 -2.7879 1.2762 35.2310
#
#
#
# Elastic Compliance Matrix: (Units=1/GPa)
#
#
# Indices 1 2 3 4 5 6 
#
# 1 0.056720 -0.060660 -0.003123 -0.002303 0.052340 0.010508
# 2 -0.060660 0.095833 -0.001813 0.016274 -0.065125 -0.020214
# 3 -0.003123 -0.001813 0.012979 -0.006940 0.008505 -0.001035
# 4 -0.002303 0.016274 -0.006940 0.049318 -0.020741 -0.000012
# 5 0.052340 -0.065125 0.008505 -0.020741 0.091977 0.008712
# 6 0.010508 -0.020214 -0.001035 -0.000012 0.008712 0.033613
#
#
# Mechanical properties :
#
#
# Convention : Reuss Voigt Hill
#
# Bulk Modulus (GPa) = 29.11978 46.17254 37.64616
# Shear Modulus (GPa) = 10.35032 28.88724 19.61878
#
# Velocity S-wave (km/s) = 2.17654 3.63615 2.99658
# Velocity P-wave (km/s) = 4.43221 6.22590 5.40400
#
# Compressibility (1/GPa) = 0.03434092
#
# Stress axis : x y z
#
# Youngs Moduli (GPa) = 17.63055 10.43482 77.04871
#
# Poissons Ratio (x) = 0.63298 0.24059
# Poissons Ratio (y) = 1.06947 0.13966
# Poissons Ratio (z) = 0.05505 0.01891
#
# Static dielectric constant tensor:
#      x y z
#    x 1.805430 0.039450 -0.021730 
#    y 0.039450 1.839420 0.029760 
#    z -0.021730 0.029760 1.852310 
# 
# From -- ./inp_files/305310.got.cif
#   From: 2010.05.17/outbox.cif.g08.bks.cpg/sg2_153_cif.got.tgz:305310.got - 2010.06.03 11:33:40.
