data_PCOD9107152
_publ_section_title
;
Structure prediction by ZEFSAII (Michael W. Deem and Ramdas Pophale) SiO2 
 PCOD9107152
Probable space group: P -1
;
_chemical_formula_sum "Si O2"
_cell_formula_units_Z 16
_cell_length_a 9.063499
_cell_length_b 12.243715
_cell_length_c 15.258289
_cell_angle_alpha 79.156394
_cell_angle_beta 150.003419
_cell_angle_gamma 107.898607
_cell_volume 794.643923
_symmetry_space_group_name_H-M "P -1"
_symmetry_group_IT_number 2
_symmetry_cell_setting 'triclinic'
loop_
_space_group_symop_operation_xyz
x,y,z
-x,-y,-z
loop_
_atom_site_type_symbol
_atom_site_label
_atom_site_fract_x
_atom_site_fract_y
_atom_site_fract_z
Si Si1 0.805834 0.477166 0.315460
Si Si2 0.744230 0.119615 0.577414
Si Si3 0.403486 0.081335 0.235593
Si Si4 0.009299 0.655673 0.235483
Si Si5 0.077104 0.418558 0.978155
Si Si6 0.430325 0.745493 0.867281
Si Si7 0.548018 0.879620 0.070694
Si Si8 0.798806 0.148216 0.925670
O O1 0.912310 0.578491 0.283579
O O2 0.447913 0.458045 0.157355
O O3 0.817805 0.358740 0.292151
O O4 0.000000 0.500000 0.500000
O O5 0.657466 0.137441 0.429888
O O6 0.738202 0.226813 0.621084
O O7 0.094710 0.113718 0.758801
O O8 0.500000 0.000000 0.500000
O O9 0.469287 0.148444 0.166226
O O10 0.083771 0.098031 0.104461
O O11 0.365902 0.945351 0.219427
O O12 0.062689 0.579802 0.192046
O O13 0.720016 0.697403 0.045986
O O14 0.945516 0.281813 0.954855
O O15 0.000000 0.500000 0.000000
O O16 0.348170 0.786527 0.912647
O O17 0.431211 0.854847 0.112726
O O18 0.500000 0.000000 0.000000
#
# Coordination Sequence:
#
# PCOD9107152 Si02
#       8
#     2   2   2   2   2   2   2   2
#     4  11  23  43  65  91 123 168 222 261 310 379
#     4  11  24  39  67  94 126 163 217 265 324 376
#     4  11  21  41  67  93 124 169 213 265 318 388
#     4  10  22  41  65  90 124 172 214 255 315 394
#     4  11  24  41  64  94 127 171 212 261 323 380
#     4  10  20  40  63  89 122 169 211 251 324 381
#     4  11  23  41  61  96 127 168 208 263 320 389
#     4  11  23  39  67  90 133 165 217 258 327 380
#
# _framework density 20.134803999999999
#
# number of rings (size 3 to 8) (size 9 to 14) (size 15 to 20)
#    0.000    1.250    3.750    3.750    8.750    0.500 
#    0.000    3.125    0.000    0.000    0.000    0.000 
#    0.000    0.000    0.000    0.000    0.000    0.000 
#
# Total GULP energy -89299.148494 kJ/mol
# GULP energy per Si atom -5581.196781 kJ/mol
# Density = 2.008898 g / cm^3
# Si number density = 20.134804 Si / 1000 Ang^3
#
#
#
# Elastic Constant Matrix: (Units=GPa)
#
#
# Indices 1 2 3 4 5 6 
#
# 1 119.8970 51.7969 48.5252 12.8295 -20.1779 -6.1879
# 2 51.7969 110.0892 37.4447 28.4021 -19.5345 2.8636
# 3 48.5252 37.4447 101.2964 23.4730 -35.2081 -6.2670
# 4 12.8295 28.4021 23.4730 32.0384 -4.2624 -9.0923
# 5 -20.1779 -19.5345 -35.2081 -4.2624 37.0355 10.3263
# 6 -6.1879 2.8636 -6.2670 -9.0923 10.3263 46.6821
#
#
#
# Elastic Compliance Matrix: (Units=1/GPa)
#
#
# Indices 1 2 3 4 5 6 
#
# 1 0.012179 -0.005318 -0.005070 0.004052 -0.001166 0.002307
# 2 -0.005318 0.016054 0.002269 -0.014413 0.007713 -0.005899
# 3 -0.005070 0.002269 0.020569 -0.014030 0.017682 -0.004694
# 4 0.004052 -0.014413 -0.014030 0.054375 -0.016304 0.013735
# 5 -0.001166 0.007713 0.017682 -0.016304 0.048774 -0.012219
# 6 0.002307 -0.005899 -0.004694 0.013735 -0.012219 0.026837
#
#
# Mechanical properties :
#
#
# Convention : Reuss Voigt Hill
#
# Bulk Modulus (GPa) = 30.70876 67.42401 49.06638
# Shear Modulus (GPa) = 24.28575 36.05227 30.16901
#
# Velocity S-wave (km/s) = 3.47675 4.23607 3.87505
# Velocity P-wave (km/s) = 5.60372 7.58187 6.66658
#
# Compressibility (1/GPa) = 0.03256400
#
# Stress axis : x y z
#
# Youngs Moduli (GPa) = 82.10757 62.28802 48.61720
#
# Poissons Ratio (x) = 0.33125 0.24649
# Poissons Ratio (y) = 0.43665 -0.11030
# Poissons Ratio (z) = 0.41628 -0.14132
#
# Static dielectric constant tensor:
#      x y z
#    x 1.674160 0.046550 -0.015650 
#    y 0.046550 1.708180 0.010000 
#    z -0.015650 0.010000 1.705560 
# 
# From -- ./inp_files/224127.got.cif
#   From: 2010.05.17/outbox.cif.g08.bks.cpg/sg2_113_cif.got.tgz:224127.got - 2010.06.03 11:33:40.
