data_PCOD9107790
_publ_section_title
;
Structure prediction by ZEFSAII (Michael W. Deem and Ramdas Pophale) SiO2 
 PCOD9107790
Probable space group: P -1
;
_chemical_formula_sum "Si O2"
_cell_formula_units_Z 16
_cell_length_a 21.421813
_cell_length_b 5.249484
_cell_length_c 5.692814
_cell_angle_alpha 105.032649
_cell_angle_beta 93.189994
_cell_angle_gamma 82.182793
_cell_volume 612.384282
_symmetry_space_group_name_H-M "P -1"
_symmetry_group_IT_number 2
_symmetry_cell_setting 'triclinic'
loop_
_space_group_symop_operation_xyz
x,y,z
-x,-y,-z
loop_
_atom_site_type_symbol
_atom_site_label
_atom_site_fract_x
_atom_site_fract_y
_atom_site_fract_z
Si Si1 0.353037 0.574089 0.162177
Si Si2 0.012194 0.196597 0.337663
Si Si3 0.245396 0.812745 0.923318
Si Si4 0.350112 0.058452 0.774776
Si Si5 0.115054 0.685488 0.893186
Si Si6 0.543715 0.230018 0.013592
Si Si7 0.139281 0.365643 0.319137
Si Si8 0.718414 0.662439 0.555179
O O1 0.403859 0.775722 0.185153
O O2 0.344817 0.417917 0.357254
O O3 0.278885 0.670678 0.122463
O O4 0.371878 0.340551 0.916044
O O5 0.957479 0.196774 0.131334
O O6 0.000000 0.500000 0.500000
O O7 0.085766 0.167061 0.276989
O O8 0.000000 0.000000 0.500000
O O9 0.170905 0.872150 0.932023
O O10 0.260680 0.587496 0.672147
O O11 0.292521 0.025241 0.931222
O O12 0.311609 0.081692 0.534932
O O13 0.406732 0.826025 0.772044
O O14 0.128992 0.512463 0.610656
O O15 0.123960 0.531587 0.110247
O O16 0.500000 0.500000 0.000000
O O17 0.500000 0.000000 0.000000
O O18 0.214426 0.276284 0.313386
#
# Coordination Sequence:
#
# PCOD9107790 Si02
#       8
#     2   2   2   2   2   2   2   2
#     4  10  20  40  65  97 129 175 221 278 341 416
#     4  10  23  43  69  99 142 190 245 299 361 429
#     4   9  20  37  61  89 135 175 225 283 349 410
#     4  10  22  38  66  96 134 173 223 280 344 409
#     4  10  20  41  65  98 141 187 243 297 363 423
#     4  11  22  43  71  97 135 179 220 276 349 421
#     4  10  21  41  67  98 141 189 239 299 360 424
#     4  10  21  39  64  96 134 172 232 284 349 415
#
# _framework density 26.127382999999998
#
# number of rings (size 3 to 8) (size 9 to 14) (size 15 to 20)
#    0.000    2.000    2.500    0.375    1.750    2.000 
#    0.000   11.250    0.000    0.000    0.000    0.000 
#    0.000    0.000    0.000    0.000    0.000    0.000 
#
# Total GULP energy -89165.940412 kJ/mol
# GULP energy per Si atom -5572.871276 kJ/mol
# Density = 2.606792 g / cm^3
# Si number density = 26.127383 Si / 1000 Ang^3
#
#
#
# Elastic Constant Matrix: (Units=GPa)
#
#
# Indices 1 2 3 4 5 6 
#
# 1 274.0135 86.5448 67.3287 -23.7426 9.9352 9.8517
# 2 86.5448 120.9502 41.2731 -19.8472 14.9604 17.2971
# 3 67.3287 41.2731 110.5847 -18.7026 14.3815 -0.7536
# 4 -23.7426 -19.8472 -18.7026 60.4014 -5.9637 1.7849
# 5 9.9352 14.9604 14.3815 -5.9637 31.9065 -7.9300
# 6 9.8517 17.2971 -0.7536 1.7849 -7.9300 61.4983
#
#
#
# Elastic Compliance Matrix: (Units=1/GPa)
#
#
# Indices 1 2 3 4 5 6 
#
# 1 0.005099 -0.003002 -0.002013 0.000475 0.000840 0.000097
# 2 -0.003002 0.012500 -0.001928 0.001985 -0.004608 -0.003710
# 3 -0.002013 -0.001928 0.011734 0.001869 -0.003277 0.000532
# 4 0.000475 0.001985 0.001869 0.018123 0.001223 -0.000980
# 5 0.000840 -0.004608 -0.003277 0.001223 0.036382 0.005777
# 6 0.000097 -0.003710 0.000532 -0.000980 0.005777 0.018069
#
#
# Mechanical properties :
#
#
# Convention : Reuss Voigt Hill
#
# Bulk Modulus (GPa) = 64.73168 99.53797 82.13482
# Shear Modulus (GPa) = 41.34243 51.45469 46.39856
#
# Velocity S-wave (km/s) = 3.98218 4.44258 4.21867
# Velocity P-wave (km/s) = 6.78033 8.03089 7.43196
#
# Compressibility (1/GPa) = 0.01544839
#
# Stress axis : x y z
#
# Youngs Moduli (GPa) = 196.10672 79.99958 85.22526
#
# Poissons Ratio (x) = 0.24014 0.17152
# Poissons Ratio (y) = 0.58868 0.16431
# Poissons Ratio (z) = 0.39467 0.15423
#
# Static dielectric constant tensor:
#      x y z
#    x 1.974520 -0.009250 0.023870 
#    y -0.009250 2.146550 0.069020 
#    z 0.023870 0.069020 2.151130 
# 
# From -- ./inp_files/114538.got.cif
#   From: 2010.05.17/outbox.cif.g08.bks.cpg/sg2_58_cif.got.tgz:114538.got - 2010.06.03 11:33:40.
