data_PCOD9107895
_publ_section_title
;
Structure prediction by ZEFSAII (Michael W. Deem and Ramdas Pophale) SiO2 
 PCOD9107895
Probable space group: P -1
;
_chemical_formula_sum "Si O2"
_cell_formula_units_Z 16
_cell_length_a 17.623999
_cell_length_b 9.416589
_cell_length_c 7.727923
_cell_angle_alpha 133.880240
_cell_angle_beta 92.437051
_cell_angle_gamma 117.749752
_cell_volume 670.705328
_symmetry_space_group_name_H-M "P -1"
_symmetry_group_IT_number 2
_symmetry_cell_setting 'triclinic'
loop_
_space_group_symop_operation_xyz
x,y,z
-x,-y,-z
loop_
_atom_site_type_symbol
_atom_site_label
_atom_site_fract_x
_atom_site_fract_y
_atom_site_fract_z
Si Si1 0.990274 0.678924 0.535295
Si Si2 0.816680 0.878675 0.290085
Si Si3 0.793411 0.480781 0.499580
Si Si4 0.290298 0.689210 0.045764
Si Si5 0.839327 0.191527 0.860124
Si Si6 0.690109 0.690341 0.656127
Si Si7 0.470923 0.818742 0.016296
Si Si8 0.333432 0.086761 0.847619
O O1 0.915728 0.695064 0.648090
O O2 0.000000 0.500000 0.500000
O O3 0.099349 0.962027 0.721208
O O4 0.926869 0.489130 0.199330
O O5 0.870106 0.091697 0.633769
O O6 0.778754 0.598503 0.109831
O O7 0.712549 0.818302 0.188163
O O8 0.741554 0.362687 0.204608
O O9 0.735277 0.569497 0.641388
O O10 0.762396 0.234031 0.396491
O O11 0.410992 0.844511 0.173423
O O12 0.254967 0.835675 0.237402
O O13 0.790174 0.976363 0.827663
O O14 0.612239 0.488074 0.325128
O O15 0.638349 0.749065 0.832355
O O16 0.569120 0.878486 0.154323
O O17 0.500000 0.000000 0.000000
#
# Coordination Sequence:
#
# PCOD9107895 Si02
#       8
#     2   2   2   2   2   2   2   2
#     4  11  22  44  69  95 130 171 215 265 321 382
#     4  12  25  43  63  97 135 168 210 272 324 377
#     4  10  20  40  66  89 129 161 217 261 310 383
#     4  10  22  42  63  94 132 165 219 259 321 380
#     4  11  22  43  68  91 134 174 208 265 329 381
#     4  11  20  41  69  93 125 172 216 262 319 379
#     4  11  20  40  71  94 125 174 217 263 320 383
#     4  12  23  40  66  97 130 167 218 269 312 381
#
# _framework density 23.855484000000001
#
# number of rings (size 3 to 8) (size 9 to 14) (size 15 to 20)
#    0.000    1.000    8.750    0.750    0.000    3.500 
#    2.250    1.875    0.000    0.000    0.000    0.000 
#    0.000    0.000    0.000    0.000    0.000    0.000 
#
# Total GULP energy -89440.993874 kJ/mol
# GULP energy per Si atom -5590.062117 kJ/mol
# Density = 2.380119 g / cm^3
# Si number density = 23.855484 Si / 1000 Ang^3
#
#
#
# Elastic Constant Matrix: (Units=GPa)
#
#
# Indices 1 2 3 4 5 6 
#
# 1 103.3691 8.1314 -7.6363 4.8636 -10.7006 10.0931
# 2 8.1314 54.5566 -1.7710 12.7194 -13.5551 0.6054
# 3 -7.6363 -1.7710 39.3884 6.7526 2.1052 3.4904
# 4 4.8636 12.7194 6.7526 23.3116 -10.0919 -1.4732
# 5 -10.7006 -13.5551 2.1052 -10.0919 32.8644 5.2302
# 6 10.0931 0.6054 3.4904 -1.4732 5.2302 37.4594
#
#
#
# Elastic Compliance Matrix: (Units=1/GPa)
#
#
# Indices 1 2 3 4 5 6 
#
# 1 0.010646 -0.000281 0.002469 -0.001592 0.003279 -0.003614
# 2 -0.000281 0.022408 0.002568 -0.010393 0.006079 -0.001783
# 3 0.002469 0.002568 0.028444 -0.011670 -0.003002 -0.003397
# 4 -0.001592 -0.010393 -0.011670 0.058256 0.013499 0.002091
# 5 0.003279 0.006079 -0.003002 0.013499 0.039240 -0.005650
# 6 -0.003614 -0.001783 -0.003397 0.002091 -0.005650 0.028886
#
#
# Mechanical properties :
#
#
# Convention : Reuss Voigt Hill
#
# Bulk Modulus (GPa) = 14.08224 21.64024 17.86124
# Shear Modulus (GPa) = 24.74797 31.96641 28.35719
#
# Velocity S-wave (km/s) = 3.22438 3.66458 3.45150
# Velocity P-wave (km/s) = 4.44726 5.19582 4.83605
#
# Compressibility (1/GPa) = 0.07101142
#
# Stress axis : x y z
#
# Youngs Moduli (GPa) = 93.93386 44.62721 35.15621
#
# Poissons Ratio (x) = 0.01252 -0.08681
# Poissons Ratio (y) = 0.02636 -0.09028
# Poissons Ratio (z) = -0.23195 -0.11460
#
# Static dielectric constant tensor:
#      x y z
#    x 1.958060 0.028900 0.028730 
#    y 0.028900 1.893060 -0.050010 
#    z 0.028730 -0.050010 1.921250 
# 
# From -- ./inp_files/328081.got.cif
#   From: 2010.05.17/outbox.cif.g08.bks.cpg/sg2_165_cif.got.tgz:328081.got - 2010.06.03 11:33:40.
