data_PCOD9107173
_publ_section_title
;
Structure prediction by ZEFSAII (Michael W. Deem and Ramdas Pophale) SiO2 
 PCOD9107173
Probable space group: P -1
;
_chemical_formula_sum "Si O2"
_cell_formula_units_Z 16
_cell_length_a 14.307710
_cell_length_b 11.608080
_cell_length_c 9.474143
_cell_angle_alpha 76.868335
_cell_angle_beta 118.691024
_cell_angle_gamma 145.154197
_cell_volume 743.711993
_symmetry_space_group_name_H-M "P -1"
_symmetry_group_IT_number 2
_symmetry_cell_setting 'triclinic'
loop_
_space_group_symop_operation_xyz
x,y,z
-x,-y,-z
loop_
_atom_site_type_symbol
_atom_site_label
_atom_site_fract_x
_atom_site_fract_y
_atom_site_fract_z
Si Si1 0.347218 0.954381 0.857483
Si Si2 0.902366 0.162515 0.792462
Si Si3 0.950767 0.470272 0.637917
Si Si4 0.183230 0.226690 0.986598
Si Si5 0.853657 0.628828 0.544286
Si Si6 0.238347 0.022098 0.542433
Si Si7 0.168667 0.981472 0.901422
Si Si8 0.555052 0.553373 0.360364
O O1 0.143582 0.698786 0.786180
O O2 0.326701 0.048983 0.917302
O O3 0.361437 0.026503 0.692502
O O4 0.500000 0.000000 0.000000
O O5 0.900502 0.298474 0.715678
O O6 0.763902 0.973825 0.628474
O O7 0.846081 0.084490 0.933440
O O8 0.109559 0.290276 0.883239
O O9 0.000000 0.500000 0.500000
O O10 0.804322 0.443933 0.561246
O O11 0.369268 0.397641 0.171818
O O12 0.211764 0.160890 0.897587
O O13 0.000000 0.000000 0.000000
O O14 0.675068 0.547795 0.412046
O O15 0.967574 0.775179 0.728630
O O16 0.020245 0.797128 0.499742
O O17 0.307354 0.205355 0.613809
O O18 0.500000 0.500000 0.500000
#
# Coordination Sequence:
#
# PCOD9107173 Si02
#       8
#     2   2   2   2   2   2   2   2
#     4  10  23  41  60  85 133 164 202 257 303 377
#     4  11  19  39  68  89 121 163 208 255 311 367
#     4  10  20  40  63  90 121 170 202 246 317 367
#     4  10  22  38  61  92 128 156 199 265 311 359
#     4  10  22  42  63  90 132 166 204 256 310 377
#     4  10  22  42  64  90 128 169 204 254 320 364
#     4   9  20  41  61  90 121 164 203 260 311 355
#     4  12  23  39  65  97 125 164 213 258 310 370
#
# _framework density 21.513704000000001
#
# number of rings (size 3 to 8) (size 9 to 14) (size 15 to 20)
#    0.000    2.000    2.500    4.125    1.750    4.000 
#    2.250    3.750    0.000    0.000    0.000    0.000 
#    0.000    0.000    0.000    0.000    0.000    0.000 
#
# Total GULP energy -89352.598366 kJ/mol
# GULP energy per Si atom -5584.537398 kJ/mol
# Density = 2.146474 g / cm^3
# Si number density = 21.513704 Si / 1000 Ang^3
#
#
#
# Elastic Constant Matrix: (Units=GPa)
#
#
# Indices 1 2 3 4 5 6 
#
# 1 104.7448 26.6377 46.8687 6.8578 28.8055 -28.3037
# 2 26.6377 48.6120 10.0050 -4.6907 10.4935 -23.9015
# 3 46.8687 10.0050 131.3229 -4.0855 8.3366 -3.0545
# 4 6.8578 -4.6907 -4.0855 30.6443 -2.6954 -3.0495
# 5 28.8055 10.4935 8.3366 -2.6954 51.5871 -5.5471
# 6 -28.3037 -23.9015 -3.0545 -3.0495 -5.5471 33.0043
#
#
#
# Elastic Compliance Matrix: (Units=1/GPa)
#
#
# Indices 1 2 3 4 5 6 
#
# 1 0.018322 -0.001529 -0.005777 -0.004573 -0.007900 0.012320
# 2 -0.001529 0.034845 -0.001118 0.007646 -0.003072 0.024010
# 3 -0.005777 -0.001118 0.009627 0.002100 0.001532 -0.004421
# 4 -0.004573 0.007646 0.002100 0.035946 0.003146 0.005660
# 5 -0.007900 -0.003072 0.001532 0.003146 0.023848 -0.004559
# 6 0.012320 0.024010 -0.004421 0.005660 -0.004559 0.057599
#
#
# Mechanical properties :
#
#
# Convention : Reuss Voigt Hill
#
# Bulk Modulus (GPa) = 21.76438 50.18915 35.97677
# Shear Modulus (GPa) = 23.54610 36.45837 30.00223
#
# Velocity S-wave (km/s) = 3.31187 4.12109 3.73844
# Velocity P-wave (km/s) = 4.97625 6.78410 5.94925
#
# Compressibility (1/GPa) = 0.04594663
#
# Stress axis : x y z
#
# Youngs Moduli (GPa) = 54.57994 28.69847 103.87550
#
# Poissons Ratio (x) = 0.04389 0.60005
# Poissons Ratio (y) = 0.08347 0.11609
# Poissons Ratio (z) = 0.31529 0.03207
#
# Static dielectric constant tensor:
#      x y z
#    x 1.826960 -0.015330 -0.010540 
#    y -0.015330 1.825770 -0.025090 
#    z -0.010540 -0.025090 1.794920 
# 
# From -- ./inp_files/305171.got.cif
#   From: 2010.05.17/outbox.cif.g08.bks.cpg/sg2_153_cif.got.tgz:305171.got - 2010.06.03 11:33:40.
