data_PCOD9107941
_publ_section_title
;
Structure prediction by ZEFSAII (Michael W. Deem and Ramdas Pophale) SiO2 
 PCOD9107941
Probable space group: P -1
;
_chemical_formula_sum "Si O2"
_cell_formula_units_Z 14
_cell_length_a 13.789668
_cell_length_b 8.484287
_cell_length_c 8.936204
_cell_angle_alpha 100.562443
_cell_angle_beta 72.190054
_cell_angle_gamma 149.045129
_cell_volume 505.288076
_symmetry_space_group_name_H-M "P -1"
_symmetry_group_IT_number 2
_symmetry_cell_setting 'triclinic'
loop_
_space_group_symop_operation_xyz
x,y,z
-x,-y,-z
loop_
_atom_site_type_symbol
_atom_site_label
_atom_site_fract_x
_atom_site_fract_y
_atom_site_fract_z
Si Si1 0.399013 0.226236 0.294499
Si Si2 0.990741 0.391633 0.762267
Si Si3 0.081086 0.972353 0.066622
Si Si4 0.109716 0.872483 0.732053
Si Si5 0.262454 0.474271 0.277942
Si Si6 0.328065 0.436771 0.532429
Si Si7 0.598300 0.972191 0.012732
O O1 0.432017 0.452550 0.370208
O O2 0.513369 0.281776 0.377976
O O3 0.474681 0.270497 0.105983
O O4 0.165194 0.880060 0.336105
O O5 0.058969 0.332485 0.820536
O O6 0.135214 0.715725 0.679131
O O7 0.832058 0.271521 0.927000
O O8 0.205789 0.231318 0.178502
O O9 0.171370 0.986520 0.895276
O O10 0.000000 0.000000 0.000000
O O11 0.877948 0.587251 0.749225
O O12 0.195884 0.136184 0.639620
O O13 0.223376 0.413279 0.462622
O O14 0.490632 0.812795 0.193406
O O15 0.500000 0.000000 0.000000
#
# Coordination Sequence:
#
# PCOD9107941 Si02
#       7
#     2   2   2   2   2   2   2
#     4   9  22  40  64  93 128 173 221 263 324 388
#     4  10  21  42  65  95 127 172 212 274 335 368
#     4  10  22  39  65  94 123 167 225 273 316 386
#     4  11  23  38  64  93 137 168 212 270 331 392
#     4  11  20  40  65  94 129 174 219 272 312 387
#     4  11  22  40  63  98 131 176 219 257 326 403
#     4  10  20  40  66  91 130 169 224 268 322 373
#
# _framework density 27.706969000000001
#
# number of rings (size 3 to 8) (size 9 to 14) (size 15 to 20)
#    0.857    0.857    2.857    1.714    0.000    5.143 
#    0.000    2.857    0.000    0.000    0.000    0.000 
#    0.000    0.000    0.000    0.000    0.000    0.000 
#
# Total GULP energy -78117.122384 kJ/mol
# GULP energy per Si atom -5579.794456 kJ/mol
# Density = 2.764391 g / cm^3
# Si number density = 27.706969 Si / 1000 Ang^3
#
#
#
# Elastic Constant Matrix: (Units=GPa)
#
#
# Indices 1 2 3 4 5 6 
#
# 1 101.4582 26.2481 24.8353 -10.4744 33.3283 0.6904
# 2 26.2481 64.4242 35.3508 -2.8167 29.0550 -0.3586
# 3 24.8353 35.3508 141.7413 -15.1783 42.3855 3.5735
# 4 -10.4744 -2.8167 -15.1783 49.4544 1.0342 12.2742
# 5 33.3283 29.0550 42.3855 1.0342 58.0899 -5.9321
# 6 0.6904 -0.3586 3.5735 12.2742 -5.9321 43.6970
#
#
#
# Elastic Compliance Matrix: (Units=1/GPa)
#
#
# Indices 1 2 3 4 5 6 
#
# 1 0.013022 -0.002401 0.000932 0.003631 -0.007250 -0.002306
# 2 -0.002401 0.021299 -0.002633 0.000210 -0.007423 -0.000639
# 3 0.000932 -0.002633 0.010147 0.004041 -0.006995 -0.002951
# 4 0.003631 0.000210 0.004041 0.024387 -0.006399 -0.008105
# 5 -0.007250 -0.007423 -0.006995 -0.006399 0.030983 0.006629
# 6 -0.002306 -0.000639 -0.002951 -0.008105 0.006629 0.026334
#
#
# Mechanical properties :
#
#
# Convention : Reuss Voigt Hill
#
# Bulk Modulus (GPa) = 27.57522 53.38801 40.48161
# Shear Modulus (GPa) = 34.13850 44.99423 39.56636
#
# Velocity S-wave (km/s) = 3.51397 4.03418 3.78303
# Velocity P-wave (km/s) = 5.14180 6.40391 5.80724
#
# Compressibility (1/GPa) = 0.03626444
#
# Stress axis : x y z
#
# Youngs Moduli (GPa) = 76.79598 46.95152 98.54841
#
# Poissons Ratio (x) = 0.11273 -0.09188
# Poissons Ratio (y) = 0.18439 0.25946
# Poissons Ratio (z) = -0.07160 0.12361
#
# Static dielectric constant tensor:
#      x y z
#    x 2.305490 0.060050 -0.069980 
#    y 0.060050 2.220790 -0.029500 
#    z -0.069980 -0.029500 2.188470 
# 
# From -- ./inp_files/298530.got.cif
#   From: 2010.05.17/outbox.cif.g08.bks.cpg/sg2_150_cif.got.tgz:298530.got - 2010.06.03 11:33:40.
