data_PCOD9107851
_publ_section_title
;
Structure prediction by ZEFSAII (Michael W. Deem and Ramdas Pophale) SiO2 
 PCOD9107851
Probable space group: P -1
;
_chemical_formula_sum "Si O2"
_cell_formula_units_Z 16
_cell_length_a 12.429898
_cell_length_b 9.276326
_cell_length_c 8.683004
_cell_angle_alpha 48.109629
_cell_angle_beta 82.541690
_cell_angle_gamma 82.240946
_cell_volume 737.412799
_symmetry_space_group_name_H-M "P -1"
_symmetry_group_IT_number 2
_symmetry_cell_setting 'triclinic'
loop_
_space_group_symop_operation_xyz
x,y,z
-x,-y,-z
loop_
_atom_site_type_symbol
_atom_site_label
_atom_site_fract_x
_atom_site_fract_y
_atom_site_fract_z
Si Si1 0.752008 0.993904 0.727752
Si Si2 0.934968 0.448841 0.893936
Si Si3 0.217715 0.721974 0.743659
Si Si4 0.403660 0.652977 0.959779
Si Si5 0.356052 0.316041 0.602384
Si Si6 0.575430 0.242565 0.783352
Si Si7 0.159133 0.338110 0.852716
Si Si8 0.730210 0.701415 0.686984
O O1 0.807237 0.134170 0.496219
O O2 0.665539 0.108194 0.772495
O O3 0.698332 0.840768 0.734607
O O4 0.833750 0.861797 0.911268
O O5 0.858944 0.634492 0.717192
O O6 0.033193 0.391833 0.800769
O O7 0.863745 0.275976 0.096151
O O8 0.000000 0.500000 0.000000
O O9 0.340235 0.753371 0.756092
O O10 0.207974 0.506742 0.829249
O O11 0.500000 0.500000 0.000000
O O12 0.429037 0.776871 0.016505
O O13 0.315659 0.507115 0.135086
O O14 0.456849 0.221009 0.747838
O O15 0.390953 0.536317 0.411424
O O16 0.243776 0.320251 0.712131
O O17 0.326061 0.221355 0.513527
#
# Coordination Sequence:
#
# PCOD9107851 Si02
#       8
#     2   2   2   2   2   2   2   2
#     4  12  23  38  65  97 123 163 213 250 314 371
#     4   9  18  40  65  91 122 166 204 259 314 366
#     4  10  21  39  62  91 127 161 204 260 307 366
#     4  10  20  40  66  84 127 169 204 250 313 363
#     4  10  22  42  61  88 132 164 206 256 309 372
#     4  10  23  38  64  94 123 171 204 249 316 371
#     4  11  21  41  65  92 126 166 207 261 313 364
#     4  10  22  39  62  96 123 161 214 251 307 380
#
# _framework density 21.697479999999999
#
# number of rings (size 3 to 8) (size 9 to 14) (size 15 to 20)
#    0.000    1.750    5.000    0.750    3.500    3.000 
#    0.000    0.000    0.000    7.500    0.000    0.000 
#    0.000    0.000    0.000    0.000    0.000    0.000 
#
# Total GULP energy -89163.076882 kJ/mol
# GULP energy per Si atom -5572.692305 kJ/mol
# Density = 2.164810 g / cm^3
# Si number density = 21.697480 Si / 1000 Ang^3
#
#
#
# Elastic Constant Matrix: (Units=GPa)
#
#
# Indices 1 2 3 4 5 6 
#
# 1 84.1753 25.2621 4.9710 6.4341 13.5778 -8.1555
# 2 25.2621 99.2194 8.4155 3.1284 14.2384 -2.2289
# 3 4.9710 8.4155 41.9981 -4.1227 -2.8549 8.5258
# 4 6.4341 3.1284 -4.1227 27.4267 0.0587 -0.9203
# 5 13.5778 14.2384 -2.8549 0.0587 26.2587 7.6367
# 6 -8.1555 -2.2289 8.5258 -0.9203 7.6367 17.6994
#
#
#
# Elastic Compliance Matrix: (Units=1/GPa)
#
#
# Indices 1 2 3 4 5 6 
#
# 1 0.016644 -0.001321 -0.006258 -0.004129 -0.013216 0.016005
# 2 -0.001321 0.012158 -0.004303 -0.001489 -0.008259 0.006481
# 3 -0.006258 -0.004303 0.032376 0.005922 0.016602 -0.025876
# 4 -0.004129 -0.001489 0.005922 0.038308 0.004984 -0.005101
# 5 -0.013216 -0.008259 0.016602 0.004984 0.063477 -0.042256
# 6 0.016005 0.006481 -0.025876 -0.005101 -0.042256 0.095122
#
#
# Mechanical properties :
#
#
# Convention : Reuss Voigt Hill
#
# Bulk Modulus (GPa) = 26.72785 33.63224 30.18005
# Shear Modulus (GPa) = 16.98832 26.72655 21.85744
#
# Velocity S-wave (km/s) = 2.80118 3.51348 3.17736
# Velocity P-wave (km/s) = 4.77570 5.65629 5.23454
#
# Compressibility (1/GPa) = 0.03741416
#
# Stress axis : x y z
#
# Youngs Moduli (GPa) = 60.08177 82.25312 30.88672
#
# Poissons Ratio (x) = 0.10862 0.19330
# Poissons Ratio (y) = 0.07934 0.13291
# Poissons Ratio (z) = 0.37600 0.35394
#
# Static dielectric constant tensor:
#      x y z
#    x 1.908090 -0.027110 0.004250 
#    y -0.027110 1.834410 0.028280 
#    z 0.004250 0.028280 1.885650 
# 
# From -- ./inp_files/242054.got.cif
#   From: 2010.05.17/outbox.cif.g08.bks.cpg/sg2_122_cif.got.tgz:242054.got - 2010.06.03 11:33:40.
