data_PCOD9107816
_publ_section_title
;
Structure prediction by ZEFSAII (Michael W. Deem and Ramdas Pophale) SiO2 
 PCOD9107816
Probable space group: P -1
;
_chemical_formula_sum "Si O2"
_cell_formula_units_Z 15
_cell_length_a 7.877003
_cell_length_b 6.054505
_cell_length_c 22.681232
_cell_angle_alpha 108.203153
_cell_angle_beta 40.767179
_cell_angle_gamma 89.162467
_cell_volume 613.501292
_symmetry_space_group_name_H-M "P -1"
_symmetry_group_IT_number 2
_symmetry_cell_setting 'triclinic'
loop_
_space_group_symop_operation_xyz
x,y,z
-x,-y,-z
loop_
_atom_site_type_symbol
_atom_site_label
_atom_site_fract_x
_atom_site_fract_y
_atom_site_fract_z
Si Si1 0.872356 0.745926 0.785975
Si Si2 0.500000 0.000000 0.500000
Si Si3 0.071931 0.537408 0.138823
Si Si4 0.880154 0.213140 0.455379
Si Si5 0.720553 0.531074 0.632036
Si Si6 0.685663 0.350691 0.742946
Si Si7 0.548523 0.716478 0.082851
Si Si8 0.644190 0.065736 0.334852
O O1 0.923485 0.683101 0.836607
O O2 0.863834 0.494169 0.738807
O O3 0.106470 0.838902 0.708554
O O4 0.572812 0.982672 0.873032
O O5 0.582835 0.245006 0.509587
O O6 0.502200 0.040125 0.430567
O O7 0.318979 0.621636 0.106052
O O8 0.162618 0.435321 0.040798
O O9 0.790544 0.789129 0.243113
O O10 0.845311 0.278246 0.539098
O O11 0.025882 0.392347 0.407315
O O12 0.083626 0.924621 0.360246
O O13 0.557632 0.503493 0.729937
O O14 0.547616 0.744936 0.648373
O O15 0.474018 0.326697 0.845410
#
# Coordination Sequence:
#
# PCOD9107816 Si02
#       8
#     2   1   2   2   2   2   2   2
#     4  10  20  40  66 100 129 174 220 276 327 391
#     4  12  26  44  68  96 130 166 226 280 316 378
#     4   9  19  38  64  97 135 173 216 278 330 386
#     4  11  27  45  66  96 131 177 228 265 331 389
#     4  11  27  45  65  93 140 182 216 263 334 402
#     4  11  22  41  67  95 132 174 222 272 323 398
#     4   9  18  36  66  99 131 170 224 271 330 389
#     4  11  26  42  63  98 135 173 222 273 330 389
#
# _framework density 24.449822999999999
#
# number of rings (size 3 to 8) (size 9 to 14) (size 15 to 20)
#    0.000    1.600    0.000    4.800    9.333    1.600 
#    2.400    0.667    0.000    4.000    0.000    0.000 
#    0.000    0.000    0.000    0.000    0.000    0.000 
#
# Total GULP energy -83717.515810 kJ/mol
# GULP energy per Si atom -5581.167721 kJ/mol
# Density = 2.439417 g / cm^3
# Si number density = 24.449823 Si / 1000 Ang^3
#
#
#
# Elastic Constant Matrix: (Units=GPa)
#
#
# Indices 1 2 3 4 5 6 
#
# 1 62.0348 51.3096 60.0614 3.7677 16.5022 -2.5597
# 2 51.3096 132.7364 84.6741 -3.2232 26.2458 -16.6628
# 3 60.0614 84.6741 153.6959 -10.8413 48.9083 -40.6191
# 4 3.7677 -3.2232 -10.8413 27.9387 -11.0900 14.4819
# 5 16.5022 26.2458 48.9083 -11.0900 33.6100 -10.4524
# 6 -2.5597 -16.6628 -40.6191 14.4819 -10.4524 69.2691
#
#
#
# Elastic Compliance Matrix: (Units=1/GPa)
#
#
# Indices 1 2 3 4 5 6 
#
# 1 0.032209 -0.006235 -0.011959 -0.005617 0.002824 -0.005722
# 2 -0.006235 0.012915 -0.004553 0.000430 -0.000231 0.000082
# 3 -0.011959 -0.004553 0.023028 -0.003722 -0.022398 0.009364
# 4 -0.005617 0.000430 -0.003722 0.048222 0.020882 -0.009217
# 5 0.002824 -0.000231 -0.022398 0.020882 0.065685 -0.007539
# 6 -0.005722 0.000082 0.009364 -0.009217 -0.007539 0.020525
#
#
# Mechanical properties :
#
#
# Convention : Reuss Voigt Hill
#
# Bulk Modulus (GPa) = 44.13433 82.28414 63.20924
# Shear Modulus (GPa) = 19.55952 36.32501 27.94227
#
# Velocity S-wave (km/s) = 2.83147 3.85865 3.38426
# Velocity P-wave (km/s) = 5.36468 7.31981 6.41714
#
# Compressibility (1/GPa) = 0.02265810
#
# Stress axis : x y z
#
# Youngs Moduli (GPa) = 31.04718 77.43138 43.42620
#
# Poissons Ratio (x) = 0.48278 0.51932
# Poissons Ratio (y) = 0.19358 0.19772
# Poissons Ratio (z) = 0.37128 0.35255
#
# Static dielectric constant tensor:
#      x y z
#    x 2.419170 -0.041320 -0.523120 
#    y -0.041320 1.917280 0.064910 
#    z -0.523120 0.064910 2.502480 
# 
# From -- ./inp_files/605696.got.cif
#   From: 2010.05.17/outbox.cif.g08.bks.cpg/sg2_303_cif.got.tgz:605696.got - 2010.06.03 11:33:40.
