data_PCOD9107298
_publ_section_title
;
Structure prediction by ZEFSAII (Michael W. Deem and Ramdas Pophale) SiO2 
 PCOD9107298
Probable space group: P -1
;
_chemical_formula_sum "Si O2"
_cell_formula_units_Z 13
_cell_length_a 11.322220
_cell_length_b 9.218103
_cell_length_c 5.153896
_cell_angle_alpha 72.992949
_cell_angle_beta 72.836459
_cell_angle_gamma 73.957314
_cell_volume 480.729594
_symmetry_space_group_name_H-M "P -1"
_symmetry_group_IT_number 2
_symmetry_cell_setting 'triclinic'
loop_
_space_group_symop_operation_xyz
x,y,z
-x,-y,-z
loop_
_atom_site_type_symbol
_atom_site_label
_atom_site_fract_x
_atom_site_fract_y
_atom_site_fract_z
Si Si1 0.708880 0.468513 0.035281
Si Si2 0.608227 0.183988 0.218106
Si Si3 0.744665 0.649651 0.399882
Si Si4 0.000000 0.500000 0.500000
Si Si5 0.832291 0.014610 0.836122
Si Si6 0.625834 0.916723 0.701318
Si Si7 0.940189 0.245310 0.268110
O O1 0.605691 0.363050 0.167139
O O2 0.689245 0.601012 0.195169
O O3 0.844503 0.360747 0.082623
O O4 0.721414 0.532076 0.707720
O O5 0.499456 0.146311 0.121664
O O6 0.588457 0.093239 0.537087
O O7 0.747680 0.108971 0.065010
O O8 0.684750 0.815047 0.468155
O O9 0.895542 0.611826 0.321590
O O10 0.999351 0.648467 0.627811
O O11 0.862282 0.144471 0.550418
O O12 0.738456 0.913522 0.826458
O O13 0.959721 0.889469 0.869378
#
# Coordination Sequence:
#
# PCOD9107298 Si02
#       7
#     2   2   2   1   2   2   2
#     4  11  25  47  68 107 136 191 223 300 346 424
#     4  11  25  44  72  94 145 181 244 281 351 410
#     4  11  26  44  71 101 147 176 242 280 365 405
#     4  10  20  40  64 100 136 182 216 292 334 426
#     4  11  22  45  68 104 136 187 227 297 345 424
#     4  11  25  45  67 105 133 191 232 294 335 430
#     4  10  22  41  72 101 141 175 238 284 358 411
#
# _framework density 27.042228999999999
#
# number of rings (size 3 to 8) (size 9 to 14) (size 15 to 20)
#    0.000    1.231    3.077    2.308    2.154    5.538 
#    0.000    0.000    0.000    0.000    0.000    0.000 
#    0.000    0.000    0.000    0.000    0.000    0.000 
#
# Total GULP energy -72670.017987 kJ/mol
# GULP energy per Si atom -5590.001384 kJ/mol
# Density = 2.698068 g / cm^3
# Si number density = 27.042229 Si / 1000 Ang^3
#
#
#
# Elastic Constant Matrix: (Units=GPa)
#
#
# Indices 1 2 3 4 5 6 
#
# 1 76.7801 24.3201 27.4467 -5.0122 -2.8440 12.7850
# 2 24.3201 120.9816 35.7502 2.4159 -4.8055 25.2618
# 3 27.4467 35.7502 77.9324 4.7318 -4.3962 3.9955
# 4 -5.0122 2.4159 4.7318 51.3539 -1.4233 3.2790
# 5 -2.8440 -4.8055 -4.3962 -1.4233 14.1972 2.4945
# 6 12.7850 25.2618 3.9955 3.2790 2.4945 62.7843
#
#
#
# Elastic Compliance Matrix: (Units=1/GPa)
#
#
# Indices 1 2 3 4 5 6 
#
# 1 0.015811 -0.001134 -0.004941 0.002275 0.001946 -0.002645
# 2 -0.001134 0.010637 -0.004129 0.000096 0.002790 -0.003902
# 3 -0.004941 -0.004129 0.016625 -0.001859 0.002291 0.001615
# 4 0.002275 0.000096 -0.001859 0.020019 0.002186 -0.001516
# 5 0.001946 0.002790 0.002291 0.002186 0.073525 -0.004700
# 6 -0.002645 -0.003902 0.001615 -0.001516 -0.004700 0.018199
#
#
# Mechanical properties :
#
#
# Convention : Reuss Voigt Hill
#
# Bulk Modulus (GPa) = 44.11912 50.08091 47.10002
# Shear Modulus (GPa) = 27.35547 38.21222 32.78384
#
# Velocity S-wave (km/s) = 3.18399 3.76314 3.48562
# Velocity P-wave (km/s) = 5.46511 6.11894 5.80124
#
# Compressibility (1/GPa) = 0.02266591
#
# Stress axis : x y z
#
# Youngs Moduli (GPa) = 63.24866 94.00729 60.15058
#
# Poissons Ratio (x) = 0.10662 0.29719
# Poissons Ratio (y) = 0.07173 0.24834
# Poissons Ratio (z) = 0.31249 0.38813
#
# Static dielectric constant tensor:
#      x y z
#    x -14.191610 -0.984030 11.997630 
#    y -0.984030 2.016980 0.706000 
#    z 11.997630 0.706000 -6.762070 
# 
# From -- ./inp_files/23065.got.cif
#   From: 2010.05.17/outbox.cif.g08.bks.cpg/sg2_12_cif.got.tgz:23065.got - 2010.06.03 11:33:40.
