data_PCOD9107060
_publ_section_title
;
Structure prediction by ZEFSAII (Michael W. Deem and Ramdas Pophale) SiO2 
 PCOD9107060
Probable space group: P -1
;
_chemical_formula_sum "Si O2"
_cell_formula_units_Z 16
_cell_length_a 8.422419
_cell_length_b 17.337637
_cell_length_c 7.502750
_cell_angle_alpha 46.140123
_cell_angle_beta 65.288287
_cell_angle_gamma 90.080534
_cell_volume 642.867629
_symmetry_space_group_name_H-M "P -1"
_symmetry_group_IT_number 2
_symmetry_cell_setting 'triclinic'
loop_
_space_group_symop_operation_xyz
x,y,z
-x,-y,-z
loop_
_atom_site_type_symbol
_atom_site_label
_atom_site_fract_x
_atom_site_fract_y
_atom_site_fract_z
Si Si1 0.703114 0.514672 0.810830
Si Si2 0.161822 0.125824 0.151894
Si Si3 0.132628 0.668275 0.049419
Si Si4 0.713861 0.609821 0.273102
Si Si5 0.934516 0.305307 0.537795
Si Si6 0.513089 0.873386 0.517557
Si Si7 0.116154 0.138484 0.761139
Si Si8 0.462539 0.878546 0.960109
O O1 0.742118 0.406574 0.895426
O O2 0.715313 0.597198 0.505180
O O3 0.876312 0.571951 0.783427
O O4 0.500000 0.500000 0.000000
O O5 0.344585 0.100668 0.061555
O O6 0.246453 0.253945 0.010136
O O7 0.082417 0.149683 0.967220
O O8 0.000000 0.000000 0.500000
O O9 0.096227 0.680835 0.256220
O O10 0.925242 0.609553 0.137184
O O11 0.285546 0.796487 0.698382
O O12 0.500000 0.500000 0.500000
O O13 0.019165 0.212739 0.595274
O O14 0.710924 0.241627 0.687924
O O15 0.661015 0.823469 0.458397
O O16 0.511808 0.871306 0.738317
O O17 0.582777 0.008002 0.200311
O O18 0.000000 0.000000 0.000000
#
# Coordination Sequence:
#
# PCOD9107060 Si02
#       8
#     2   2   2   2   2   2   2   2
#     4  11  23  43  71  98 128 173 229 275 333 404
#     4  12  26  43  67  98 139 177 226 277 343 401
#     4  10  21  39  71  92 129 176 224 263 336 407
#     4  11  25  45  67 100 137 175 224 281 334 402
#     4  10  20  40  62  95 127 172 218 271 325 403
#     4  10  21  39  67  94 128 174 228 276 329 394
#     4  12  22  41  66  95 136 175 220 284 334 394
#     4  10  22  39  66  92 128 178 226 268 336 404
#
# _framework density 24.888483999999998
#
# number of rings (size 3 to 8) (size 9 to 14) (size 15 to 20)
#    0.000    1.250    3.750    3.750    7.000    0.500 
#    2.250    1.875    0.000    0.000    0.000    0.000 
#    0.000    0.000    0.000    0.000    0.000    0.000 
#
# Total GULP energy -89190.698146 kJ/mol
# GULP energy per Si atom -5574.418634 kJ/mol
# Density = 2.483184 g / cm^3
# Si number density = 24.888484 Si / 1000 Ang^3
#
#
#
# Elastic Constant Matrix: (Units=GPa)
#
#
# Indices 1 2 3 4 5 6 
#
# 1 84.8630 20.5228 37.4621 1.9831 -38.6333 -18.4238
# 2 20.5228 88.7314 33.4106 -13.6482 -6.4521 -25.7042
# 3 37.4621 33.4106 81.1717 -11.1179 -39.9508 2.2762
# 4 1.9831 -13.6482 -11.1179 33.7439 -3.0303 -5.5450
# 5 -38.6333 -6.4521 -39.9508 -3.0303 57.4695 1.6467
# 6 -18.4238 -25.7042 2.2762 -5.5450 1.6467 45.5189
#
#
#
# Elastic Compliance Matrix: (Units=1/GPa)
#
#
# Indices 1 2 3 4 5 6 
#
# 1 0.020157 0.000079 -0.004677 -0.000474 0.010053 0.008016
# 2 0.000079 0.018981 -0.009561 0.006114 -0.004488 0.012136
# 3 -0.004677 -0.009561 0.026649 0.005116 0.014822 -0.008538
# 4 -0.000474 0.006114 0.005116 0.035495 0.005592 0.007126
# 5 0.010053 -0.004488 0.014822 0.005592 0.034247 0.000236
# 6 0.008016 0.012136 -0.008538 0.007126 0.000236 0.033353
#
#
# Mechanical properties :
#
#
# Convention : Reuss Voigt Hill
#
# Bulk Modulus (GPa) = 26.68826 48.61744 37.65285
# Shear Modulus (GPa) = 23.84480 38.23782 31.04131
#
# Velocity S-wave (km/s) = 3.09862 3.92390 3.53543
# Velocity P-wave (km/s) = 4.85266 6.33292 5.64155
#
# Compressibility (1/GPa) = 0.03746966
#
# Stress axis : x y z
#
# Youngs Moduli (GPa) = 49.60982 52.68328 37.52533
#
# Poissons Ratio (x) = -0.00417 0.17551
# Poissons Ratio (y) = -0.00393 0.35878
# Poissons Ratio (z) = 0.23203 0.50370
#
# Static dielectric constant tensor:
#      x y z
#    x 2.060480 0.110420 -0.122700 
#    y 0.110420 2.053740 -0.026030 
#    z -0.122700 -0.026030 2.076470 
# 
# From -- ./inp_files/216400.got.cif
#   From: 2010.05.17/outbox.cif.g08.bks.cpg/sg2_109_cif.got.tgz:216400.got - 2010.06.03 11:33:40.
