data_PCOD9107573
_publ_section_title
;
Structure prediction by ZEFSAII (Michael W. Deem and Ramdas Pophale) SiO2 
 PCOD9107573
Probable space group: P -1
;
_chemical_formula_sum "Si O2"
_cell_formula_units_Z 16
_cell_length_a 8.560403
_cell_length_b 16.262440
_cell_length_c 11.889680
_cell_angle_alpha 33.768394
_cell_angle_beta 111.679130
_cell_angle_gamma 87.864031
_cell_volume 637.224489
_symmetry_space_group_name_H-M "P -1"
_symmetry_group_IT_number 2
_symmetry_cell_setting 'triclinic'
loop_
_space_group_symop_operation_xyz
x,y,z
-x,-y,-z
loop_
_atom_site_type_symbol
_atom_site_label
_atom_site_fract_x
_atom_site_fract_y
_atom_site_fract_z
Si Si1 0.756477 0.216676 0.681599
Si Si2 0.803851 0.574927 0.949771
Si Si3 0.768869 0.257300 0.260272
Si Si4 0.088574 0.572776 0.603581
Si Si5 0.695613 0.699222 0.248857
Si Si6 0.654701 0.091012 0.608447
Si Si7 0.734274 0.130762 0.173638
Si Si8 0.847171 0.308528 0.827174
O O1 0.609435 0.182494 0.617087
O O2 0.719204 0.296478 0.706116
O O3 0.785609 0.345451 0.467155
O O4 0.000000 0.000000 0.000000
O O5 0.714636 0.460886 0.026994
O O6 0.890743 0.509272 0.175174
O O7 0.589752 0.811558 0.613637
O O8 0.000000 0.500000 0.000000
O O9 0.733129 0.180329 0.448313
O O10 0.649890 0.235190 0.153832
O O11 0.036964 0.093517 0.493593
O O12 0.830934 0.748494 0.291504
O O13 0.194011 0.410876 0.716581
O O14 0.754050 0.527195 0.541749
O O15 0.436441 0.858271 0.963882
O O16 0.880589 0.858415 0.930797
O O17 0.793647 0.250283 0.991114
#
# Coordination Sequence:
#
# PCOD9107573 Si02
#       8
#     2   2   2   2   2   2   2   2
#     4   9  18  36  62  88 113 153 210 249 291 364
#     4  12  26  40  60  92 127 160 200 260 311 359
#     4  10  22  40  64  89 121 162 210 248 297 372
#     4  10  22  40  59  90 123 160 208 243 313 373
#     4  10  21  39  63  87 126 161 194 256 308 360
#     4  10  20  40  65  84 118 163 209 250 301 363
#     4  10  21  38  63  91 119 157 207 253 299 356
#     4   9  20  35  62  92 114 155 210 246 298 366
#
# _framework density 25.108892999999998
#
# number of rings (size 3 to 8) (size 9 to 14) (size 15 to 20)
#    0.000    2.000    1.250    1.500    5.250    1.000 
#    9.000    1.250    0.000    0.000    0.000    0.000 
#    0.000    0.000    0.000    0.000    0.000    0.000 
#
# Total GULP energy -89427.591144 kJ/mol
# GULP energy per Si atom -5589.224447 kJ/mol
# Density = 2.505174 g / cm^3
# Si number density = 25.108893 Si / 1000 Ang^3
#
#
#
# Elastic Constant Matrix: (Units=GPa)
#
#
# Indices 1 2 3 4 5 6 
#
# 1 39.8955 -1.5029 20.4299 -0.8024 -1.8162 -8.0333
# 2 -1.5029 55.5403 18.1546 23.1821 -3.0139 -4.6762
# 3 20.4299 18.1546 136.9224 16.7785 21.6089 2.9574
# 4 -0.8024 23.1821 16.7785 37.2756 1.7069 -2.9166
# 5 -1.8162 -3.0139 21.6089 1.7069 49.3275 11.1067
# 6 -8.0333 -4.6762 2.9574 -2.9166 11.1067 23.7061
#
#
#
# Elastic Compliance Matrix: (Units=1/GPa)
#
#
# Indices 1 2 3 4 5 6 
#
# 1 0.030407 0.002690 -0.005599 0.002335 0.001112 0.011300
# 2 0.002690 0.025317 -0.002451 -0.014441 0.002483 0.003271
# 3 -0.005599 -0.002451 0.009480 -0.002844 -0.003945 -0.002065
# 4 0.002335 -0.014441 -0.002844 0.037505 -0.001681 0.003700
# 5 0.001112 0.002483 -0.003945 -0.001681 0.024586 -0.010367
# 6 0.011300 0.003271 -0.002065 0.003700 -0.010367 0.052228
#
#
# Mechanical properties :
#
#
# Convention : Reuss Voigt Hill
#
# Bulk Modulus (GPa) = 18.35436 34.05792 26.20614
# Shear Modulus (GPa) = 23.99187 35.08028 29.53608
#
# Velocity S-wave (km/s) = 3.09449 3.74187 3.43347
# Velocity P-wave (km/s) = 4.48259 5.67999 5.11644
#
# Compressibility (1/GPa) = 0.05448297
#
# Stress axis : x y z
#
# Youngs Moduli (GPa) = 32.88713 39.49952 105.48972
#
# Poissons Ratio (x) = -0.10626 0.59067
# Poissons Ratio (y) = -0.08847 0.25855
# Poissons Ratio (z) = 0.18415 0.09681
#
# Static dielectric constant tensor:
#      x y z
#    x 2.046390 0.013550 0.065800 
#    y 0.013550 1.994050 -0.014260 
#    z 0.065800 -0.014260 2.069940 
# 
# From -- ./inp_files/274632.got.cif
#   From: 2010.05.17/outbox.cif.g08.bks.cpg/sg2_138_cif.got.tgz:274632.got - 2010.06.03 11:33:40.
