data_PCOD9107539
_publ_section_title
;
Structure prediction by ZEFSAII (Michael W. Deem and Ramdas Pophale) SiO2 
 PCOD9107539
Probable space group: P -1
;
_chemical_formula_sum "Si O2"
_cell_formula_units_Z 12
_cell_length_a 19.847629
_cell_length_b 10.827988
_cell_length_c 7.213066
_cell_angle_alpha 57.623885
_cell_angle_beta 40.033437
_cell_angle_gamma 31.350227
_cell_volume 485.209263
_symmetry_space_group_name_H-M "P -1"
_symmetry_group_IT_number 2
_symmetry_cell_setting 'triclinic'
loop_
_space_group_symop_operation_xyz
x,y,z
-x,-y,-z
loop_
_atom_site_type_symbol
_atom_site_label
_atom_site_fract_x
_atom_site_fract_y
_atom_site_fract_z
Si Si1 0.695429 0.905730 0.153398
Si Si2 0.624284 0.213783 0.457296
Si Si3 0.977652 0.255688 0.493136
Si Si4 0.340473 0.363745 0.688803
Si Si5 0.696042 0.830050 0.655452
Si Si6 0.013941 0.893890 0.794501
O O1 0.710064 0.748934 0.118011
O O2 0.724048 0.818978 0.378494
O O3 0.489103 0.200032 0.338286
O O4 0.841194 0.860845 0.839083
O O5 0.500000 0.500000 0.500000
O O6 0.468512 0.290748 0.629179
O O7 0.713777 0.976572 0.580264
O O8 0.808988 0.069304 0.098822
O O9 0.836444 0.537871 0.636347
O O10 0.913595 0.250430 0.440433
O O11 0.020276 0.060612 0.673284
O O12 0.157903 0.659858 0.816577
O O13 0.500000 0.000000 0.000000
#
# Coordination Sequence:
#
# PCOD9107539 Si02
#       6
#     2   2   2   2   2   2
#     4  10  20  40  64  98 125 166 223 259 315 383
#     4  11  24  44  65  96 133 170 213 267 330 377
#     4  11  21  39  65  99 129 172 214 261 316 388
#     4  10  21  39  67  94 126 170 214 270 311 381
#     4  11  21  38  65  93 129 171 208 263 322 377
#     4  11  22  39  66  98 131 167 215 264 319 382
#
# _framework density 24.731598000000002
#
# number of rings (size 3 to 8) (size 9 to 14) (size 15 to 20)
#    0.000    1.333    5.000    2.500    0.000    1.333 
#    0.000    3.333    0.000   15.000    0.000    0.000 
#    0.000    0.000    0.000    0.000    0.000    0.000 
#
# Total GULP energy -66834.422092 kJ/mol
# GULP energy per Si atom -5569.535174 kJ/mol
# Density = 2.467531 g / cm^3
# Si number density = 24.731598 Si / 1000 Ang^3
#
#
#
# Elastic Constant Matrix: (Units=GPa)
#
#
# Indices 1 2 3 4 5 6 
#
# 1 77.3340 48.9295 36.3404 -12.1184 -11.9411 13.8712
# 2 48.9295 241.3231 89.1324 4.3436 -16.5548 45.8911
# 3 36.3404 89.1324 144.4002 -4.3852 -26.8768 28.8500
# 4 -12.1184 4.3436 -4.3852 42.9662 11.1108 -20.8283
# 5 -11.9411 -16.5548 -26.8768 11.1108 36.4315 -4.0637
# 6 13.8712 45.8911 28.8500 -20.8283 -4.0637 41.4477
#
#
#
# Elastic Compliance Matrix: (Units=1/GPa)
#
#
# Indices 1 2 3 4 5 6 
#
# 1 0.016544 -0.002924 -0.002515 0.005651 0.000779 0.002368
# 2 -0.002924 0.007414 -0.001831 -0.006730 0.002094 -0.009133
# 3 -0.002515 -0.001831 0.011171 -0.004339 0.007196 -0.006382
# 4 0.005651 -0.006730 -0.004339 0.042659 -0.014224 0.028622
# 5 0.000779 0.002094 0.007196 -0.014224 0.037064 -0.011102
# 6 0.002368 -0.009133 -0.006382 0.028622 -0.011102 0.051183
#
#
# Mechanical properties :
#
#
# Convention : Reuss Voigt Hill
#
# Bulk Modulus (GPa) = 48.56789 90.20687 69.38738
# Shear Modulus (GPa) = 26.67548 43.41275 35.04412
#
# Velocity S-wave (km/s) = 3.28777 4.19424 3.76836
# Velocity P-wave (km/s) = 5.83894 7.74655 6.85938
#
# Compressibility (1/GPa) = 0.02058974
#
# Stress axis : x y z
#
# Youngs Moduli (GPa) = 60.44492 134.87316 89.51908
#
# Poissons Ratio (x) = 0.39436 0.22515
# Poissons Ratio (y) = 0.17674 0.16388
# Poissons Ratio (z) = 0.15203 0.24691
#
# Static dielectric constant tensor:
#      x y z
#    x 2.104790 -0.107520 0.153550 
#    y -0.107520 2.268770 -0.064670 
#    z 0.153550 -0.064670 1.946400 
# 
# From -- ./inp_files/353363.got.cif
#   From: 2010.05.17/outbox.cif.g08.bks.cpg/sg2_177_cif.got.tgz:353363.got - 2010.06.03 11:33:40.
