data_PCOD9107867
_publ_section_title
;
Structure prediction by ZEFSAII (Michael W. Deem and Ramdas Pophale) SiO2 
 PCOD9107867
Probable space group: P -1
;
_chemical_formula_sum "Si O2"
_cell_formula_units_Z 16
_cell_length_a 8.125872
_cell_length_b 22.087369
_cell_length_c 9.417968
_cell_angle_alpha 116.157123
_cell_angle_beta 58.171863
_cell_angle_gamma 68.260231
_cell_volume 789.462249
_symmetry_space_group_name_H-M "P -1"
_symmetry_group_IT_number 2
_symmetry_cell_setting 'triclinic'
loop_
_space_group_symop_operation_xyz
x,y,z
-x,-y,-z
loop_
_atom_site_type_symbol
_atom_site_label
_atom_site_fract_x
_atom_site_fract_y
_atom_site_fract_z
Si Si1 0.389186 0.600846 0.587135
Si Si2 0.157331 0.834030 0.208089
Si Si3 0.754268 0.837167 0.213667
Si Si4 0.633245 0.795160 0.780148
Si Si5 0.364003 0.407263 0.268545
Si Si6 0.524012 0.030810 0.812751
Si Si7 0.367339 0.917950 0.746198
Si Si8 0.664808 0.445812 0.719032
O O1 0.500000 0.500000 0.500000
O O2 0.566881 0.607649 0.609144
O O3 0.432154 0.585808 0.382638
O O4 0.018696 0.713521 0.906134
O O5 0.947024 0.844218 0.211001
O O6 0.344624 0.839047 0.041033
O O7 0.425006 0.709665 0.014587
O O8 0.906681 0.928296 0.535527
O O9 0.569187 0.918253 0.249424
O O10 0.525652 0.868387 0.467774
O O11 0.553331 0.821664 0.677407
O O12 0.960266 0.668061 0.539924
O O13 0.638084 0.871247 0.908862
O O14 0.437910 0.458158 0.216689
O O15 0.000000 0.500000 0.500000
O O16 0.409777 0.985611 0.836029
O O17 0.000000 0.000000 0.000000
O O18 0.500000 0.500000 0.000000
#
# Coordination Sequence:
#
# PCOD9107867 Si02
#       8
#     2   2   2   2   2   2   2   2
#     4   9  20  38  64  89 121 162 212 254 309 379
#     4  10  21  37  65  90 123 166 212 252 311 381
#     4  10  20  40  66  87 121 166 210 253 315 383
#     4  12  23  39  62  92 131 158 210 269 319 371
#     4  10  20  41  66  92 124 167 213 260 309 382
#     4  11  22  40  65  90 124 166 212 253 319 384
#     4  11  24  40  60  93 131 163 205 260 321 376
#     4  11  24  40  65  92 126 166 213 264 328 369
#
# _framework density 20.266959
#
# number of rings (size 3 to 8) (size 9 to 14) (size 15 to 20)
#    0.000    1.500    2.500    3.750    7.000    0.000 
#    0.000    0.625    0.000    0.000    0.000    0.000 
#    0.000    0.000    0.000    0.000    0.000    0.000 
#
# Total GULP energy -89265.551227 kJ/mol
# GULP energy per Si atom -5579.096952 kJ/mol
# Density = 2.022083 g / cm^3
# Si number density = 20.266959 Si / 1000 Ang^3
#
#
#
# Elastic Constant Matrix: (Units=GPa)
#
#
# Indices 1 2 3 4 5 6 
#
# 1 33.8863 15.7877 35.2764 -13.4054 -5.3795 -7.1843
# 2 15.7877 96.2643 29.4850 9.1073 -1.4209 -6.8499
# 3 35.2764 29.4850 110.8639 9.6835 -0.8618 -1.0769
# 4 -13.4054 9.1073 9.6835 43.7232 -0.5964 5.0966
# 5 -5.3795 -1.4209 -0.8618 -0.5964 29.7922 2.2930
# 6 -7.1843 -6.8499 -1.0769 5.0966 2.2930 34.2710
#
#
#
# Elastic Compliance Matrix: (Units=1/GPa)
#
#
# Indices 1 2 3 4 5 6 
#
# 1 0.070974 -0.006416 -0.023105 0.027442 0.011775 0.008001
# 2 -0.006416 0.012234 -0.000803 -0.004560 -0.000829 0.001809
# 3 -0.023105 -0.000803 0.017450 -0.010524 -0.003713 -0.002642
# 4 0.027442 -0.004560 -0.010524 0.034754 0.005206 -0.001006
# 5 0.011775 -0.000829 -0.003713 0.005206 0.035725 -0.000978
# 6 0.008001 0.001809 -0.002642 -0.001006 -0.000978 0.031350
#
#
# Mechanical properties :
#
#
# Convention : Reuss Voigt Hill
#
# Bulk Modulus (GPa) = 24.99336 44.67919 34.83627
# Shear Modulus (GPa) = 18.08509 32.25497 25.17003
#
# Velocity S-wave (km/s) = 2.99045 3.99370 3.52792
# Velocity P-wave (km/s) = 4.92774 6.58478 5.81558
#
# Compressibility (1/GPa) = 0.04001063
#
# Stress axis : x y z
#
# Youngs Moduli (GPa) = 14.08967 81.73900 57.30621
#
# Poissons Ratio (x) = 0.52445 1.32405
# Poissons Ratio (y) = 0.09040 0.04600
# Poissons Ratio (z) = 0.32554 0.06561
#
# Static dielectric constant tensor:
#      x y z
#    x 1.781790 -0.012250 0.030950 
#    y -0.012250 1.673820 -0.019030 
#    z 0.030950 -0.019030 1.750300 
# 
# From -- ./inp_files/189204.got.cif
#   From: 2010.05.17/outbox.cif.g08.bks.cpg/sg2_95_cif.got.tgz:189204.got - 2010.06.03 11:33:40.
