data_PCOD9107049
_publ_section_title
;
Structure prediction by ZEFSAII (Michael W. Deem and Ramdas Pophale) SiO2 
 PCOD9107049
Probable space group: P -1
;
_chemical_formula_sum "Si O2"
_cell_formula_units_Z 16
_cell_length_a 11.894046
_cell_length_b 11.164095
_cell_length_c 13.823135
_cell_angle_alpha 140.974827
_cell_angle_beta 122.231689
_cell_angle_gamma 35.915606
_cell_volume 654.744465
_symmetry_space_group_name_H-M "P -1"
_symmetry_group_IT_number 2
_symmetry_cell_setting 'triclinic'
loop_
_space_group_symop_operation_xyz
x,y,z
-x,-y,-z
loop_
_atom_site_type_symbol
_atom_site_label
_atom_site_fract_x
_atom_site_fract_y
_atom_site_fract_z
Si Si1 0.484076 0.410717 0.200956
Si Si2 0.527383 0.123420 0.845869
Si Si3 0.872110 0.467637 0.557719
Si Si4 0.815977 0.583184 0.385283
Si Si5 0.282686 0.765116 0.612402
Si Si6 0.270070 0.314359 0.092594
Si Si7 0.451672 0.776008 0.278860
Si Si8 0.857313 0.678188 0.172904
O O1 0.662427 0.249673 0.257883
O O2 0.308265 0.497066 0.234625
O O3 0.398615 0.685923 0.281516
O O4 0.538181 0.221357 0.013955
O O5 0.588295 0.205974 0.841457
O O6 0.311059 0.261209 0.810205
O O7 0.667746 0.789998 0.694607
O O8 0.897983 0.416490 0.420325
O O9 0.855108 0.276521 0.475544
O O10 0.035691 0.458784 0.641412
O O11 0.686578 0.556271 0.262159
O O12 0.664561 0.907697 0.553657
O O13 0.500000 0.500000 0.500000
O O14 0.195613 0.043036 0.693301
O O15 0.091996 0.422389 0.143017
O O16 0.185040 0.368230 0.981072
O O17 0.500000 0.000000 0.000000
#
# Coordination Sequence:
#
# PCOD9107049 Si02
#       8
#     2   2   2   2   2   2   2   2
#     4  11  23  41  67  91 131 172 219 277 332 386
#     4  10  22  42  64  94 136 172 218 275 329 398
#     4  10  20  40  62  94 129 176 217 268 330 390
#     4   9  20  37  66  87 130 175 218 271 332 385
#     4  12  23  40  67  97 136 170 222 279 325 407
#     4  10  21  42  68  93 129 177 217 268 336 397
#     4  10  20  40  64  95 127 171 226 277 324 392
#     4  10  22  41  64  97 131 174 217 270 332 395
#
# _framework density 24.437017000000001
#
# number of rings (size 3 to 8) (size 9 to 14) (size 15 to 20)
#    0.000    1.750    3.750    0.375    1.750    0.000 
#    6.750    1.250    0.000    0.000    0.000    0.000 
#    0.000    0.000    0.000    0.000    0.000    0.000 
#
# Total GULP energy -89191.936670 kJ/mol
# GULP energy per Si atom -5574.496042 kJ/mol
# Density = 2.438140 g / cm^3
# Si number density = 24.437017 Si / 1000 Ang^3
#
#
#
# Elastic Constant Matrix: (Units=GPa)
#
#
# Indices 1 2 3 4 5 6 
#
# 1 94.8198 12.5983 5.4161 -8.1346 -1.3824 -13.2478
# 2 12.5983 72.9286 4.2635 -9.2824 -7.8659 -12.6505
# 3 5.4161 4.2635 39.1075 -12.0835 -4.1141 4.2732
# 4 -8.1346 -9.2824 -12.0835 22.4001 6.6256 1.9539
# 5 -1.3824 -7.8659 -4.1141 6.6256 39.0640 3.0585
# 6 -13.2478 -12.6505 4.2732 1.9539 3.0585 46.9208
#
#
#
# Elastic Compliance Matrix: (Units=1/GPa)
#
#
# Indices 1 2 3 4 5 6 
#
# 1 0.011410 -0.001083 -0.000873 0.003168 -0.000672 0.002921
# 2 -0.001083 0.015363 -0.000159 0.005015 0.001912 0.003517
# 3 -0.000873 -0.000159 0.031356 0.016658 0.000718 -0.003885
# 4 0.003168 0.005015 0.016658 0.059050 -0.007040 -0.001271
# 5 -0.000672 0.001912 0.000718 -0.007040 0.027326 -0.001228
# 6 0.002921 0.003517 -0.003885 -0.001271 -0.001228 0.023572
#
#
# Mechanical properties :
#
#
# Convention : Reuss Voigt Hill
#
# Bulk Modulus (GPa) = 18.55270 27.93463 23.24367
# Shear Modulus (GPa) = 26.27794 33.98220 30.13007
#
# Velocity S-wave (km/s) = 3.28279 3.73312 3.51517
# Velocity P-wave (km/s) = 4.68801 5.48067 5.09976
#
# Compressibility (1/GPa) = 0.05390051
#
# Stress axis : x y z
#
# Youngs Moduli (GPa) = 87.64130 65.09118 31.89180
#
# Poissons Ratio (x) = 0.07047 0.02785
# Poissons Ratio (y) = 0.09488 0.00505
# Poissons Ratio (z) = 0.07653 0.01032
#
# Static dielectric constant tensor:
#      x y z
#    x 2.145840 0.150670 -0.027370 
#    y 0.150670 2.177850 -0.080880 
#    z -0.027370 -0.080880 2.032130 
# 
# From -- ./inp_files/519923.got.cif
#   From: 2010.05.17/outbox.cif.g08.bks.cpg/sg2_260_cif.got.tgz:519923.got - 2010.06.03 11:33:40.
