data_PCOD9107228
_publ_section_title
;
Structure prediction by ZEFSAII (Michael W. Deem and Ramdas Pophale) SiO2 
 PCOD9107228
Probable space group: P -1
;
_chemical_formula_sum "Si O2"
_cell_formula_units_Z 16
_cell_length_a 16.810347
_cell_length_b 23.838116
_cell_length_c 15.820301
_cell_angle_alpha 20.387870
_cell_angle_beta 33.668324
_cell_angle_gamma 20.614874
_cell_volume 723.190416
_symmetry_space_group_name_H-M "P -1"
_symmetry_group_IT_number 2
_symmetry_cell_setting 'triclinic'
loop_
_space_group_symop_operation_xyz
x,y,z
-x,-y,-z
loop_
_atom_site_type_symbol
_atom_site_label
_atom_site_fract_x
_atom_site_fract_y
_atom_site_fract_z
Si Si1 0.833618 0.630339 0.753772
Si Si2 0.507854 0.798448 0.353664
Si Si3 0.997342 0.164620 0.217728
Si Si4 0.440989 0.732339 0.690221
Si Si5 0.380246 0.123742 0.569869
Si Si6 0.661769 0.706191 0.174562
Si Si7 0.905134 0.123918 0.618344
Si Si8 0.548968 0.267066 0.839737
O O1 0.614982 0.902886 0.613953
O O2 0.070710 0.462899 0.833834
O O3 0.839419 0.679713 0.580620
O O4 0.799940 0.469143 0.995420
O O5 0.504601 0.695716 0.586082
O O6 0.671456 0.614166 0.388062
O O7 0.246155 0.022738 0.223885
O O8 0.521718 0.974658 0.115543
O O9 0.009226 0.099817 0.202040
O O10 0.000000 0.000000 0.500000
O O11 0.585496 0.745003 0.591500
O O12 0.500000 0.500000 0.000000
O O13 0.147229 0.013678 0.565890
O O14 0.385382 0.956489 0.855735
O O15 0.573237 0.672263 0.227193
O O16 0.788680 0.152090 0.766084
O O17 0.673374 0.429117 0.352312
#
# Coordination Sequence:
#
# PCOD9107228 Si02
#       8
#     2   2   2   2   2   2   2   2
#     4  10  24  40  63  90 124 166 214 262 314 382
#     4  10  21  36  62  91 121 161 212 257 312 376
#     4  11  19  36  62  88 119 163 206 257 311 371
#     4  12  25  42  63  97 133 169 212 266 324 380
#     4  11  24  43  63  91 128 173 213 259 323 386
#     4  10  20  40  63  93 121 161 217 262 308 374
#     4  11  24  39  62  98 130 161 212 267 317 381
#     4  11  23  41  67  96 128 169 213 268 319 378
#
# _framework density 22.124188
#
# number of rings (size 3 to 8) (size 9 to 14) (size 15 to 20)
#    0.000    1.250    3.750    2.250    1.750    2.000 
#    0.000    1.875    0.000    4.500    0.000    0.000 
#    0.000    0.000    0.000    0.000    0.000    0.000 
#
# Total GULP energy -89211.111506 kJ/mol
# GULP energy per Si atom -5575.694469 kJ/mol
# Density = 2.207383 g / cm^3
# Si number density = 22.124188 Si / 1000 Ang^3
#
#
#
# Elastic Constant Matrix: (Units=GPa)
#
#
# Indices 1 2 3 4 5 6 
#
# 1 64.9497 -2.6955 9.7824 3.3379 2.6689 12.3974
# 2 -2.6955 31.5875 3.7132 11.6532 9.1680 3.9036
# 3 9.7824 3.7132 129.0667 23.8785 9.9601 12.1437
# 4 3.3379 11.6532 23.8785 32.5564 8.4582 -1.5752
# 5 2.6689 9.1680 9.9601 8.4582 29.1165 2.9924
# 6 12.3974 3.9036 12.1437 -1.5752 2.9924 23.9490
#
#
#
# Elastic Compliance Matrix: (Units=1/GPa)
#
#
# Indices 1 2 3 4 5 6 
#
# 1 0.017717 0.004431 0.000271 -0.003846 -0.000950 -0.010165
# 2 0.004431 0.041329 0.003049 -0.015700 -0.008822 -0.010507
# 3 0.000271 0.003049 0.009839 -0.008281 -0.001328 -0.006005
# 4 -0.003846 -0.015700 -0.008281 0.045028 -0.006235 0.012490
# 5 -0.000950 -0.008822 -0.001328 -0.006235 0.039760 -0.002775
# 6 -0.010165 -0.010507 -0.006005 0.012490 -0.002775 0.052943
#
#
# Mechanical properties :
#
#
# Convention : Reuss Voigt Hill
#
# Bulk Modulus (GPa) = 11.85022 27.46713 19.65868
# Shear Modulus (GPa) = 22.80571 31.44464 27.12517
#
# Velocity S-wave (km/s) = 3.21410 3.77407 3.50529
# Velocity P-wave (km/s) = 4.37513 5.60655 5.02868
#
# Compressibility (1/GPa) = 0.08438659
#
# Stress axis : x y z
#
# Youngs Moduli (GPa) = 56.44427 24.19626 101.63323
#
# Poissons Ratio (x) = -0.10721 -0.02755
# Poissons Ratio (y) = -0.25009 -0.30990
# Poissons Ratio (z) = -0.01530 -0.07378
#
# Static dielectric constant tensor:
#      x y z
#    x 1.708790 0.049520 0.104040 
#    y 0.049520 1.852600 -0.048500 
#    z 0.104040 -0.048500 1.791050 
# 
# From -- ./inp_files/333784.got.cif
#   From: 2010.05.17/outbox.cif.g08.bks.cpg/sg2_167_cif.got.tgz:333784.got - 2010.06.03 11:33:40.
