data_PCOD9107791
_publ_section_title
;
Structure prediction by ZEFSAII (Michael W. Deem and Ramdas Pophale) SiO2 
 PCOD9107791
Probable space group: P -1
;
_chemical_formula_sum "Si O2"
_cell_formula_units_Z 14
_cell_length_a 20.426785
_cell_length_b 5.588622
_cell_length_c 11.782199
_cell_angle_alpha 73.686842
_cell_angle_beta 31.377010
_cell_angle_gamma 59.134484
_cell_volume 562.760683
_symmetry_space_group_name_H-M "P -1"
_symmetry_group_IT_number 2
_symmetry_cell_setting 'triclinic'
loop_
_space_group_symop_operation_xyz
x,y,z
-x,-y,-z
loop_
_atom_site_type_symbol
_atom_site_label
_atom_site_fract_x
_atom_site_fract_y
_atom_site_fract_z
Si Si1 0.199077 0.939017 0.760581
Si Si2 0.536339 0.966022 0.696673
Si Si3 0.931920 0.128122 0.268502
Si Si4 0.903122 0.778619 0.528127
Si Si5 0.410408 0.337157 0.642526
Si Si6 0.399728 0.652566 0.013834
Si Si7 0.286512 0.336809 0.326420
O O1 0.128717 0.959621 0.738871
O O2 0.268958 0.597390 0.747491
O O3 0.320572 0.031168 0.563142
O O4 0.066398 0.145927 0.017145
O O5 0.574550 0.939566 0.777815
O O6 0.397912 0.254078 0.801713
O O7 0.498080 0.709478 0.773766
O O8 0.788908 0.421247 0.493849
O O9 0.987975 0.916604 0.325057
O O10 0.841363 0.703673 0.520374
O O11 0.000000 0.500000 0.500000
O O12 0.748867 0.026104 0.784324
O O13 0.500000 0.500000 0.500000
O O14 0.500000 0.000000 0.500000
O O15 0.326645 0.460621 0.141734
O O16 0.500000 0.500000 0.000000
#
# Coordination Sequence:
#
# PCOD9107791 Si02
#       7
#     2   2   2   2   2   2   2
#     4  10  21  41  67  99 134 176 222 277 342 421
#     4  10  20  40  65  97 130 175 220 285 342 408
#     4  10  22  41  65  94 132 177 223 272 346 412
#     4  11  24  43  67  94 131 174 230 283 341 405
#     4  10  22  41  62  96 136 176 226 283 345 414
#     4   9  22  41  66  96 126 172 226 276 343 406
#     4  10  21  43  65  93 131 176 226 280 337 411
#
# _framework density 24.877357
#
# number of rings (size 3 to 8) (size 9 to 14) (size 15 to 20)
#    0.000    2.000    1.429    0.857    2.000    5.143 
#   12.857    0.000    0.000    0.000    0.000    0.000 
#    0.000    0.000    0.000    0.000    0.000    0.000 
#
# Total GULP energy -77960.757825 kJ/mol
# GULP energy per Si atom -5568.625559 kJ/mol
# Density = 2.482074 g / cm^3
# Si number density = 24.877357 Si / 1000 Ang^3
#
#
#
# Elastic Constant Matrix: (Units=GPa)
#
#
# Indices 1 2 3 4 5 6 
#
# 1 58.8820 36.2264 13.1599 2.0724 14.4090 -31.6629
# 2 36.2264 136.4209 76.4225 -15.3705 12.4020 -49.9777
# 3 13.1599 76.4225 152.9876 -15.2550 13.3883 0.8837
# 4 2.0724 -15.3705 -15.2550 52.0189 0.1347 5.3298
# 5 14.4090 12.4020 13.3883 0.1347 24.5997 -1.3975
# 6 -31.6629 -49.9777 0.8837 5.3298 -1.3975 56.3699
#
#
#
# Elastic Compliance Matrix: (Units=1/GPa)
#
#
# Indices 1 2 3 4 5 6 
#
# 1 0.030636 0.000420 -0.001875 -0.003401 -0.016121 0.017532
# 2 0.000420 0.019195 -0.009263 0.001187 -0.003912 0.017190
# 3 -0.001875 -0.009263 0.011654 0.001746 -0.001132 -0.009642
# 4 -0.003401 0.001187 0.001746 0.020511 0.000171 -0.002820
# 5 -0.016121 -0.003912 -0.001132 0.000171 0.052043 -0.011232
# 6 0.017532 0.017190 -0.009642 -0.002820 -0.011232 0.042968
#
#
# Mechanical properties :
#
#
# Convention : Reuss Voigt Hill
#
# Bulk Modulus (GPa) = 24.96942 66.65647 45.81294
# Shear Modulus (GPa) = 23.60815 41.42981 32.51898
#
# Velocity S-wave (km/s) = 3.08390 4.08531 3.61941
# Velocity P-wave (km/s) = 4.76858 7.00751 5.99352
#
# Compressibility (1/GPa) = 0.04004899
#
# Stress axis : x y z
#
# Youngs Moduli (GPa) = 32.64154 52.09698 85.80827
#
# Poissons Ratio (x) = -0.02189 0.16086
# Poissons Ratio (y) = -0.01371 0.79486
# Poissons Ratio (z) = 0.06119 0.48259
#
# Static dielectric constant tensor:
#      x y z
#    x 1.969810 -0.023900 0.018320 
#    y -0.023900 2.042040 -0.012270 
#    z 0.018320 -0.012270 2.036120 
# 
# From -- ./inp_files/468325.got.cif
#   From: 2010.05.17/outbox.cif.g08.bks.cpg/sg2_235_cif.got.tgz:468325.got - 2010.06.03 11:33:40.
