data_PCOD9107368
_publ_section_title
;
Structure prediction by ZEFSAII (Michael W. Deem and Ramdas Pophale) SiO2 
 PCOD9107368
Probable space group: P -1
;
_chemical_formula_sum "Si O2"
_cell_formula_units_Z 15
_cell_length_a 17.209711
_cell_length_b 13.138113
_cell_length_c 12.252773
_cell_angle_alpha 151.824845
_cell_angle_beta 153.627835
_cell_angle_gamma 37.463536
_cell_volume 580.949831
_symmetry_space_group_name_H-M "P -1"
_symmetry_group_IT_number 2
_symmetry_cell_setting 'triclinic'
loop_
_space_group_symop_operation_xyz
x,y,z
-x,-y,-z
loop_
_atom_site_type_symbol
_atom_site_label
_atom_site_fract_x
_atom_site_fract_y
_atom_site_fract_z
Si Si1 0.394261 0.256289 0.712955
Si Si2 0.618195 0.794452 0.990105
Si Si3 0.131524 0.059742 0.369965
Si Si4 0.133690 0.597893 0.673222
Si Si5 0.374593 0.433534 0.441803
Si Si6 0.000000 0.500000 0.000000
Si Si7 0.004879 0.314055 0.049590
Si Si8 0.651700 0.915508 0.751678
O O1 0.256594 0.133705 0.500510
O O2 0.326071 0.504974 0.859608
O O3 0.377729 0.168903 0.487244
O O4 0.578786 0.160352 0.898354
O O5 0.508199 0.617059 0.750671
O O6 0.671292 0.700830 0.851535
O O7 0.781538 0.848783 0.323486
O O8 0.500000 0.000000 0.000000
O O9 0.937879 0.158370 0.194062
O O10 0.123108 0.807233 0.142664
O O11 0.000000 0.500000 0.500000
O O12 0.091535 0.490387 0.402204
O O13 0.438085 0.252062 0.436419
O O14 0.184876 0.525634 0.325453
O O15 0.915026 0.387776 0.895797
O O16 0.144397 0.128551 0.011290
#
# Coordination Sequence:
#
# PCOD9107368 Si02
#       8
#     2   2   2   2   2   1   2   2
#     4   9  19  38  60  86 119 153 200 245 291 354
#     4  11  23  40  63  90 118 158 205 245 294 356
#     4  11  22  38  63  91 118 158 204 245 294 356
#     4   9  20  37  59  88 118 154 200 244 292 349
#     4  10  22  41  63  87 122 158 197 249 297 354
#     4  10  20  40  64  88 122 160 192 244 310 352
#     4  10  21  39  62  88 124 158 196 249 298 354
#     4   9  19  38  61  87 121 160 193 242 308 352
#
# _framework density 25.819783999999999
#
# number of rings (size 3 to 8) (size 9 to 14) (size 15 to 20)
#    0.000    2.133    0.000    2.400    0.000    8.000 
#    0.000   30.667    0.000    0.000    0.000    0.000 
#    0.000    0.000    0.000    0.000    0.000    0.000 
#
# Total GULP energy -83612.063913 kJ/mol
# GULP energy per Si atom -5574.137594 kJ/mol
# Density = 2.576102 g / cm^3
# Si number density = 25.819784 Si / 1000 Ang^3
#
#
#
# Elastic Constant Matrix: (Units=GPa)
#
#
# Indices 1 2 3 4 5 6 
#
# 1 109.4375 51.5262 15.5253 0.5847 -12.3600 31.0156
# 2 51.5262 188.5756 15.1192 -12.5436 -5.3009 13.4164
# 3 15.5253 15.1192 75.5590 -10.1150 -11.3335 14.2410
# 4 0.5847 -12.5436 -10.1150 22.4701 7.3091 18.0948
# 5 -12.3600 -5.3009 -11.3335 7.3091 18.3164 2.7966
# 6 31.0156 13.4164 14.2410 18.0948 2.7966 57.2909
#
#
#
# Elastic Compliance Matrix: (Units=1/GPa)
#
#
# Indices 1 2 3 4 5 6 
#
# 1 0.013680 -0.002854 0.000940 0.001849 0.009473 -0.008018
# 2 -0.002854 0.006530 0.000082 0.005827 -0.002044 -0.001746
# 3 0.000940 0.000082 0.017730 0.013047 0.007864 -0.009440
# 4 0.001849 0.005827 0.013047 0.084830 -0.018031 -0.031521
# 5 0.009473 -0.002044 0.007864 -0.018031 0.073142 -0.004480
# 6 -0.008018 -0.001746 -0.009440 -0.031521 -0.004480 0.034725
#
#
# Mechanical properties :
#
#
# Convention : Reuss Voigt Hill
#
# Bulk Modulus (GPa) = 29.17336 59.76816 44.47076
# Shear Modulus (GPa) = 20.34769 39.04224 29.69496
#
# Velocity S-wave (km/s) = 2.81030 3.89280 3.39497
# Velocity P-wave (km/s) = 4.67480 6.58814 5.71215
#
# Compressibility (1/GPa) = 0.03427785
#
# Stress axis : x y z
#
# Youngs Moduli (GPa) = 73.09789 153.13028 56.40023
#
# Poissons Ratio (x) = 0.43697 -0.05301
# Poissons Ratio (y) = 0.20859 -0.00463
# Poissons Ratio (z) = -0.06870 -0.01258
#
# Static dielectric constant tensor:
#      x y z
#    x 2.145080 -0.085410 0.068110 
#    y -0.085410 2.213370 0.075840 
#    z 0.068110 0.075840 2.000590 
# 
# From -- ./inp_files/465185.got.cif
#   From: 2010.05.17/outbox.cif.g08.bks.cpg/sg2_233_cif.got.tgz:465185.got - 2010.06.03 11:33:40.
