data_PCOD9107006
_publ_section_title
;
Structure prediction by ZEFSAII (Michael W. Deem and Ramdas Pophale) SiO2 
 PCOD9107006
Probable space group: P -1
;
_chemical_formula_sum "Si O2"
_cell_formula_units_Z 16
_cell_length_a 7.571334
_cell_length_b 10.077532
_cell_length_c 12.665936
_cell_angle_alpha 53.413006
_cell_angle_beta 104.967024
_cell_angle_gamma 80.792628
_cell_volume 685.520934
_symmetry_space_group_name_H-M "P -1"
_symmetry_group_IT_number 2
_symmetry_cell_setting 'triclinic'
loop_
_space_group_symop_operation_xyz
x,y,z
-x,-y,-z
loop_
_atom_site_type_symbol
_atom_site_label
_atom_site_fract_x
_atom_site_fract_y
_atom_site_fract_z
Si Si1 0.549890 0.893475 0.291038
Si Si2 0.901405 0.903392 0.877377
Si Si3 0.105624 0.507611 0.120007
Si Si4 0.552234 0.392733 0.172302
Si Si5 0.710281 0.297795 0.681105
Si Si6 0.854833 0.031300 0.294833
Si Si7 0.837654 0.610470 0.606785
Si Si8 0.814411 0.344999 0.434568
O O1 0.487795 0.738242 0.304228
O O2 0.659990 0.798238 0.460094
O O3 0.717010 0.953174 0.241058
O O4 0.332966 0.054381 0.196618
O O5 0.031174 0.881293 0.802967
O O6 0.007273 0.716740 0.041535
O O7 0.880421 0.098015 0.825547
O O8 0.337660 0.431747 0.168016
O O9 0.077617 0.388033 0.265252
O O10 0.000000 0.500000 0.000000
O O11 0.691103 0.185995 0.264157
O O12 0.668196 0.429696 0.273444
O O13 0.500000 0.500000 0.000000
O O14 0.748145 0.459480 0.660835
O O15 0.718108 0.331124 0.539485
O O16 0.027882 0.864931 0.458920
O O17 0.025939 0.563675 0.580715
#
# Coordination Sequence:
#
# PCOD9107006 Si02
#       8
#     2   2   2   2   2   2   2   2
#     4   9  20  38  64  94 119 160 210 258 309 366
#     4   9  21  40  62  88 131 160 207 256 313 365
#     4  12  25  41  60  92 130 165 212 255 317 377
#     4  12  23  39  62  89 129 170 206 254 315 377
#     4   9  20  41  67  89 128 158 214 260 311 363
#     4  10  20  40  62  91 128 167 207 258 315 366
#     4  11  22  39  68  94 123 165 209 261 313 373
#     4  10  22  40  63  96 122 164 212 260 315 370
#
# _framework density 23.339914
#
# number of rings (size 3 to 8) (size 9 to 14) (size 15 to 20)
#    0.750    1.000    1.250    3.375    0.000    0.500 
#    2.250    2.500    0.000    1.500    0.000    0.000 
#    0.000    0.000    0.000    0.000    0.000    0.000 
#
# Total GULP energy -89129.668663 kJ/mol
# GULP energy per Si atom -5570.604291 kJ/mol
# Density = 2.328679 g / cm^3
# Si number density = 23.339914 Si / 1000 Ang^3
#
#
#
# Elastic Constant Matrix: (Units=GPa)
#
#
# Indices 1 2 3 4 5 6 
#
# 1 91.5288 -11.2442 23.9616 17.1250 21.5655 6.2379
# 2 -11.2442 45.3961 18.3179 4.5846 9.4628 -3.7217
# 3 23.9616 18.3179 118.9339 9.0327 16.4517 -7.5873
# 4 17.1250 4.5846 9.0327 33.8395 -5.0133 4.3779
# 5 21.5655 9.4628 16.4517 -5.0133 35.4295 -6.8648
# 6 6.2379 -3.7217 -7.5873 4.3779 -6.8648 18.7367
#
#
#
# Elastic Compliance Matrix: (Units=1/GPa)
#
#
# Indices 1 2 3 4 5 6 
#
# 1 0.019689 0.009978 -0.002865 -0.011856 -0.016761 -0.009104
# 2 0.009978 0.029882 -0.004057 -0.009840 -0.013917 -0.001829
# 3 -0.002865 -0.004057 0.010162 -0.001438 -0.001295 0.004125
# 4 -0.011856 -0.009840 -0.001438 0.039877 0.015741 -0.002140
# 5 -0.016761 -0.013917 -0.001295 0.015741 0.048120 0.016244
# 6 -0.009104 -0.001829 0.004125 -0.002140 0.016244 0.064161
#
#
# Mechanical properties :
#
#
# Convention : Reuss Voigt Hill
#
# Bulk Modulus (GPa) = 15.18742 35.32546 25.25644
# Shear Modulus (GPa) = 21.95608 32.58939 27.27274
#
# Velocity S-wave (km/s) = 3.07043 3.74076 3.42204
# Velocity P-wave (km/s) = 4.36935 5.81599 5.14378
#
# Compressibility (1/GPa) = 0.06584395
#
# Stress axis : x y z
#
# Youngs Moduli (GPa) = 50.78907 33.46540 98.40920
#
# Poissons Ratio (x) = -0.33391 0.28199
# Poissons Ratio (y) = -0.50677 0.39922
# Poissons Ratio (z) = 0.14553 0.13576
#
# Static dielectric constant tensor:
#      x y z
#    x 1.908850 0.019210 -0.013180 
#    y 0.019210 1.970400 -0.001560 
#    z -0.013180 -0.001560 1.876120 
# 
# From -- ./inp_files/498893.got.cif
#   From: 2010.05.17/outbox.cif.g08.bks.cpg/sg2_250_cif.got.tgz:498893.got - 2010.06.03 11:33:40.
