data_PCOD9107545
_publ_section_title
;
Structure prediction by ZEFSAII (Michael W. Deem and Ramdas Pophale) SiO2 
 PCOD9107545
Probable space group: P -1
;
_chemical_formula_sum "Si O2"
_cell_formula_units_Z 15
_cell_length_a 14.154353
_cell_length_b 10.729806
_cell_length_c 5.243671
_cell_angle_alpha 59.846767
_cell_angle_beta 105.330208
_cell_angle_gamma 129.762377
_cell_volume 527.396279
_symmetry_space_group_name_H-M "P -1"
_symmetry_group_IT_number 2
_symmetry_cell_setting 'triclinic'
loop_
_space_group_symop_operation_xyz
x,y,z
-x,-y,-z
loop_
_atom_site_type_symbol
_atom_site_label
_atom_site_fract_x
_atom_site_fract_y
_atom_site_fract_z
Si Si1 0.349656 0.258896 0.418366
Si Si2 0.287870 0.356083 0.773550
Si Si3 0.464105 0.124252 0.944882
Si Si4 0.079325 0.910638 0.713565
Si Si5 0.081911 0.453391 0.244031
Si Si6 0.799284 0.199004 0.696795
Si Si7 0.709422 0.368763 0.172367
Si Si8 0.000000 0.000000 0.000000
O O1 0.359124 0.332109 0.070184
O O2 0.212814 0.067665 0.538446
O O3 0.347896 0.374123 0.526511
O O4 0.445782 0.222681 0.605503
O O5 0.285357 0.517524 0.702733
O O6 0.147424 0.170756 0.857740
O O7 0.572548 0.258106 0.078661
O O8 0.329983 0.983288 0.116955
O O9 0.500000 0.000000 0.000000
O O10 0.014325 0.764214 0.583849
O O11 0.981692 0.924000 0.774846
O O12 0.108253 0.832104 0.066958
O O13 0.138993 0.597220 0.362517
O O14 0.190297 0.490812 0.106522
O O15 0.000000 0.500000 0.000000
O O16 0.749274 0.234298 0.366970
#
# Coordination Sequence:
#
# PCOD9107545 Si02
#       8
#     2   2   2   2   2   2   2   1
#     4  10  26  48  68 102 140 184 227 287 344 408
#     4  11  26  45  70 102 141 184 231 279 348 409
#     4  11  24  46  72  98 133 178 234 289 343 411
#     4   9  20  41  63  98 136 176 225 278 345 409
#     4  10  21  41  61  99 137 175 221 285 344 408
#     4  10  23  42  65  99 132 173 226 287 350 396
#     4  12  25  41  70  99 133 181 234 283 341 416
#     4  10  20  40  64  98 136 182 224 270 336 420
#
# _framework density 28.441611999999999
#
# number of rings (size 3 to 8) (size 9 to 14) (size 15 to 20)
#    0.000    1.600    2.667    0.400    1.867   10.667 
#    0.000    0.000    0.000    0.000    0.000    0.000 
#    0.000    0.000    0.000    0.000    0.000    0.000 
#
# Total GULP energy -83744.609677 kJ/mol
# GULP energy per Si atom -5582.973978 kJ/mol
# Density = 2.837688 g / cm^3
# Si number density = 28.441612 Si / 1000 Ang^3
#
#
#
# Elastic Constant Matrix: (Units=GPa)
#
#
# Indices 1 2 3 4 5 6 
#
# 1 54.5649 4.7893 4.3945 7.2427 3.9864 19.3829
# 2 4.7893 131.4429 -12.0172 6.9301 -12.3799 22.0014
# 3 4.3945 -12.0172 103.3034 18.6625 21.9233 5.9488
# 4 7.2427 6.9301 18.6625 32.6913 -2.4639 5.2944
# 5 3.9864 -12.3799 21.9233 -2.4639 40.5683 -4.3595
# 6 19.3829 22.0014 5.9488 5.2944 -4.3595 47.8168
#
#
#
# Elastic Compliance Matrix: (Units=1/GPa)
#
#
# Indices 1 2 3 4 5 6 
#
# 1 0.022425 0.000761 0.001379 -0.004687 -0.004018 -0.009459
# 2 0.000761 0.008609 0.001284 -0.001966 0.001299 -0.004093
# 3 0.001379 0.001284 0.012988 -0.008147 -0.007531 -0.002550
# 4 -0.004687 -0.001966 -0.008147 0.037140 0.006551 0.000303
# 5 -0.004018 0.001299 -0.007531 0.006551 0.030339 0.004008
# 6 -0.009459 -0.004093 -0.002550 0.000303 0.004008 0.027280
#
#
# Mechanical properties :
#
#
# Convention : Reuss Voigt Hill
#
# Bulk Modulus (GPa) = 19.65826 31.51605 25.58715
# Shear Modulus (GPa) = 33.58208 43.69158 38.63683
#
# Velocity S-wave (km/s) = 3.43991 3.92367 3.68973
# Velocity P-wave (km/s) = 4.76489 5.62423 5.21230
#
# Compressibility (1/GPa) = 0.05086920
#
# Stress axis : x y z
#
# Youngs Moduli (GPa) = 44.59362 116.16192 76.99501
#
# Poissons Ratio (x) = -0.08840 -0.10615
# Poissons Ratio (y) = -0.03394 -0.09888
# Poissons Ratio (z) = -0.06148 -0.14918
#
# Static dielectric constant tensor:
#      x y z
#    x 2.254720 -0.124170 0.065170 
#    y -0.124170 2.259330 -0.079340 
#    z 0.065170 -0.079340 2.355970 
# 
# From -- ./inp_files/93271.got.cif
#   From: 2010.05.17/outbox.cif.g08.bks.cpg/sg2_47_cif.got.tgz:93271.got - 2010.06.03 11:33:40.
