data_PCOD9107513
_publ_section_title
;
Structure prediction by ZEFSAII (Michael W. Deem and Ramdas Pophale) SiO2 
 PCOD9107513
Probable space group: P -1
;
_chemical_formula_sum "Si O2"
_cell_formula_units_Z 16
_cell_length_a 11.003424
_cell_length_b 9.145384
_cell_length_c 15.202076
_cell_angle_alpha 54.772426
_cell_angle_beta 34.999801
_cell_angle_gamma 72.913311
_cell_volume 662.584701
_symmetry_space_group_name_H-M "P -1"
_symmetry_group_IT_number 2
_symmetry_cell_setting 'triclinic'
loop_
_space_group_symop_operation_xyz
x,y,z
-x,-y,-z
loop_
_atom_site_type_symbol
_atom_site_label
_atom_site_fract_x
_atom_site_fract_y
_atom_site_fract_z
Si Si1 0.906270 0.820845 0.378075
Si Si2 0.321774 0.194119 0.215675
Si Si3 0.885745 0.214211 0.547025
Si Si4 0.098144 0.211495 0.912337
Si Si5 0.971213 0.597253 0.275634
Si Si6 0.609260 0.478604 0.257368
Si Si7 0.642139 0.478281 0.038627
Si Si8 0.235943 0.848843 0.706873
O O1 0.058576 0.783637 0.222763
O O2 0.654162 0.665379 0.552333
O O3 0.002921 0.773301 0.427505
O O4 0.892672 0.032681 0.310617
O O5 0.432395 0.275393 0.215863
O O6 0.063892 0.186374 0.380376
O O7 0.326431 0.988724 0.261981
O O8 0.427834 0.355762 0.021996
O O9 0.855950 0.407234 0.469197
O O10 0.163789 0.351060 0.739973
O O11 0.319984 0.318349 0.804780
O O12 0.889434 0.197946 0.107281
O O13 0.000000 0.000000 0.000000
O O14 0.167275 0.558179 0.119202
O O15 0.702119 0.525252 0.086795
O O16 0.739120 0.349318 0.269330
O O17 0.500000 0.000000 0.500000
#
# Coordination Sequence:
#
# PCOD9107513 Si02
#       8
#     2   2   2   2   2   2   2   2
#     4  11  23  44  64  97 136 174 217 274 335 389
#     4   9  20  37  64  95 128 169 226 277 315 386
#     4  10  21  40  66  96 128 176 218 271 334 387
#     4  12  25  46  65  97 135 174 217 273 337 383
#     4  11  24  41  64  94 139 172 217 275 330 398
#     4  11  24  42  69  96 127 177 222 272 323 395
#     4  10  20  40  64  96 128 172 225 273 324 387
#     4  10  23  43  68  97 124 172 222 267 322 393
#
# _framework density 24.147856000000001
#
# number of rings (size 3 to 8) (size 9 to 14) (size 15 to 20)
#    0.000    1.500    3.750    0.750    1.750    2.500 
#    4.500    0.625    0.000    0.000    0.000    0.000 
#    0.000    0.000    0.000    0.000    0.000    0.000 
#
# Total GULP energy -89212.095163 kJ/mol
# GULP energy per Si atom -5575.755948 kJ/mol
# Density = 2.409289 g / cm^3
# Si number density = 24.147856 Si / 1000 Ang^3
#
#
#
# Elastic Constant Matrix: (Units=GPa)
#
#
# Indices 1 2 3 4 5 6 
#
# 1 108.5387 50.3625 47.0399 -23.0793 19.9656 16.9734
# 2 50.3625 102.4399 19.8410 -28.4869 6.6076 8.4439
# 3 47.0399 19.8410 62.2574 -14.8878 10.1831 5.2858
# 4 -23.0793 -28.4869 -14.8878 34.3640 6.0288 1.2947
# 5 19.9656 6.6076 10.1831 6.0288 34.9279 -7.6991
# 6 16.9734 8.4439 5.2858 1.2947 -7.6991 31.5089
#
#
#
# Elastic Compliance Matrix: (Units=1/GPa)
#
#
# Indices 1 2 3 4 5 6 
#
# 1 0.021883 -0.004246 -0.009538 0.009883 -0.013439 -0.012740
# 2 -0.004246 0.015153 0.002010 0.011372 -0.003759 -0.003497
# 3 -0.009538 0.002010 0.024848 0.006662 -0.003475 -0.000692
# 4 0.009883 0.011372 0.006662 0.052666 -0.022620 -0.017180
# 5 -0.013439 -0.003759 -0.003475 -0.022620 0.046602 0.021146
# 6 -0.012740 -0.003497 -0.000692 -0.017180 0.021146 0.045526
#
#
# Mechanical properties :
#
#
# Convention : Reuss Voigt Hill
#
# Bulk Modulus (GPa) = 26.08445 56.41364 41.24905
# Shear Modulus (GPa) = 20.57572 30.55966 25.56769
#
# Velocity S-wave (km/s) = 2.92219 3.56128 3.25745
# Velocity P-wave (km/s) = 4.71286 6.35002 5.59168
#
# Compressibility (1/GPa) = 0.03833701
#
# Stress axis : x y z
#
# Youngs Moduli (GPa) = 45.69819 65.99394 40.24405
#
# Poissons Ratio (x) = 0.28019 0.38384
# Poissons Ratio (y) = 0.19402 -0.08089
# Poissons Ratio (z) = 0.43586 -0.13265
#
# Static dielectric constant tensor:
#      x y z
#    x 1.935650 -0.042040 -0.032950 
#    y -0.042040 1.970300 -0.011030 
#    z -0.032950 -0.011030 2.072080 
# 
# From -- ./inp_files/515020.got.cif
#   From: 2010.05.17/outbox.cif.g08.bks.cpg/sg2_258_cif.got.tgz:515020.got - 2010.06.03 11:33:40.
