data_PCOD9107710
_publ_section_title
;
Structure prediction by ZEFSAII (Michael W. Deem and Ramdas Pophale) SiO2 
 PCOD9107710
Probable space group: P -1
;
_chemical_formula_sum "Si O2"
_cell_formula_units_Z 12
_cell_length_a 17.332501
_cell_length_b 9.657314
_cell_length_c 15.367086
_cell_angle_alpha 148.618981
_cell_angle_beta 155.494427
_cell_angle_gamma 24.779058
_cell_volume 441.502054
_symmetry_space_group_name_H-M "P -1"
_symmetry_group_IT_number 2
_symmetry_cell_setting 'triclinic'
loop_
_space_group_symop_operation_xyz
x,y,z
-x,-y,-z
loop_
_atom_site_type_symbol
_atom_site_label
_atom_site_fract_x
_atom_site_fract_y
_atom_site_fract_z
Si Si1 0.837169 0.677815 0.152881
Si Si2 0.662390 0.817561 0.681781
Si Si3 0.197881 0.047199 0.384537
Si Si4 0.049270 0.164028 0.479959
Si Si5 0.673444 0.023650 0.996274
Si Si6 0.277360 0.671073 0.016641
O O1 0.106655 0.459367 0.281105
O O2 0.824262 0.919653 0.342600
O O3 0.758561 0.484404 0.020990
O O4 0.691277 0.833010 0.998887
O O5 0.442178 0.816208 0.462881
O O6 0.713901 0.843836 0.850352
O O7 0.593744 0.161269 0.753192
O O8 0.092591 0.434380 0.464071
O O9 0.221584 0.992612 0.482715
O O10 0.985542 0.045853 0.135107
O O11 0.868989 0.079753 0.242439
O O12 0.420506 0.384455 0.936758
#
# Coordination Sequence:
#
# PCOD9107710 Si02
#       6
#     2   2   2   2   2   2
#     4  11  26  40  62  99 137 157 204 273 324 358
#     4  12  23  43  68  94 127 168 209 265 314 371
#     4  10  21  40  69  96 119 166 221 259 301 374
#     4  10  20  40  65  93 125 165 217 255 303 384
#     4  12  22  43  68  93 125 175 211 253 315 386
#     4  11  23  43  70  93 123 171 220 253 304 388
#
# _framework density 27.179942
#
# number of rings (size 3 to 8) (size 9 to 14) (size 15 to 20)
#    0.000    1.000    3.333    5.500    0.000    2.667 
#    3.000    0.833    0.000    0.000    0.000    0.000 
#    0.000    0.000    0.000    0.000    0.000    0.000 
#
# Total GULP energy -67310.903845 kJ/mol
# GULP energy per Si atom -5609.241987 kJ/mol
# Density = 2.711808 g / cm^3
# Si number density = 27.179942 Si / 1000 Ang^3
#
#
#
# Elastic Constant Matrix: (Units=GPa)
#
#
# Indices 1 2 3 4 5 6 
#
# 1 227.7801 37.2375 64.1904 -12.4825 -4.6155 -11.1599
# 2 37.2375 38.1906 3.1960 -15.2272 16.3923 -12.2370
# 3 64.1904 3.1960 106.9138 -8.8970 22.0401 -8.8238
# 4 -12.4825 -15.2272 -8.8970 24.2736 -11.7761 9.0619
# 5 -4.6155 16.3923 22.0401 -11.7761 56.4226 -16.5569
# 6 -11.1599 -12.2370 -8.8238 9.0619 -16.5569 39.4885
#
#
#
# Elastic Compliance Matrix: (Units=1/GPa)
#
#
# Indices 1 2 3 4 5 6 
#
# 1 0.007565 -0.009784 -0.005465 -0.001854 0.005375 0.000564
# 2 -0.009784 0.050933 0.009308 0.022230 -0.013296 0.004422
# 3 -0.005465 0.009308 0.014345 0.004422 -0.007749 0.000281
# 4 -0.001854 0.022230 0.004422 0.058918 0.002451 -0.005140
# 5 0.005375 -0.013296 -0.007749 0.002451 0.027513 0.006640
# 6 0.000564 0.004422 0.000281 -0.005140 0.006640 0.030880
#
#
# Mechanical properties :
#
#
# Convention : Reuss Voigt Hill
#
# Bulk Modulus (GPa) = 16.40439 64.68138 40.54288
# Shear Modulus (GPa) = 22.48646 41.92096 32.20371
#
# Velocity S-wave (km/s) = 2.87943 3.93154 3.44588
# Velocity P-wave (km/s) = 4.13563 6.66772 5.54806
#
# Compressibility (1/GPa) = 0.06095929
#
# Stress axis : x y z
#
# Youngs Moduli (GPa) = 132.19245 19.63378 69.71092
#
# Poissons Ratio (x) = 0.19210 0.38097
# Poissons Ratio (y) = 1.29337 -0.64884
# Poissons Ratio (z) = 0.72244 -0.18274
#
# Static dielectric constant tensor:
#      x y z
#    x 2.068050 0.044170 -0.035250 
#    y 0.044170 2.139530 0.009110 
#    z -0.035250 0.009110 2.100040 
# 
# From -- ./inp_files/173522.got.cif
#   From: 2010.05.17/outbox.cif.g08.bks.cpg/sg2_87_cif.got.tgz:173522.got - 2010.06.03 11:33:40.
