data_PCOD9107397
_publ_section_title
;
Structure prediction by ZEFSAII (Michael W. Deem and Ramdas Pophale) SiO2 
 PCOD9107397
Probable space group: P -1
;
_chemical_formula_sum "Si O2"
_cell_formula_units_Z 16
_cell_length_a 6.707220
_cell_length_b 17.378811
_cell_length_c 7.154365
_cell_angle_alpha 118.036655
_cell_angle_beta 115.990148
_cell_angle_gamma 70.930295
_cell_volume 653.926755
_symmetry_space_group_name_H-M "P -1"
_symmetry_group_IT_number 2
_symmetry_cell_setting 'triclinic'
loop_
_space_group_symop_operation_xyz
x,y,z
-x,-y,-z
loop_
_atom_site_type_symbol
_atom_site_label
_atom_site_fract_x
_atom_site_fract_y
_atom_site_fract_z
Si Si1 0.870741 0.380331 0.805755
Si Si2 0.194595 0.371501 0.606901
Si Si3 0.167846 0.688627 0.885878
Si Si4 0.540625 0.485682 0.281104
Si Si5 0.650210 0.877685 0.958118
Si Si6 0.740351 0.001246 0.839272
Si Si7 0.153930 0.872531 0.258131
Si Si8 0.420551 0.756522 0.528872
O O1 0.685902 0.466141 0.851487
O O2 0.741982 0.311707 0.560010
O O3 0.079034 0.393063 0.781605
O O4 0.922486 0.335779 0.975240
O O5 0.267363 0.457542 0.638539
O O6 0.414230 0.297447 0.615826
O O7 0.016926 0.330957 0.359346
O O8 0.383732 0.615853 0.851703
O O9 0.204019 0.790125 0.037971
O O10 0.500000 0.500000 0.500000
O O11 0.571525 0.783883 0.788461
O O12 0.689050 0.908306 0.793154
O O13 0.441617 0.934741 0.041070
O O14 0.882073 0.886826 0.167913
O O15 0.743292 0.043209 0.681694
O O16 0.000000 0.000000 0.000000
O O17 0.265851 0.838308 0.459735
#
# Coordination Sequence:
#
# PCOD9107397 Si02
#       8
#     2   2   2   2   2   2   2   2
#     4  10  24  41  60  94 128 166 224 264 321 393
#     4  11  23  43  62  92 130 169 219 267 324 380
#     4  11  22  41  63  89 127 170 211 273 323 371
#     4  11  23  41  62  91 129 171 219 267 324 386
#     4  10  20  40  64  89 128 164 201 260 316 373
#     4   9  21  39  63  94 124 163 208 251 314 388
#     4  10  22  40  61  92 122 161 214 254 321 383
#     4  10  23  40  63  95 126 163 217 263 312 387
#
# _framework density 24.467576000000001
#
# number of rings (size 3 to 8) (size 9 to 14) (size 15 to 20)
#    0.000    1.750    2.500    0.750    1.750    3.000 
#    6.750    5.625    0.000    0.000    0.000    0.000 
#    0.000    0.000    0.000    0.000    0.000    0.000 
#
# Total GULP energy -89438.629598 kJ/mol
# GULP energy per Si atom -5589.914350 kJ/mol
# Density = 2.441189 g / cm^3
# Si number density = 24.467576 Si / 1000 Ang^3
#
#
#
# Elastic Constant Matrix: (Units=GPa)
#
#
# Indices 1 2 3 4 5 6 
#
# 1 146.8191 29.4644 21.2334 -7.4738 10.3108 0.2208
# 2 29.4644 68.2279 -4.5714 -17.3589 8.8110 -7.5527
# 3 21.2334 -4.5714 63.8730 -0.3656 16.4227 11.6292
# 4 -7.4738 -17.3589 -0.3656 27.4621 -0.5702 -1.7984
# 5 10.3108 8.8110 16.4227 -0.5702 28.6464 -0.7309
# 6 0.2208 -7.5527 11.6292 -1.7984 -0.7309 40.7069
#
#
#
# Elastic Compliance Matrix: (Units=1/GPa)
#
#
# Indices 1 2 3 4 5 6 
#
# 1 0.007962 -0.003658 -0.002909 -0.000179 -0.000074 0.000100
# 2 -0.003658 0.020913 0.004033 0.012337 -0.007101 0.003165
# 3 -0.002909 0.004033 0.021094 0.001426 -0.012397 -0.005422
# 4 -0.000179 0.012337 0.001426 0.044356 -0.003568 0.003778
# 5 -0.000074 -0.007101 -0.012397 -0.003568 0.044228 0.002861
# 6 0.000100 0.003165 -0.005422 0.003778 0.002861 0.026920
#
#
# Mechanical properties :
#
#
# Convention : Reuss Voigt Hill
#
# Bulk Modulus (GPa) = 22.27096 41.24144 31.75620
# Shear Modulus (GPa) = 26.95299 34.88265 30.91782
#
# Velocity S-wave (km/s) = 3.32261 3.77990 3.55861
# Velocity P-wave (km/s) = 4.88279 5.99519 5.46735
#
# Compressibility (1/GPa) = 0.04490152
#
# Stress axis : x y z
#
# Youngs Moduli (GPa) = 125.59887 47.81662 47.40614
#
# Poissons Ratio (x) = 0.17493 0.13789
# Poissons Ratio (y) = 0.45947 -0.19119
# Poissons Ratio (z) = 0.36534 -0.19285
#
# Static dielectric constant tensor:
#      x y z
#    x 1.923430 0.007750 -0.002030 
#    y 0.007750 2.007490 -0.000010 
#    z -0.002030 -0.000010 1.941160 
# 
# From -- ./inp_files/48433.got.cif
#   From: 2010.05.17/outbox.cif.g08.bks.cpg/sg2_25_cif.got.tgz:48433.got - 2010.06.03 11:33:40.
