data_PCOD9107278
_publ_section_title
;
Structure prediction by ZEFSAII (Michael W. Deem and Ramdas Pophale) SiO2 
 PCOD9107278
Probable space group: P -1
;
_chemical_formula_sum "Si O2"
_cell_formula_units_Z 12
_cell_length_a 16.239983
_cell_length_b 6.647560
_cell_length_c 5.167660
_cell_angle_alpha 83.479177
_cell_angle_beta 112.360908
_cell_angle_gamma 117.610837
_cell_volume 455.832917
_symmetry_space_group_name_H-M "P -1"
_symmetry_group_IT_number 2
_symmetry_cell_setting 'triclinic'
loop_
_space_group_symop_operation_xyz
x,y,z
-x,-y,-z
loop_
_atom_site_type_symbol
_atom_site_label
_atom_site_fract_x
_atom_site_fract_y
_atom_site_fract_z
Si Si1 0.490687 0.234888 0.892442
Si Si2 0.725947 0.939864 0.591814
Si Si3 0.213420 0.461871 0.266635
Si Si4 0.569346 0.265987 0.483756
Si Si5 0.814849 0.211711 0.149130
Si Si6 0.994231 0.848767 0.761194
O O1 0.383910 0.166892 0.649272
O O2 0.573434 0.370062 0.755638
O O3 0.516142 0.342356 0.190674
O O4 0.500000 0.000000 0.000000
O O5 0.765250 0.753007 0.692906
O O6 0.794604 0.121283 0.429710
O O7 0.732244 0.034022 0.875967
O O8 0.317451 0.656122 0.479553
O O9 0.111647 0.375260 0.317135
O O10 0.192588 0.558806 0.960226
O O11 0.500000 0.000000 0.500000
O O12 0.916927 0.220254 0.159537
O O13 0.000000 0.000000 0.500000
O O14 0.000000 0.000000 0.000000
#
# Coordination Sequence:
#
# PCOD9107278 Si02
#       6
#     2   2   2   2   2   2
#     4  10  20  40  63  96 140 184 229 291 346 405
#     4  12  26  45  75 108 148 192 244 298 354 438
#     4  12  27  46  79 107 143 202 237 294 379 419
#     4  10  22  41  65 101 141 181 241 287 345 427
#     4  12  25  48  73 108 150 185 242 303 357 437
#     4  12  25  50  73 108 146 185 241 303 358 438
#
# _framework density 26.325433
#
# number of rings (size 3 to 8) (size 9 to 14) (size 15 to 20)
#    0.000    0.667    3.333    5.500    0.000    6.667 
#    0.000    3.333    0.000    0.000    0.000    0.000 
#    0.000    0.000    0.000    0.000    0.000    0.000 
#
# Total GULP energy -67201.272676 kJ/mol
# GULP energy per Si atom -5600.106056 kJ/mol
# Density = 2.626551 g / cm^3
# Si number density = 26.325433 Si / 1000 Ang^3
#
#
#
# Elastic Constant Matrix: (Units=GPa)
#
#
# Indices 1 2 3 4 5 6 
#
# 1 126.8359 41.0962 45.1640 -8.6758 18.9235 10.9953
# 2 41.0962 134.6144 51.2585 -15.3083 5.8421 20.0213
# 3 45.1640 51.2585 169.1171 -32.8019 -7.7741 0.9776
# 4 -8.6758 -15.3083 -32.8019 54.1433 -0.2576 14.3570
# 5 18.9235 5.8421 -7.7741 -0.2576 63.0376 -6.0533
# 6 10.9953 20.0213 0.9776 14.3570 -6.0533 56.5330
#
#
#
# Elastic Compliance Matrix: (Units=1/GPa)
#
#
# Indices 1 2 3 4 5 6 
#
# 1 0.009881 -0.001772 -0.002209 0.000165 -0.003231 -0.001644
# 2 -0.001772 0.009575 -0.002033 0.002158 -0.000949 -0.003661
# 3 -0.002209 -0.002033 0.007947 0.003831 0.001870 0.000239
# 4 0.000165 0.002158 0.003831 0.023228 -0.000335 -0.006797
# 5 -0.003231 -0.000949 0.001870 -0.000335 0.017428 0.002883
# 6 -0.001644 -0.003661 0.000239 -0.006797 0.002883 0.021336
#
#
# Mechanical properties :
#
#
# Convention : Reuss Voigt Hill
#
# Bulk Modulus (GPa) = 65.03993 78.40052 71.72023
# Shear Modulus (GPa) = 46.92840 54.27937 50.60389
#
# Velocity S-wave (km/s) = 4.22670 4.54570 4.38910
# Velocity P-wave (km/s) = 6.96991 7.57609 7.27931
#
# Compressibility (1/GPa) = 0.01537517
#
# Stress axis : x y z
#
# Youngs Moduli (GPa) = 101.20707 104.44269 125.83820
#
# Poissons Ratio (x) = 0.18507 0.27795
# Poissons Ratio (y) = 0.17934 0.25579
# Poissons Ratio (z) = 0.22354 0.21230
#
# Static dielectric constant tensor:
#      x y z
#    x 2.209050 -0.195560 -0.107710 
#    y -0.195560 2.309300 0.179870 
#    z -0.107710 0.179870 2.118680 
# 
# From -- ./inp_files/103771.got.cif
#   From: 2010.05.17/outbox.cif.g08.bks.cpg/sg2_52_cif.got.tgz:103771.got - 2010.06.03 11:33:40.
