data_PCOD9107794
_publ_section_title
;
Structure prediction by ZEFSAII (Michael W. Deem and Ramdas Pophale) SiO2 
 PCOD9107794
Probable space group: P -1
;
_chemical_formula_sum "Si O2"
_cell_formula_units_Z 16
_cell_length_a 8.380989
_cell_length_b 21.810181
_cell_length_c 12.536312
_cell_angle_alpha 150.821181
_cell_angle_beta 43.989475
_cell_angle_gamma 144.314526
_cell_volume 651.275523
_symmetry_space_group_name_H-M "P -1"
_symmetry_group_IT_number 2
_symmetry_cell_setting 'triclinic'
loop_
_space_group_symop_operation_xyz
x,y,z
-x,-y,-z
loop_
_atom_site_type_symbol
_atom_site_label
_atom_site_fract_x
_atom_site_fract_y
_atom_site_fract_z
Si Si1 0.572464 0.737566 0.951292
Si Si2 0.005569 0.001430 0.261235
Si Si3 0.308364 0.812374 0.024215
Si Si4 0.644473 0.253086 0.329032
Si Si5 0.649349 0.169245 0.416936
Si Si6 0.133407 0.755494 0.335462
Si Si7 0.224276 0.236919 0.799699
Si Si8 0.492260 0.495381 0.767149
O O1 0.865738 0.888189 0.057771
O O2 0.452344 0.736102 0.892449
O O3 0.369112 0.750554 0.152197
O O4 0.569721 0.594680 0.774217
O O5 0.914712 0.899002 0.254434
O O6 0.875680 0.101258 0.475216
O O7 0.330984 0.107907 0.256679
O O8 0.022180 0.766307 0.145883
O O9 0.509969 0.990980 0.209034
O O10 0.230747 0.759268 0.859386
O O11 0.788016 0.242579 0.349329
O O12 0.623060 0.396730 0.557540
O O13 0.811003 0.231666 0.544325
O O14 0.413476 0.206341 0.590820
O O15 0.834995 0.612089 0.237664
O O16 0.403435 0.391038 0.011380
#
# Coordination Sequence:
#
# PCOD9107794 Si02
#       8
#     2   2   2   2   2   2   2   2
#     4  11  22  40  69  96 134 170 223 275 324 392
#     4  10  20  40  65  97 132 169 219 274 320 385
#     4  12  26  43  68 102 133 180 220 269 333 391
#     4  11  27  44  65  97 144 178 213 267 334 408
#     4  12  23  41  72 103 127 170 223 283 327 380
#     4  11  21  41  69 104 131 165 225 281 336 375
#     4  11  24  41  71 100 133 173 223 278 327 389
#     4  10  25  45  64 102 133 177 217 274 336 391
#
# _framework density 24.567174999999999
#
# number of rings (size 3 to 8) (size 9 to 14) (size 15 to 20)
#    0.000    1.000    5.000    2.250    3.500    3.000 
#    0.000    0.000    0.000    0.000    0.000    0.000 
#    0.000    0.000    0.000    0.000    0.000    0.000 
#
# Total GULP energy -89750.230628 kJ/mol
# GULP energy per Si atom -5609.389414 kJ/mol
# Density = 2.451126 g / cm^3
# Si number density = 24.567175 Si / 1000 Ang^3
#
#
#
# Elastic Constant Matrix: (Units=GPa)
#
#
# Indices 1 2 3 4 5 6 
#
# 1 96.0658 33.2383 35.6271 -0.3954 7.3435 -14.2482
# 2 33.2383 57.2708 50.6555 11.1877 3.0494 -1.6086
# 3 35.6271 50.6555 95.9632 13.7070 -2.3776 -3.5909
# 4 -0.3954 11.1877 13.7070 41.4144 -2.6234 5.3384
# 5 7.3435 3.0494 -2.3776 -2.6234 35.6772 -8.9751
# 6 -14.2482 -1.6086 -3.5909 5.3384 -8.9751 35.1075
#
#
#
# Elastic Compliance Matrix: (Units=1/GPa)
#
#
# Indices 1 2 3 4 5 6 
#
# 1 0.014239 -0.006860 -0.001789 0.001903 -0.001141 0.004700
# 2 -0.006860 0.037163 -0.016651 -0.004443 -0.003988 -0.003128
# 3 -0.001789 -0.016651 0.020352 -0.002271 0.003438 0.001817
# 4 0.001903 -0.004443 -0.002271 0.026623 0.000920 -0.003477
# 5 -0.001141 -0.003988 0.003438 0.000920 0.030771 0.007433
# 6 0.004700 -0.003128 0.001817 -0.003477 0.007433 0.032863
#
#
# Mechanical properties :
#
#
# Convention : Reuss Voigt Hill
#
# Bulk Modulus (GPa) = 47.27631 54.26018 50.76825
# Shear Modulus (GPa) = 22.76220 31.09174 26.92697
#
# Velocity S-wave (km/s) = 3.04720 3.56136 3.31426
# Velocity P-wave (km/s) = 5.62726 6.24864 5.94607
#
# Compressibility (1/GPa) = 0.02115224
#
# Stress axis : x y z
#
# Youngs Moduli (GPa) = 70.22996 26.90879 49.13508
#
# Poissons Ratio (x) = 0.18460 0.08792
# Poissons Ratio (y) = 0.48180 0.81815
# Poissons Ratio (z) = 0.12566 0.44806
#
# Static dielectric constant tensor:
#      x y z
#    x 1.943790 -0.018980 0.007590 
#    y -0.018980 1.961690 -0.041140 
#    z 0.007590 -0.041140 1.934580 
# 
# From -- ./inp_files/158736.got.cif
#   From: 2010.05.17/outbox.cif.g08.bks.cpg/sg2_80_cif.got.tgz:158736.got - 2010.06.03 11:33:40.
