data_PCOD9107057
_publ_section_title
;
Structure prediction by ZEFSAII (Michael W. Deem and Ramdas Pophale) SiO2 
 PCOD9107057
Probable space group: P -1
;
_chemical_formula_sum "Si O2"
_cell_formula_units_Z 12
_cell_length_a 18.068957
_cell_length_b 17.680464
_cell_length_c 5.810977
_cell_angle_alpha 68.725259
_cell_angle_beta 93.706775
_cell_angle_gamma 156.514431
_cell_volume 476.968936
_symmetry_space_group_name_H-M "P -1"
_symmetry_group_IT_number 2
_symmetry_cell_setting 'triclinic'
loop_
_space_group_symop_operation_xyz
x,y,z
-x,-y,-z
loop_
_atom_site_type_symbol
_atom_site_label
_atom_site_fract_x
_atom_site_fract_y
_atom_site_fract_z
Si Si1 0.010492 0.731828 0.456361
Si Si2 0.604679 0.274805 0.509739
Si Si3 0.230704 0.401072 0.103128
Si Si4 0.653161 0.782139 0.145301
Si Si5 0.703103 0.679030 0.034328
Si Si6 0.944643 0.349772 0.089303
O O1 0.731631 0.414410 0.633669
O O2 0.975372 0.760329 0.621382
O O3 0.307737 0.927508 0.822546
O O4 0.171796 0.954332 0.055666
O O5 0.127488 0.776476 0.553975
O O6 0.626334 0.386910 0.277812
O O7 0.798208 0.421032 0.232601
O O8 0.446016 0.596037 0.116184
O O9 0.114572 0.198827 0.178799
O O10 0.817802 0.878008 0.969612
O O11 0.480303 0.563391 0.556135
O O12 0.500000 0.500000 0.000000
O O13 0.000000 0.500000 0.000000
#
# Coordination Sequence:
#
# PCOD9107057 Si02
#       6
#     2   2   2   2   2   2
#     4  11  25  40  71 101 135 185 230 283 351 415
#     4  11  25  42  74 104 140 184 229 287 350 416
#     4  10  21  40  61  97 137 178 236 282 339 409
#     4  10  20  40  62  94 137 181 231 286 344 404
#     4   9  20  36  64  92 136 181 232 285 340 404
#     4  11  26  48  71 106 143 178 229 289 351 424
#
# _framework density 25.158871000000001
#
# number of rings (size 3 to 8) (size 9 to 14) (size 15 to 20)
#    0.000    1.667    1.667    1.500    4.667    3.333 
#    0.000   11.667    0.000    0.000    0.000    0.000 
#    0.000    0.000    0.000    0.000    0.000    0.000 
#
# Total GULP energy -67243.514921 kJ/mol
# GULP energy per Si atom -5603.626243 kJ/mol
# Density = 2.510161 g / cm^3
# Si number density = 25.158871 Si / 1000 Ang^3
#
#
#
# Elastic Constant Matrix: (Units=GPa)
#
#
# Indices 1 2 3 4 5 6 
#
# 1 167.7738 33.5136 44.7621 -6.1818 20.4843 -30.1974
# 2 33.5136 118.1562 19.0517 -6.6209 19.4843 -6.3858
# 3 44.7621 19.0517 61.1835 -2.4301 5.8294 -12.3134
# 4 -6.1818 -6.6209 -2.4301 34.5741 -9.4830 2.4430
# 5 20.4843 19.4843 5.8294 -9.4830 28.3105 -10.3962
# 6 -30.1974 -6.3858 -12.3134 2.4430 -10.3962 34.8474
#
#
#
# Elastic Compliance Matrix: (Units=1/GPa)
#
#
# Indices 1 2 3 4 5 6 
#
# 1 0.008635 -0.000947 -0.004793 -0.000105 -0.002897 0.004759
# 2 -0.000947 0.010044 -0.002158 -0.000037 -0.006401 -0.001650
# 3 -0.004793 -0.002158 0.021044 0.000532 0.002072 0.003468
# 4 -0.000105 -0.000037 0.000532 0.031898 0.011105 0.001167
# 5 -0.002897 -0.006401 0.002072 0.011105 0.049130 0.010928
# 6 0.004759 -0.001650 0.003468 0.001167 0.010928 0.036922
#
#
# Mechanical properties :
#
#
# Convention : Reuss Voigt Hill
#
# Bulk Modulus (GPa) = 41.79400 60.19648 50.99524
# Shear Modulus (GPa) = 27.55648 36.19882 31.87765
#
# Velocity S-wave (km/s) = 3.31312 3.79728 3.56343
# Velocity P-wave (km/s) = 5.59319 6.57299 6.10279
#
# Compressibility (1/GPa) = 0.02392688
#
# Stress axis : x y z
#
# Youngs Moduli (GPa) = 115.81325 99.55758 47.51865
#
# Poissons Ratio (x) = 0.09432 0.22774
# Poissons Ratio (y) = 0.10972 0.10256
# Poissons Ratio (z) = 0.55505 0.21487
#
# Static dielectric constant tensor:
#      x y z
#    x 1.977830 -0.010880 -0.064630 
#    y -0.010880 1.960920 0.023620 
#    z -0.064630 0.023620 2.046950 
# 
# From -- ./inp_files/5069.got.cif
#   From: 2010.05.17/outbox.cif.g08.bks.cpg/sg2_3_cif.got.tgz:5069.got - 2010.06.03 11:33:40.
