data_PCOD9107338
_publ_section_title
;
Structure prediction by ZEFSAII (Michael W. Deem and Ramdas Pophale) SiO2 
 PCOD9107338
Probable space group: P -1
;
_chemical_formula_sum "Si O2"
_cell_formula_units_Z 13
_cell_length_a 19.073732
_cell_length_b 10.456829
_cell_length_c 6.875905
_cell_angle_alpha 108.665078
_cell_angle_beta 125.577584
_cell_angle_gamma 33.095946
_cell_volume 564.147348
_symmetry_space_group_name_H-M "P -1"
_symmetry_group_IT_number 2
_symmetry_cell_setting 'triclinic'
loop_
_space_group_symop_operation_xyz
x,y,z
-x,-y,-z
loop_
_atom_site_type_symbol
_atom_site_label
_atom_site_fract_x
_atom_site_fract_y
_atom_site_fract_z
Si Si1 0.505482 0.579986 0.246168
Si Si2 0.340223 0.335285 0.556094
Si Si3 0.149272 0.203315 0.622775
Si Si4 0.099914 0.682911 0.668174
Si Si5 0.752596 0.096794 0.694888
Si Si6 0.330911 0.196786 0.075530
Si Si7 0.000000 0.000000 0.000000
O O1 0.573250 0.640745 0.356564
O O2 0.633242 0.342031 0.483765
O O3 0.335563 0.803258 0.194245
O O4 0.500000 0.500000 0.000000
O O5 0.187713 0.581326 0.555356
O O6 0.294881 0.308025 0.281769
O O7 0.475340 0.067981 0.757003
O O8 0.000000 0.500000 0.500000
O O9 0.068676 0.173625 0.557107
O O10 0.224989 0.071106 0.470444
O O11 0.270860 0.123147 0.914580
O O12 0.230409 0.420312 0.872271
O O13 0.071122 0.852296 0.832522
O O14 0.920260 0.954837 0.889932
#
# Coordination Sequence:
#
# PCOD9107338 Si02
#       7
#     2   2   2   2   2   2   1
#     4  11  23  40  62  89 118 153 197 243 293 348
#     4  11  23  37  62  92 116 153 198 241 293 347
#     4   9  20  39  62  85 116 160 196 234 294 348
#     4  10  21  40  62  86 120 156 193 242 293 345
#     4  10  22  41  63  86 119 155 193 244 294 344
#     4  10  22  40  59  88 121 153 197 242 290 346
#     4  10  20  40  64  86 116 158 196 236 294 350
#
# _framework density 23.043624999999999
#
# number of rings (size 3 to 8) (size 9 to 14) (size 15 to 20)
#    0.000    1.846    0.000    3.231    0.000    9.231 
#    0.000   24.615    0.000    0.000    0.000    0.000 
#    0.000    0.000    0.000    0.000    0.000    0.000 
#
# Total GULP energy -72423.632121 kJ/mol
# GULP energy per Si atom -5571.048625 kJ/mol
# Density = 2.299118 g / cm^3
# Si number density = 23.043625 Si / 1000 Ang^3
#
#
#
# Elastic Constant Matrix: (Units=GPa)
#
#
# Indices 1 2 3 4 5 6 
#
# 1 69.4358 24.1681 52.2496 31.6189 2.5396 -23.5092
# 2 24.1681 106.9980 51.9802 44.6294 -6.7113 -22.3051
# 3 52.2496 51.9802 130.0858 43.5861 12.2406 -5.5842
# 4 31.6189 44.6294 43.5861 58.0636 9.0610 -10.7930
# 5 2.5396 -6.7113 12.2406 9.0610 27.3780 8.4199
# 6 -23.5092 -22.3051 -5.5842 -10.7930 8.4199 44.2508
#
#
#
# Elastic Compliance Matrix: (Units=1/GPa)
#
#
# Indices 1 2 3 4 5 6 
#
# 1 0.029817 0.005931 -0.010367 -0.010706 0.002422 0.014450
# 2 0.005931 0.018202 -0.005854 -0.012928 0.008725 0.006774
# 3 -0.010367 -0.005854 0.014841 -0.001361 -0.004813 -0.006001
# 4 -0.010706 -0.012928 -0.001361 0.035838 -0.013076 -0.001147
# 5 0.002422 0.008725 -0.004813 -0.013076 0.047094 -0.007073
# 6 0.014450 0.006774 -0.006001 -0.001147 -0.007073 0.033999
#
#
# Mechanical properties :
#
#
# Convention : Reuss Voigt Hill
#
# Bulk Modulus (GPa) = 23.65095 62.59061 43.12078
# Shear Modulus (GPa) = 23.31381 37.81326 30.56354
#
# Velocity S-wave (km/s) = 3.18421 4.05525 3.64584
# Velocity P-wave (km/s) = 4.87902 7.01053 6.03955
#
# Compressibility (1/GPa) = 0.04228160
#
# Stress axis : x y z
#
# Youngs Moduli (GPa) = 33.53749 54.93913 67.37954
#
# Poissons Ratio (x) = -0.32585 0.69851
# Poissons Ratio (y) = -0.19891 0.39443
# Poissons Ratio (z) = 0.34767 0.32161
#
# Static dielectric constant tensor:
#      x y z
#    x 1.851000 0.013710 0.004630 
#    y 0.013710 1.861270 -0.047000 
#    z 0.004630 -0.047000 1.875150 
# 
# From -- ./inp_files/23393.got.cif
#   From: 2010.05.17/outbox.cif.g08.bks.cpg/sg2_12_cif.got.tgz:23393.got - 2010.06.03 11:33:40.
