data_PCOD9107769
_publ_section_title
;
Structure prediction by ZEFSAII (Michael W. Deem and Ramdas Pophale) SiO2 
 PCOD9107769
Probable space group: P -1
;
_chemical_formula_sum "Si O2"
_cell_formula_units_Z 16
_cell_length_a 10.340496
_cell_length_b 7.873006
_cell_length_c 13.025705
_cell_angle_alpha 97.667364
_cell_angle_beta 109.611438
_cell_angle_gamma 48.155820
_cell_volume 737.943258
_symmetry_space_group_name_H-M "P -1"
_symmetry_group_IT_number 2
_symmetry_cell_setting 'triclinic'
loop_
_space_group_symop_operation_xyz
x,y,z
-x,-y,-z
loop_
_atom_site_type_symbol
_atom_site_label
_atom_site_fract_x
_atom_site_fract_y
_atom_site_fract_z
Si Si1 0.239437 0.696058 0.805822
Si Si2 0.037829 0.881722 0.108303
Si Si3 0.263807 0.727332 0.341723
Si Si4 0.132797 0.452697 0.869397
Si Si5 0.215618 0.356999 0.104876
Si Si6 0.929155 0.769959 0.340738
Si Si7 0.541954 0.285265 0.272580
Si Si8 0.961721 0.872569 0.557154
O O1 0.230966 0.545065 0.868721
O O2 0.430684 0.603488 0.804893
O O3 0.112205 0.746520 0.677963
O O4 0.144403 0.934562 0.858048
O O5 0.194285 0.836897 0.218242
O O6 0.105933 0.630958 0.095965
O O7 0.000000 0.000000 0.000000
O O8 0.454754 0.469395 0.356612
O O9 0.109074 0.717153 0.337505
O O10 0.229944 0.917507 0.421229
O O11 0.116964 0.345315 0.757417
O O12 0.920813 0.651259 0.868358
O O13 0.234029 0.294001 0.985045
O O14 0.402888 0.249881 0.202165
O O15 0.742376 0.038264 0.318946
O O16 0.968043 0.710181 0.467201
O O17 0.000000 0.000000 0.500000
#
# Coordination Sequence:
#
# PCOD9107769 Si02
#       8
#     2   2   2   2   2   2   2   2
#     4  11  21  35  64  93 119 150 205 251 294 342
#     4  10  16  35  58  84 111 158 191 242 280 350
#     4   9  19  36  58  89 114 147 205 242 287 348
#     4  11  22  39  57  88 129 159 187 245 308 362
#     4  10  22  38  61  88 120 164 198 230 310 359
#     4  11  20  39  62  83 124 158 198 242 298 358
#     4  11  20  38  64  90 112 158 206 247 280 360
#     4   9  18  38  61  92 112 160 199 248 294 352
#
# _framework density 21.681884
#
# number of rings (size 3 to 8) (size 9 to 14) (size 15 to 20)
#    0.000    1.750    7.500    0.000    0.000    2.000 
#    0.000    3.750    0.000    1.500    0.000    0.000 
#    0.000    0.000    0.000    0.000    0.000    0.000 
#
# Total GULP energy -89106.543865 kJ/mol
# GULP energy per Si atom -5569.158992 kJ/mol
# Density = 2.163253 g / cm^3
# Si number density = 21.681884 Si / 1000 Ang^3
#
#
#
# Elastic Constant Matrix: (Units=GPa)
#
#
# Indices 1 2 3 4 5 6 
#
# 1 61.7862 14.7047 -7.8973 -1.3778 -6.5617 -16.0828
# 2 14.7047 57.5744 14.1711 15.2933 -8.8297 -17.8090
# 3 -7.8973 14.1711 100.4521 28.9078 -9.3076 -4.7433
# 4 -1.3778 15.2933 28.9078 36.6436 2.0517 -1.7529
# 5 -6.5617 -8.8297 -9.3076 2.0517 24.2043 2.9282
# 6 -16.0828 -17.8090 -4.7433 -1.7529 2.9282 33.1373
#
#
#
# Elastic Compliance Matrix: (Units=1/GPa)
#
#
# Indices 1 2 3 4 5 6 
#
# 1 0.019744 -0.002377 0.002800 -0.000335 0.004589 0.008283
# 2 -0.002377 0.025633 0.000799 -0.011355 0.008600 0.011376
# 3 0.002800 0.000799 0.014228 -0.011733 0.007206 0.002568
# 4 -0.000335 -0.011355 -0.011733 0.041703 -0.011711 -0.004704
# 5 0.004589 0.008600 0.007206 -0.011711 0.049106 0.002922
# 6 0.008283 0.011376 0.002568 -0.004704 0.002922 0.040172
#
#
# Mechanical properties :
#
#
# Convention : Reuss Voigt Hill
#
# Bulk Modulus (GPa) = 16.11622 29.08550 22.60086
# Shear Modulus (GPa) = 23.94338 32.05265 27.99802
#
# Velocity S-wave (km/s) = 3.32671 3.84906 3.59738
# Velocity P-wave (km/s) = 4.71224 5.76172 5.26320
#
# Compressibility (1/GPa) = 0.06204929
#
# Stress axis : x y z
#
# Youngs Moduli (GPa) = 50.64732 39.01170 70.28467
#
# Poissons Ratio (x) = 0.09274 -0.19683
# Poissons Ratio (y) = 0.12040 -0.05613
# Poissons Ratio (z) = -0.14183 -0.03116
#
# Static dielectric constant tensor:
#      x y z
#    x 1.819490 0.028860 0.005350 
#    y 0.028860 1.849320 0.035460 
#    z 0.005350 0.035460 1.902240 
# 
# From -- ./inp_files/514444.got.cif
#   From: 2010.05.17/outbox.cif.g08.bks.cpg/sg2_258_cif.got.tgz:514444.got - 2010.06.03 11:33:40.
