data_PCOD9107415
_publ_section_title
;
Structure prediction by ZEFSAII (Michael W. Deem and Ramdas Pophale) SiO2 
 PCOD9107415
Probable space group: P -1
;
_chemical_formula_sum "Si O2"
_cell_formula_units_Z 16
_cell_length_a 21.607609
_cell_length_b 6.948390
_cell_length_c 10.934796
_cell_angle_alpha 124.116432
_cell_angle_beta 145.918770
_cell_angle_gamma 72.967170
_cell_volume 707.611845
_symmetry_space_group_name_H-M "P -1"
_symmetry_group_IT_number 2
_symmetry_cell_setting 'triclinic'
loop_
_space_group_symop_operation_xyz
x,y,z
-x,-y,-z
loop_
_atom_site_type_symbol
_atom_site_label
_atom_site_fract_x
_atom_site_fract_y
_atom_site_fract_z
Si Si1 0.876651 0.941542 0.846035
Si Si2 0.260828 0.774693 0.176444
Si Si3 0.023986 0.115229 0.362480
Si Si4 0.123807 0.685082 0.662662
Si Si5 0.510937 0.720025 0.265518
Si Si6 0.660210 0.438226 0.303672
Si Si7 0.604829 0.528114 0.773336
Si Si8 0.760752 0.058667 0.304084
O O1 0.771202 0.691680 0.542935
O O2 0.825603 0.164435 0.847491
O O3 0.000000 0.000000 0.000000
O O4 0.913184 0.920118 0.038996
O O5 0.290888 0.527226 0.146936
O O6 0.385545 0.008524 0.472949
O O7 0.202978 0.756671 0.940638
O O8 0.068222 0.384366 0.461355
O O9 0.977361 0.196827 0.440234
O O10 0.129068 0.011724 0.497266
O O11 0.196871 0.795664 0.701891
O O12 0.578105 0.524274 0.290502
O O13 0.441674 0.665230 0.259879
O O14 0.420680 0.672978 0.987725
O O15 0.712750 0.237154 0.367389
O O16 0.500000 0.500000 0.500000
O O17 0.655679 0.799324 0.012522
#
# Coordination Sequence:
#
# PCOD9107415 Si02
#       8
#     2   2   2   2   2   2   2   2
#     4  10  22  40  65  90 125 172 214 255 316 383
#     4  10  20  41  66  93 123 169 213 260 323 380
#     4  10  22  39  62  93 124 172 212 258 317 375
#     4  10  20  40  64  90 134 164 206 263 321 382
#     4  10  22  43  67  87 129 174 216 263 318 385
#     4  10  23  42  64  91 124 178 217 258 318 379
#     4  12  24  38  61 100 128 159 213 274 330 372
#     4  12  23  37  63  97 127 161 212 262 321 378
#
# _framework density 22.611266000000001
#
# number of rings (size 3 to 8) (size 9 to 14) (size 15 to 20)
#    0.000    1.500    1.250    3.750    1.750    1.000 
#    4.500    0.000    0.000    0.000    0.000    0.000 
#    0.000    0.000    0.000    0.000    0.000    0.000 
#
# Total GULP energy -89418.918109 kJ/mol
# GULP energy per Si atom -5588.682382 kJ/mol
# Density = 2.255980 g / cm^3
# Si number density = 22.611266 Si / 1000 Ang^3
#
#
#
# Elastic Constant Matrix: (Units=GPa)
#
#
# Indices 1 2 3 4 5 6 
#
# 1 75.5181 23.8156 5.8750 -0.4784 18.6305 -34.0536
# 2 23.8156 79.0312 6.7491 -12.9126 7.0250 -45.7731
# 3 5.8750 6.7491 108.1728 -1.5564 1.8852 -7.4368
# 4 -0.4784 -12.9126 -1.5564 32.5646 -4.3617 10.8506
# 5 18.6305 7.0250 1.8852 -4.3617 31.9419 -3.7279
# 6 -34.0536 -45.7731 -7.4368 10.8506 -3.7279 47.4668
#
#
#
# Elastic Compliance Matrix: (Units=1/GPa)
#
#
# Indices 1 2 3 4 5 6 
#
# 1 0.026818 0.007896 0.000091 -0.007647 -0.015228 0.027420
# 2 0.007896 0.031418 0.000175 -0.000226 -0.007418 0.035458
# 3 0.000091 0.000175 0.009351 -0.000106 -0.000461 0.001687
# 4 -0.007647 -0.000226 -0.000106 0.035998 0.007876 -0.013331
# 5 -0.015228 -0.007418 -0.000461 0.007876 0.040970 -0.016733
# 6 0.027420 0.035458 0.001687 -0.013331 -0.016733 0.076930
#
#
# Mechanical properties :
#
#
# Convention : Reuss Voigt Hill
#
# Bulk Modulus (GPa) = 11.91737 37.28906 24.60322
# Shear Modulus (GPa) = 21.44732 37.48016 29.46374
#
# Velocity S-wave (km/s) = 3.08315 4.07577 3.61370
# Velocity P-wave (km/s) = 4.23750 6.21903 5.32131
#
# Compressibility (1/GPa) = 0.08391110
#
# Stress axis : x y z
#
# Youngs Moduli (GPa) = 37.28906 31.82908 106.93919
#
# Poissons Ratio (x) = -0.25133 -0.00977
# Poissons Ratio (y) = -0.29445 -0.01868
# Poissons Ratio (z) = -0.00341 -0.00556
#
# Static dielectric constant tensor:
#      x y z
#    x 1.886150 -0.047200 0.004430 
#    y -0.047200 1.850880 -0.019670 
#    z 0.004430 -0.019670 1.829840 
# 
# From -- ./inp_files/410808.got.cif
#   From: 2010.05.17/outbox.cif.g08.bks.cpg/sg2_206_cif.got.tgz:410808.got - 2010.06.03 11:33:40.
