data_PCOD9107910
_publ_section_title
;
Structure prediction by ZEFSAII (Michael W. Deem and Ramdas Pophale) SiO2 
 PCOD9107910
Probable space group: P -1
;
_chemical_formula_sum "Si O2"
_cell_formula_units_Z 16
_cell_length_a 12.865375
_cell_length_b 11.424013
_cell_length_c 15.290330
_cell_angle_alpha 152.059904
_cell_angle_beta 128.882670
_cell_angle_gamma 70.246520
_cell_volume 659.498753
_symmetry_space_group_name_H-M "P -1"
_symmetry_group_IT_number 2
_symmetry_cell_setting 'triclinic'
loop_
_space_group_symop_operation_xyz
x,y,z
-x,-y,-z
loop_
_atom_site_type_symbol
_atom_site_label
_atom_site_fract_x
_atom_site_fract_y
_atom_site_fract_z
Si Si1 0.770564 0.974829 0.021566
Si Si2 0.271820 0.004305 0.330430
Si Si3 0.049213 0.437406 0.612424
Si Si4 0.309072 0.553153 0.936380
Si Si5 0.355087 0.088020 0.749587
Si Si6 0.394469 0.354900 0.124849
Si Si7 0.809419 0.351967 0.778614
Si Si8 0.952477 0.762907 0.897683
O O1 0.809059 0.230471 0.139345
O O2 0.920839 0.195051 0.314522
O O3 0.793179 0.727805 0.827908
O O4 0.613347 0.782417 0.874772
O O5 0.287187 0.937434 0.395219
O O6 0.096492 0.924757 0.154706
O O7 0.424423 0.343302 0.605315
O O8 0.282554 0.762032 0.120863
O O9 0.148457 0.334252 0.646769
O O10 0.958502 0.506312 0.682384
O O11 0.331124 0.342114 0.869830
O O12 0.465655 0.781201 0.108169
O O13 0.224931 0.773053 0.421052
O O14 0.350576 0.107622 0.863489
O O15 0.266534 0.452670 0.120693
O O16 0.000000 0.500000 0.000000
O O17 0.000000 0.000000 0.000000
#
# Coordination Sequence:
#
# PCOD9107910 Si02
#       8
#     2   2   2   2   2   2   2   2
#     4  10  22  41  65  93 125 164 213 264 317 375
#     4  11  21  42  66  92 130 171 209 263 317 380
#     4   9  21  41  67  90 123 165 216 263 310 375
#     4  10  20  40  66  90 126 170 212 255 319 371
#     4  11  24  39  63  94 128 169 206 261 318 375
#     4  12  25  41  63  98 131 165 214 260 320 384
#     4  12  26  42  64  96 128 166 217 261 313 384
#     4   9  20  40  67  92 120 167 214 260 315 368
#
# _framework density 24.260850999999999
#
# number of rings (size 3 to 8) (size 9 to 14) (size 15 to 20)
#    0.000    1.500    2.500    2.625    5.250    3.500 
#    0.000    6.250    0.000    0.000    0.000    0.000 
#    0.000    0.000    0.000    0.000    0.000    0.000 
#
# Total GULP energy -89498.018763 kJ/mol
# GULP energy per Si atom -5593.626173 kJ/mol
# Density = 2.420563 g / cm^3
# Si number density = 24.260851 Si / 1000 Ang^3
#
#
#
# Elastic Constant Matrix: (Units=GPa)
#
#
# Indices 1 2 3 4 5 6 
#
# 1 73.5596 8.4925 -9.3427 1.8436 -23.3677 18.9237
# 2 8.4925 55.5462 -6.6678 4.9460 -0.0333 21.0799
# 3 -9.3427 -6.6678 47.6758 6.5178 -4.9289 -1.1646
# 4 1.8436 4.9460 6.5178 35.1778 17.0199 10.1310
# 5 -23.3677 -0.0333 -4.9289 17.0199 33.9868 -3.2755
# 6 18.9237 21.0799 -1.1646 10.1310 -3.2755 43.4343
#
#
#
# Elastic Compliance Matrix: (Units=1/GPa)
#
#
# Indices 1 2 3 4 5 6 
#
# 1 0.023912 0.000753 0.008817 -0.012698 0.023519 -0.005812
# 2 0.000753 0.022495 0.003172 -0.000806 0.000349 -0.010946
# 3 0.008817 0.003172 0.026824 -0.014071 0.016992 -0.000098
# 4 -0.012698 -0.000806 -0.014071 0.053168 -0.038337 -0.009746
# 5 0.023519 0.000349 0.016992 -0.038337 0.067650 0.004083
# 6 -0.005812 -0.010946 -0.000098 -0.009746 0.004083 0.033446
#
#
# Mechanical properties :
#
#
# Convention : Reuss Voigt Hill
#
# Bulk Modulus (GPa) = 10.13024 17.97172 14.05098
# Shear Modulus (GPa) = 21.28414 34.80641 28.04527
#
# Velocity S-wave (km/s) = 2.96514 3.79182 3.40367
# Velocity P-wave (km/s) = 3.98841 5.15697 4.60986
#
# Compressibility (1/GPa) = 0.09871432
#
# Stress axis : x y z
#
# Youngs Moduli (GPa) = 41.82042 44.45484 37.27944
#
# Poissons Ratio (x) = -0.03346 -0.32868
# Poissons Ratio (y) = -0.03148 -0.11827
# Poissons Ratio (z) = -0.36871 -0.14103
#
# Static dielectric constant tensor:
#      x y z
#    x 1.938140 0.038340 0.031000 
#    y 0.038340 1.941530 0.018920 
#    z 0.031000 0.018920 1.952170 
# 
# From -- ./inp_files/398275.got.cif
#   From: 2010.05.17/outbox.cif.g08.bks.cpg/sg2_200_cif.got.tgz:398275.got - 2010.06.03 11:33:40.
