data_PCOD9107330
_publ_section_title
;
Structure prediction by ZEFSAII (Michael W. Deem and Ramdas Pophale) SiO2 
 PCOD9107330
Probable space group: P -1
;
_chemical_formula_sum "Si O2"
_cell_formula_units_Z 12
_cell_length_a 21.924299
_cell_length_b 4.983540
_cell_length_c 4.810374
_cell_angle_alpha 65.276500
_cell_angle_beta 71.262713
_cell_angle_gamma 85.083062
_cell_volume 451.382394
_symmetry_space_group_name_H-M "P -1"
_symmetry_group_IT_number 2
_symmetry_cell_setting 'triclinic'
loop_
_space_group_symop_operation_xyz
x,y,z
-x,-y,-z
loop_
_atom_site_type_symbol
_atom_site_label
_atom_site_fract_x
_atom_site_fract_y
_atom_site_fract_z
Si Si1 0.931764 0.013711 0.247792
Si Si2 0.303339 0.019844 0.461310
Si Si3 0.436895 0.790711 0.190702
Si Si4 0.114663 0.348355 0.012315
Si Si5 0.372893 0.599979 0.787273
Si Si6 0.258392 0.313439 0.965565
O O1 0.915655 0.351382 0.168938
O O2 0.881294 0.864173 0.166266
O O3 0.072173 0.177524 0.384169
O O4 0.000000 0.000000 0.000000
O O5 0.285051 0.215920 0.666948
O O6 0.382999 0.920941 0.422048
O O7 0.295565 0.671022 0.764273
O O8 0.248799 0.004368 0.303737
O O9 0.429030 0.500175 0.525043
O O10 0.406629 0.719220 0.969882
O O11 0.500000 0.000000 0.000000
O O12 0.185560 0.406669 0.008446
O O13 0.334181 0.293096 0.072171
#
# Coordination Sequence:
#
# PCOD9107330 Si02
#       6
#     2   2   2   2   2   2
#     4  12  26  52  76 114 153 199 246 304 362 430
#     4  10  22  40  61  87 128 168 211 290 349 402
#     4  10  20  40  64  85 123 172 221 280 357 430
#     4  12  28  44  80 111 150 200 249 302 364 447
#     4  10  22  39  62  86 127 166 211 290 351 402
#     4  12  24  40  64  95 130 173 232 278 361 427
#
# _framework density 26.584997999999999
#
# number of rings (size 3 to 8) (size 9 to 14) (size 15 to 20)
#    1.000    0.000    1.667    5.000    4.667    0.000 
#    0.000    5.000    0.000    0.000    0.000    0.000 
#    0.000    0.000    0.000    0.000    0.000    0.000 
#
# Total GULP energy -66922.510392 kJ/mol
# GULP energy per Si atom -5576.875866 kJ/mol
# Density = 2.652449 g / cm^3
# Si number density = 26.584998 Si / 1000 Ang^3
#
#
#
# Elastic Constant Matrix: (Units=GPa)
#
#
# Indices 1 2 3 4 5 6 
#
# 1 89.4907 16.8689 43.8551 -14.7970 -5.5762 10.2540
# 2 16.8689 104.2892 37.3863 -21.8800 5.1542 -0.6408
# 3 43.8551 37.3863 160.1171 -7.1256 19.5328 19.3778
# 4 -14.7970 -21.8800 -7.1256 53.4780 0.6968 11.3228
# 5 -5.5762 5.1542 19.5328 0.6968 63.1814 -1.7841
# 6 10.2540 -0.6408 19.3778 11.3228 -1.7841 43.6111
#
#
#
# Elastic Compliance Matrix: (Units=1/GPa)
#
#
# Indices 1 2 3 4 5 6 
#
# 1 0.014050 -0.000325 -0.003560 0.003806 0.002251 -0.002623
# 2 -0.000325 0.011391 -0.002374 0.004217 -0.000265 0.000193
# 3 -0.003560 -0.002374 0.008482 -0.000145 -0.002827 -0.003045
# 4 0.003806 0.004217 -0.000145 0.022888 -0.000406 -0.006728
# 5 0.002251 -0.000265 -0.002827 -0.000406 0.016969 0.001522
# 6 -0.002623 0.000193 -0.003045 -0.006728 0.001522 0.026711
#
#
# Mechanical properties :
#
#
# Convention : Reuss Voigt Hill
#
# Bulk Modulus (GPa) = 46.71905 61.12417 53.92161
# Shear Modulus (GPa) = 41.61590 49.10652 45.36121
#
# Velocity S-wave (km/s) = 3.96079 4.30251 4.13518
# Velocity P-wave (km/s) = 6.20716 6.90826 6.56707
#
# Compressibility (1/GPa) = 0.02140455
#
# Stress axis : x y z
#
# Youngs Moduli (GPa) = 71.17195 87.78529 117.89945
#
# Poissons Ratio (x) = 0.02855 0.41975
# Poissons Ratio (y) = 0.02315 0.27991
# Poissons Ratio (z) = 0.25339 0.20841
#
# Static dielectric constant tensor:
#      x y z
#    x 2.149310 -0.011000 0.005720 
#    y -0.011000 2.030240 -0.047950 
#    z 0.005720 -0.047950 1.980340 
# 
# From -- ./inp_files/12397.got.cif
#   From: 2010.05.17/outbox.cif.g08.bks.cpg/sg2_7_cif.got.tgz:12397.got - 2010.06.03 11:33:40.
