data_PCOD9107363
_publ_section_title
;
Structure prediction by ZEFSAII (Michael W. Deem and Ramdas Pophale) SiO2 
 PCOD9107363
Probable space group: P -1
;
_chemical_formula_sum "Si O2"
_cell_formula_units_Z 16
_cell_length_a 19.668299
_cell_length_b 8.884615
_cell_length_c 10.681573
_cell_angle_alpha 89.560281
_cell_angle_beta 64.179621
_cell_angle_gamma 144.982318
_cell_volume 683.375776
_symmetry_space_group_name_H-M "P -1"
_symmetry_group_IT_number 2
_symmetry_cell_setting 'triclinic'
loop_
_space_group_symop_operation_xyz
x,y,z
-x,-y,-z
loop_
_atom_site_type_symbol
_atom_site_label
_atom_site_fract_x
_atom_site_fract_y
_atom_site_fract_z
Si Si1 0.773061 0.062739 0.304084
Si Si2 0.459978 0.349518 0.164884
Si Si3 0.405923 0.511893 0.706350
Si Si4 0.902430 0.166400 0.542546
Si Si5 0.140433 0.277165 0.996660
Si Si6 0.296831 0.792655 0.145139
Si Si7 0.176286 0.695417 0.007452
Si Si8 0.136327 0.195382 0.277935
O O1 0.623163 0.887681 0.500834
O O2 0.696466 0.757993 0.325115
O O3 0.777835 0.151997 0.164603
O O4 0.977633 0.415355 0.196644
O O5 0.617307 0.618307 0.141285
O O6 0.290194 0.135875 0.362214
O O7 0.386741 0.048078 0.185831
O O8 0.500000 0.500000 0.000000
O O9 0.326693 0.531108 0.800481
O O10 0.000000 0.500000 0.500000
O O11 0.070676 0.396334 0.332824
O O12 0.840320 0.936511 0.702332
O O13 0.152437 0.475371 0.003209
O O14 0.074334 0.089663 0.184260
O O15 0.000000 0.000000 0.000000
O O16 0.306850 0.627963 0.140931
O O17 0.329868 0.955839 0.993393
O O18 0.000000 0.000000 0.500000
#
# Coordination Sequence:
#
# PCOD9107363 Si02
#       8
#     2   2   2   2   2   2   2   2
#     4  10  22  40  62  89 124 168 215 261 323 367
#     4  11  21  35  56  89 124 161 203 262 322 373
#     4  11  23  40  61  90 132 162 212 269 323 378
#     4   9  18  35  58  89 117 158 209 255 309 376
#     4  11  22  41  64  93 127 169 217 262 317 386
#     4   9  19  36  60  85 122 158 211 251 318 375
#     4  10  20  40  64  88 119 170 213 260 309 390
#     4   9  19  38  62  92 125 164 214 266 317 382
#
# _framework density 23.413181000000002
#
# number of rings (size 3 to 8) (size 9 to 14) (size 15 to 20)
#    0.000    2.000    1.250    2.250    0.000    1.500 
#    6.750    6.875    0.000    0.000    0.000    0.000 
#    0.000    0.000    0.000    0.000    0.000    0.000 
#
# Total GULP energy -89100.135896 kJ/mol
# GULP energy per Si atom -5568.758493 kJ/mol
# Density = 2.335989 g / cm^3
# Si number density = 23.413181 Si / 1000 Ang^3
#
#
#
# Elastic Constant Matrix: (Units=GPa)
#
#
# Indices 1 2 3 4 5 6 
#
# 1 111.6793 34.0261 30.8632 -0.3218 7.7740 -19.0737
# 2 34.0261 93.2709 7.9975 14.8673 3.3212 10.7487
# 3 30.8632 7.9975 101.9295 17.0211 -15.9675 -3.7005
# 4 -0.3218 14.8673 17.0211 26.3860 -6.7575 -0.7044
# 5 7.7740 3.3212 -15.9675 -6.7575 36.9394 6.1394
# 6 -19.0737 10.7487 -3.7005 -0.7044 6.1394 29.9437
#
#
#
# Elastic Compliance Matrix: (Units=1/GPa)
#
#
# Indices 1 2 3 4 5 6 
#
# 1 0.015593 -0.007640 -0.005752 0.007021 -0.006017 0.013363
# 2 -0.007640 0.016241 0.002646 -0.010962 0.001090 -0.010851
# 3 -0.005752 0.002646 0.013610 -0.008934 0.005946 -0.004361
# 4 0.007021 -0.010962 -0.008934 0.051080 0.003703 0.007746
# 5 -0.006017 0.001090 0.005946 0.003703 0.033184 -0.010206
# 6 0.013363 -0.010851 -0.004361 0.007746 -0.010206 0.047539
#
#
# Mechanical properties :
#
#
# Convention : Reuss Voigt Hill
#
# Bulk Modulus (GPa) = 41.75010 50.29479 46.02245
# Shear Modulus (GPa) = 24.18724 34.25334 29.22029
#
# Velocity S-wave (km/s) = 3.21761 3.82906 3.53658
# Velocity P-wave (km/s) = 5.62802 6.40913 6.03124
#
# Compressibility (1/GPa) = 0.02395204
#
# Stress axis : x y z
#
# Youngs Moduli (GPa) = 64.13164 61.57386 73.47682
#
# Poissons Ratio (x) = 0.47043 0.42263
# Poissons Ratio (y) = 0.48997 -0.19445
# Poissons Ratio (z) = 0.36888 -0.16295
#
# Static dielectric constant tensor:
#      x y z
#    x 2.088240 -0.127690 -0.093530 
#    y -0.127690 2.320180 0.133210 
#    z -0.093530 0.133210 2.086400 
# 
# From -- ./inp_files/461238.got.cif
#   From: 2010.05.17/outbox.cif.g08.bks.cpg/sg2_231_cif.got.tgz:461238.got - 2010.06.03 11:33:40.
