data_PCOD9107831
_publ_section_title
;
Structure prediction by ZEFSAII (Michael W. Deem and Ramdas Pophale) SiO2 
 PCOD9107831
Probable space group: P -1
;
_chemical_formula_sum "Si O2"
_cell_formula_units_Z 13
_cell_length_a 17.130630
_cell_length_b 5.568931
_cell_length_c 5.327612
_cell_angle_alpha 82.703616
_cell_angle_beta 67.578370
_cell_angle_gamma 96.107789
_cell_volume 459.330406
_symmetry_space_group_name_H-M "P -1"
_symmetry_group_IT_number 2
_symmetry_cell_setting 'triclinic'
loop_
_space_group_symop_operation_xyz
x,y,z
-x,-y,-z
loop_
_atom_site_type_symbol
_atom_site_label
_atom_site_fract_x
_atom_site_fract_y
_atom_site_fract_z
Si Si1 0.158918 0.266931 0.281813
Si Si2 0.676988 0.579653 0.637258
Si Si3 0.634838 0.996007 0.258073
Si Si4 0.785699 0.344105 0.186749
Si Si5 0.941823 0.141615 0.225481
Si Si6 0.481049 0.706089 0.298034
Si Si7 0.000000 0.500000 0.500000
O O1 0.254194 0.279047 0.274610
O O2 0.100235 0.453614 0.446363
O O3 0.100387 0.012183 0.460418
O O4 0.179560 0.375403 0.968476
O O5 0.662564 0.774734 0.414104
O O6 0.728384 0.373626 0.492236
O O7 0.581177 0.429651 0.825307
O O8 0.573303 0.878588 0.121196
O O9 0.719948 0.196803 0.085184
O O10 0.575360 0.130050 0.495354
O O11 0.864010 0.204300 0.151340
O O12 0.002567 0.364109 0.250284
O O13 0.000000 0.000000 0.000000
O O14 0.500000 0.500000 0.500000
#
# Coordination Sequence:
#
# PCOD9107831 Si02
#       7
#     2   2   2   2   2   2   1
#     4  12  26  44  71 106 138 190 251 298 372 447
#     4  10  20  40  66 101 144 188 239 305 360 434
#     4   9  17  36  65  99 139 191 233 291 373 431
#     4  11  24  43  71 101 145 190 240 308 367 436
#     4  12  28  51  76 105 149 195 247 315 378 437
#     4   8  16  32  64 100 138 187 234 289 366 435
#     4  12  28  50  74 106 144 196 252 304 378 452
#
# _framework density 28.302066
#
# number of rings (size 3 to 8) (size 9 to 14) (size 15 to 20)
#    0.000    1.538    3.077    1.385    2.154    2.462 
#    0.000    1.538    0.000   31.385    0.000    0.000 
#    0.000    0.000    0.000    0.000    0.000    0.000 
#
# Total GULP energy -72544.416439 kJ/mol
# GULP energy per Si atom -5580.339726 kJ/mol
# Density = 2.823765 g / cm^3
# Si number density = 28.302066 Si / 1000 Ang^3
#
#
#
# Elastic Constant Matrix: (Units=GPa)
#
#
# Indices 1 2 3 4 5 6 
#
# 1 229.8317 40.5059 42.9459 6.8836 -26.0875 -3.1491
# 2 40.5059 81.3638 30.7249 13.1586 -6.6759 -14.4547
# 3 42.9459 30.7249 79.0773 -9.5770 -3.6089 1.2599
# 4 6.8836 13.1586 -9.5770 51.6301 1.4274 -4.8373
# 5 -26.0875 -6.6759 -3.6089 1.4274 34.3548 6.3905
# 6 -3.1491 -14.4547 1.2599 -4.8373 6.3905 60.7301
#
#
#
# Elastic Compliance Matrix: (Units=1/GPa)
#
#
# Indices 1 2 3 4 5 6 
#
# 1 0.005500 -0.001477 -0.002347 -0.000943 0.003773 -0.000490
# 2 -0.001477 0.016981 -0.006413 -0.005013 0.001046 0.003589
# 3 -0.002347 -0.006413 0.016987 0.004992 -0.001176 -0.001479
# 4 -0.000943 -0.005013 0.004992 0.021817 -0.002188 0.000622
# 5 0.003773 0.001046 -0.001176 -0.002188 0.032729 -0.003149
# 6 -0.000490 0.003589 -0.001479 0.000622 -0.003149 0.017707
#
#
# Mechanical properties :
#
#
# Convention : Reuss Voigt Hill
#
# Bulk Modulus (GPa) = 52.64629 68.73627 60.69128
# Shear Modulus (GPa) = 36.09463 47.74942 41.92203
#
# Velocity S-wave (km/s) = 3.57506 4.11193 3.85286
# Velocity P-wave (km/s) = 5.97355 6.84714 6.42521
#
# Compressibility (1/GPa) = 0.01899469
#
# Stress axis : x y z
#
# Youngs Moduli (GPa) = 181.83125 58.88839 58.86964
#
# Poissons Ratio (x) = 0.08695 0.13818
# Poissons Ratio (y) = 0.26848 0.37751
# Poissons Ratio (z) = 0.42680 0.37763
#
# Static dielectric constant tensor:
#      x y z
#    x 2.108290 0.003760 0.075360 
#    y 0.003760 2.322920 -0.080630 
#    z 0.075360 -0.080630 2.219030 
# 
# From -- ./inp_files/102393.got.cif
#   From: 2010.05.17/outbox.cif.g08.bks.cpg/sg2_52_cif.got.tgz:102393.got - 2010.06.03 11:33:40.
