data_PCOD9107445
_publ_section_title
;
Structure prediction by ZEFSAII (Michael W. Deem and Ramdas Pophale) SiO2 
 PCOD9107445
Probable space group: P -1
;
_chemical_formula_sum "Si O2"
_cell_formula_units_Z 14
_cell_length_a 13.245183
_cell_length_b 10.670718
_cell_length_c 13.421868
_cell_angle_alpha 42.614565
_cell_angle_beta 149.061736
_cell_angle_gamma 116.575324
_cell_volume 560.707111
_symmetry_space_group_name_H-M "P -1"
_symmetry_group_IT_number 2
_symmetry_cell_setting 'triclinic'
loop_
_space_group_symop_operation_xyz
x,y,z
-x,-y,-z
loop_
_atom_site_type_symbol
_atom_site_label
_atom_site_fract_x
_atom_site_fract_y
_atom_site_fract_z
Si Si1 0.258118 0.222985 0.653268
Si Si2 0.883294 0.328453 0.638515
Si Si3 0.425317 0.441813 0.276770
Si Si4 0.631535 0.235787 0.326621
Si Si5 0.767626 0.289635 0.218753
Si Si6 0.203709 0.172372 0.173305
Si Si7 0.185594 0.499234 0.232731
O O1 0.199202 0.418520 0.567124
O O2 0.254009 0.326000 0.480911
O O3 0.036654 0.199702 0.491868
O O4 0.500000 0.000000 0.000000
O O5 0.691103 0.308806 0.549422
O O6 0.837167 0.265937 0.527701
O O7 0.125216 0.190659 0.981603
O O8 0.290363 0.333494 0.180223
O O9 0.381145 0.466006 0.341495
O O10 0.321472 0.666916 0.995521
O O11 0.695289 0.165169 0.307025
O O12 0.630942 0.052500 0.499886
O O13 0.392390 0.466223 0.008983
O O14 0.962101 0.270151 0.972183
O O15 0.000000 0.500000 0.000000
#
# Coordination Sequence:
#
# PCOD9107445 Si02
#       7
#     2   2   2   2   2   2   2
#     4  11  23  42  65  98 133 163 217 275 330 380
#     4  10  22  40  63  95 126 169 216 266 319 388
#     4  10  20  41  66  88 130 172 209 269 322 374
#     4  10  23  40  63  94 128 174 215 258 323 385
#     4  10  21  43  60  88 137 163 213 271 312 380
#     4  10  20  40  64  92 127 163 219 266 314 392
#     4   9  18  39  63  91 123 166 212 265 316 383
#
# _framework density 24.968471999999998
#
# number of rings (size 3 to 8) (size 9 to 14) (size 15 to 20)
#    0.000    2.000    4.286    0.429    0.000    7.429 
#   18.000    3.571    0.000    0.000    0.000    0.000 
#    0.000    0.000    0.000    0.000    0.000    0.000 
#
# Total GULP energy -78148.932978 kJ/mol
# GULP energy per Si atom -5582.066641 kJ/mol
# Density = 2.491164 g / cm^3
# Si number density = 24.968472 Si / 1000 Ang^3
#
#
#
# Elastic Constant Matrix: (Units=GPa)
#
#
# Indices 1 2 3 4 5 6 
#
# 1 124.4433 -13.4908 24.5731 3.9805 -5.0635 -6.1419
# 2 -13.4908 59.3143 22.4604 15.7303 -15.2376 -0.7291
# 3 24.5731 22.4604 153.4972 4.1028 -0.7622 2.1826
# 4 3.9805 15.7303 4.1028 38.4620 -2.8886 2.0001
# 5 -5.0635 -15.2376 -0.7622 -2.8886 36.0884 12.7567
# 6 -6.1419 -0.7291 2.1826 2.0001 12.7567 19.7867
#
#
#
# Elastic Compliance Matrix: (Units=1/GPa)
#
#
# Indices 1 2 3 4 5 6 
#
# 1 0.009124 0.003982 -0.002002 -0.002324 0.001967 0.002166
# 2 0.003982 0.024513 -0.003872 -0.008955 0.011505 -0.003946
# 3 -0.002002 -0.003872 0.007381 0.000937 -0.001416 -0.000760
# 4 -0.002324 -0.008955 0.000937 0.029991 -0.000268 -0.004013
# 5 0.001967 0.011505 -0.001416 -0.000268 0.041913 -0.025804
# 6 0.002166 -0.003946 -0.000760 -0.004013 -0.025804 0.068192
#
#
# Mechanical properties :
#
#
# Convention : Reuss Voigt Hill
#
# Bulk Modulus (GPa) = 26.85748 44.92670 35.89209
# Shear Modulus (GPa) = 25.34087 39.11492 32.22789
#
# Velocity S-wave (km/s) = 3.18923 3.96229 3.59659
# Velocity P-wave (km/s) = 4.93371 6.24223 5.62614
#
# Compressibility (1/GPa) = 0.03723357
#
# Stress axis : x y z
#
# Youngs Moduli (GPa) = 109.59950 40.79450 135.49078
#
# Poissons Ratio (x) = -0.16244 0.27128
# Poissons Ratio (y) = -0.43640 0.52458
# Poissons Ratio (z) = 0.21944 0.15794
#
# Static dielectric constant tensor:
#      x y z
#    x 2.050780 -0.023260 -0.030730 
#    y -0.023260 2.084170 0.029730 
#    z -0.030730 0.029730 2.078290 
# 
# From -- ./inp_files/532350.got.cif
#   From: 2010.05.17/outbox.cif.g08.bks.cpg/sg2_267_cif.got.tgz:532350.got - 2010.06.03 11:33:40.
