data_PCOD9107253
_publ_section_title
;
Structure prediction by ZEFSAII (Michael W. Deem and Ramdas Pophale) SiO2 
 PCOD9107253
Probable space group: P -1
;
_chemical_formula_sum "Si O2"
_cell_formula_units_Z 16
_cell_length_a 12.246991
_cell_length_b 12.083009
_cell_length_c 8.960784
_cell_angle_alpha 96.466263
_cell_angle_beta 116.476075
_cell_angle_gamma 131.831592
_cell_volume 697.609330
_symmetry_space_group_name_H-M "P -1"
_symmetry_group_IT_number 2
_symmetry_cell_setting 'triclinic'
loop_
_space_group_symop_operation_xyz
x,y,z
-x,-y,-z
loop_
_atom_site_type_symbol
_atom_site_label
_atom_site_fract_x
_atom_site_fract_y
_atom_site_fract_z
Si Si1 0.357421 0.634209 0.190081
Si Si2 0.707441 0.314530 0.150983
Si Si3 0.991962 0.939576 0.693406
Si Si4 0.475988 0.483119 0.660469
Si Si5 0.597404 0.178085 0.499496
Si Si6 0.109466 0.707902 0.558872
Si Si7 0.635744 0.848166 0.881376
Si Si8 0.174641 0.992694 0.526949
O O1 0.390762 0.525487 0.201689
O O2 0.286106 0.647589 0.295366
O O3 0.591436 0.851085 0.349999
O O4 0.252240 0.604335 0.973321
O O5 0.766866 0.229493 0.203793
O O6 0.486042 0.184192 0.059644
O O7 0.876564 0.493710 0.390430
O O8 0.148536 0.051495 0.665177
O O9 0.768893 0.719582 0.493239
O O10 0.937011 0.029850 0.682396
O O11 0.121103 0.982022 0.912077
O O12 0.500000 0.500000 0.500000
O O13 0.551606 0.658999 0.789421
O O14 0.754186 0.244716 0.483301
O O15 0.428660 0.126674 0.297520
O O16 0.500000 0.000000 0.500000
O O17 0.085866 0.815947 0.511191
#
# Coordination Sequence:
#
# PCOD9107253 Si02
#       8
#     2   2   2   2   2   2   2   2
#     4  11  22  41  64  92 129 165 212 264 323 369
#     4  10  23  40  64  96 120 167 218 263 317 377
#     4  10  23  40  67  98 126 167 216 262 321 382
#     4  11  24  43  63  96 140 164 206 271 317 390
#     4  11  23  42  64  93 130 171 212 263 316 389
#     4  10  22  40  64  89 130 166 211 269 314 378
#     4  11  23  44  70  95 127 171 217 258 329 376
#     4  10  20  40  63  95 125 159 214 269 311 373
#
# _framework density 22.935473999999999
#
# number of rings (size 3 to 8) (size 9 to 14) (size 15 to 20)
#    0.000    1.500    3.750    0.750    1.750    3.000 
#    2.250    0.000    0.000    0.000    0.000    0.000 
#    0.000    0.000    0.000    0.000    0.000    0.000 
#
# Total GULP energy -89240.337034 kJ/mol
# GULP energy per Si atom -5577.521065 kJ/mol
# Density = 2.288327 g / cm^3
# Si number density = 22.935474 Si / 1000 Ang^3
#
#
#
# Elastic Constant Matrix: (Units=GPa)
#
#
# Indices 1 2 3 4 5 6 
#
# 1 47.1529 17.2182 30.3384 -11.8853 18.5819 -22.0495
# 2 17.2182 94.6425 15.5414 -13.7170 12.6109 -18.5014
# 3 30.3384 15.5414 92.9316 -26.8743 22.3587 -15.2318
# 4 -11.8853 -13.7170 -26.8743 39.5359 2.2111 0.0918
# 5 18.5819 12.6109 22.3587 2.2111 25.8070 -4.7776
# 6 -22.0495 -18.5014 -15.2318 0.0918 -4.7776 35.7935
#
#
#
# Elastic Compliance Matrix: (Units=1/GPa)
#
#
# Indices 1 2 3 4 5 6 
#
# 1 0.052786 0.004090 0.002307 0.020918 -0.038157 0.030466
# 2 0.004090 0.013999 0.003272 0.008938 -0.011614 0.009575
# 3 0.002307 0.003272 0.021126 0.017361 -0.021345 0.009208
# 4 0.020918 0.008938 0.017361 0.048389 -0.034893 0.020112
# 5 -0.038157 -0.011614 -0.021345 -0.034893 0.088439 -0.026698
# 6 0.030466 0.009575 0.009208 0.020112 -0.026698 0.051958
#
#
# Mechanical properties :
#
#
# Convention : Reuss Voigt Hill
#
# Bulk Modulus (GPa) = 9.32422 40.10255 24.71338
# Shear Modulus (GPa) = 17.05845 31.66922 24.36384
#
# Velocity S-wave (km/s) = 2.73015 3.71994 3.26280
# Velocity P-wave (km/s) = 3.74333 5.99779 4.99930
#
# Compressibility (1/GPa) = 0.10724760
#
# Stress axis : x y z
#
# Youngs Moduli (GPa) = 18.94444 71.43156 47.33552
#
# Poissons Ratio (x) = -0.29214 -0.10918
# Poissons Ratio (y) = -0.07748 -0.15487
# Poissons Ratio (z) = -0.04370 -0.23371
#
# Static dielectric constant tensor:
#      x y z
#    x 1.958930 -0.112760 0.009370 
#    y -0.112760 1.935380 -0.070280 
#    z 0.009370 -0.070280 1.930820 
# 
# From -- ./inp_files/262579.got.cif
#   From: 2010.05.17/outbox.cif.g08.bks.cpg/sg2_132_cif.got.tgz:262579.got - 2010.06.03 11:33:40.
