data_PCOD9107796
_publ_section_title
;
Structure prediction by ZEFSAII (Michael W. Deem and Ramdas Pophale) SiO2 
 PCOD9107796
Probable space group: P -1
;
_chemical_formula_sum "Si O2"
_cell_formula_units_Z 12
_cell_length_a 9.731323
_cell_length_b 9.003498
_cell_length_c 13.242766
_cell_angle_alpha 48.799264
_cell_angle_beta 84.916901
_cell_angle_gamma 124.078620
_cell_volume 490.747791
_symmetry_space_group_name_H-M "P -1"
_symmetry_group_IT_number 2
_symmetry_cell_setting 'triclinic'
loop_
_space_group_symop_operation_xyz
x,y,z
-x,-y,-z
loop_
_atom_site_type_symbol
_atom_site_label
_atom_site_fract_x
_atom_site_fract_y
_atom_site_fract_z
Si Si1 0.590781 0.828848 0.370749
Si Si2 0.612719 0.476501 0.269113
Si Si3 0.546065 0.425098 0.932725
Si Si4 0.784611 0.390643 0.833598
Si Si5 0.780843 0.323211 0.657287
Si Si6 0.030489 0.775960 0.994279
O O1 0.500000 0.500000 0.500000
O O2 0.549964 0.808940 0.502694
O O3 0.417086 0.780655 0.344375
O O4 0.856783 0.144644 0.158368
O O5 0.815424 0.849394 0.147401
O O6 0.469078 0.460834 0.216667
O O7 0.753845 0.504885 0.165506
O O8 0.331100 0.012699 0.143752
O O9 0.500000 0.500000 0.000000
O O10 0.778704 0.559452 0.839053
O O11 0.881140 0.561739 0.640478
O O12 0.903132 0.334782 0.893512
O O13 0.500000 0.000000 0.000000
O O14 0.000000 0.500000 0.500000
#
# Coordination Sequence:
#
# PCOD9107796 Si02
#       6
#     2   2   2   2   2   2
#     4  10  19  31  55  90 114 143 191 257 294 333
#     4  10  20  33  56  88 116 149 196 247 296 353
#     4  11  23  41  59  83 125 164 190 240 311 358
#     4  10  16  35  59  82 114 156 197 238 290 350
#     4  11  21  36  64  91 113 151 209 249 285 352
#     4  10  17  32  58  85 115 145 199 248 293 336
#
# _framework density 24.452477999999999
#
# number of rings (size 3 to 8) (size 9 to 14) (size 15 to 20)
#    0.000    1.667    6.667    2.000    4.667    0.000 
#    0.000    2.500    0.000    0.000    0.000    0.000 
#    0.000    0.000    0.000    0.000    0.000    0.000 
#
# Total GULP energy -66933.867060 kJ/mol
# GULP energy per Si atom -5577.822255 kJ/mol
# Density = 2.439682 g / cm^3
# Si number density = 24.452478 Si / 1000 Ang^3
#
#
#
# Elastic Constant Matrix: (Units=GPa)
#
#
# Indices 1 2 3 4 5 6 
#
# 1 157.4246 20.2422 70.4812 22.2140 -10.2290 -13.6725
# 2 20.2422 55.5279 55.6836 8.0046 -11.9805 -14.8328
# 3 70.4812 55.6836 163.8661 56.5613 -11.5040 -12.3874
# 4 22.2140 8.0046 56.5613 40.3751 -15.7978 -1.3019
# 5 -10.2290 -11.9805 -11.5040 -15.7978 46.6489 23.6106
# 6 -13.6725 -14.8328 -12.3874 -1.3019 23.6106 32.6755
#
#
#
# Elastic Compliance Matrix: (Units=1/GPa)
#
#
# Indices 1 2 3 4 5 6 
#
# 1 0.008146 0.002335 -0.004881 0.002328 0.000943 0.002029
# 2 0.002335 0.040273 -0.024036 0.030235 0.014854 0.000618
# 3 -0.004881 -0.024036 0.030653 -0.042950 -0.020005 0.011411
# 4 0.002328 0.030235 -0.042950 0.094271 0.044948 -0.030306
# 5 0.000943 0.014854 -0.020005 0.044948 0.055285 -0.038604
# 6 0.002029 0.000618 0.011411 -0.030306 -0.038604 0.062747
#
#
# Mechanical properties :
#
#
# Convention : Reuss Voigt Hill
#
# Bulk Modulus (GPa) = 38.59807 74.40363 56.50085
# Shear Modulus (GPa) = 14.15726 39.30068 26.72897
#
# Velocity S-wave (km/s) = 2.40879 4.01337 3.30979
# Velocity P-wave (km/s) = 4.85341 7.20903 6.14515
#
# Compressibility (1/GPa) = 0.02590803
#
# Stress axis : x y z
#
# Youngs Moduli (GPa) = 122.75225 24.83080 32.62318
#
# Poissons Ratio (x) = -0.05799 0.15924
# Poissons Ratio (y) = -0.28667 0.78413
# Poissons Ratio (z) = 0.59919 0.59684
#
# Static dielectric constant tensor:
#      x y z
#    x 1.906250 -0.047760 -0.085780 
#    y -0.047760 2.098730 0.105010 
#    z -0.085780 0.105010 2.008730 
# 
# From -- ./inp_files/145319.got.cif
#   From: 2010.05.17/outbox.cif.g08.bks.cpg/sg2_73_cif.got.tgz:145319.got - 2010.06.03 11:33:40.
