data_PCOD9107932
_publ_section_title
;
Structure prediction by ZEFSAII (Michael W. Deem and Ramdas Pophale) SiO2 
 PCOD9107932
Probable space group: P -1
;
_chemical_formula_sum "Si O2"
_cell_formula_units_Z 16
_cell_length_a 9.245646
_cell_length_b 23.699755
_cell_length_c 9.087977
_cell_angle_alpha 130.431188
_cell_angle_beta 119.108991
_cell_angle_gamma 26.548504
_cell_volume 651.301157
_symmetry_space_group_name_H-M "P -1"
_symmetry_group_IT_number 2
_symmetry_cell_setting 'triclinic'
loop_
_space_group_symop_operation_xyz
x,y,z
-x,-y,-z
loop_
_atom_site_type_symbol
_atom_site_label
_atom_site_fract_x
_atom_site_fract_y
_atom_site_fract_z
Si Si1 0.656017 0.766222 0.147971
Si Si2 0.556936 0.933911 0.764813
Si Si3 0.307188 0.347656 0.299577
Si Si4 0.138991 0.079990 0.527828
Si Si5 0.585646 0.499542 0.880554
Si Si6 0.743017 0.313394 0.464687
Si Si7 0.592502 0.178309 0.438034
Si Si8 0.372195 0.350442 0.867204
O O1 0.468251 0.775014 0.163385
O O2 0.010213 0.652439 0.199278
O O3 0.417843 0.929995 0.311980
O O4 0.768696 0.682917 0.913191
O O5 0.462723 0.884834 0.660275
O O6 0.942952 0.790471 0.659341
O O7 0.319519 0.048564 0.702030
O O8 0.500000 0.000000 0.000000
O O9 0.520067 0.334264 0.323167
O O10 0.548419 0.209502 0.297528
O O11 0.000000 0.500000 0.500000
O O12 0.902544 0.220431 0.541641
O O13 0.918659 0.097649 0.510468
O O14 0.497245 0.476274 0.668634
O O15 0.500000 0.500000 0.000000
O O16 0.466237 0.631222 0.029577
O O17 0.322267 0.332881 0.654327
O O18 0.000000 0.500000 0.000000
#
# Coordination Sequence:
#
# PCOD9107932 Si02
#       8
#     2   2   2   2   2   2   2   2
#     4  11  23  40  69  91 130 182 227 268 332 410
#     4  12  26  42  65 104 141 167 220 287 345 390
#     4  11  25  44  68  98 135 178 232 277 335 404
#     4  11  24  45  69  95 136 185 229 262 343 424
#     4  11  21  40  68  98 129 172 229 280 336 395
#     4  11  25  44  67  99 143 175 220 287 341 398
#     4  11  24  44  68  96 136 179 229 275 328 416
#     4  10  20  40  66  91 124 177 227 263 321 402
#
# _framework density 24.566209000000001
#
# number of rings (size 3 to 8) (size 9 to 14) (size 15 to 20)
#    0.000    1.000    2.500    5.250    3.500    1.000 
#    0.000    5.000    0.000    0.000    0.000    0.000 
#    0.000    0.000    0.000    0.000    0.000    0.000 
#
# Total GULP energy -89463.129964 kJ/mol
# GULP energy per Si atom -5591.445623 kJ/mol
# Density = 2.451029 g / cm^3
# Si number density = 24.566209 Si / 1000 Ang^3
#
#
#
# Elastic Constant Matrix: (Units=GPa)
#
#
# Indices 1 2 3 4 5 6 
#
# 1 161.7582 7.4250 26.1638 7.3656 7.9137 -5.0226
# 2 7.4250 34.2782 13.8597 1.8350 9.8381 -4.3411
# 3 26.1638 13.8597 159.3136 1.7965 2.2496 3.7421
# 4 7.3656 1.8350 1.7965 25.4192 -2.0025 1.5224
# 5 7.9137 9.8381 2.2496 -2.0025 33.2930 8.4753
# 6 -5.0226 -4.3411 3.7421 1.5224 8.4753 34.2717
#
#
#
# Elastic Compliance Matrix: (Units=1/GPa)
#
#
# Indices 1 2 3 4 5 6 
#
# 1 0.006604 -0.000099 -0.001063 -0.002090 -0.002018 0.001663
# 2 -0.000099 0.035202 -0.003016 -0.003760 -0.012442 0.008018
# 3 -0.001063 -0.003016 0.006732 0.000230 0.001099 -0.001555
# 4 -0.002090 -0.003760 0.000230 0.040829 0.005032 -0.003866
# 5 -0.002018 -0.012442 0.001099 0.005032 0.037335 -0.011448
# 6 0.001663 0.008018 -0.001555 -0.003866 -0.011448 0.033610
#
#
# Mechanical properties :
#
#
# Convention : Reuss Voigt Hill
#
# Bulk Modulus (GPa) = 24.88725 50.02745 37.45735
# Shear Modulus (GPa) = 27.46295 39.12356 33.29325
#
# Velocity S-wave (km/s) = 3.34715 3.99504 3.68536
# Velocity P-wave (km/s) = 5.00905 6.45670 5.77839
#
# Compressibility (1/GPa) = 0.04018121
#
# Stress axis : x y z
#
# Youngs Moduli (GPa) = 151.42185 28.40773 148.53708
#
# Poissons Ratio (x) = 0.00282 0.15789
# Poissons Ratio (y) = 0.01501 0.44804
# Poissons Ratio (z) = 0.16096 0.08569
#
# Static dielectric constant tensor:
#      x y z
#    x 2.008330 0.060290 0.003300 
#    y 0.060290 2.109080 0.072540 
#    z 0.003300 0.072540 2.019730 
# 
# From -- ./inp_files/226545.got.cif
#   From: 2010.05.17/outbox.cif.g08.bks.cpg/sg2_114_cif.got.tgz:226545.got - 2010.06.03 11:33:40.
