data_PCOD9107931
_publ_section_title
;
Structure prediction by ZEFSAII (Michael W. Deem and Ramdas Pophale) SiO2 
 PCOD9107931
Probable space group: P -1
;
_chemical_formula_sum "Si O2"
_cell_formula_units_Z 16
_cell_length_a 9.162484
_cell_length_b 15.066180
_cell_length_c 10.652910
_cell_angle_alpha 65.316965
_cell_angle_beta 153.030979
_cell_angle_gamma 110.425207
_cell_volume 605.018652
_symmetry_space_group_name_H-M "P -1"
_symmetry_group_IT_number 2
_symmetry_cell_setting 'triclinic'
loop_
_space_group_symop_operation_xyz
x,y,z
-x,-y,-z
loop_
_atom_site_type_symbol
_atom_site_label
_atom_site_fract_x
_atom_site_fract_y
_atom_site_fract_z
Si Si1 0.252093 0.943445 0.538313
Si Si2 0.496094 0.502209 0.319675
Si Si3 0.880255 0.694205 0.304215
Si Si4 0.839621 0.816941 0.962545
Si Si5 0.294169 0.922535 0.064329
Si Si6 0.140074 0.378148 0.294275
Si Si7 0.441626 0.376379 0.117870
Si Si8 0.238746 0.799500 0.845060
O O1 0.543331 0.896870 0.704385
O O2 0.383833 0.037625 0.655145
O O3 0.944387 0.782086 0.203471
O O4 0.941466 0.981863 0.201278
O O5 0.437838 0.408259 0.418605
O O6 0.790802 0.559980 0.563535
O O7 0.492024 0.462124 0.200593
O O8 0.181112 0.575501 0.045401
O O9 0.211510 0.664912 0.641898
O O10 0.184561 0.864930 0.640505
O O11 0.789593 0.609525 0.186538
O O12 0.561044 0.729053 0.111930
O O13 0.708418 0.715242 0.870516
O O14 0.117028 0.857726 0.068142
O O15 0.317324 0.865456 0.985248
O O16 0.063888 0.266824 0.323520
#
# Coordination Sequence:
#
# PCOD9107931 Si02
#       8
#     2   2   2   2   2   2   2   2
#     4  11  26  41  64  90 136 157 215 267 314 370
#     4  10  21  42  65 100 125 158 213 259 306 369
#     4   9  23  37  65  87 133 167 207 253 311 367
#     4   9  23  39  68  91 129 165 214 258 319 362
#     4  12  25  41  66  96 119 172 217 264 307 377
#     4  10  23  40  66  94 132 163 199 265 315 371
#     4  10  20  40  66  91 124 174 201 262 303 381
#     4  11  25  46  63  93 130 173 206 254 331 374
#
# _framework density 26.445466
#
# number of rings (size 3 to 8) (size 9 to 14) (size 15 to 20)
#    0.750    1.000    0.000    3.000    5.250    4.000 
#    0.000    3.750    0.000    0.000    0.000    0.000 
#    0.000    0.000    0.000    0.000    0.000    0.000 
#
# Total GULP energy -89690.602747 kJ/mol
# GULP energy per Si atom -5605.662672 kJ/mol
# Density = 2.638527 g / cm^3
# Si number density = 26.445466 Si / 1000 Ang^3
#
#
#
# Elastic Constant Matrix: (Units=GPa)
#
#
# Indices 1 2 3 4 5 6 
#
# 1 87.4834 26.2191 -12.2207 -1.6142 1.2061 41.0763
# 2 26.2191 69.0897 4.2553 30.6581 -13.0913 16.2001
# 3 -12.2207 4.2553 108.3828 12.7301 7.7099 6.0824
# 4 -1.6142 30.6581 12.7301 39.7355 -4.1871 -2.2687
# 5 1.2061 -13.0913 7.7099 -4.1871 15.7643 3.7609
# 6 41.0763 16.2001 6.0824 -2.2687 3.7609 51.3592
#
#
#
# Elastic Compliance Matrix: (Units=1/GPa)
#
#
# Indices 1 2 3 4 5 6 
#
# 1 0.021059 -0.007840 0.003319 0.004487 -0.005169 -0.014186
# 2 -0.007840 0.035223 -0.000699 -0.025037 0.025384 -0.007722
# 3 0.003319 -0.000699 0.010683 -0.003597 -0.006202 -0.003404
# 4 0.004487 -0.025037 -0.003597 0.045280 -0.009115 0.007403
# 5 -0.005169 0.025384 -0.006202 -0.009115 0.087903 -0.009978
# 6 -0.014186 -0.007722 -0.003404 0.007403 -0.009978 0.034713
#
#
# Mechanical properties :
#
#
# Convention : Reuss Voigt Hill
#
# Bulk Modulus (GPa) = 17.69124 33.49592 25.59358
# Shear Modulus (GPa) = 18.92922 37.81862 28.37392
#
# Velocity S-wave (km/s) = 2.67831 3.78572 3.27910
# Velocity P-wave (km/s) = 4.03345 5.63936 4.90261
#
# Compressibility (1/GPa) = 0.05652516
#
# Stress axis : x y z
#
# Youngs Moduli (GPa) = 47.48558 28.39069 93.60771
#
# Poissons Ratio (x) = 0.22259 -0.31070
# Poissons Ratio (y) = 0.37230 0.06540
# Poissons Ratio (z) = -0.15761 0.01983
#
# Static dielectric constant tensor:
#      x y z
#    x 2.076410 0.017210 -0.021830 
#    y 0.017210 2.095880 -0.002520 
#    z -0.021830 -0.002520 1.987990 
# 
# From -- ./inp_files/434097.got.cif
#   From: 2010.05.17/outbox.cif.g08.bks.cpg/sg2_218_cif.got.tgz:434097.got - 2010.06.03 11:33:40.
