data_PCOD9107652
_publ_section_title
;
Structure prediction by ZEFSAII (Michael W. Deem and Ramdas Pophale) SiO2 
 PCOD9107652
Probable space group: P -1
;
_chemical_formula_sum "Si O2"
_cell_formula_units_Z 16
_cell_length_a 14.459432
_cell_length_b 15.028152
_cell_length_c 13.958433
_cell_angle_alpha 151.366700
_cell_angle_beta 148.898209
_cell_angle_gamma 41.302038
_cell_volume 750.814578
_symmetry_space_group_name_H-M "P -1"
_symmetry_group_IT_number 2
_symmetry_cell_setting 'triclinic'
loop_
_space_group_symop_operation_xyz
x,y,z
-x,-y,-z
loop_
_atom_site_type_symbol
_atom_site_label
_atom_site_fract_x
_atom_site_fract_y
_atom_site_fract_z
Si Si1 0.361171 0.573098 0.365575
Si Si2 0.608419 0.613759 0.449319
Si Si3 0.213452 0.021340 0.291759
Si Si4 0.515658 0.289930 0.780189
Si Si5 0.808419 0.123833 0.368772
Si Si6 0.583112 0.175469 0.027301
Si Si7 0.790757 0.807462 0.205838
Si Si8 0.856034 0.908002 0.917316
O O1 0.500000 0.500000 0.500000
O O2 0.480987 0.658080 0.467284
O O3 0.235139 0.720692 0.443872
O O4 0.251294 0.403154 0.061708
O O5 0.532534 0.699769 0.365394
O O6 0.613595 0.391921 0.234555
O O7 0.801048 0.710785 0.726695
O O8 0.375902 0.159638 0.591328
O O9 0.142389 0.110432 0.213768
O O10 0.297693 0.819604 0.152669
O O11 0.050023 0.992128 0.191370
O O12 0.500000 0.500000 0.000000
O O13 0.669193 0.142553 0.177222
O O14 0.010973 0.157480 0.545424
O O15 0.785756 0.929992 0.220287
O O16 0.371995 0.138580 0.817067
O O17 0.697033 0.045791 0.936424
#
# Coordination Sequence:
#
# PCOD9107652 Si02
#       8
#     2   2   2   2   2   2   2   2
#     4  11  21  40  63  83 128 166 199 257 301 357
#     4  10  22  38  60  92 116 163 203 240 312 359
#     4   9  21  41  61  90 119 159 196 245 311 363
#     4  10  20  40  65  90 125 156 196 250 305 360
#     4  11  22  40  61  87 118 166 209 249 310 355
#     4  11  22  39  60  90 124 158 202 257 300 359
#     4  10  23  39  60  87 117 161 211 250 305 358
#     4  10  21  40  62  86 123 154 202 250 299 371
#
# _framework density 21.310189999999999
#
# number of rings (size 3 to 8) (size 9 to 14) (size 15 to 20)
#    0.000    1.750    2.500    2.250    1.750    1.000 
#   20.250    3.750    0.000    0.000    0.000    0.000 
#    0.000    0.000    0.000    0.000    0.000    0.000 
#
# Total GULP energy -89354.076444 kJ/mol
# GULP energy per Si atom -5584.629778 kJ/mol
# Density = 2.126169 g / cm^3
# Si number density = 21.310190 Si / 1000 Ang^3
#
#
#
# Elastic Constant Matrix: (Units=GPa)
#
#
# Indices 1 2 3 4 5 6 
#
# 1 109.2278 18.6067 61.6354 -2.1529 32.8167 -13.3057
# 2 18.6067 51.0700 22.4575 6.6425 14.9831 -5.2952
# 3 61.6354 22.4575 70.1682 11.1388 36.4076 -20.2403
# 4 -2.1529 6.6425 11.1388 28.2277 -1.1806 -1.6177
# 5 32.8167 14.9831 36.4076 -1.1806 41.8025 -6.9773
# 6 -13.3057 -5.2952 -20.2403 -1.6177 -6.9773 33.0535
#
#
#
# Elastic Compliance Matrix: (Units=1/GPa)
#
#
# Indices 1 2 3 4 5 6 
#
# 1 0.020729 -0.000327 -0.022680 0.010486 0.003156 -0.004416
# 2 -0.000327 0.023419 -0.004205 -0.004077 -0.004611 -0.000128
# 3 -0.022680 -0.004205 0.061969 -0.025378 -0.032014 0.020143
# 4 0.010486 -0.004077 -0.025378 0.047489 0.015613 -0.006352
# 5 0.003156 -0.004611 -0.032014 0.015613 0.050132 -0.007726
# 6 -0.004416 -0.000128 0.020143 -0.006352 -0.007726 0.038849
#
#
# Mechanical properties :
#
#
# Convention : Reuss Voigt Hill
#
# Bulk Modulus (GPa) = 19.34472 48.42947 33.88709
# Shear Modulus (GPa) = 15.91131 29.13451 22.52291
#
# Velocity S-wave (km/s) = 2.73546 3.70153 3.25454
# Velocity P-wave (km/s) = 4.36742 6.40654 5.48261
#
# Compressibility (1/GPa) = 0.05169369
#
# Stress axis : x y z
#
# Youngs Moduli (GPa) = 48.24093 42.70011 16.13703
#
# Poissons Ratio (x) = 0.01396 0.36598
# Poissons Ratio (y) = 0.01577 0.06786
# Poissons Ratio (z) = 1.09409 0.17957
#
# Static dielectric constant tensor:
#      x y z
#    x 1.769800 -0.006430 0.002710 
#    y -0.006430 1.756920 -0.024800 
#    z 0.002710 -0.024800 1.832440 
# 
# From -- ./inp_files/534510.got.cif
#   From: 2010.05.17/outbox.cif.g08.bks.cpg/sg2_268_cif.got.tgz:534510.got - 2010.06.03 11:33:40.
