data_PCOD9107015
_publ_section_title
;
Structure prediction by ZEFSAII (Michael W. Deem and Ramdas Pophale) SiO2 
 PCOD9107015
Probable space group: P -1
;
_chemical_formula_sum "Si O2"
_cell_formula_units_Z 14
_cell_length_a 15.268217
_cell_length_b 9.201652
_cell_length_c 16.883049
_cell_angle_alpha 126.161730
_cell_angle_beta 157.050817
_cell_angle_gamma 67.986152
_cell_volume 630.667420
_symmetry_space_group_name_H-M "P -1"
_symmetry_group_IT_number 2
_symmetry_cell_setting 'triclinic'
loop_
_space_group_symop_operation_xyz
x,y,z
-x,-y,-z
loop_
_atom_site_type_symbol
_atom_site_label
_atom_site_fract_x
_atom_site_fract_y
_atom_site_fract_z
Si Si1 0.308464 0.824404 0.493217
Si Si2 0.963714 0.424200 0.356141
Si Si3 0.164037 0.043555 0.935775
Si Si4 0.534173 0.449140 0.275761
Si Si5 0.061428 0.386116 0.206067
Si Si6 0.791561 0.134583 0.747271
Si Si7 0.572913 0.291519 0.860178
O O1 0.104526 0.618838 0.307084
O O2 0.247517 0.761571 0.330275
O O3 0.585821 0.863312 0.766863
O O4 0.333394 0.049972 0.600873
O O5 0.235549 0.572775 0.580956
O O6 0.000000 0.500000 0.500000
O O7 0.901925 0.182831 0.224639
O O8 0.719584 0.411938 0.101651
O O9 0.922253 0.015668 0.777594
O O10 0.278879 0.229652 0.024058
O O11 0.689385 0.584355 0.527909
O O12 0.481016 0.576685 0.205928
O O13 0.792326 0.256297 0.989946
O O14 0.997661 0.281634 0.033552
O O15 0.500000 0.000000 0.500000
#
# Coordination Sequence:
#
# PCOD9107015 Si02
#       7
#     2   2   2   2   2   2   2
#     4  10  21  39  58  86 125 171 209 257 299 362
#     4  10  23  43  67  95 126 160 204 263 326 381
#     4  10  24  43  63  91 128 167 212 257 311 371
#     4  10  22  41  67  92 125 167 210 263 309 372
#     4  10  22  38  58  90 127 168 213 251 304 365
#     4  12  23  38  61  94 129 173 211 257 301 371
#     4  10  20  40  62  92 127 162 207 257 310 371
#
# _framework density 22.198705
#
# number of rings (size 3 to 8) (size 9 to 14) (size 15 to 20)
#    0.000    1.714    1.429    2.143    0.000    5.143 
#    0.000    0.714    0.000    0.000    0.000    0.000 
#    0.000    0.000    0.000    0.000    0.000    0.000 
#
# Total GULP energy -78091.661909 kJ/mol
# GULP energy per Si atom -5577.975851 kJ/mol
# Density = 2.214818 g / cm^3
# Si number density = 22.198705 Si / 1000 Ang^3
#
#
#
# Elastic Constant Matrix: (Units=GPa)
#
#
# Indices 1 2 3 4 5 6 
#
# 1 95.2488 36.7179 66.7722 3.2571 -19.8289 17.4099
# 2 36.7179 135.0577 55.8749 -2.7573 -10.6939 37.0410
# 3 66.7722 55.8749 123.8631 -8.6281 -22.2438 13.0154
# 4 3.2571 -2.7573 -8.6281 36.9906 20.3574 3.9897
# 5 -19.8289 -10.6939 -22.2438 20.3574 50.8426 -3.7417
# 6 17.4099 37.0410 13.0154 3.9897 -3.7417 36.5744
#
#
#
# Elastic Compliance Matrix: (Units=1/GPa)
#
#
# Indices 1 2 3 4 5 6 
#
# 1 0.019314 0.000318 -0.009475 -0.006500 0.005700 -0.004852
# 2 0.000318 0.012226 -0.004539 0.001393 -0.000668 -0.011139
# 3 -0.009475 -0.004539 0.015271 0.003117 0.001036 0.003439
# 4 -0.006500 0.001393 0.003117 0.038098 -0.016521 -0.005272
# 5 0.005700 -0.000668 0.001036 -0.016521 0.028993 0.002363
# 6 -0.004852 -0.011139 0.003439 -0.005272 0.002363 0.040525
#
#
# Mechanical properties :
#
#
# Convention : Reuss Voigt Hill
#
# Bulk Modulus (GPa) = 51.49519 74.76661 63.13090
# Shear Modulus (GPa) = 26.55461 37.86849 32.21155
#
# Velocity S-wave (km/s) = 3.46240 4.13472 3.81340
# Velocity P-wave (km/s) = 6.26355 7.51986 6.92027
#
# Compressibility (1/GPa) = 0.01941929
#
# Stress axis : x y z
#
# Youngs Moduli (GPa) = 51.77595 81.79230 65.48559
#
# Poissons Ratio (x) = -0.02604 0.62046
# Poissons Ratio (y) = -0.01648 0.29726
# Poissons Ratio (z) = 0.49056 0.37128
#
# Static dielectric constant tensor:
#      x y z
#    x 1.777820 0.017640 -0.000190 
#    y 0.017640 1.910850 -0.059340 
#    z -0.000190 -0.059340 1.895840 
# 
# From -- ./inp_files/529018.got.cif
#   From: 2010.05.17/outbox.cif.g08.bks.cpg/sg2_265_cif.got.tgz:529018.got - 2010.06.03 11:33:40.
