data_PCOD9107813
_publ_section_title
;
Structure prediction by ZEFSAII (Michael W. Deem and Ramdas Pophale) SiO2 
 PCOD9107813
Probable space group: P -1
;
_chemical_formula_sum "Si O2"
_cell_formula_units_Z 16
_cell_length_a 11.585817
_cell_length_b 17.581610
_cell_length_c 8.343869
_cell_angle_alpha 93.314290
_cell_angle_beta 133.337633
_cell_angle_gamma 124.534468
_cell_volume 678.342808
_symmetry_space_group_name_H-M "P -1"
_symmetry_group_IT_number 2
_symmetry_cell_setting 'triclinic'
loop_
_space_group_symop_operation_xyz
x,y,z
-x,-y,-z
loop_
_atom_site_type_symbol
_atom_site_label
_atom_site_fract_x
_atom_site_fract_y
_atom_site_fract_z
Si Si1 0.884085 0.220493 0.083054
Si Si2 0.606844 0.246964 0.984675
Si Si3 0.194857 0.406375 0.118917
Si Si4 0.984309 0.034051 0.725519
Si Si5 0.541343 0.490370 0.214464
Si Si6 0.412708 0.666149 0.714118
Si Si7 0.599994 0.342152 0.667719
Si Si8 0.097162 0.934686 0.016396
O O1 0.925449 0.277039 0.955400
O O2 0.215613 0.353298 0.473678
O O3 0.775645 0.092155 0.933134
O O4 0.732579 0.214156 0.064803
O O5 0.668819 0.320677 0.889670
O O6 0.261687 0.094704 0.641347
O O7 0.701079 0.327694 0.246896
O O8 0.500000 0.500000 0.500000
O O9 0.228227 0.373928 0.983927
O O10 0.240521 0.513391 0.150436
O O11 0.141915 0.024029 0.953912
O O12 0.237766 0.188531 0.922470
O O13 0.821127 0.009345 0.717847
O O14 0.659615 0.452279 0.347504
O O15 0.500000 0.500000 0.000000
O O16 0.341066 0.660169 0.460953
O O17 0.252451 0.214076 0.324662
#
# Coordination Sequence:
#
# PCOD9107813 Si02
#       8
#     2   2   2   2   2   2   2   2
#     4  11  22  39  60  93 127 154 197 261 310 359
#     4  11  25  38  58  94 128 164 198 248 318 357
#     4  10  16  35  59  86 113 153 204 242 296 354
#     4   9  20  38  65  89 112 165 211 249 297 357
#     4  11  22  38  65  94 119 160 207 253 302 363
#     4  11  21  40  64  87 124 161 213 248 286 375
#     4  10  18  38  63  84 119 160 203 248 295 361
#     4   9  17  36  67  88 113 157 213 252 294 360
#
# _framework density 23.586894000000001
#
# number of rings (size 3 to 8) (size 9 to 14) (size 15 to 20)
#    0.000    1.750    5.000    2.625    1.750    1.500 
#    2.250    0.625    0.000    0.000    0.000    0.000 
#    0.000    0.000    0.000    0.000    0.000    0.000 
#
# Total GULP energy -89309.888793 kJ/mol
# GULP energy per Si atom -5581.868050 kJ/mol
# Density = 2.353321 g / cm^3
# Si number density = 23.586894 Si / 1000 Ang^3
#
#
#
# Elastic Constant Matrix: (Units=GPa)
#
#
# Indices 1 2 3 4 5 6 
#
# 1 158.3935 30.8211 16.9432 -9.8773 -31.5466 -11.3810
# 2 30.8211 73.7785 14.7848 10.8091 -11.2787 -11.2501
# 3 16.9432 14.7848 23.8629 -2.8393 -0.4768 -7.7462
# 4 -9.8773 10.8091 -2.8393 24.2195 5.5053 -15.3438
# 5 -31.5466 -11.2787 -0.4768 5.5053 27.3808 10.0876
# 6 -11.3810 -11.2501 -7.7462 -15.3438 10.0876 36.5942
#
#
#
# Elastic Compliance Matrix: (Units=1/GPa)
#
#
# Indices 1 2 3 4 5 6 
#
# 1 0.009202 -0.001312 -0.006010 0.000220 0.010509 -0.001618
# 2 -0.001312 0.022328 -0.019665 -0.024787 0.017041 -0.012797
# 3 -0.006010 -0.019665 0.076004 0.048481 -0.037787 0.038918
# 4 0.000220 -0.024787 0.048481 0.111881 -0.055529 0.064929
# 5 0.010509 0.017041 -0.037787 -0.055529 0.082974 -0.045647
# 6 -0.001618 -0.012797 0.038918 0.064929 -0.045647 0.070935
#
#
# Mechanical properties :
#
#
# Convention : Reuss Voigt Hill
#
# Bulk Modulus (GPa) = 18.67073 42.34813 30.50943
# Shear Modulus (GPa) = 11.23212 30.53797 20.88504
#
# Velocity S-wave (km/s) = 2.18457 3.60210 2.97888
# Velocity P-wave (km/s) = 3.78101 5.94081 4.97942
#
# Compressibility (1/GPa) = 0.05355977
#
# Stress axis : x y z
#
# Youngs Moduli (GPa) = 108.67137 44.78614 13.15721
#
# Poissons Ratio (x) = 0.05877 0.07907
# Poissons Ratio (y) = 0.14261 0.25874
# Poissons Ratio (z) = 0.65310 0.88073
#
# Static dielectric constant tensor:
#      x y z
#    x 1.938750 0.001060 -0.001680 
#    y 0.001060 1.845210 -0.023650 
#    z -0.001680 -0.023650 1.917530 
# 
# From -- ./inp_files/189208.got.cif
#   From: 2010.05.17/outbox.cif.g08.bks.cpg/sg2_95_cif.got.tgz:189208.got - 2010.06.03 11:33:40.
