data_PCOD9107481
_publ_section_title
;
Structure prediction by ZEFSAII (Michael W. Deem and Ramdas Pophale) SiO2 
 PCOD9107481
Probable space group: P -1
;
_chemical_formula_sum "Si O2"
_cell_formula_units_Z 13
_cell_length_a 15.467694
_cell_length_b 7.348381
_cell_length_c 7.823298
_cell_angle_alpha 93.043105
_cell_angle_beta 43.734629
_cell_angle_gamma 86.145475
_cell_volume 606.643187
_symmetry_space_group_name_H-M "P -1"
_symmetry_group_IT_number 2
_symmetry_cell_setting 'triclinic'
loop_
_space_group_symop_operation_xyz
x,y,z
-x,-y,-z
loop_
_atom_site_type_symbol
_atom_site_label
_atom_site_fract_x
_atom_site_fract_y
_atom_site_fract_z
Si Si1 0.217324 0.209466 0.579270
Si Si2 0.745813 0.667453 0.101142
Si Si3 0.500000 0.500000 0.500000
Si Si4 0.969907 0.720629 0.589344
Si Si5 0.615975 0.512372 0.713401
Si Si6 0.056460 0.698700 0.111267
Si Si7 0.152646 0.814382 0.627160
O O1 0.252918 0.203970 0.728162
O O2 0.323736 0.301611 0.338036
O O3 0.082062 0.340632 0.751194
O O4 0.195695 0.009906 0.541403
O O5 0.609405 0.612442 0.258650
O O6 0.838519 0.478058 0.012961
O O7 0.820633 0.753624 0.846235
O O8 0.572257 0.509138 0.579473
O O9 0.025895 0.799819 0.342199
O O10 0.043932 0.773270 0.651744
O O11 0.000000 0.500000 0.500000
O O12 0.728430 0.344489 0.573031
O O13 0.500000 0.500000 0.000000
O O14 0.104269 0.809991 0.891883
#
# Coordination Sequence:
#
# PCOD9107481 Si02
#       7
#     2   2   1   2   2   2   2
#     4  11  23  42  68  97 131 168 215 268 325 382
#     4  10  20  40  64  94 129 174 220 260 318 387
#     4  10  22  40  64  92 124 170 226 254 314 382
#     4  10  23  35  66  97 128 166 219 261 323 384
#     4  11  26  44  70  90 128 178 215 265 322 379
#     4  11  21  40  66  93 134 169 204 272 326 374
#     4  12  24  44  66  98 133 165 214 273 324 383
#
# _framework density 21.429399
#
# number of rings (size 3 to 8) (size 9 to 14) (size 15 to 20)
#    0.000    1.231    4.615    2.769    6.462    1.231 
#    0.000    3.077    0.000    0.000    0.000    0.000 
#    0.000    0.000    0.000    0.000    0.000    0.000 
#
# Total GULP energy -72376.819738 kJ/mol
# GULP energy per Si atom -5567.447672 kJ/mol
# Density = 2.138063 g / cm^3
# Si number density = 21.429399 Si / 1000 Ang^3
#
#
#
# Elastic Constant Matrix: (Units=GPa)
#
#
# Indices 1 2 3 4 5 6 
#
# 1 82.7368 34.7594 27.5928 -14.0613 -2.1233 16.2238
# 2 34.7594 105.5224 42.1121 -25.3135 -1.2291 15.7796
# 3 27.5928 42.1121 161.8064 -37.3624 5.4784 8.6429
# 4 -14.0613 -25.3135 -37.3624 23.2034 10.5157 -5.1806
# 5 -2.1233 -1.2291 5.4784 10.5157 34.8107 -12.8439
# 6 16.2238 15.7796 8.6429 -5.1806 -12.8439 28.2157
#
#
#
# Elastic Compliance Matrix: (Units=1/GPa)
#
#
# Indices 1 2 3 4 5 6 
#
# 1 0.015832 -0.002194 0.000338 0.007970 -0.004779 -0.008692
# 2 -0.002194 0.015713 0.002027 0.021495 -0.009544 -0.008545
# 3 0.000338 0.002027 0.012466 0.026666 -0.012040 -0.005731
# 4 0.007970 0.021495 0.026666 0.132434 -0.051831 -0.024049
# 5 -0.004779 -0.009544 -0.012040 -0.051831 0.055866 0.027687
# 6 -0.008692 -0.008545 -0.005731 -0.024049 0.027687 0.055161
#
#
# Mechanical properties :
#
#
# Convention : Reuss Voigt Hill
#
# Bulk Modulus (GPa) = 22.54618 62.11048 42.32833
# Shear Modulus (GPa) = 16.56099 33.61939 25.09019
#
# Velocity S-wave (km/s) = 2.78297 3.96516 3.42545
# Velocity P-wave (km/s) = 4.56843 7.07178 5.95318
#
# Compressibility (1/GPa) = 0.04435341
#
# Stress axis : x y z
#
# Youngs Moduli (GPa) = 63.16384 63.64102 80.21697
#
# Poissons Ratio (x) = 0.13962 -0.02707
# Poissons Ratio (y) = 0.13857 -0.16263
# Poissons Ratio (z) = -0.02132 -0.12903
#
# Static dielectric constant tensor:
#      x y z
#    x 1.780030 -0.033540 0.052430 
#    y -0.033540 1.815680 -0.013050 
#    z 0.052430 -0.013050 1.819000 
# 
# From -- ./inp_files/290508.got.cif
#   From: 2010.05.17/outbox.cif.g08.bks.cpg/sg2_146_cif.got.tgz:290508.got - 2010.06.03 11:33:40.
