data_PCOD9107231
_publ_section_title
;
Structure prediction by ZEFSAII (Michael W. Deem and Ramdas Pophale) SiO2 
 PCOD9107231
Probable space group: P -1
;
_chemical_formula_sum "Si O2"
_cell_formula_units_Z 16
_cell_length_a 8.241501
_cell_length_b 13.288193
_cell_length_c 8.781802
_cell_angle_alpha 114.474034
_cell_angle_beta 76.876717
_cell_angle_gamma 125.674112
_cell_volume 710.928542
_symmetry_space_group_name_H-M "P -1"
_symmetry_group_IT_number 2
_symmetry_cell_setting 'triclinic'
loop_
_space_group_symop_operation_xyz
x,y,z
-x,-y,-z
loop_
_atom_site_type_symbol
_atom_site_label
_atom_site_fract_x
_atom_site_fract_y
_atom_site_fract_z
Si Si1 0.069520 0.596721 0.407145
Si Si2 0.244580 0.536931 0.064092
Si Si3 0.606506 0.599339 0.220192
Si Si4 0.093948 0.232786 0.506779
Si Si5 0.334444 0.956725 0.376882
Si Si6 0.388552 0.309441 0.239124
Si Si7 0.410754 0.778453 0.664143
Si Si8 0.627012 0.220522 0.996234
O O1 0.108922 0.526323 0.221555
O O2 0.266683 0.725697 0.517383
O O3 0.000000 0.500000 0.500000
O O4 0.927642 0.642170 0.414571
O O5 0.463724 0.612719 0.145376
O O6 0.237103 0.628457 0.996010
O O7 0.230538 0.411329 0.916798
O O8 0.728489 0.721623 0.382763
O O9 0.467082 0.453305 0.240473
O O10 0.175977 0.234657 0.321949
O O11 0.882738 0.113817 0.541845
O O12 0.354675 0.863428 0.191814
O O13 0.500000 0.000000 0.500000
O O14 0.393095 0.085326 0.345839
O O15 0.544307 0.328403 0.350805
O O16 0.418744 0.213883 0.061984
O O17 0.328308 0.803258 0.855287
#
# Coordination Sequence:
#
# PCOD9107231 Si02
#       8
#     2   2   2   2   2   2   2   2
#     4  12  23  36  63  97 129 161 211 261 317 378
#     4  10  20  40  63  93 128 172 199 258 324 381
#     4  10  21  38  66  92 134 164 206 259 324 379
#     4  12  23  37  64  98 125 164 215 263 311 377
#     4  12  23  43  65  91 128 168 218 264 307 373
#     4   9  21  40  63  92 127 160 208 257 321 375
#     4  10  22  42  65  85 128 175 204 257 322 369
#     4   9  21  42  66  86 123 171 209 255 319 374
#
# _framework density 22.505777999999999
#
# number of rings (size 3 to 8) (size 9 to 14) (size 15 to 20)
#    0.750    0.750    2.500    3.000    0.000    2.000 
#    0.000    0.625    0.000    0.000    0.000    0.000 
#    0.000    0.000    0.000    0.000    0.000    0.000 
#
# Total GULP energy -89183.040028 kJ/mol
# GULP energy per Si atom -5573.940002 kJ/mol
# Density = 2.245455 g / cm^3
# Si number density = 22.505778 Si / 1000 Ang^3
#
#
#
# Elastic Constant Matrix: (Units=GPa)
#
#
# Indices 1 2 3 4 5 6 
#
# 1 51.2494 10.8155 36.4605 3.0402 7.8093 0.1175
# 2 10.8155 96.5468 33.2817 -22.3344 1.1961 7.3525
# 3 36.4605 33.2817 148.8725 -19.1368 -24.8413 18.2063
# 4 3.0402 -22.3344 -19.1368 37.8401 2.0529 0.4587
# 5 7.8093 1.1961 -24.8413 2.0529 47.3144 -5.8715
# 6 0.1175 7.3525 18.2063 0.4587 -5.8715 25.8282
#
#
#
# Elastic Compliance Matrix: (Units=1/GPa)
#
#
# Indices 1 2 3 4 5 6 
#
# 1 0.028652 -0.002015 -0.009723 -0.007999 -0.008760 0.005447
# 2 -0.002015 0.012981 -0.001315 0.007273 -0.001399 -0.003206
# 3 -0.009723 -0.001315 0.012110 0.005835 0.006918 -0.006649
# 4 -0.007999 0.007273 0.005835 0.034285 0.001928 -0.006317
# 5 -0.008760 -0.001399 0.006918 0.001928 0.026353 0.001519
# 6 0.005447 -0.003206 -0.006649 -0.006317 0.001519 0.044749
#
#
# Mechanical properties :
#
#
# Convention : Reuss Voigt Hill
#
# Bulk Modulus (GPa) = 36.18331 50.86489 43.52410
# Shear Modulus (GPa) = 25.71392 36.60392 31.15892
#
# Velocity S-wave (km/s) = 3.38383 4.03727 3.72490
# Velocity P-wave (km/s) = 5.60172 6.66203 6.15475
#
# Compressibility (1/GPa) = 0.02763705
#
# Stress axis : x y z
#
# Youngs Moduli (GPa) = 34.90216 77.03720 82.57812
#
# Poissons Ratio (x) = 0.15521 0.80289
# Poissons Ratio (y) = 0.07032 0.10859
# Poissons Ratio (z) = 0.33935 0.10130
#
# Static dielectric constant tensor:
#      x y z
#    x 1.875980 0.051440 -0.039410 
#    y 0.051440 1.896130 -0.000930 
#    z -0.039410 -0.000930 1.913710 
# 
# From -- ./inp_files/202984.got.cif
#   From: 2010.05.17/outbox.cif.g08.bks.cpg/sg2_102_cif.got.tgz:202984.got - 2010.06.03 11:33:40.
