data_PCOD9107693
_publ_section_title
;
Structure prediction by ZEFSAII (Michael W. Deem and Ramdas Pophale) SiO2 
 PCOD9107693
Probable space group: P -1
;
_chemical_formula_sum "Si O2"
_cell_formula_units_Z 12
_cell_length_a 10.679052
_cell_length_b 16.720197
_cell_length_c 9.379635
_cell_angle_alpha 147.635210
_cell_angle_beta 138.849738
_cell_angle_gamma 30.812588
_cell_volume 456.905036
_symmetry_space_group_name_H-M "P -1"
_symmetry_group_IT_number 2
_symmetry_cell_setting 'triclinic'
loop_
_space_group_symop_operation_xyz
x,y,z
-x,-y,-z
loop_
_atom_site_type_symbol
_atom_site_label
_atom_site_fract_x
_atom_site_fract_y
_atom_site_fract_z
Si Si1 0.416535 0.718261 0.611840
Si Si2 0.185692 0.264617 0.441915
Si Si3 0.720851 0.102763 0.926419
Si Si4 0.639571 0.393084 0.103870
Si Si5 0.355859 0.970528 0.719613
Si Si6 0.936003 0.604201 0.949714
O O1 0.340005 0.780399 0.802076
O O2 0.473757 0.535505 0.308727
O O3 0.261009 0.886733 0.615171
O O4 0.686164 0.654051 0.757895
O O5 0.403891 0.195562 0.415994
O O6 0.919209 0.328744 0.250068
O O7 0.121150 0.440019 0.746965
O O8 0.300206 0.063727 0.320064
O O9 0.642371 0.217251 0.883424
O O10 0.000000 0.000000 0.000000
O O11 0.500000 0.500000 0.000000
O O12 0.500000 0.000000 0.000000
O O13 0.140957 0.181765 0.785879
O O14 0.000000 0.500000 0.000000
#
# Coordination Sequence:
#
# PCOD9107693 Si02
#       6
#     2   2   2   2   2   2
#     4  10  21  43  64  88 131 164 202 262 312 371
#     4  10  21  42  67  89 129 168 200 258 319 369
#     4  10  20  41  65  86 126 170 207 251 316 368
#     4  10  23  41  66  96 120 166 216 256 304 370
#     4  10  20  40  65  92 126 164 204 253 323 374
#     4  10  22  38  61  98 126 161 205 253 314 372
#
# _framework density 26.263663000000001
#
# number of rings (size 3 to 8) (size 9 to 14) (size 15 to 20)
#    0.000    2.000    3.333    0.500    0.000    8.000 
#    9.000    3.333    0.000    0.000    0.000    0.000 
#    0.000    0.000    0.000    0.000    0.000    0.000 
#
# Total GULP energy -66894.282502 kJ/mol
# GULP energy per Si atom -5574.523542 kJ/mol
# Density = 2.620389 g / cm^3
# Si number density = 26.263663 Si / 1000 Ang^3
#
#
#
# Elastic Constant Matrix: (Units=GPa)
#
#
# Indices 1 2 3 4 5 6 
#
# 1 107.2446 73.8393 59.3687 -4.2316 -37.5689 30.3783
# 2 73.8393 196.4585 70.2235 -17.1667 -22.2691 47.8583
# 3 59.3687 70.2235 78.8960 32.2315 -27.2357 -35.0427
# 4 -4.2316 -17.1667 32.2315 23.0238 -14.9715 21.5488
# 5 -37.5689 -22.2691 -27.2357 -14.9715 44.8585 18.3531
# 6 30.3783 47.8583 -35.0427 21.5488 18.3531 36.8692
#
#
#
# Elastic Compliance Matrix: (Units=1/GPa)
#
#
# Indices 1 2 3 4 5 6 
#
# 1 0.012671 -0.006980 0.003274 -0.007798 0.004971 0.003815
# 2 -0.006980 0.006062 0.000700 -0.003061 -0.004484 0.002568
# 3 0.003274 0.000700 0.006987 0.008463 0.013735 -0.008749
# 4 -0.007798 -0.003061 0.008463 0.011559 -0.004816 0.014083
# 5 0.004971 -0.004484 0.013735 -0.004816 0.029842 0.002739
# 6 0.003815 0.002568 -0.008749 0.014083 0.002739 0.002737
#
#
# Mechanical properties :
#
#
# Convention : Reuss Voigt Hill
#
# Bulk Modulus (GPa) = 50.74144 87.71801 69.22972
# Shear Modulus (GPa) = 60.65180 32.89481 46.77330
#
# Velocity S-wave (km/s) = 4.81078 3.54288 4.22466
# Velocity P-wave (km/s) = 7.08661 7.08573 7.08617
#
# Compressibility (1/GPa) = 0.01970776
#
# Stress axis : x y z
#
# Youngs Moduli (GPa) = 78.92170 164.95282 143.12841
#
# Poissons Ratio (x) = 1.15137 -0.46865
# Poissons Ratio (y) = 0.55087 -0.10013
# Poissons Ratio (z) = -0.25842 -0.11540
#
# Static dielectric constant tensor:
#      x y z
#    x 2.198980 0.232220 0.064470 
#    y 0.232220 2.399790 0.144330 
#    z 0.064470 0.144330 2.158820 
# 
# From -- ./inp_files/280151.got.cif
#   From: 2010.05.17/outbox.cif.g08.bks.cpg/sg2_141_cif.got.tgz:280151.got - 2010.06.03 11:33:40.
