data_PCOD9107919
_publ_section_title
;
Structure prediction by ZEFSAII (Michael W. Deem and Ramdas Pophale) SiO2 
 PCOD9107919
Probable space group: P -1
;
_chemical_formula_sum "Si O2"
_cell_formula_units_Z 16
_cell_length_a 7.572344
_cell_length_b 13.670365
_cell_length_c 13.375178
_cell_angle_alpha 40.802121
_cell_angle_beta 50.060412
_cell_angle_gamma 57.624716
_cell_volume 690.285815
_symmetry_space_group_name_H-M "P -1"
_symmetry_group_IT_number 2
_symmetry_cell_setting 'triclinic'
loop_
_space_group_symop_operation_xyz
x,y,z
-x,-y,-z
loop_
_atom_site_type_symbol
_atom_site_label
_atom_site_fract_x
_atom_site_fract_y
_atom_site_fract_z
Si Si1 0.004227 0.780335 0.854528
Si Si2 0.093196 0.832676 0.119702
Si Si3 0.956669 0.533514 0.374130
Si Si4 0.276703 0.028142 0.490527
Si Si5 0.139171 0.717576 0.521297
Si Si6 0.422788 0.234877 0.112710
Si Si7 0.269236 0.940108 0.171328
Si Si8 0.824142 0.520639 0.864754
O O1 0.774397 0.732264 0.923833
O O2 0.155563 0.873383 0.652093
O O3 0.132992 0.637837 0.973094
O O4 0.911972 0.913531 0.860547
O O5 0.162571 0.835033 0.209236
O O6 0.915424 0.712980 0.247965
O O7 0.328559 0.791261 0.005599
O O8 0.000000 0.000000 0.000000
O O9 0.790850 0.419584 0.475584
O O10 0.000000 0.500000 0.500000
O O11 0.166752 0.494333 0.247750
O O12 0.359062 0.087650 0.309103
O O13 0.097702 0.165079 0.492526
O O14 0.500000 0.000000 0.500000
O O15 0.310572 0.842292 0.334133
O O16 0.053877 0.616728 0.722066
O O17 0.386942 0.372495 0.096894
O O18 0.500000 0.000000 0.000000
#
# Coordination Sequence:
#
# PCOD9107919 Si02
#       8
#     2   2   2   2   2   2   2   2
#     4  11  22  42  67  93 135 173 217 274 322 394
#     4  12  25  39  66  97 129 167 228 267 329 389
#     4  10  20  40  66  90 131 171 210 276 327 380
#     4  10  23  38  64  95 127 170 220 269 325 382
#     4   8  20  39  61  91 126 167 212 268 325 373
#     4  11  24  42  64  96 131 175 217 269 333 393
#     4  11  21  41  64  92 131 174 216 270 324 390
#     4   9  21  41  66  93 129 173 217 267 333 391
#
# _framework density 23.178806000000002
#
# number of rings (size 3 to 8) (size 9 to 14) (size 15 to 20)
#    0.750    1.000    2.500    1.500    5.250    1.500 
#    0.000    0.625    2.750    0.000    0.000    0.000 
#    0.000    0.000    0.000    0.000    0.000    0.000 
#
# Total GULP energy -89104.939417 kJ/mol
# GULP energy per Si atom -5569.058714 kJ/mol
# Density = 2.312605 g / cm^3
# Si number density = 23.178806 Si / 1000 Ang^3
#
#
#
# Elastic Constant Matrix: (Units=GPa)
#
#
# Indices 1 2 3 4 5 6 
#
# 1 49.4028 20.5947 1.1624 -6.2073 -0.7943 -0.8425
# 2 20.5947 117.1017 47.7807 -15.9844 5.5601 17.4058
# 3 1.1624 47.7807 124.3161 -32.0208 5.2431 -6.6029
# 4 -6.2073 -15.9844 -32.0208 44.9428 8.6632 0.5358
# 5 -0.7943 5.5601 5.2431 8.6632 27.0197 -2.5047
# 6 -0.8425 17.4058 -6.6029 0.5358 -2.5047 26.5242
#
#
#
# Elastic Compliance Matrix: (Units=1/GPa)
#
#
# Indices 1 2 3 4 5 6 
#
# 1 0.023021 -0.005659 0.003003 0.003101 0.000746 0.005200
# 2 -0.005659 0.013612 -0.005358 0.000997 -0.003246 -0.010773
# 3 0.003003 -0.005358 0.012621 0.008055 -0.003258 0.006283
# 4 0.003101 0.000997 0.008055 0.031021 -0.011649 -0.000277
# 5 0.000746 -0.003246 -0.003258 -0.011649 0.042586 0.005600
# 6 0.005200 -0.010773 0.006283 -0.000277 0.005600 0.047034
#
#
# Mechanical properties :
#
#
# Convention : Reuss Voigt Hill
#
# Bulk Modulus (GPa) = 30.09616 47.76622 38.93119
# Shear Modulus (GPa) = 25.38097 34.44951 29.91524
#
# Velocity S-wave (km/s) = 3.31268 3.85937 3.59643
# Velocity P-wave (km/s) = 5.25779 6.36492 5.83766
#
# Compressibility (1/GPa) = 0.03322683
#
# Stress axis : x y z
#
# Youngs Moduli (GPa) = 43.43938 73.46268 79.23370
#
# Poissons Ratio (x) = 0.41574 -0.23796
# Poissons Ratio (y) = 0.24583 0.42450
# Poissons Ratio (z) = -0.13046 0.39358
#
# Static dielectric constant tensor:
#      x y z
#    x 1.998810 0.092660 -0.055560 
#    y 0.092660 1.876240 0.008630 
#    z -0.055560 0.008630 1.960920 
# 
# From -- ./inp_files/503767.got.cif
#   From: 2010.05.17/outbox.cif.g08.bks.cpg/sg2_252_cif.got.tgz:503767.got - 2010.06.03 11:33:40.
