data_PCOD9107987
_publ_section_title
;
Structure prediction by ZEFSAII (Michael W. Deem and Ramdas Pophale) SiO2 
 PCOD9107987
Probable space group: P -1
;
_chemical_formula_sum "Si O2"
_cell_formula_units_Z 16
_cell_length_a 19.403958
_cell_length_b 9.621067
_cell_length_c 15.481104
_cell_angle_alpha 78.690797
_cell_angle_beta 18.448692
_cell_angle_gamma 68.842695
_cell_volume 740.802170
_symmetry_space_group_name_H-M "P -1"
_symmetry_group_IT_number 2
_symmetry_cell_setting 'triclinic'
loop_
_space_group_symop_operation_xyz
x,y,z
-x,-y,-z
loop_
_atom_site_type_symbol
_atom_site_label
_atom_site_fract_x
_atom_site_fract_y
_atom_site_fract_z
Si Si1 0.797398 0.279461 0.201209
Si Si2 0.737755 0.468587 0.096505
Si Si3 0.252659 0.682676 0.077419
Si Si4 0.649185 0.765971 0.061343
Si Si5 0.292777 0.202001 0.202875
Si Si6 0.363867 0.690987 0.276988
Si Si7 0.223543 0.012952 0.044191
Si Si8 0.260084 0.982628 0.800942
O O1 0.901443 0.356682 0.998669
O O2 0.556952 0.422045 0.527566
O O3 0.585113 0.240887 0.701750
O O4 0.015856 0.140791 0.022022
O O5 0.305205 0.813966 0.723691
O O6 0.792478 0.604343 0.975152
O O7 0.249969 0.643234 0.984287
O O8 0.974647 0.722604 0.437022
O O9 0.265669 0.845330 0.057322
O O10 0.497199 0.509950 0.850291
O O11 0.786240 0.760281 0.809027
O O12 0.571305 0.938444 0.180930
O O13 0.461877 0.284324 0.002392
O O14 0.500000 0.000000 0.000000
O O15 0.055316 0.817487 0.614829
O O16 0.215185 0.990319 0.955238
O O17 0.500000 0.000000 0.500000
#
# Coordination Sequence:
#
# PCOD9107987 Si02
#       8
#     2   2   2   2   2   2   2   2
#     4  10  22  41  65  88 126 170 208 267 326 367
#     4  10  20  42  66  91 125 167 217 263 318 384
#     4  11  20  39  67  92 125 168 217 253 317 382
#     4   9  22  39  62  91 128 161 204 264 311 371
#     4  10  20  40  66  93 127 170 207 260 315 376
#     4   9  22  41  63  89 127 170 203 261 312 372
#     4  12  22  42  65  92 128 170 211 259 322 374
#     4  11  23  39  62  95 127 164 215 264 316 385
#
# _framework density 21.598208
#
# number of rings (size 3 to 8) (size 9 to 14) (size 15 to 20)
#    0.750    1.000    2.500    2.625    0.000    1.500 
#    4.500    6.250    0.000    0.000    0.000    0.000 
#    0.000    0.000    0.000    0.000    0.000    0.000 
#
# Total GULP energy -89240.807008 kJ/mol
# GULP energy per Si atom -5577.550438 kJ/mol
# Density = 2.154905 g / cm^3
# Si number density = 21.598208 Si / 1000 Ang^3
#
#
#
# Elastic Constant Matrix: (Units=GPa)
#
#
# Indices 1 2 3 4 5 6 
#
# 1 43.9261 26.3253 23.4779 -4.6190 13.1039 2.1014
# 2 26.3253 136.9759 43.2890 -3.5006 4.4686 -23.6743
# 3 23.4779 43.2890 72.1817 12.1181 12.3266 -4.5854
# 4 -4.6190 -3.5006 12.1181 25.0036 -3.8247 3.5231
# 5 13.1039 4.4686 12.3266 -3.8247 22.5425 -7.3429
# 6 2.1014 -23.6743 -4.5854 3.5231 -7.3429 27.4979
#
#
#
# Elastic Compliance Matrix: (Units=1/GPa)
#
#
# Indices 1 2 3 4 5 6 
#
# 1 0.039245 -0.007309 -0.007311 0.008930 -0.021519 -0.017402
# 2 -0.007309 0.012823 -0.006836 0.003523 0.010189 0.012728
# 3 -0.007311 -0.006836 0.024767 -0.015733 -0.011325 -0.002205
# 4 0.008930 0.003523 -0.015733 0.051908 0.010148 -0.004213
# 5 -0.021519 0.010189 -0.011325 0.010148 0.071323 0.026273
# 6 -0.017402 0.012728 -0.002205 -0.004213 0.026273 0.055842
#
#
# Mechanical properties :
#
#
# Convention : Reuss Voigt Hill
#
# Bulk Modulus (GPa) = 29.47891 48.80756 39.14323
# Shear Modulus (GPa) = 16.12240 25.67490 20.89865
#
# Velocity S-wave (km/s) = 2.73512 3.45157 3.11402
# Velocity P-wave (km/s) = 4.86343 6.20737 5.57604
#
# Compressibility (1/GPa) = 0.03392256
#
# Stress axis : x y z
#
# Youngs Moduli (GPa) = 25.48114 77.98410 40.37686
#
# Poissons Ratio (x) = 0.57000 0.29520
# Poissons Ratio (y) = 0.18625 0.27600
# Poissons Ratio (z) = 0.18629 0.53308
#
# Static dielectric constant tensor:
#      x y z
#    x 1.876890 -0.021810 0.059070 
#    y -0.021810 1.826350 -0.012650 
#    z 0.059070 -0.012650 1.808940 
# 
# From -- ./inp_files/540462.got.cif
#   From: 2010.05.17/outbox.cif.g08.bks.cpg/sg2_271_cif.got.tgz:540462.got - 2010.06.03 11:33:40.
