data_PCOD9107118
_publ_section_title
;
Structure prediction by ZEFSAII (Michael W. Deem and Ramdas Pophale) SiO2 
 PCOD9107118
Probable space group: P -1
;
_chemical_formula_sum "Si O2"
_cell_formula_units_Z 16
_cell_length_a 17.327055
_cell_length_b 19.775843
_cell_length_c 7.952231
_cell_angle_alpha 43.117376
_cell_angle_beta 54.672125
_cell_angle_gamma 21.326970
_cell_volume 618.054574
_symmetry_space_group_name_H-M "P -1"
_symmetry_group_IT_number 2
_symmetry_cell_setting 'triclinic'
loop_
_space_group_symop_operation_xyz
x,y,z
-x,-y,-z
loop_
_atom_site_type_symbol
_atom_site_label
_atom_site_fract_x
_atom_site_fract_y
_atom_site_fract_z
Si Si1 0.572231 0.537572 0.489143
Si Si2 0.009860 0.323975 0.057559
Si Si3 0.782757 0.129850 0.105773
Si Si4 0.434149 0.978342 0.995571
Si Si5 0.959440 0.972047 0.816213
Si Si6 0.223504 0.244127 0.451450
Si Si7 0.309934 0.524358 0.942681
Si Si8 0.133303 0.565248 0.607616
O O1 0.668289 0.342566 0.794268
O O2 0.292901 0.795326 0.373979
O O3 0.636196 0.496283 0.284459
O O4 0.688796 0.512381 0.499685
O O5 0.934347 0.510199 0.836267
O O6 0.267958 0.060007 0.148199
O O7 0.821208 0.454205 0.939319
O O8 0.987290 0.295147 0.318142
O O9 0.908910 0.969288 0.069179
O O10 0.561327 0.277067 0.159767
O O11 0.939866 0.017974 0.264195
O O12 0.257921 0.193848 0.694745
O O13 0.500000 0.000000 0.000000
O O14 0.669305 0.708131 0.119628
O O15 0.146355 0.748744 0.857969
O O16 0.077255 0.286818 0.497172
O O17 0.500000 0.000000 0.500000
#
# Coordination Sequence:
#
# PCOD9107118 Si02
#       8
#     2   2   2   2   2   2   2   2
#     4  10  23  40  63  95 126 165 213 259 312 379
#     4  11  23  42  65  97 130 169 219 264 319 387
#     4  10  22  40  64  92 127 168 211 256 315 381
#     4  12  24  42  70  90 129 172 212 270 322 375
#     4  10  20  40  63  86 126 165 208 259 320 361
#     4  12  24  44  69  94 128 177 212 263 327 383
#     4  10  21  39  65  91 129 165 208 265 313 371
#     4  11  24  44  64  95 136 167 216 269 317 379
#
# _framework density 25.887682999999999
#
# number of rings (size 3 to 8) (size 9 to 14) (size 15 to 20)
#    0.000    1.250    2.500    4.125    0.000    4.000 
#    4.500    0.000    2.750    0.000    0.000    0.000 
#    0.000    0.000    0.000    0.000    0.000    0.000 
#
# Total GULP energy -89340.843019 kJ/mol
# GULP energy per Si atom -5583.802689 kJ/mol
# Density = 2.582876 g / cm^3
# Si number density = 25.887683 Si / 1000 Ang^3
#
#
#
# Elastic Constant Matrix: (Units=GPa)
#
#
# Indices 1 2 3 4 5 6 
#
# 1 190.3359 46.0383 17.9205 -11.4568 23.6482 -53.6029
# 2 46.0383 188.5031 18.1107 -21.7629 23.3309 -17.3351
# 3 17.9205 18.1107 50.7975 -17.5894 16.8355 -8.9365
# 4 -11.4568 -21.7629 -17.5894 40.5866 -7.7209 11.5259
# 5 23.6482 23.3309 16.8355 -7.7209 29.3361 -15.2244
# 6 -53.6029 -17.3351 -8.9365 11.5259 -15.2244 53.7817
#
#
#
# Elastic Compliance Matrix: (Units=1/GPa)
#
#
# Indices 1 2 3 4 5 6 
#
# 1 0.007688 -0.001091 -0.001007 -0.001103 -0.001421 0.006977
# 2 -0.001091 0.006271 0.000226 0.002605 -0.003912 -0.000694
# 3 -0.001007 0.000226 0.027516 0.009808 -0.013807 -0.002369
# 4 -0.001103 0.002605 0.009808 0.031319 -0.001572 -0.005787
# 5 -0.001421 -0.003912 -0.013807 -0.001572 0.050931 0.009783
# 6 0.006977 -0.000694 -0.002369 -0.005787 0.009783 0.028940
#
#
# Mechanical properties :
#
#
# Convention : Reuss Voigt Hill
#
# Bulk Modulus (GPa) = 26.50320 65.97506 46.23913
# Shear Modulus (GPa) = 29.58844 47.91202 38.75023
#
# Velocity S-wave (km/s) = 3.38443 4.30672 3.87312
# Velocity P-wave (km/s) = 5.05297 7.09020 6.15643
#
# Compressibility (1/GPa) = 0.03773130
#
# Stress axis : x y z
#
# Youngs Moduli (GPa) = 130.07962 159.46999 36.34243
#
# Poissons Ratio (x) = 0.17392 0.03658
# Poissons Ratio (y) = 0.14186 -0.00820
# Poissons Ratio (z) = 0.13093 -0.03597
#
# Static dielectric constant tensor:
#      x y z
#    x 2.048020 -0.027610 -0.014360 
#    y -0.027610 2.094970 0.001850 
#    z -0.014360 0.001850 2.019610 
# 
# From -- ./inp_files/337578.got.cif
#   From: 2010.05.17/outbox.cif.g08.bks.cpg/sg2_169_cif.got.tgz:337578.got - 2010.06.03 11:33:40.
