data_PCOD9107201
_publ_section_title
;
Structure prediction by ZEFSAII (Michael W. Deem and Ramdas Pophale) SiO2 
 PCOD9107201
Probable space group: P -1
;
_chemical_formula_sum "Si O2"
_cell_formula_units_Z 16
_cell_length_a 19.410273
_cell_length_b 11.226504
_cell_length_c 14.148659
_cell_angle_alpha 151.082048
_cell_angle_beta 31.863492
_cell_angle_gamma 153.132903
_cell_volume 639.821796
_symmetry_space_group_name_H-M "P -1"
_symmetry_group_IT_number 2
_symmetry_cell_setting 'triclinic'
loop_
_space_group_symop_operation_xyz
x,y,z
-x,-y,-z
loop_
_atom_site_type_symbol
_atom_site_label
_atom_site_fract_x
_atom_site_fract_y
_atom_site_fract_z
Si Si1 0.463703 0.307606 0.157645
Si Si2 0.488585 0.748154 0.273270
Si Si3 0.322578 0.419930 0.551279
Si Si4 0.199387 0.615013 0.989295
Si Si5 0.230349 0.254379 0.096617
Si Si6 0.970986 0.229312 0.492621
Si Si7 0.198998 0.487469 0.112823
Si Si8 0.919506 0.637138 0.342767
O O1 0.453385 0.482140 0.202408
O O2 0.476707 0.475805 0.358010
O O3 0.608021 0.276932 0.951492
O O4 0.304266 0.977347 0.127734
O O5 0.355537 0.587420 0.232941
O O6 0.500000 0.000000 0.500000
O O7 0.662904 0.873059 0.112400
O O8 0.310140 0.571832 0.763533
O O9 0.242753 0.499733 0.618386
O O10 0.193896 0.068808 0.484895
O O11 0.163399 0.445365 0.013670
O O12 0.030331 0.546688 0.105736
O O13 0.186568 0.248148 0.033197
O O14 0.066462 0.127764 0.254079
O O15 0.908252 0.413619 0.649026
O O16 0.084796 0.423353 0.583165
O O17 0.000000 0.000000 0.500000
#
# Coordination Sequence:
#
# PCOD9107201 Si02
#       8
#     2   2   2   2   2   2   2   2
#     4  11  22  42  65  88 128 164 203 263 311 366
#     4  10  24  46  66  97 120 158 213 257 311 371
#     4  11  22  36  61  97 125 162 210 255 308 367
#     4  11  22  38  61  93 126 166 204 255 313 366
#     4  10  22  43  70  88 127 169 203 255 311 368
#     4  10  20  40  63  91 127 167 206 253 309 367
#     4  10  22  42  63  86 131 170 208 251 308 366
#     4   9  17  36  57  85 129 153 197 261 304 359
#
# _framework density 25.006965000000001
#
# number of rings (size 3 to 8) (size 9 to 14) (size 15 to 20)
#    0.000    1.750    3.750    1.875    1.750    3.500 
#   11.250    0.625    0.000    0.000    0.000    0.000 
#    0.000    0.000    0.000    0.000    0.000    0.000 
#
# Total GULP energy -89242.262773 kJ/mol
# GULP energy per Si atom -5577.641423 kJ/mol
# Density = 2.495005 g / cm^3
# Si number density = 25.006965 Si / 1000 Ang^3
#
#
#
# Elastic Constant Matrix: (Units=GPa)
#
#
# Indices 1 2 3 4 5 6 
#
# 1 96.5759 11.8121 36.4641 3.2860 -12.1741 -7.4563
# 2 11.8121 39.1869 18.9491 -12.1304 2.2327 -6.1753
# 3 36.4641 18.9491 106.2760 -21.6295 24.0920 1.0775
# 4 3.2860 -12.1304 -21.6295 47.7341 -1.5246 2.5875
# 5 -12.1741 2.2327 24.0920 -1.5246 36.9423 -9.9739
# 6 -7.4563 -6.1753 1.0775 2.5875 -9.9739 15.4040
#
#
#
# Elastic Compliance Matrix: (Units=1/GPa)
#
#
# Indices 1 2 3 4 5 6 
#
# 1 0.021768 0.001429 -0.015489 -0.008975 0.024863 0.029799
# 2 0.001429 0.032591 -0.007732 0.003913 0.008953 0.019438
# 3 -0.015489 -0.007732 0.025588 0.011567 -0.029952 -0.033723
# 4 -0.008975 0.003913 0.011567 0.028300 -0.014325 -0.017614
# 5 0.024863 0.008953 -0.029952 -0.014325 0.071617 0.066497
# 6 0.029799 0.019438 -0.033723 -0.017614 0.066497 0.135509
#
#
# Mechanical properties :
#
#
# Convention : Reuss Voigt Hill
#
# Bulk Modulus (GPa) = 27.49889 41.83215 34.66552
# Shear Modulus (GPa) = 13.47432 31.67030 22.57231
#
# Velocity S-wave (km/s) = 2.32377 3.56260 3.00766
# Velocity P-wave (km/s) = 4.26852 5.80408 5.09449
#
# Compressibility (1/GPa) = 0.03636510
#
# Stress axis : x y z
#
# Youngs Moduli (GPa) = 45.93902 30.68348 39.08047
#
# Poissons Ratio (x) = -0.04386 0.60530
# Poissons Ratio (y) = -0.06566 0.30216
# Poissons Ratio (z) = 0.71153 0.23724
#
# Static dielectric constant tensor:
#      x y z
#    x 2.001560 0.011430 0.008380 
#    y 0.011430 2.035730 0.023290 
#    z 0.008380 0.023290 2.101380 
# 
# From -- ./inp_files/541113.got.cif
#   From: 2010.05.17/outbox.cif.g08.bks.cpg/sg2_271_cif.got.tgz:541113.got - 2010.06.03 11:33:40.
