data_PCOD9107038
_publ_section_title
;
Structure prediction by ZEFSAII (Michael W. Deem and Ramdas Pophale) SiO2 
 PCOD9107038
Probable space group: P -1
;
_chemical_formula_sum "Si O2"
_cell_formula_units_Z 14
_cell_length_a 14.013974
_cell_length_b 10.701666
_cell_length_c 14.074961
_cell_angle_alpha 122.883319
_cell_angle_beta 140.111660
_cell_angle_gamma 30.376699
_cell_volume 636.754569
_symmetry_space_group_name_H-M "P -1"
_symmetry_group_IT_number 2
_symmetry_cell_setting 'triclinic'
loop_
_space_group_symop_operation_xyz
x,y,z
-x,-y,-z
loop_
_atom_site_type_symbol
_atom_site_label
_atom_site_fract_x
_atom_site_fract_y
_atom_site_fract_z
Si Si1 0.930111 0.773397 0.249726
Si Si2 0.700632 0.258943 0.478780
Si Si3 0.661635 0.681888 0.294970
Si Si4 0.613397 0.703721 0.858017
Si Si5 0.616991 0.738322 0.499830
Si Si6 0.167716 0.118641 0.452119
Si Si7 0.169822 0.196992 0.035253
O O1 0.081064 0.800072 0.404086
O O2 0.108393 0.504835 0.332258
O O3 0.622616 0.030348 0.151169
O O4 0.928338 0.764325 0.129936
O O5 0.500000 0.500000 0.500000
O O6 0.510041 0.349320 0.290741
O O7 0.843228 0.994170 0.520845
O O8 0.643963 0.650096 0.379083
O O9 0.748795 0.784996 0.407362
O O10 0.887315 0.391010 0.302800
O O11 0.384899 0.908187 0.122930
O O12 0.681227 0.768263 0.853707
O O13 0.916769 0.422461 0.004434
O O14 0.500000 0.000000 0.500000
O O15 0.385675 0.870064 0.445153
#
# Coordination Sequence:
#
# PCOD9107038 Si02
#       7
#     2   2   2   2   2   2   2
#     4  12  25  42  68 101 127 174 222 268 324 389
#     4  12  21  42  69  93 137 175 220 261 322 395
#     4  10  22  39  66  93 129 169 217 266 329 375
#     4  11  24  40  64  94 135 168 217 268 326 377
#     4  10  22  35  61  95 128 162 215 267 315 383
#     4  10  20  40  62  93 129 171 216 265 316 387
#     4  11  24  42  66  98 134 166 217 278 327 377
#
# _framework density 21.986491999999998
#
# number of rings (size 3 to 8) (size 9 to 14) (size 15 to 20)
#    0.000    1.143    4.286    1.714   10.000    1.143 
#    0.000    0.714    0.000    4.286    0.000    0.000 
#    0.000    0.000    0.000    0.000    0.000    0.000 
#
# Total GULP energy -78069.443272 kJ/mol
# GULP energy per Si atom -5576.388805 kJ/mol
# Density = 2.193645 g / cm^3
# Si number density = 21.986492 Si / 1000 Ang^3
#
#
#
# Elastic Constant Matrix: (Units=GPa)
#
#
# Indices 1 2 3 4 5 6 
#
# 1 72.9390 33.2724 36.0466 -9.3401 9.7683 -2.3137
# 2 33.2724 112.8417 46.5654 -34.5118 1.6178 -16.3969
# 3 36.0466 46.5654 108.7401 -16.8952 -2.3590 -6.3829
# 4 -9.3401 -34.5118 -16.8952 50.3725 4.3940 6.7224
# 5 9.7683 1.6178 -2.3590 4.3940 41.5894 -8.8327
# 6 -2.3137 -16.3969 -6.3829 6.7224 -8.8327 36.4501
#
#
#
# Elastic Compliance Matrix: (Units=1/GPa)
#
#
# Indices 1 2 3 4 5 6 
#
# 1 0.018348 -0.003753 -0.004730 0.000021 -0.004978 -0.002562
# 2 -0.003753 0.014254 -0.003467 0.007312 0.000267 0.004283
# 3 -0.004730 -0.003467 0.012434 0.000649 0.002029 0.000690
# 4 0.000021 0.007312 0.000649 0.025670 -0.003423 -0.002159
# 5 -0.004978 0.000267 0.002029 -0.003423 0.027251 0.007394
# 6 -0.002562 0.004283 0.000690 -0.002159 0.007394 0.031510
#
#
# Mechanical properties :
#
#
# Convention : Reuss Voigt Hill
#
# Bulk Modulus (GPa) = 47.31091 58.47663 52.89377
# Shear Modulus (GPa) = 31.16989 37.59148 34.38069
#
# Velocity S-wave (km/s) = 3.76930 4.13940 3.95868
# Velocity P-wave (km/s) = 6.36462 7.03566 6.70854
#
# Compressibility (1/GPa) = 0.02113677
#
# Stress axis : x y z
#
# Youngs Moduli (GPa) = 54.50282 70.15592 80.42335
#
# Poissons Ratio (x) = 0.26326 0.38043
# Poissons Ratio (y) = 0.20452 0.27880
# Poissons Ratio (z) = 0.25782 0.24320
#
# Static dielectric constant tensor:
#      x y z
#    x 1.873370 -0.043090 0.002410 
#    y -0.043090 1.875900 -0.013260 
#    z 0.002410 -0.013260 1.840040 
# 
# From -- ./inp_files/532607.got.cif
#   From: 2010.05.17/outbox.cif.g08.bks.cpg/sg2_267_cif.got.tgz:532607.got - 2010.06.03 11:33:40.
