data_PCOD9107474
_publ_section_title
;
Structure prediction by ZEFSAII (Michael W. Deem and Ramdas Pophale) SiO2 
 PCOD9107474
Probable space group: P -1
;
_chemical_formula_sum "Si O2"
_cell_formula_units_Z 15
_cell_length_a 16.875953
_cell_length_b 8.382304
_cell_length_c 20.161608
_cell_angle_alpha 132.502108
_cell_angle_beta 160.612685
_cell_angle_gamma 55.799173
_cell_volume 664.210391
_symmetry_space_group_name_H-M "P -1"
_symmetry_group_IT_number 2
_symmetry_cell_setting 'triclinic'
loop_
_space_group_symop_operation_xyz
x,y,z
-x,-y,-z
loop_
_atom_site_type_symbol
_atom_site_label
_atom_site_fract_x
_atom_site_fract_y
_atom_site_fract_z
Si Si1 0.792599 0.196009 0.223303
Si Si2 0.615411 0.703757 0.286696
Si Si3 0.416965 0.724961 0.782973
Si Si4 0.441773 0.075367 0.573189
Si Si5 0.500000 0.500000 0.000000
Si Si6 0.260647 0.429928 0.456411
Si Si7 0.719847 0.450182 0.737123
Si Si8 0.999053 0.258464 0.072997
O O1 0.741511 0.199443 0.263403
O O2 0.087522 0.263139 0.465836
O O3 0.666024 0.368104 0.137312
O O4 0.649504 0.944406 0.013631
O O5 0.493010 0.473200 0.167687
O O6 0.577426 0.906788 0.357554
O O7 0.517970 0.672544 0.126596
O O8 0.257806 0.613978 0.561787
O O9 0.260819 0.198578 0.429672
O O10 0.391103 0.819555 0.438813
O O11 0.721683 0.232064 0.820894
O O12 0.524316 0.516248 0.649135
O O13 0.046945 0.364631 0.214014
O O14 0.779992 0.593122 0.757001
O O15 0.000000 0.500000 0.000000
O O16 0.000000 0.000000 0.000000
#
# Coordination Sequence:
#
# PCOD9107474 Si02
#       8
#     2   2   2   2   1   2   2   2
#     4  10  21  42  65  90 132 163 204 265 317 374
#     4  10  23  40  65  92 131 164 210 258 318 375
#     4   9  21  41  63  93 125 166 206 256 318 376
#     4  11  25  43  62  98 129 173 215 262 321 377
#     4  10  20  40  64  94 120 162 210 252 308 380
#     4  11  23  43  66  94 129 170 217 263 320 378
#     4  12  24  42  68  91 130 171 214 266 321 379
#     4  12  25  43  63  91 132 167 216 271 312 378
#
# _framework density 22.583205
#
# number of rings (size 3 to 8) (size 9 to 14) (size 15 to 20)
#    0.000    1.333    2.667    3.200    1.867    4.267 
#    0.000   10.667    0.000    0.000    0.000    0.000 
#    0.000    0.000    0.000    0.000    0.000    0.000 
#
# Total GULP energy -83606.941998 kJ/mol
# GULP energy per Si atom -5573.796133 kJ/mol
# Density = 2.253180 g / cm^3
# Si number density = 22.583205 Si / 1000 Ang^3
#
#
#
# Elastic Constant Matrix: (Units=GPa)
#
#
# Indices 1 2 3 4 5 6 
#
# 1 111.4615 15.0217 43.6831 7.9434 -29.8621 -0.7991
# 2 15.0217 41.3056 33.0687 13.6704 -0.0410 3.7549
# 3 43.6831 33.0687 113.5931 18.2291 -13.2981 9.3718
# 4 7.9434 13.6704 18.2291 29.0526 -2.4415 -4.3606
# 5 -29.8621 -0.0410 -13.2981 -2.4415 42.5602 3.2635
# 6 -0.7991 3.7549 9.3718 -4.3606 3.2635 29.0325
#
#
#
# Elastic Compliance Matrix: (Units=1/GPa)
#
#
# Indices 1 2 3 4 5 6 
#
# 1 0.012677 -0.002022 -0.003539 0.000500 0.007742 0.000958
# 2 -0.002022 0.035545 -0.007836 -0.012135 -0.004263 -0.003467
# 3 -0.003539 -0.007836 0.013748 -0.004474 0.001886 -0.004406
# 4 0.000500 -0.012135 -0.004474 0.044304 0.000747 0.009598
# 5 0.007742 -0.004263 0.001886 0.000747 0.029792 -0.003081
# 6 0.000958 -0.003467 -0.004406 0.009598 -0.003081 0.038129
#
#
# Mechanical properties :
#
#
# Convention : Reuss Voigt Hill
#
# Bulk Modulus (GPa) = 28.42858 49.98971 39.20915
# Shear Modulus (GPa) = 23.50564 31.76816 27.63690
#
# Velocity S-wave (km/s) = 3.22971 3.75469 3.50205
# Velocity P-wave (km/s) = 5.15012 6.40162 5.80967
#
# Compressibility (1/GPa) = 0.03517587
#
# Stress axis : x y z
#
# Youngs Moduli (GPa) = 78.88510 28.13304 72.73833
#
# Poissons Ratio (x) = 0.05687 0.25745
# Poissons Ratio (y) = 0.15947 0.56998
# Poissons Ratio (z) = 0.27921 0.22045
#
# Static dielectric constant tensor:
#      x y z
#    x 1.906180 0.051100 0.011080 
#    y 0.051100 1.723880 -0.041160 
#    z 0.011080 -0.041160 1.853740 
# 
# From -- ./inp_files/599574.got.cif
#   From: 2010.05.17/outbox.cif.g08.bks.cpg/sg2_300_cif.got.tgz:599574.got - 2010.06.03 11:33:40.
