data_PCOD9107685
_publ_section_title
;
Structure prediction by ZEFSAII (Michael W. Deem and Ramdas Pophale) SiO2 
 PCOD9107685
Probable space group: P -1
;
_chemical_formula_sum "Si O2"
_cell_formula_units_Z 16
_cell_length_a 18.590980
_cell_length_b 8.880759
_cell_length_c 14.477900
_cell_angle_alpha 138.466812
_cell_angle_beta 31.739154
_cell_angle_gamma 148.815361
_cell_volume 649.160415
_symmetry_space_group_name_H-M "P -1"
_symmetry_group_IT_number 2
_symmetry_cell_setting 'triclinic'
loop_
_space_group_symop_operation_xyz
x,y,z
-x,-y,-z
loop_
_atom_site_type_symbol
_atom_site_label
_atom_site_fract_x
_atom_site_fract_y
_atom_site_fract_z
Si Si1 0.757427 0.206932 0.967651
Si Si2 0.973777 0.737318 0.613638
Si Si3 0.660632 0.736712 0.996757
Si Si4 0.197336 0.287753 0.903959
Si Si5 0.417613 0.060485 0.533798
Si Si6 0.284876 0.329156 0.509411
Si Si7 0.514157 0.330659 0.116669
Si Si8 0.891563 0.580931 0.425324
O O1 0.937511 0.345595 0.777877
O O2 0.745582 0.046914 0.001324
O O3 0.592815 0.938991 0.961698
O O4 0.771909 0.488547 0.103428
O O5 0.804356 0.686961 0.815548
O O6 0.957270 0.756035 0.529349
O O7 0.000000 0.500000 0.500000
O O8 0.144820 0.060047 0.602963
O O9 0.500000 0.500000 0.000000
O O10 0.559803 0.620109 0.150444
O O11 0.304176 0.168094 0.725771
O O12 0.291117 0.527867 0.995413
O O13 0.000000 0.000000 0.000000
O O14 0.588054 0.353905 0.436542
O O15 0.500000 0.000000 0.500000
O O16 0.266905 0.742621 0.512178
O O17 0.397489 0.250846 0.298041
O O18 0.194829 0.361452 0.535066
#
# Coordination Sequence:
#
# PCOD9107685 Si02
#       8
#     2   2   2   2   2   2   2   2
#     4  11  20  36  64  90 122 160 205 252 308 359
#     4  12  25  37  63  97 124 157 211 256 304 361
#     4  10  23  40  59  94 130 157 199 263 311 358
#     4  11  22  36  61  92 122 162 209 245 302 376
#     4   9  21  38  63  90 119 158 211 252 294 366
#     4  10  20  40  65  92 118 168 210 245 302 378
#     4  10  22  39  64  91 126 161 206 254 310 359
#     4  11  19  38  65  88 120 165 205 248 306 366
#
# _framework density 24.647221999999999
#
# number of rings (size 3 to 8) (size 9 to 14) (size 15 to 20)
#    0.000    1.500    3.750    2.250    1.750    4.000 
#    0.000    1.250    0.000    6.000    0.000    0.000 
#    0.000    0.000    0.000    0.000    0.000    0.000 
#
# Total GULP energy -89159.259585 kJ/mol
# GULP energy per Si atom -5572.453724 kJ/mol
# Density = 2.459112 g / cm^3
# Si number density = 24.647222 Si / 1000 Ang^3
#
#
#
# Elastic Constant Matrix: (Units=GPa)
#
#
# Indices 1 2 3 4 5 6 
#
# 1 30.5697 37.4278 32.7526 -9.2771 -16.7699 2.0294
# 2 37.4278 216.7044 51.1717 -9.9091 -24.1662 8.6214
# 3 32.7526 51.1717 106.0368 -8.4967 -25.7310 -7.2086
# 4 -9.2771 -9.9091 -8.4967 38.2451 -1.1620 -11.0120
# 5 -16.7699 -24.1662 -25.7310 -1.1620 34.6418 -4.2910
# 6 2.0294 8.6214 -7.2086 -11.0120 -4.2910 35.3499
#
#
#
# Elastic Compliance Matrix: (Units=1/GPa)
#
#
# Indices 1 2 3 4 5 6 
#
# 1 0.068258 -0.006135 -0.011922 0.013476 0.020589 0.001844
# 2 -0.006135 0.005986 -0.001100 -0.000608 0.000183 -0.001499
# 3 -0.011922 -0.001100 0.015581 0.002034 0.005780 0.005465
# 4 0.013476 -0.000608 0.002034 0.033299 0.010139 0.011393
# 5 0.020589 0.000183 0.005780 0.010139 0.044651 0.008530
# 6 0.001844 -0.001499 0.005465 0.011393 0.008530 0.034247
#
#
# Mechanical properties :
#
#
# Convention : Reuss Voigt Hill
#
# Bulk Modulus (GPa) = 19.41304 66.22389 42.81846
# Shear Modulus (GPa) = 19.41693 37.11129 28.26411
#
# Velocity S-wave (km/s) = 2.80981 3.88454 3.39004
# Velocity P-wave (km/s) = 4.29187 6.85905 5.72131
#
# Compressibility (1/GPa) = 0.05151178
#
# Stress axis : x y z
#
# Youngs Moduli (GPa) = 14.65021 167.05045 64.18096
#
# Poissons Ratio (x) = 1.02488 0.76514
# Poissons Ratio (y) = 0.08988 0.07060
# Poissons Ratio (z) = 0.17465 0.18377
#
# Static dielectric constant tensor:
#      x y z
#    x 2.083060 -0.047830 -0.015630 
#    y -0.047830 2.066560 -0.016190 
#    z -0.015630 -0.016190 2.002370 
# 
# From -- ./inp_files/577629.got.cif
#   From: 2010.05.17/outbox.cif.g08.bks.cpg/sg2_289_cif.got.tgz:577629.got - 2010.06.03 11:33:40.
