data_PCOD9107993
_publ_section_title
;
Structure prediction by ZEFSAII (Michael W. Deem and Ramdas Pophale) SiO2 
 PCOD9107993
Probable space group: P -1
;
_chemical_formula_sum "Si O2"
_cell_formula_units_Z 16
_cell_length_a 20.201107
_cell_length_b 24.767890
_cell_length_c 5.367550
_cell_angle_alpha 113.035228
_cell_angle_beta 102.839142
_cell_angle_gamma 18.187939
_cell_volume 658.659209
_symmetry_space_group_name_H-M "P -1"
_symmetry_group_IT_number 2
_symmetry_cell_setting 'triclinic'
loop_
_space_group_symop_operation_xyz
x,y,z
-x,-y,-z
loop_
_atom_site_type_symbol
_atom_site_label
_atom_site_fract_x
_atom_site_fract_y
_atom_site_fract_z
Si Si1 0.869216 0.582176 0.295310
Si Si2 0.579601 0.000599 0.585127
Si Si3 0.742733 0.459207 0.577604
Si Si4 0.178957 0.736944 0.745490
Si Si5 0.927546 0.398202 0.953989
Si Si6 0.251596 0.056406 0.000955
Si Si7 0.905263 0.142779 0.605218
Si Si8 0.314108 0.872640 0.676500
O O1 0.581693 0.837535 0.477569
O O2 0.000000 0.500000 0.500000
O O3 0.000000 0.500000 0.000000
O O4 0.867429 0.513344 0.197090
O O5 0.500000 0.000000 0.500000
O O6 0.875506 0.751161 0.368590
O O7 0.547382 0.070241 0.919200
O O8 0.562937 0.632171 0.523653
O O9 0.701892 0.424259 0.524712
O O10 0.725262 0.521625 0.897422
O O11 0.030410 0.221811 0.305632
O O12 0.210271 0.756005 0.580901
O O13 0.254190 0.698609 0.011474
O O14 0.883601 0.973360 0.984568
O O15 0.096209 0.222144 0.969585
O O16 0.354833 0.907767 0.732339
O O17 0.000000 0.000000 0.500000
O O18 0.151856 0.979060 0.514057
#
# Coordination Sequence:
#
# PCOD9107993 Si02
#       8
#     2   2   2   2   2   2   2   2
#     4  12  27  43  63  91 121 158 205 256 315 380
#     4  11  23  41  62  86 124 158 209 254 323 372
#     4  10  21  40  62  94 122 165 211 260 310 371
#     4   9  21  39  63  91 129 166 205 257 306 362
#     4  11  24  39  66  87 123 164 208 263 318 377
#     4  10  22  39  62  92 120 164 206 262 314 376
#     4  10  20  40  66  93 132 171 207 254 310 363
#     4   9  21  38  64  89 127 163 210 255 310 369
#
# _framework density 24.291772999999999
#
# number of rings (size 3 to 8) (size 9 to 14) (size 15 to 20)
#    0.750    1.000    1.250    2.625    3.500    3.000 
#    0.000    1.250    0.000    0.000    0.000    0.000 
#    0.000    0.000    0.000    0.000    0.000    0.000 
#
# Total GULP energy -89235.165572 kJ/mol
# GULP energy per Si atom -5577.197848 kJ/mol
# Density = 2.423648 g / cm^3
# Si number density = 24.291773 Si / 1000 Ang^3
#
#
#
# Elastic Constant Matrix: (Units=GPa)
#
#
# Indices 1 2 3 4 5 6 
#
# 1 111.8706 15.7458 43.4086 -4.1903 23.4113 12.8149
# 2 15.7458 84.1457 20.8729 -17.3355 2.6919 -1.0423
# 3 43.4086 20.8729 58.9510 -14.9113 8.2997 -5.5123
# 4 -4.1903 -17.3355 -14.9113 45.0499 3.4958 2.9803
# 5 23.4113 2.6919 8.2997 3.4958 38.6939 4.8320
# 6 12.8149 -1.0423 -5.5123 2.9803 4.8320 48.5811
#
#
#
# Elastic Compliance Matrix: (Units=1/GPa)
#
#
# Indices 1 2 3 4 5 6 
#
# 1 0.014883 -0.000283 -0.010830 -0.001550 -0.005964 -0.004473
# 2 -0.000283 0.013675 -0.003571 0.004098 -0.000353 -0.000254
# 3 -0.010830 -0.003571 0.028525 0.006734 -0.000633 0.005667
# 4 -0.001550 0.004098 0.006734 0.026105 -0.003147 -0.000028
# 5 -0.005964 -0.000353 -0.000633 -0.003147 0.030060 -0.001303
# 6 -0.004473 -0.000254 0.005667 -0.000028 -0.001303 0.022533
#
#
# Mechanical properties :
#
#
# Convention : Reuss Voigt Hill
#
# Bulk Modulus (GPa) = 36.08081 46.11352 41.09717
# Shear Modulus (GPa) = 28.67172 38.12764 33.39968
#
# Velocity S-wave (km/s) = 3.43929 3.96608 3.71204
# Velocity P-wave (km/s) = 5.53687 6.32435 5.94367
#
# Compressibility (1/GPa) = 0.02771556
#
# Stress axis : x y z
#
# Youngs Moduli (GPa) = 67.18937 73.12407 35.05710
#
# Poissons Ratio (x) = 0.02067 0.37967
# Poissons Ratio (y) = 0.01899 0.12520
# Poissons Ratio (z) = 0.72766 0.26115
#
# Static dielectric constant tensor:
#      x y z
#    x 2.191410 -0.162180 0.033900 
#    y -0.162180 1.963850 -0.050870 
#    z 0.033900 -0.050870 2.194650 
# 
# From -- ./inp_files/120665.got.cif
#   From: 2010.05.17/outbox.cif.g08.bks.cpg/sg2_61_cif.got.tgz:120665.got - 2010.06.03 11:33:40.
