data_PCOD9107499
_publ_section_title
;
Structure prediction by ZEFSAII (Michael W. Deem and Ramdas Pophale) SiO2 
 PCOD9107499
Probable space group: P -1
;
_chemical_formula_sum "Si O2"
_cell_formula_units_Z 16
_cell_length_a 9.992756
_cell_length_b 14.805945
_cell_length_c 7.533505
_cell_angle_alpha 118.660377
_cell_angle_beta 117.153087
_cell_angle_gamma 102.050238
_cell_volume 728.096644
_symmetry_space_group_name_H-M "P -1"
_symmetry_group_IT_number 2
_symmetry_cell_setting 'triclinic'
loop_
_space_group_symop_operation_xyz
x,y,z
-x,-y,-z
loop_
_atom_site_type_symbol
_atom_site_label
_atom_site_fract_x
_atom_site_fract_y
_atom_site_fract_z
Si Si1 0.991374 0.630093 0.229543
Si Si2 0.358643 0.991210 0.267709
Si Si3 0.318817 0.864189 0.657536
Si Si4 0.266484 0.163983 0.283204
Si Si5 0.985999 0.742242 0.704954
Si Si6 0.525881 0.269358 0.226187
Si Si7 0.175768 0.042301 0.753802
Si Si8 0.852083 0.525980 0.699036
O O1 0.172050 0.740996 0.345519
O O2 0.976575 0.697265 0.455281
O O3 0.027592 0.529900 0.235249
O O4 0.841476 0.574514 0.933763
O O5 0.500000 0.000000 0.500000
O O6 0.485090 0.047749 0.224437
O O7 0.305994 0.088791 0.375366
O O8 0.178776 0.860801 0.994156
O O9 0.362877 0.796277 0.773189
O O10 0.232222 0.944338 0.689709
O O11 0.448162 0.257182 0.368585
O O12 0.162327 0.224100 0.337797
O O13 0.850655 0.936125 0.036385
O O14 0.936792 0.632708 0.707408
O O15 0.662502 0.411486 0.405322
O O16 0.343871 0.177237 0.923536
O O17 0.000000 0.000000 0.500000
#
# Coordination Sequence:
#
# PCOD9107499 Si02
#       8
#     2   2   2   2   2   2   2   2
#     4  10  23  40  69  94 132 178 221 282 327 393
#     4  11  24  39  65  96 133 178 219 278 337 395
#     4  10  20  40  64  95 123 168 227 267 327 392
#     4   9  23  42  58  97 137 169 216 277 337 398
#     4  12  24  41  66  99 138 172 220 282 337 395
#     4   8  20  39  68  87 131 175 219 276 315 396
#     4  10  21  36  67  97 129 166 214 269 339 391
#     4  10  22  43  65  97 130 178 234 265 328 399
#
# _framework density 21.975106
#
# number of rings (size 3 to 8) (size 9 to 14) (size 15 to 20)
#    0.750    1.250    0.000    2.625    7.000    1.500 
#    0.000    0.625    0.000    0.000    0.000    0.000 
#    0.000    0.000    0.000    0.000    0.000    0.000 
#
# Total GULP energy -89201.622057 kJ/mol
# GULP energy per Si atom -5575.101379 kJ/mol
# Density = 2.192509 g / cm^3
# Si number density = 21.975106 Si / 1000 Ang^3
#
#
#
# Elastic Constant Matrix: (Units=GPa)
#
#
# Indices 1 2 3 4 5 6 
#
# 1 101.9317 30.5908 22.4979 12.0364 3.4839 -16.3498
# 2 30.5908 105.3061 55.4770 32.1561 13.2236 6.9829
# 3 22.4979 55.4770 102.4835 17.0044 16.1643 -4.0933
# 4 12.0364 32.1561 17.0044 41.0154 -0.3622 4.3109
# 5 3.4839 13.2236 16.1643 -0.3622 27.0781 -1.8271
# 6 -16.3498 6.9829 -4.0933 4.3109 -1.8271 22.1583
#
#
#
# Elastic Compliance Matrix: (Units=1/GPa)
#
#
# Indices 1 2 3 4 5 6 
#
# 1 0.013048 -0.004106 -0.000071 -0.001763 0.001111 0.011343
# 2 -0.004106 0.018556 -0.007127 -0.009512 -0.004997 -0.008756
# 3 -0.000071 -0.007127 0.014790 -0.001064 -0.005036 0.004717
# 4 -0.001763 -0.009512 -0.001064 0.033322 0.005648 -0.004517
# 5 0.001111 -0.004997 -0.005036 0.005648 0.042571 0.003876
# 6 0.011343 -0.008756 0.004717 -0.004517 0.003876 0.058329
#
#
# Mechanical properties :
#
#
# Convention : Reuss Voigt Hill
#
# Bulk Modulus (GPa) = 42.04116 58.53920 50.29018
# Shear Modulus (GPa) = 23.67951 31.46073 27.57012
#
# Velocity S-wave (km/s) = 3.28618 3.78782 3.54589
# Velocity P-wave (km/s) = 5.79409 6.76955 6.30073
#
# Compressibility (1/GPa) = 0.02378621
#
# Stress axis : x y z
#
# Youngs Moduli (GPa) = 76.63894 53.89036 67.61148
#
# Poissons Ratio (x) = 0.22129 0.00482
# Poissons Ratio (y) = 0.31470 0.48185
# Poissons Ratio (z) = 0.00546 0.38406
#
# Static dielectric constant tensor:
#      x y z
#    x 1.889790 0.061160 -0.044890 
#    y 0.061160 1.875040 -0.034920 
#    z -0.044890 -0.034920 1.883200 
# 
# From -- ./inp_files/208831.got.cif
#   From: 2010.05.17/outbox.cif.g08.bks.cpg/sg2_105_cif.got.tgz:208831.got - 2010.06.03 11:33:40.
