data_PCOD9107979
_publ_section_title
;
Structure prediction by ZEFSAII (Michael W. Deem and Ramdas Pophale) SiO2 
 PCOD9107979
Probable space group: P -1
;
_chemical_formula_sum "Si O2"
_cell_formula_units_Z 16
_cell_length_a 11.818317
_cell_length_b 14.772177
_cell_length_c 15.019760
_cell_angle_alpha 152.661001
_cell_angle_beta 138.971458
_cell_angle_gamma 39.592488
_cell_volume 745.315150
_symmetry_space_group_name_H-M "P -1"
_symmetry_group_IT_number 2
_symmetry_cell_setting 'triclinic'
loop_
_space_group_symop_operation_xyz
x,y,z
-x,-y,-z
loop_
_atom_site_type_symbol
_atom_site_label
_atom_site_fract_x
_atom_site_fract_y
_atom_site_fract_z
Si Si1 0.230146 0.131849 0.131808
Si Si2 0.960965 0.517362 0.386466
Si Si3 0.790134 0.105264 0.488673
Si Si4 0.586423 0.449972 0.789458
Si Si5 0.453461 0.111897 0.760229
Si Si6 0.462572 0.307989 0.759793
Si Si7 0.482028 0.807698 0.762686
Si Si8 0.728361 0.311227 0.315336
O O1 0.040152 0.284927 0.188975
O O2 0.327005 0.257102 0.234435
O O3 0.371712 0.041602 0.217971
O O4 0.220682 0.927035 0.897202
O O5 0.085155 0.640141 0.522984
O O6 0.000000 0.500000 0.500000
O O7 0.749661 0.622713 0.331843
O O8 0.738221 0.329312 0.702755
O O9 0.672124 0.123709 0.344930
O O10 0.715574 0.964923 0.387351
O O11 0.000000 0.000000 0.500000
O O12 0.575642 0.292250 0.722988
O O13 0.394175 0.531611 0.694074
O O14 0.599843 0.659269 0.025007
O O15 0.502173 0.130284 0.702641
O O16 0.500000 0.500000 0.000000
O O17 0.409741 0.669979 0.667426
O O18 0.500000 0.000000 0.000000
#
# Coordination Sequence:
#
# PCOD9107979 Si02
#       8
#     2   2   2   2   2   2   2   2
#     4   9  21  42  65  92 126 166 206 257 309 371
#     4  12  24  39  63  97 127 157 217 264 297 370
#     4  11  24  40  62  94 126 158 210 257 304 376
#     4  10  21  43  64  87 127 166 201 258 313 370
#     4   9  21  43  65  88 126 172 201 248 327 369
#     4  10  23  45  62  91 130 167 207 257 320 374
#     4   9  20  41  64  90 125 159 205 254 311 368
#     4  10  20  40  66  93 121 162 210 255 313 358
#
# _framework density 21.467428999999999
#
# number of rings (size 3 to 8) (size 9 to 14) (size 15 to 20)
#    0.000    2.000    1.250    2.250    1.750    3.500 
#    9.000    0.000    0.000    0.000    0.000    0.000 
#    0.000    0.000    0.000    0.000    0.000    0.000 
#
# Total GULP energy -89366.733897 kJ/mol
# GULP energy per Si atom -5585.420869 kJ/mol
# Density = 2.141857 g / cm^3
# Si number density = 21.467429 Si / 1000 Ang^3
#
#
#
# Elastic Constant Matrix: (Units=GPa)
#
#
# Indices 1 2 3 4 5 6 
#
# 1 88.3428 21.1217 30.9712 -1.6751 -16.4769 17.6339
# 2 21.1217 25.9072 23.0960 1.9934 -9.4707 3.2141
# 3 30.9712 23.0960 79.1922 3.9312 -8.0331 -0.1924
# 4 -1.6751 1.9934 3.9312 29.2778 -0.2071 0.1815
# 5 -16.4769 -9.4707 -8.0331 -0.2071 38.0532 7.9413
# 6 17.6339 3.2141 -0.1924 0.1815 7.9413 46.8550
#
#
#
# Elastic Compliance Matrix: (Units=1/GPa)
#
#
# Indices 1 2 3 4 5 6 
#
# 1 0.017083 -0.007373 -0.004025 0.002107 0.006184 -0.006996
# 2 -0.007373 0.061073 -0.013818 -0.002637 0.009725 -0.003109
# 3 -0.004025 -0.013818 0.018126 -0.001755 -0.001965 0.002877
# 4 0.002107 -0.002637 -0.001755 0.034698 0.000240 -0.000794
# 5 0.006184 0.009725 -0.001965 0.000240 0.032748 -0.008554
# 6 -0.006996 -0.003109 0.002877 -0.000794 -0.008554 0.025653
#
#
# Mechanical properties :
#
#
# Convention : Reuss Voigt Hill
#
# Bulk Modulus (GPa) = 21.81030 38.20222 30.00626
# Shear Modulus (GPa) = 19.60030 30.72076 25.16053
#
# Velocity S-wave (km/s) = 3.02491 3.78701 3.42721
# Velocity P-wave (km/s) = 4.73095 6.07915 5.44692
#
# Compressibility (1/GPa) = 0.04584990
#
# Stress axis : x y z
#
# Youngs Moduli (GPa) = 58.53686 16.37390 55.16802
#
# Poissons Ratio (x) = 0.12072 0.22206
# Poissons Ratio (y) = 0.43159 0.76233
# Poissons Ratio (z) = 0.23562 0.22626
#
# Static dielectric constant tensor:
#      x y z
#    x 1.764950 0.052470 -0.033810 
#    y 0.052470 1.736930 0.040750 
#    z -0.033810 0.040750 1.831140 
# 
# From -- ./inp_files/521748.got.cif
#   From: 2010.05.17/outbox.cif.g08.bks.cpg/sg2_261_cif.got.tgz:521748.got - 2010.06.03 11:33:40.
