data_PCOD9107915
_publ_section_title
;
Structure prediction by ZEFSAII (Michael W. Deem and Ramdas Pophale) SiO2 
 PCOD9107915
Probable space group: P -1
;
_chemical_formula_sum "Si O2"
_cell_formula_units_Z 14
_cell_length_a 9.892146
_cell_length_b 13.361420
_cell_length_c 7.005689
_cell_angle_alpha 131.077526
_cell_angle_beta 59.556680
_cell_angle_gamma 128.520766
_cell_volume 538.603996
_symmetry_space_group_name_H-M "P -1"
_symmetry_group_IT_number 2
_symmetry_cell_setting 'triclinic'
loop_
_space_group_symop_operation_xyz
x,y,z
-x,-y,-z
loop_
_atom_site_type_symbol
_atom_site_label
_atom_site_fract_x
_atom_site_fract_y
_atom_site_fract_z
Si Si1 0.072071 0.488422 0.723364
Si Si2 0.290302 0.043466 0.132993
Si Si3 0.611694 0.947250 0.483107
Si Si4 0.999961 0.166786 0.479093
Si Si5 0.485348 0.647075 0.631821
Si Si6 0.375939 0.330147 0.846571
Si Si7 0.007952 0.741580 0.957699
O O1 0.039399 0.316965 0.519526
O O2 0.986908 0.210473 0.763005
O O3 0.992786 0.576839 0.762356
O O4 0.000000 0.500000 0.000000
O O5 0.372454 0.034627 0.272858
O O6 0.442341 0.192243 0.117087
O O7 0.130129 0.090452 0.292489
O O8 0.189750 0.873429 0.916841
O O9 0.543366 0.774688 0.270726
O O10 0.500000 0.000000 0.500000
O O11 0.812976 0.039097 0.394593
O O12 0.279748 0.588526 0.678086
O O13 0.500000 0.500000 0.500000
O O14 0.614522 0.688335 0.409460
O O15 0.180858 0.275466 0.994500
O O16 0.500000 0.500000 0.000000
#
# Coordination Sequence:
#
# PCOD9107915 Si02
#       7
#     2   2   2   2   2   2   2
#     4  10  21  33  59  96 121 151 203 263 308 352
#     4  10  18  36  64  86 122 164 208 255 305 369
#     4  10  20  34  58  92 122 166 207 245 311 377
#     4  10  16  35  61  87 117 160 209 249 301 370
#     4  11  20  38  64  93 122 159 216 259 303 367
#     4  11  23  39  64  92 130 165 202 256 320 372
#     4  10  18  36  58  90 119 159 206 250 306 365
#
# _framework density 25.993122
#
# number of rings (size 3 to 8) (size 9 to 14) (size 15 to 20)
#    0.000    1.714    5.714    1.714    2.000    0.571 
#    2.571    0.714    0.000    1.714    0.000    0.000 
#    0.000    0.000    0.000    0.000    0.000    0.000 
#
# Total GULP energy -78121.572430 kJ/mol
# GULP energy per Si atom -5580.112316 kJ/mol
# Density = 2.593396 g / cm^3
# Si number density = 25.993122 Si / 1000 Ang^3
#
#
#
# Elastic Constant Matrix: (Units=GPa)
#
#
# Indices 1 2 3 4 5 6 
#
# 1 111.0941 16.2462 31.1591 20.2626 -31.9429 -7.9852
# 2 16.2462 100.9274 42.6885 34.6885 1.6501 -4.8280
# 3 31.1591 42.6885 101.9464 30.6412 -7.1347 -18.0622
# 4 20.2626 34.6885 30.6412 67.5283 -6.7423 -3.1545
# 5 -31.9429 1.6501 -7.1347 -6.7423 39.8621 15.8917
# 6 -7.9852 -4.8280 -18.0622 -3.1545 15.8917 56.7851
#
#
#
# Elastic Compliance Matrix: (Units=1/GPa)
#
#
# Indices 1 2 3 4 5 6 
#
# 1 0.013065 -0.000694 -0.002973 -0.001256 0.010636 -0.002214
# 2 -0.000694 0.013584 -0.004065 -0.005195 -0.002831 0.000268
# 3 -0.002973 -0.004065 0.014019 -0.003381 -0.001885 0.004035
# 4 -0.001256 -0.005195 -0.003381 0.019571 0.002426 -0.001285
# 5 0.010636 -0.002831 -0.001885 0.002426 0.037689 -0.009758
# 6 -0.002214 0.000268 0.004035 -0.001285 -0.009758 0.021265
#
#
# Mechanical properties :
#
#
# Convention : Reuss Voigt Hill
#
# Bulk Modulus (GPa) = 39.67557 54.90617 47.29087
# Shear Modulus (GPa) = 34.95098 47.76004 41.35551
#
# Velocity S-wave (km/s) = 3.67089 4.29115 3.99308
# Velocity P-wave (km/s) = 5.76752 6.76174 6.28432
#
# Compressibility (1/GPa) = 0.02520442
#
# Stress axis : x y z
#
# Youngs Moduli (GPa) = 76.54134 73.61630 71.33132
#
# Poissons Ratio (x) = 0.05105 0.21207
# Poissons Ratio (y) = 0.05308 0.28998
# Poissons Ratio (z) = 0.22756 0.29927
#
# Static dielectric constant tensor:
#      x y z
#    x 2.064190 -0.059060 0.038310 
#    y -0.059060 2.085560 -0.050700 
#    z 0.038310 -0.050700 2.314530 
# 
# From -- ./inp_files/393067.got.cif
#   From: 2010.05.17/outbox.cif.g08.bks.cpg/sg2_197_cif.got.tgz:393067.got - 2010.06.03 11:33:40.
