data_PCOD9107303
_publ_section_title
;
Structure prediction by ZEFSAII (Michael W. Deem and Ramdas Pophale) SiO2 
 PCOD9107303
Probable space group: P -1
;
_chemical_formula_sum "Si O2"
_cell_formula_units_Z 16
_cell_length_a 5.609631
_cell_length_b 25.796213
_cell_length_c 5.053141
_cell_angle_alpha 119.815578
_cell_angle_beta 96.283229
_cell_angle_gamma 105.517822
_cell_volume 585.031568
_symmetry_space_group_name_H-M "P -1"
_symmetry_group_IT_number 2
_symmetry_cell_setting 'triclinic'
loop_
_space_group_symop_operation_xyz
x,y,z
-x,-y,-z
loop_
_atom_site_type_symbol
_atom_site_label
_atom_site_fract_x
_atom_site_fract_y
_atom_site_fract_z
Si Si1 0.258763 0.917526 0.661141
Si Si2 0.773330 0.841993 0.073885
Si Si3 0.202842 0.636927 0.479556
Si Si4 0.259052 0.485125 0.737600
Si Si5 0.555328 0.603895 0.802257
Si Si6 0.920872 0.300815 0.859476
Si Si7 0.207686 0.815955 0.797251
Si Si8 0.257725 0.049048 0.030874
O O1 0.268911 0.889519 0.891075
O O2 0.976063 0.874212 0.416624
O O3 0.326527 0.991051 0.765803
O O4 0.537925 0.914086 0.619280
O O5 0.796992 0.901170 0.034836
O O6 0.457678 0.809544 0.959643
O O7 0.929076 0.798839 0.861624
O O8 0.460165 0.631512 0.608873
O O9 0.230719 0.669908 0.285077
O O10 0.994096 0.563436 0.274167
O O11 0.114908 0.678044 0.794435
O O12 0.304877 0.555151 0.801539
O O13 0.299302 0.442434 0.394125
O O14 0.500000 0.500000 0.000000
O O15 0.781672 0.663276 0.107454
O O16 0.830496 0.226836 0.580859
O O17 0.000000 0.000000 0.000000
#
# Coordination Sequence:
#
# PCOD9107303 Si02
#       8
#     2   2   2   2   2   2   2   2
#     4  10  23  41  66  96 139 176 224 287 350 421
#     4  11  25  43  70  98 134 181 230 286 357 412
#     4  11  25  43  69  98 134 183 227 285 354 416
#     4  10  20  40  65 101 137 168 226 282 349 427
#     4  10  23  41  67  96 138 177 221 288 349 420
#     4  11  27  45  65  99 134 180 242 283 345 421
#     4  11  27  45  66  99 134 180 240 288 343 420
#     4  10  20  40  64 101 136 172 224 283 350 427
#
# _framework density 27.348951
#
# number of rings (size 3 to 8) (size 9 to 14) (size 15 to 20)
#    0.000    1.500    2.500    0.750    7.000    2.000 
#    0.000    0.000    0.000    0.000    0.000    0.000 
#    0.000    0.000    0.000    0.000    0.000    0.000 
#
# Total GULP energy -89231.662636 kJ/mol
# GULP energy per Si atom -5576.978915 kJ/mol
# Density = 2.728670 g / cm^3
# Si number density = 27.348951 Si / 1000 Ang^3
#
#
#
# Elastic Constant Matrix: (Units=GPa)
#
#
# Indices 1 2 3 4 5 6 
#
# 1 136.0166 32.4881 40.2836 -8.0161 26.6646 -28.2528
# 2 32.4881 100.7814 18.4011 9.5393 15.5466 -7.1321
# 3 40.2836 18.4011 108.5771 10.5880 17.2813 -6.9825
# 4 -8.0161 9.5393 10.5880 43.0427 -5.2271 13.9460
# 5 26.6646 15.5466 17.2813 -5.2271 45.0692 -12.9955
# 6 -28.2528 -7.1321 -6.9825 13.9460 -12.9955 39.2346
#
#
#
# Elastic Compliance Matrix: (Units=1/GPa)
#
#
# Indices 1 2 3 4 5 6 
#
# 1 0.010395 -0.002146 -0.002829 0.001055 -0.002665 0.005334
# 2 -0.002146 0.011480 -0.000325 -0.003457 -0.002734 0.000807
# 3 -0.002829 -0.000325 0.011133 -0.003612 -0.002836 0.000230
# 4 0.001055 -0.003457 -0.003612 0.028575 0.002423 -0.009866
# 5 -0.002665 -0.002734 -0.002836 0.002423 0.027624 0.005368
# 6 0.005334 0.000807 0.000230 -0.009866 0.005368 0.034801
#
#
# Mechanical properties :
#
#
# Convention : Reuss Voigt Hill
#
# Bulk Modulus (GPa) = 44.62682 58.63563 51.63122
# Shear Modulus (GPa) = 35.19226 42.41612 38.80419
#
# Velocity S-wave (km/s) = 3.59107 3.94245 3.77086
# Velocity P-wave (km/s) = 5.79201 6.49694 6.15458
#
# Compressibility (1/GPa) = 0.02240805
#
# Stress axis : x y z
#
# Youngs Moduli (GPa) = 96.20083 87.11054 89.82271
#
# Poissons Ratio (x) = 0.18692 0.25409
# Poissons Ratio (y) = 0.20643 0.02921
# Poissons Ratio (z) = 0.27213 0.02833
#
# Static dielectric constant tensor:
#      x y z
#    x 2.450220 -0.029630 -0.195720 
#    y -0.029630 2.354700 0.301360 
#    z -0.195720 0.301360 2.659650 
# 
# From -- ./inp_files/15038.got.cif
#   From: 2010.05.17/outbox.cif.g08.bks.cpg/sg2_8_cif.got.tgz:15038.got - 2010.06.03 11:33:40.
