data_PCOD9107205
_publ_section_title
;
Structure prediction by ZEFSAII (Michael W. Deem and Ramdas Pophale) SiO2 
 PCOD9107205
Probable space group: P -1
;
_chemical_formula_sum "Si O2"
_cell_formula_units_Z 16
_cell_length_a 8.629315
_cell_length_b 13.714121
_cell_length_c 14.234078
_cell_angle_alpha 63.056891
_cell_angle_beta 62.792782
_cell_angle_gamma 31.883713
_cell_volume 783.726500
_symmetry_space_group_name_H-M "P -1"
_symmetry_group_IT_number 2
_symmetry_cell_setting 'triclinic'
loop_
_space_group_symop_operation_xyz
x,y,z
-x,-y,-z
loop_
_atom_site_type_symbol
_atom_site_label
_atom_site_fract_x
_atom_site_fract_y
_atom_site_fract_z
Si Si1 0.259565 0.031123 0.517663
Si Si2 0.774396 0.681275 0.421233
Si Si3 0.739739 0.407908 0.727075
Si Si4 0.299936 0.353115 0.754583
Si Si5 0.926855 0.083705 0.758872
Si Si6 0.291894 0.605880 0.605185
Si Si7 0.816106 0.180644 0.037502
Si Si8 0.814638 0.432204 0.907337
O O1 0.086099 0.060872 0.637149
O O2 0.018955 0.195469 0.437111
O O3 0.500000 0.000000 0.500000
O O4 0.465360 0.842395 0.488340
O O5 0.735393 0.653165 0.342346
O O6 0.000000 0.500000 0.500000
O O7 0.944132 0.709332 0.347573
O O8 0.788586 0.252863 0.785790
O O9 0.483895 0.564922 0.653172
O O10 0.701840 0.477503 0.810262
O O11 0.640018 0.162154 0.771710
O O12 0.237551 0.513934 0.705083
O O13 0.075864 0.388065 0.855518
O O14 0.142681 0.898488 0.838975
O O15 0.500000 0.500000 0.500000
O O16 0.461902 0.383338 0.034547
O O17 0.926038 0.251714 0.977603
O O18 0.000000 0.000000 0.000000
#
# Coordination Sequence:
#
# PCOD9107205 Si02
#       8
#     2   2   2   2   2   2   2   2
#     4  12  23  36  61  93 128 178 219 248 316 385
#     4  11  23  36  57  88 134 173 215 256 306 381
#     4  10  20  40  63  91 129 170 212 261 315 388
#     4  10  23  41  61  97 133 166 211 269 317 385
#     4  11  23  40  65  92 129 169 218 266 321 384
#     4  11  20  39  62  92 138 173 210 255 313 385
#     4  11  24  45  73  93 122 166 219 280 332 392
#     4  10  24  44  71  96 124 166 220 270 339 384
#
# _framework density 20.415285000000001
#
# number of rings (size 3 to 8) (size 9 to 14) (size 15 to 20)
#    0.000    1.250    5.000    1.500    5.250    2.000 
#    0.000    0.625    0.000    0.000    0.000    0.000 
#    0.000    0.000    0.000    0.000    0.000    0.000 
#
# Total GULP energy -89204.390261 kJ/mol
# GULP energy per Si atom -5575.274391 kJ/mol
# Density = 2.036882 g / cm^3
# Si number density = 20.415285 Si / 1000 Ang^3
#
#
#
# Elastic Constant Matrix: (Units=GPa)
#
#
# Indices 1 2 3 4 5 6 
#
# 1 75.5689 18.9910 15.7321 3.5691 -18.1525 -12.8844
# 2 18.9910 121.9807 22.2051 0.0040 -9.8397 1.7189
# 3 15.7321 22.2051 61.3491 -1.5109 -22.3432 7.2875
# 4 3.5691 0.0040 -1.5109 41.8571 -6.4537 -1.8405
# 5 -18.1525 -9.8397 -22.3432 -6.4537 30.8003 -2.4158
# 6 -12.8844 1.7189 7.2875 -1.8405 -2.4158 23.8893
#
#
#
# Elastic Compliance Matrix: (Units=1/GPa)
#
#
# Indices 1 2 3 4 5 6 
#
# 1 0.018450 -0.001908 -0.001786 0.000413 0.009971 0.011673
# 2 -0.001908 0.008987 -0.002790 -0.000031 -0.000351 -0.000862
# 3 -0.001786 -0.002790 0.024404 0.003211 0.015935 -0.006348
# 4 0.000413 -0.000031 0.003211 0.025296 0.008021 0.002006
# 5 0.009971 -0.000351 0.015935 0.008021 0.051975 0.006416
# 6 0.011673 -0.000862 -0.006348 0.002006 0.006416 0.050957
#
#
# Mechanical properties :
#
#
# Convention : Reuss Voigt Hill
#
# Bulk Modulus (GPa) = 25.72359 41.41725 33.57042
# Shear Modulus (GPa) = 24.27256 32.77404 28.52330
#
# Velocity S-wave (km/s) = 3.45184 4.01105 3.74191
# Velocity P-wave (km/s) = 5.33989 6.46396 5.92863
#
# Compressibility (1/GPa) = 0.03887482
#
# Stress axis : x y z
#
# Youngs Moduli (GPa) = 54.20072 111.27596 40.97624
#
# Poissons Ratio (x) = 0.21226 0.07317
# Poissons Ratio (y) = 0.10339 0.11431
# Poissons Ratio (z) = 0.09679 0.31043
#
# Static dielectric constant tensor:
#      x y z
#    x 1.867380 -0.007280 0.003470 
#    y -0.007280 1.738440 -0.006630 
#    z 0.003470 -0.006630 1.749310 
# 
# From -- ./inp_files/493408.got.cif
#   From: 2010.05.17/outbox.cif.g08.bks.cpg/sg2_247_cif.got.tgz:493408.got - 2010.06.03 11:33:40.
