data_PCOD9107181
_publ_section_title
;
Structure prediction by ZEFSAII (Michael W. Deem and Ramdas Pophale) SiO2 
 PCOD9107181
Probable space group: P -1
;
_chemical_formula_sum "Si O2"
_cell_formula_units_Z 16
_cell_length_a 11.503924
_cell_length_b 11.331305
_cell_length_c 6.413046
_cell_angle_alpha 69.514414
_cell_angle_beta 90.363981
_cell_angle_gamma 69.241127
_cell_volume 724.105069
_symmetry_space_group_name_H-M "P -1"
_symmetry_group_IT_number 2
_symmetry_cell_setting 'triclinic'
loop_
_space_group_symop_operation_xyz
x,y,z
-x,-y,-z
loop_
_atom_site_type_symbol
_atom_site_label
_atom_site_fract_x
_atom_site_fract_y
_atom_site_fract_z
Si Si1 0.602553 0.967091 0.207773
Si Si2 0.015145 0.652481 0.666546
Si Si3 0.470420 0.548982 0.700489
Si Si4 0.555533 0.786825 0.685032
Si Si5 0.934099 0.131539 0.170547
Si Si6 0.896425 0.874745 0.212125
Si Si7 0.292018 0.629802 0.981019
Si Si8 0.193838 0.410963 0.041399
O O1 0.592885 0.859081 0.445312
O O2 0.747025 0.917259 0.169207
O O3 0.558622 0.105275 0.256875
O O4 0.500000 0.000000 0.000000
O O5 0.964189 0.723831 0.402415
O O6 0.901031 0.639428 0.805468
O O7 0.056050 0.764461 0.717341
O O8 0.122074 0.500204 0.785378
O O9 0.500000 0.500000 0.500000
O O10 0.514096 0.672391 0.661515
O O11 0.329089 0.600477 0.754187
O O12 0.567725 0.417331 0.901773
O O13 0.673424 0.715281 0.887164
O O14 0.794849 0.224035 0.029390
O O15 0.926872 0.984556 0.291895
O O16 0.041622 0.116696 0.013319
O O17 0.226682 0.524433 0.103073
#
# Coordination Sequence:
#
# PCOD9107181 Si02
#       8
#     2   2   2   2   2   2   2   2
#     4  11  25  41  65  94 130 180 220 268 328 384
#     4  10  20  40  63  90 125 171 208 269 331 383
#     4  10  21  38  65  92 125 170 218 265 327 391
#     4  10  22  42  63  93 131 166 220 280 316 392
#     4  10  23  39  63  92 131 170 213 268 326 394
#     4  11  23  41  62  96 130 170 225 265 319 396
#     4   9  20  39  57  92 130 164 207 269 318 379
#     4   9  19  38  64  88 125 163 213 260 331 386
#
# _framework density 22.096242
#
# number of rings (size 3 to 8) (size 9 to 14) (size 15 to 20)
#    0.000    2.000    1.250    1.125    1.750    6.000 
#    0.000   11.875    0.000    0.000    0.000    0.000 
#    0.000    0.000    0.000    0.000    0.000    0.000 
#
# Total GULP energy -89168.771624 kJ/mol
# GULP energy per Si atom -5573.048227 kJ/mol
# Density = 2.204595 g / cm^3
# Si number density = 22.096242 Si / 1000 Ang^3
#
#
#
# Elastic Constant Matrix: (Units=GPa)
#
#
# Indices 1 2 3 4 5 6 
#
# 1 123.1314 36.0165 40.0252 -6.5972 -7.1103 -21.3763
# 2 36.0165 84.6804 37.9570 -15.2659 -4.6057 -7.0834
# 3 40.0252 37.9570 70.9222 -21.7323 5.2822 -9.3077
# 4 -6.5972 -15.2659 -21.7323 41.0283 -2.4973 4.0542
# 5 -7.1103 -4.6057 5.2822 -2.4973 17.8189 -0.8357
# 6 -21.3763 -7.0834 -9.3077 4.0542 -0.8357 38.8961
#
#
#
# Elastic Compliance Matrix: (Units=1/GPa)
#
#
# Indices 1 2 3 4 5 6 
#
# 1 0.011746 -0.001940 -0.006037 -0.002166 0.005906 0.005010
# 2 -0.001940 0.016817 -0.007666 0.002254 0.006164 0.000059
# 3 -0.006037 -0.007666 0.025122 0.008824 -0.010594 0.000151
# 4 -0.002166 0.002254 0.008824 0.029783 0.001194 -0.001747
# 5 0.005906 0.006164 -0.010594 0.001194 0.063522 0.003074
# 6 0.005010 0.000059 0.000151 -0.001747 0.003074 0.028758
#
#
# Mechanical properties :
#
#
# Convention : Reuss Voigt Hill
#
# Bulk Modulus (GPa) = 44.64365 56.30348 50.47356
# Shear Modulus (GPa) = 23.30989 30.53101 26.92045
#
# Velocity S-wave (km/s) = 3.25149 3.72119 3.49424
# Velocity P-wave (km/s) = 5.86040 6.63320 6.25874
#
# Compressibility (1/GPa) = 0.02239960
#
# Stress axis : x y z
#
# Youngs Moduli (GPa) = 85.13519 59.46349 39.80517
#
# Poissons Ratio (x) = 0.11537 0.24030
# Poissons Ratio (y) = 0.16517 0.30515
# Poissons Ratio (z) = 0.51394 0.45585
#
# Static dielectric constant tensor:
#      x y z
#    x 1.936010 -0.010160 0.003230 
#    y -0.010160 1.827280 0.020370 
#    z 0.003230 0.020370 2.038340 
# 
# From -- ./inp_files/69190.got.cif
#   From: 2010.05.17/outbox.cif.g08.bks.cpg/sg2_35_cif.got.tgz:69190.got - 2010.06.03 11:33:40.
