data_PCOD9107863
_publ_section_title
;
Structure prediction by ZEFSAII (Michael W. Deem and Ramdas Pophale) SiO2 
 PCOD9107863
Probable space group: P -1
;
_chemical_formula_sum "Si O2"
_cell_formula_units_Z 14
_cell_length_a 12.074130
_cell_length_b 12.843088
_cell_length_c 10.985451
_cell_angle_alpha 68.979828
_cell_angle_beta 144.604608
_cell_angle_gamma 133.921257
_cell_volume 617.291077
_symmetry_space_group_name_H-M "P -1"
_symmetry_group_IT_number 2
_symmetry_cell_setting 'triclinic'
loop_
_space_group_symop_operation_xyz
x,y,z
-x,-y,-z
loop_
_atom_site_type_symbol
_atom_site_label
_atom_site_fract_x
_atom_site_fract_y
_atom_site_fract_z
Si Si1 0.879338 0.041745 0.282384
Si Si2 0.998753 0.876119 0.900152
Si Si3 0.657415 0.751272 0.885644
Si Si4 0.964260 0.723366 0.316319
Si Si5 0.209419 0.750799 0.772964
Si Si6 0.531588 0.082386 0.620472
Si Si7 0.866733 0.396695 0.653340
O O1 0.850403 0.153608 0.263973
O O2 0.083887 0.139367 0.306626
O O3 0.000000 0.000000 0.500000
O O4 0.549211 0.874237 0.016934
O O5 0.780912 0.757680 0.864694
O O6 0.231570 0.878225 0.106330
O O7 0.164733 0.059952 0.010084
O O8 0.340952 0.650916 0.618775
O O9 0.693643 0.682335 0.058710
O O10 0.044821 0.691406 0.521947
O O11 0.980458 0.644095 0.251518
O O12 0.219444 0.927422 0.458123
O O13 0.069996 0.586581 0.788595
O O14 0.652368 0.255334 0.623071
O O15 0.500000 0.000000 0.500000
#
# Coordination Sequence:
#
# PCOD9107863 Si02
#       7
#     2   2   2   2   2   2   2
#     4  11  25  46  64  82 117 167 217 245 291 369
#     4  11  19  37  64  91 119 158 208 246 288 361
#     4  11  20  33  65  98 119 154 196 250 309 352
#     4  11  20  37  65  94 126 161 194 244 303 365
#     4  11  25  42  64  87 123 166 199 249 310 352
#     4  10  16  35  60  89 127 153 189 245 298 355
#     4  11  22  37  58 100 130 147 198 253 306 361
#
# _framework density 22.679738
#
# number of rings (size 3 to 8) (size 9 to 14) (size 15 to 20)
#    0.000    1.143    7.143    2.143    0.000    1.714 
#    0.000    1.429    0.000    0.000    0.000    0.000 
#    0.000    0.000    0.000    0.000    0.000    0.000 
#
# Total GULP energy -78122.653163 kJ/mol
# GULP energy per Si atom -5580.189512 kJ/mol
# Density = 2.262812 g / cm^3
# Si number density = 22.679738 Si / 1000 Ang^3
#
#
#
# Elastic Constant Matrix: (Units=GPa)
#
#
# Indices 1 2 3 4 5 6 
#
# 1 56.1583 16.6920 3.3011 -11.4671 -7.8414 -1.1251
# 2 16.6920 157.4067 22.2778 -20.7187 -0.0178 3.3166
# 3 3.3011 22.2778 53.9027 -61.7973 -0.8367 -10.4354
# 4 -11.4671 -20.7187 -61.7973 16.1485 -2.9610 -2.3201
# 5 -7.8414 -0.0178 -0.8367 -2.9610 22.9261 -15.6714
# 6 -1.1251 3.3166 -10.4354 -2.3201 -15.6714 24.1413
#
#
#
# Elastic Compliance Matrix: (Units=1/GPa)
#
#
# Indices 1 2 3 4 5 6 
#
# 1 0.019059 -0.002067 -0.004641 -0.004638 0.008762 0.004408
# 2 -0.002067 0.007066 -0.001240 0.001920 -0.002639 -0.003132
# 3 -0.004641 -0.001240 -0.002369 -0.017208 -0.010353 -0.009445
# 4 -0.004638 0.001920 -0.017208 -0.010893 -0.017524 -0.020341
# 5 0.008762 -0.002639 -0.010353 -0.017524 0.072427 0.041627
# 6 0.004408 -0.003132 -0.009445 -0.020341 0.041627 0.063043
#
#
# Mechanical properties :
#
#
# Convention : Reuss Voigt Hill
#
# Bulk Modulus (GPa) = 127.21322 39.11216 83.16269
# Shear Modulus (GPa) = 29.96755 27.65630 28.81192
#
# Velocity S-wave (km/s) = 3.63896 3.49582 3.56811
# Velocity P-wave (km/s) = 8.59471 5.79458 7.32960
#
# Compressibility (1/GPa) = 0.00786082
#
# Stress axis : x y z
#
# Youngs Moduli (GPa) = 52.46992 141.52279 -422.07222
#
# Poissons Ratio (x) = 0.29247 -1.95880
# Poissons Ratio (y) = 0.10843 -0.52326
# Poissons Ratio (z) = 0.24351 0.17545
#
# Static dielectric constant tensor:
#      x y z
#    x 1.897800 0.033310 -0.011620 
#    y 0.033310 1.893920 -0.019460 
#    z -0.011620 -0.019460 1.860600 
# 
# From -- ./inp_files/455654.got.cif
#   From: 2010.05.17/outbox.cif.g08.bks.cpg/sg2_228_cif.got.tgz:455654.got - 2010.06.03 11:33:40.
