data_PCOD9107422
_publ_section_title
;
Structure prediction by ZEFSAII (Michael W. Deem and Ramdas Pophale) SiO2 
 PCOD9107422
Probable space group: P -1
;
_chemical_formula_sum "Si O2"
_cell_formula_units_Z 14
_cell_length_a 11.828581
_cell_length_b 12.138443
_cell_length_c 8.917991
_cell_angle_alpha 36.182347
_cell_angle_beta 117.364315
_cell_angle_gamma 120.866656
_cell_volume 646.230002
_symmetry_space_group_name_H-M "P -1"
_symmetry_group_IT_number 2
_symmetry_cell_setting 'triclinic'
loop_
_space_group_symop_operation_xyz
x,y,z
-x,-y,-z
loop_
_atom_site_type_symbol
_atom_site_label
_atom_site_fract_x
_atom_site_fract_y
_atom_site_fract_z
Si Si1 0.908268 0.454794 0.349614
Si Si2 0.085281 0.826774 0.592000
Si Si3 0.450771 0.200379 0.104856
Si Si4 0.396144 0.753711 0.552549
Si Si5 0.854242 0.749902 0.766480
Si Si6 0.280007 0.608228 0.090902
Si Si7 0.391966 0.518455 0.537312
O O1 0.751510 0.384257 0.366719
O O2 0.000000 0.500000 0.500000
O O3 0.936625 0.279567 0.463266
O O4 0.923967 0.643124 0.047322
O O5 0.948940 0.808303 0.615411
O O6 0.834972 0.297440 0.129452
O O7 0.165203 0.053140 0.393273
O O8 0.505212 0.266207 0.231907
O O9 0.385820 0.972728 0.315348
O O10 0.583413 0.240818 0.039528
O O11 0.366228 0.330374 0.834315
O O12 0.443113 0.699132 0.480473
O O13 0.732936 0.582108 0.811002
O O14 0.276824 0.551598 0.324981
O O15 0.500000 0.500000 0.500000
#
# Coordination Sequence:
#
# PCOD9107422 Si02
#       7
#     2   2   2   2   2   2   2
#     4  11  24  42  66  93 130 161 206 264 312 369
#     4  10  22  41  65  92 122 167 213 254 310 375
#     4  10  22  43  62  93 124 166 213 248 314 372
#     4  11  23  41  65  91 127 171 202 260 312 370
#     4  10  22  41  65  92 123 168 209 256 313 370
#     4  10  20  40  64  91 126 163 204 263 310 366
#     4  10  24  39  62  92 124 165 209 259 303 366
#
# _framework density 21.664113
#
# number of rings (size 3 to 8) (size 9 to 14) (size 15 to 20)
#    0.000    1.714    2.857    2.143    4.000    7.429 
#    2.571    0.000    0.000    0.000    0.000    0.000 
#    0.000    0.000    0.000    0.000    0.000    0.000 
#
# Total GULP energy -78204.748084 kJ/mol
# GULP energy per Si atom -5586.053435 kJ/mol
# Density = 2.161480 g / cm^3
# Si number density = 21.664113 Si / 1000 Ang^3
#
#
#
# Elastic Constant Matrix: (Units=GPa)
#
#
# Indices 1 2 3 4 5 6 
#
# 1 44.9636 20.9490 -12.5080 -8.8241 -4.2832 -13.0150
# 2 20.9490 148.7695 82.3389 9.0388 6.8948 -38.0090
# 3 -12.5080 82.3389 104.7897 0.1260 2.9153 -12.8364
# 4 -8.8241 9.0388 0.1260 42.8416 -2.9640 -3.2678
# 5 -4.2832 6.8948 2.9153 -2.9640 19.6168 -7.5964
# 6 -13.0150 -38.0090 -12.8364 -3.2678 -7.5964 27.8207
#
#
#
# Elastic Compliance Matrix: (Units=1/GPa)
#
#
# Indices 1 2 3 4 5 6 
#
# 1 0.042153 -0.012127 0.016156 0.013930 0.020028 0.017710
# 2 -0.012127 0.022262 -0.016966 -0.006173 -0.002924 0.015390
# 3 0.016156 -0.016966 0.024397 0.007128 0.006235 -0.001825
# 4 0.013930 -0.006173 0.007128 0.028899 0.011589 0.007930
# 5 0.020028 -0.002924 0.006235 0.011589 0.068128 0.028214
# 6 0.017710 0.015390 -0.001825 0.007930 0.028214 0.073049
#
#
# Mechanical properties :
#
#
# Convention : Reuss Voigt Hill
#
# Bulk Modulus (GPa) = 15.88885 53.34249 34.61567
# Shear Modulus (GPa) = 16.35364 31.90533 24.12949
#
# Velocity S-wave (km/s) = 2.75047 3.84178 3.34098
# Velocity P-wave (km/s) = 4.17575 6.65995 5.55841
#
# Compressibility (1/GPa) = 0.06293721
#
# Stress axis : x y z
#
# Youngs Moduli (GPa) = 23.72323 44.91879 40.98845
#
# Poissons Ratio (x) = 0.54475 -0.66221
# Poissons Ratio (y) = 0.28770 0.69542
# Poissons Ratio (z) = -0.38328 0.76211
#
# Static dielectric constant tensor:
#      x y z
#    x 1.826700 0.002570 0.001510 
#    y 0.002570 1.794380 0.005920 
#    z 0.001510 0.005920 1.802610 
# 
# From -- ./inp_files/304520.got.cif
#   From: 2010.05.17/outbox.cif.g08.bks.cpg/sg2_153_cif.got.tgz:304520.got - 2010.06.03 11:33:40.
