data_PCOD9107636
_publ_section_title
;
Structure prediction by ZEFSAII (Michael W. Deem and Ramdas Pophale) SiO2 
 PCOD9107636
Probable space group: P -1
;
_chemical_formula_sum "Si O2"
_cell_formula_units_Z 16
_cell_length_a 8.121796
_cell_length_b 11.891043
_cell_length_c 12.902383
_cell_angle_alpha 73.237525
_cell_angle_beta 110.412875
_cell_angle_gamma 145.176006
_cell_volume 666.887202
_symmetry_space_group_name_H-M "P -1"
_symmetry_group_IT_number 2
_symmetry_cell_setting 'triclinic'
loop_
_space_group_symop_operation_xyz
x,y,z
-x,-y,-z
loop_
_atom_site_type_symbol
_atom_site_label
_atom_site_fract_x
_atom_site_fract_y
_atom_site_fract_z
Si Si1 0.604218 0.491130 0.680184
Si Si2 0.315109 0.659138 0.080356
Si Si3 0.663094 0.864396 0.361982
Si Si4 0.105501 0.821340 0.541775
Si Si5 0.868840 0.293913 0.802124
Si Si6 0.280580 0.956113 0.326374
Si Si7 0.806320 0.817976 0.748421
Si Si8 0.518135 0.645549 0.934788
O O1 0.683798 0.444417 0.804991
O O2 0.348347 0.280704 0.622240
O O3 0.586463 0.607968 0.700233
O O4 0.833690 0.634375 0.599936
O O5 0.315411 0.780707 0.112999
O O6 0.530689 0.734791 0.015350
O O7 0.000000 0.500000 0.000000
O O8 0.325944 0.729554 0.312775
O O9 0.799662 0.993193 0.460163
O O10 0.875408 0.029734 0.274439
O O11 0.381944 0.900087 0.630438
O O12 0.115355 0.804747 0.426215
O O13 0.207966 0.508047 0.843017
O O14 0.851635 0.157892 0.781263
O O15 0.267227 0.086259 0.306656
O O16 0.783049 0.791260 0.873183
O O17 0.500000 0.500000 0.000000
#
# Coordination Sequence:
#
# PCOD9107636 Si02
#       8
#     2   2   2   2   2   2   2   2
#     4  10  20  40  65  89 130 174 207 257 330 383
#     4   9  19  37  64  88 123 166 214 253 312 384
#     4   9  21  42  62  95 131 168 217 254 321 388
#     4   9  21  43  66  92 133 172 209 271 317 385
#     4   9  21  41  65  89 129 172 212 261 310 395
#     4  10  22  42  63  99 131 160 225 266 319 379
#     4  11  24  38  66  92 135 165 204 284 318 364
#     4  11  22  41  67  97 129 168 214 268 324 375
#
# _framework density 23.992063000000002
#
# number of rings (size 3 to 8) (size 9 to 14) (size 15 to 20)
#    0.000    2.250    1.250    0.000    7.000    2.000 
#    2.250   11.875    0.000    0.000    0.000    0.000 
#    0.000    0.000    0.000    0.000    0.000    0.000 
#
# Total GULP energy -89238.799462 kJ/mol
# GULP energy per Si atom -5577.424966 kJ/mol
# Density = 2.393746 g / cm^3
# Si number density = 23.992063 Si / 1000 Ang^3
#
#
#
# Elastic Constant Matrix: (Units=GPa)
#
#
# Indices 1 2 3 4 5 6 
#
# 1 80.8783 30.8993 33.5695 16.3442 -23.3112 -12.1425
# 2 30.8993 101.0131 48.0170 19.3067 -14.3688 -16.5288
# 3 33.5695 48.0170 123.8525 0.8466 -42.5302 -7.6998
# 4 16.3442 19.3067 0.8466 39.5634 2.0568 -8.6412
# 5 -23.3112 -14.3688 -42.5302 2.0568 50.2906 6.1527
# 6 -12.1425 -16.5288 -7.6998 -8.6412 6.1527 27.5156
#
#
#
# Elastic Compliance Matrix: (Units=1/GPa)
#
#
# Indices 1 2 3 4 5 6 
#
# 1 0.017082 -0.002095 -0.001592 -0.005710 0.005872 0.002728
# 2 -0.002095 0.014628 -0.005346 -0.004930 -0.001749 0.005209
# 3 -0.001592 -0.005346 0.013705 0.002154 0.009421 -0.001509
# 4 -0.005710 -0.004930 0.002154 0.031520 -0.004253 0.005972
# 5 0.005872 -0.001749 0.009421 -0.004253 0.030741 -0.004032
# 6 0.002728 0.005209 -0.001509 0.005972 -0.004032 0.043031
#
#
# Mechanical properties :
#
#
# Convention : Reuss Voigt Hill
#
# Bulk Modulus (GPa) = 36.56756 58.96841 47.76798
# Shear Modulus (GPa) = 28.10738 36.35778 32.23258
#
# Velocity S-wave (km/s) = 3.42647 3.89705 3.66931
# Velocity P-wave (km/s) = 5.56138 6.69933 6.15670
#
# Compressibility (1/GPa) = 0.02734665
#
# Stress axis : x y z
#
# Youngs Moduli (GPa) = 58.54263 68.36308 72.96598
#
# Poissons Ratio (x) = 0.14324 0.11619
# Poissons Ratio (y) = 0.12266 0.39009
# Poissons Ratio (z) = 0.09322 0.36548
#
# Static dielectric constant tensor:
#      x y z
#    x 1.980510 -0.026860 0.001250 
#    y -0.026860 1.944910 0.034110 
#    z 0.001250 0.034110 1.944170 
# 
# From -- ./inp_files/390054.got.cif
#   From: 2010.05.17/outbox.cif.g08.bks.cpg/sg2_196_cif.got.tgz:390054.got - 2010.06.03 11:33:40.
