data_PCOD9107774
_publ_section_title
;
Structure prediction by ZEFSAII (Michael W. Deem and Ramdas Pophale) SiO2 
 PCOD9107774
Probable space group: P -1
;
_chemical_formula_sum "Si O2"
_cell_formula_units_Z 14
_cell_length_a 9.330402
_cell_length_b 17.145720
_cell_length_c 8.928586
_cell_angle_alpha 141.128930
_cell_angle_beta 77.611612
_cell_angle_gamma 127.323051
_cell_volume 610.617788
_symmetry_space_group_name_H-M "P -1"
_symmetry_group_IT_number 2
_symmetry_cell_setting 'triclinic'
loop_
_space_group_symop_operation_xyz
x,y,z
-x,-y,-z
loop_
_atom_site_type_symbol
_atom_site_label
_atom_site_fract_x
_atom_site_fract_y
_atom_site_fract_z
Si Si1 0.865860 0.967338 0.215734
Si Si2 0.457193 0.819139 0.586793
Si Si3 0.287596 0.920712 0.351302
Si Si4 0.231177 0.910897 0.844529
Si Si5 0.364294 0.399021 0.130836
Si Si6 0.991565 0.637039 0.758741
Si Si7 0.326709 0.285183 0.633105
O O1 0.822480 0.048987 0.469449
O O2 0.839114 0.021686 0.146243
O O3 0.707546 0.759505 0.984101
O O4 0.111989 0.082529 0.343334
O O5 0.270556 0.804524 0.587854
O O6 0.467193 0.678482 0.354246
O O7 0.622790 0.955486 0.627364
O O8 0.549363 0.906223 0.860385
O O9 0.500000 0.000000 0.500000
O O10 0.122731 0.727463 0.020745
O O11 0.090026 0.780940 0.819525
O O12 0.609452 0.580850 0.314495
O O13 0.234792 0.438189 0.278348
O O14 0.296826 0.321651 0.860053
O O15 0.000000 0.500000 0.500000
#
# Coordination Sequence:
#
# PCOD9107774 Si02
#       7
#     2   2   2   2   2   2   2
#     4  12  22  44  70 103 139 177 234 296 342 417
#     4  10  20  40  65  95 137 180 228 283 341 419
#     4  11  21  40  72 103 134 186 238 284 345 414
#     4  10  23  39  66 100 137 184 226 279 359 412
#     4  11  24  42  70 101 137 183 235 289 349 413
#     4  11  24  46  68  99 147 187 228 291 357 418
#     4  11  23  41  69 101 132 182 237 288 345 412
#
# _framework density 22.927602
#
# number of rings (size 3 to 8) (size 9 to 14) (size 15 to 20)
#    0.000    1.143    4.286    3.000    0.000    2.286 
#    2.571    2.143    0.000    0.000    0.000    0.000 
#    0.000    0.000    0.000    0.000    0.000    0.000 
#
# Total GULP energy -78037.294692 kJ/mol
# GULP energy per Si atom -5574.092478 kJ/mol
# Density = 2.287542 g / cm^3
# Si number density = 22.927602 Si / 1000 Ang^3
#
#
#
# Elastic Constant Matrix: (Units=GPa)
#
#
# Indices 1 2 3 4 5 6 
#
# 1 91.4244 33.5073 15.9977 -5.5085 -23.7207 -10.7798
# 2 33.5073 128.9373 12.0234 13.3808 -8.9995 -4.2585
# 3 15.9977 12.0234 54.5007 -9.5420 -30.2065 -4.1004
# 4 -5.5085 13.3808 -9.5420 35.5127 5.5475 -4.3253
# 5 -23.7207 -8.9995 -30.2065 5.5475 32.8510 -3.3404
# 6 -10.7798 -4.2585 -4.1004 -4.3253 -3.3404 31.1749
#
#
#
# Elastic Compliance Matrix: (Units=1/GPa)
#
#
# Indices 1 2 3 4 5 6 
#
# 1 0.017191 -0.004047 0.007442 0.004420 0.018311 0.008946
# 2 -0.004047 0.009377 -0.003410 -0.004822 -0.002830 -0.001539
# 3 0.007442 -0.003410 0.044820 0.009088 0.045555 0.014145
# 4 0.004420 -0.004822 0.009088 0.033147 0.005366 0.007239
# 5 0.018311 -0.002830 0.045555 0.005366 0.086096 0.021907
# 6 0.008946 -0.001539 0.014145 0.007239 0.021907 0.040172
#
#
# Mechanical properties :
#
#
# Convention : Reuss Voigt Hill
#
# Bulk Modulus (GPa) = 14.01354 44.21325 29.11339
# Shear Modulus (GPa) = 19.63717 34.12998 26.88357
#
# Velocity S-wave (km/s) = 2.92975 3.86242 3.42795
# Velocity P-wave (km/s) = 4.19165 6.26233 5.32854
#
# Compressibility (1/GPa) = 0.07135956
#
# Stress axis : x y z
#
# Youngs Moduli (GPa) = 58.17087 106.64000 22.31135
#
# Poissons Ratio (x) = 0.43153 -0.16604
# Poissons Ratio (y) = 0.23539 0.07608
# Poissons Ratio (z) = -0.43291 0.36362
#
# Static dielectric constant tensor:
#      x y z
#    x 1.931430 0.001530 -0.020180 
#    y 0.001530 1.887930 0.051380 
#    z -0.020180 0.051380 1.975270 
# 
# From -- ./inp_files/174168.got.cif
#   From: 2010.05.17/outbox.cif.g08.bks.cpg/sg2_88_cif.got.tgz:174168.got - 2010.06.03 11:33:40.
