data_PCOD9107920
_publ_section_title
;
Structure prediction by ZEFSAII (Michael W. Deem and Ramdas Pophale) SiO2 
 PCOD9107920
Probable space group: P -1
;
_chemical_formula_sum "Si O2"
_cell_formula_units_Z 14
_cell_length_a 8.768601
_cell_length_b 8.121702
_cell_length_c 15.651696
_cell_angle_alpha 131.658200
_cell_angle_beta 74.751989
_cell_angle_gamma 127.497050
_cell_volume 641.584319
_symmetry_space_group_name_H-M "P -1"
_symmetry_group_IT_number 2
_symmetry_cell_setting 'triclinic'
loop_
_space_group_symop_operation_xyz
x,y,z
-x,-y,-z
loop_
_atom_site_type_symbol
_atom_site_label
_atom_site_fract_x
_atom_site_fract_y
_atom_site_fract_z
Si Si1 0.649737 0.107120 0.936723
Si Si2 0.654681 0.615550 0.097759
Si Si3 0.990837 0.131082 0.961261
Si Si4 0.462395 0.745093 0.311804
Si Si5 0.392743 0.656840 0.482215
Si Si6 0.168533 0.131198 0.446430
Si Si7 0.799294 0.260074 0.792962
O O1 0.626926 0.066427 0.822579
O O2 0.717226 0.417912 0.037688
O O3 0.785300 0.013559 0.907579
O O4 0.500000 0.000000 0.000000
O O5 0.568127 0.653043 0.206585
O O6 0.500000 0.500000 0.000000
O O7 0.861432 0.880173 0.125076
O O8 0.058144 0.437546 0.083077
O O9 0.000000 0.000000 0.000000
O O10 0.380943 0.595621 0.362419
O O11 0.290160 0.695349 0.260436
O O12 0.606254 0.076549 0.419003
O O13 0.229806 0.401903 0.477771
O O14 0.615877 0.765175 0.512975
O O15 0.108524 0.890398 0.304366
O O16 0.000000 0.000000 0.500000
#
# Coordination Sequence:
#
# PCOD9107920 Si02
#       7
#     2   2   2   2   2   2   2
#     4  11  24  39  61  92 129 171 213 258 331 392
#     4  11  20  38  63  90 125 171 209 262 327 388
#     4  11  24  39  58  94 132 164 220 267 322 399
#     4  10  20  40  66  90 131 171 217 270 335 389
#     4   9  22  41  64  95 127 171 219 275 329 389
#     4  10  22  42  65  92 128 167 227 273 330 390
#     4  10  22  40  61  91 128 165 217 275 318 391
#
# _framework density 21.820979999999999
#
# number of rings (size 3 to 8) (size 9 to 14) (size 15 to 20)
#    0.000    1.714    2.857    2.571    2.000    3.429 
#    2.571    6.429    0.000    0.000    0.000    0.000 
#    0.000    0.000    0.000    0.000    0.000    0.000 
#
# Total GULP energy -77945.867290 kJ/mol
# GULP energy per Si atom -5567.561949 kJ/mol
# Density = 2.177131 g / cm^3
# Si number density = 21.820980 Si / 1000 Ang^3
#
#
#
# Elastic Constant Matrix: (Units=GPa)
#
#
# Indices 1 2 3 4 5 6 
#
# 1 71.2039 22.4099 11.0863 -7.5549 -1.3490 -9.9216
# 2 22.4099 136.0012 47.2319 -32.5281 -10.2194 -5.6200
# 3 11.0863 47.2319 115.6722 -23.7818 -22.2647 1.2927
# 4 -7.5549 -32.5281 -23.7818 37.4599 -4.3514 -2.1840
# 5 -1.3490 -10.2194 -22.2647 -4.3514 35.3062 -9.6010
# 6 -9.9216 -5.6200 1.2927 -2.1840 -9.6010 31.5583
#
#
#
# Elastic Compliance Matrix: (Units=1/GPa)
#
#
# Indices 1 2 3 4 5 6 
#
# 1 0.015582 -0.001673 -0.000090 0.002145 0.001756 0.005288
# 2 -0.001673 0.010681 -0.001763 0.008449 0.003827 0.003197
# 3 -0.000090 -0.001763 0.012680 0.007699 0.009094 0.002438
# 4 0.002145 0.008449 0.007699 0.041645 0.015051 0.009325
# 5 0.001756 0.003827 0.009094 0.015051 0.040998 0.014375
# 6 0.005288 0.003197 0.002438 0.009325 0.014375 0.038838
#
#
# Mechanical properties :
#
#
# Convention : Reuss Voigt Hill
#
# Bulk Modulus (GPa) = 31.35680 53.81485 42.58583
# Shear Modulus (GPa) = 28.07304 37.00817 32.54061
#
# Velocity S-wave (km/s) = 3.59069 4.12271 3.86586
# Velocity P-wave (km/s) = 5.62068 6.88315 6.28370
#
# Compressibility (1/GPa) = 0.03189101
#
# Stress axis : x y z
#
# Youngs Moduli (GPa) = 64.17522 93.62088 78.86527
#
# Poissons Ratio (x) = 0.15660 0.00713
# Poissons Ratio (y) = 0.10734 0.13905
# Poissons Ratio (z) = 0.00580 0.16507
#
# Static dielectric constant tensor:
#      x y z
#    x 1.720810 0.080900 -0.059280 
#    y 0.080900 1.967460 -0.025750 
#    z -0.059280 -0.025750 1.796280 
# 
# From -- ./inp_files/342496.got.cif
#   From: 2010.05.17/outbox.cif.g08.bks.cpg/sg2_172_cif.got.tgz:342496.got - 2010.06.03 11:33:40.
