data_PCOD9107742
_publ_section_title
;
Structure prediction by ZEFSAII (Michael W. Deem and Ramdas Pophale) SiO2 
 PCOD9107742
Probable space group: P -1
;
_chemical_formula_sum "Si O2"
_cell_formula_units_Z 16
_cell_length_a 10.748390
_cell_length_b 9.180634
_cell_length_c 12.722283
_cell_angle_alpha 104.525478
_cell_angle_beta 57.277795
_cell_angle_gamma 138.922003
_cell_volume 665.535865
_symmetry_space_group_name_H-M "P -1"
_symmetry_group_IT_number 2
_symmetry_cell_setting 'triclinic'
loop_
_space_group_symop_operation_xyz
x,y,z
-x,-y,-z
loop_
_atom_site_type_symbol
_atom_site_label
_atom_site_fract_x
_atom_site_fract_y
_atom_site_fract_z
Si Si1 0.874439 0.806497 0.933616
Si Si2 0.487927 0.834085 0.411485
Si Si3 0.766520 0.130530 0.144606
Si Si4 0.508483 0.416420 0.171205
Si Si5 0.229272 0.518179 0.760564
Si Si6 0.839266 0.677040 0.536573
Si Si7 0.286123 0.144571 0.510931
Si Si8 0.797513 0.021199 0.877822
O O1 0.874344 0.908488 0.848862
O O2 0.016268 0.763211 0.868840
O O3 0.622434 0.586016 0.052238
O O4 0.000000 0.000000 0.000000
O O5 0.251258 0.561491 0.478890
O O6 0.670687 0.863086 0.389122
O O7 0.500000 0.000000 0.500000
O O8 0.556875 0.918654 0.275652
O O9 0.791709 0.327712 0.166139
O O10 0.743833 0.049601 0.022035
O O11 0.718002 0.548308 0.177191
O O12 0.323449 0.371283 0.309645
O O13 0.408895 0.176738 0.140721
O O14 0.462048 0.687041 0.619766
O O15 0.989502 0.272605 0.783887
O O16 0.791523 0.749248 0.470960
O O17 0.096589 0.893322 0.497587
#
# Coordination Sequence:
#
# PCOD9107742 Si02
#       8
#     2   2   2   2   2   2   2   2
#     4  10  20  40  65  94 129 168 213 270 323 389
#     4  12  25  46  69  97 134 181 220 273 339 391
#     4  11  24  44  65  97 138 178 215 271 335 393
#     4  11  23  41  70 101 131 170 225 273 334 392
#     4  11  23  45  65  97 142 169 222 275 323 405
#     4  10  24  44  71 100 132 171 227 281 325 392
#     4  10  24  45  70 100 130 178 228 271 333 389
#     4  11  24  41  71  98 134 173 221 273 331 398
#
# _framework density 24.040778
#
# number of rings (size 3 to 8) (size 9 to 14) (size 15 to 20)
#    0.000    1.250    3.750    2.625    3.500    4.000 
#    0.000    0.000    0.000    0.000    0.000    0.000 
#    0.000    0.000    0.000    0.000    0.000    0.000 
#
# Total GULP energy -89461.742275 kJ/mol
# GULP energy per Si atom -5591.358892 kJ/mol
# Density = 2.398606 g / cm^3
# Si number density = 24.040778 Si / 1000 Ang^3
#
#
#
# Elastic Constant Matrix: (Units=GPa)
#
#
# Indices 1 2 3 4 5 6 
#
# 1 35.1816 10.3607 2.8595 -0.8921 5.0649 -4.7461
# 2 10.3607 187.5237 47.3529 -17.6241 -3.5099 4.1773
# 3 2.8595 47.3529 75.8929 -6.4697 -1.7084 -7.4403
# 4 -0.8921 -17.6241 -6.4697 39.0259 -1.5107 -0.5352
# 5 5.0649 -3.5099 -1.7084 -1.5107 12.9939 -4.0376
# 6 -4.7461 4.1773 -7.4403 -0.5352 -4.0376 31.1387
#
#
#
# Elastic Compliance Matrix: (Units=1/GPa)
#
#
# Indices 1 2 3 4 5 6 
#
# 1 0.031179 -0.002125 0.000184 -0.000619 -0.011670 0.003558
# 2 -0.002125 0.006786 -0.004101 0.002379 0.001796 -0.001940
# 3 0.000184 -0.004101 0.016349 0.001029 0.002593 0.004839
# 4 -0.000619 0.002379 0.001029 0.027038 0.004434 0.000872
# 5 -0.011670 0.001796 0.002593 0.004434 0.085899 0.009814
# 6 0.003558 -0.001940 0.004839 0.000872 0.009814 0.035361
#
#
# Mechanical properties :
#
#
# Convention : Reuss Voigt Hill
#
# Bulk Modulus (GPa) = 23.67957 46.63827 35.15892
# Shear Modulus (GPa) = 21.85580 32.50003 27.17791
#
# Velocity S-wave (km/s) = 3.01842 3.68077 3.36593
# Velocity P-wave (km/s) = 4.69244 6.12420 5.45549
#
# Compressibility (1/GPa) = 0.04223050
#
# Stress axis : x y z
#
# Youngs Moduli (GPa) = 32.07290 147.36022 61.16651
#
# Poissons Ratio (x) = 0.31316 -0.01128
# Poissons Ratio (y) = 0.06816 0.25085
# Poissons Ratio (z) = -0.00592 0.60433
#
# Static dielectric constant tensor:
#      x y z
#    x 1.974270 0.006550 0.023010 
#    y 0.006550 1.905900 -0.000290 
#    z 0.023010 -0.000290 1.986380 
# 
# From -- ./inp_files/515879.got.cif
#   From: 2010.05.17/outbox.cif.g08.bks.cpg/sg2_258_cif.got.tgz:515879.got - 2010.06.03 11:33:40.
