data_PCOD9107427
_publ_section_title
;
Structure prediction by ZEFSAII (Michael W. Deem and Ramdas Pophale) SiO2 
 PCOD9107427
Probable space group: P -1
;
_chemical_formula_sum "Si O2"
_cell_formula_units_Z 16
_cell_length_a 8.172787
_cell_length_b 8.118074
_cell_length_c 19.644662
_cell_angle_alpha 104.862227
_cell_angle_beta 140.267477
_cell_angle_gamma 102.222439
_cell_volume 603.576651
_symmetry_space_group_name_H-M "P -1"
_symmetry_group_IT_number 2
_symmetry_cell_setting 'triclinic'
loop_
_space_group_symop_operation_xyz
x,y,z
-x,-y,-z
loop_
_atom_site_type_symbol
_atom_site_label
_atom_site_fract_x
_atom_site_fract_y
_atom_site_fract_z
Si Si1 0.258210 0.358494 0.288330
Si Si2 0.934534 0.137096 0.294740
Si Si3 0.729260 0.418099 0.267502
Si Si4 0.053036 0.068641 0.936819
Si Si5 0.410548 0.754901 0.993588
Si Si6 0.288445 0.267344 0.614503
Si Si7 0.884228 0.164433 0.666666
Si Si8 0.901584 0.304691 0.840751
O O1 0.581274 0.621448 0.406989
O O2 0.229248 0.276310 0.345859
O O3 0.919046 0.317208 0.157516
O O4 0.218707 0.193384 0.201686
O O5 0.898508 0.312318 0.330671
O O6 0.967240 0.959282 0.315449
O O7 0.583691 0.969287 0.119933
O O8 0.802615 0.596992 0.364680
O O9 0.898811 0.589499 0.274107
O O10 0.326418 0.201263 0.099393
O O11 0.869298 0.168005 0.879857
O O12 0.310568 0.173026 0.964618
O O13 0.276526 0.548465 0.977951
O O14 0.626370 0.332894 0.762195
O O15 0.000000 0.000000 0.500000
O O16 0.854187 0.187832 0.740639
O O17 0.500000 0.000000 0.500000
#
# Coordination Sequence:
#
# PCOD9107427 Si02
#       8
#     2   2   2   2   2   2   2   2
#     4  10  19  39  71 102 130 180 224 278 349 412
#     4  11  21  41  73 107 132 173 225 293 352 396
#     4  12  24  43  69 102 146 174 225 296 338 409
#     4  11  18  35  70 110 132 161 225 291 359 398
#     4  10  16  34  67 106 134 162 214 285 358 406
#     4  11  27  48  63  89 142 201 233 267 332 419
#     4  12  25  42  69 102 140 181 237 285 330 406
#     4  11  21  40  70  97 136 188 221 279 353 406
#
# _framework density 26.508644
#
# number of rings (size 3 to 8) (size 9 to 14) (size 15 to 20)
#    0.000    1.000    6.250    3.375    0.000    1.500 
#    2.250    0.625    0.000    0.000    0.000    0.000 
#    0.000    0.000    0.000    0.000    0.000    0.000 
#
# Total GULP energy -89504.672718 kJ/mol
# GULP energy per Si atom -5594.042045 kJ/mol
# Density = 2.644831 g / cm^3
# Si number density = 26.508644 Si / 1000 Ang^3
#
#
#
# Elastic Constant Matrix: (Units=GPa)
#
#
# Indices 1 2 3 4 5 6 
#
# 1 64.8397 12.7751 5.2633 11.0887 -16.4916 -28.2483
# 2 12.7751 132.1025 29.6169 13.9288 3.6697 -41.6384
# 3 5.2633 29.6169 100.4832 34.4785 -2.3674 -5.2999
# 4 11.0887 13.9288 34.4785 58.4082 -1.8834 2.4388
# 5 -16.4916 3.6697 -2.3674 -1.8834 22.8558 10.6145
# 6 -28.2483 -41.6384 -5.2999 2.4388 10.6145 48.8914
#
#
#
# Elastic Compliance Matrix: (Units=1/GPa)
#
#
# Indices 1 2 3 4 5 6 
#
# 1 0.024931 0.002254 0.001180 -0.006233 0.010510 0.014481
# 2 0.002254 0.012626 -0.002312 -0.002868 -0.007146 0.013499
# 3 0.001180 -0.002312 0.013153 -0.007378 0.001937 0.000086
# 4 -0.006233 -0.002868 -0.007378 0.023719 0.000980 -0.008240
# 5 0.010510 -0.007146 0.001937 0.000980 0.058605 -0.012575
# 6 0.014481 0.013499 0.000086 -0.008240 -0.012575 0.043468
#
#
# Mechanical properties :
#
#
# Convention : Reuss Voigt Hill
#
# Bulk Modulus (GPa) = 18.88398 43.63734 31.26066
# Shear Modulus (GPa) = 26.05397 42.68240 34.36818
#
# Velocity S-wave (km/s) = 3.13844 4.01700 3.60459
# Velocity P-wave (km/s) = 4.50247 6.16541 5.39836
#
# Compressibility (1/GPa) = 0.05295493
#
# Stress axis : x y z
#
# Youngs Moduli (GPa) = 40.11092 79.20152 76.02623
#
# Poissons Ratio (x) = -0.17854 -0.08969
# Poissons Ratio (y) = -0.09042 0.17575
# Poissons Ratio (z) = -0.04732 0.18309
#
# Static dielectric constant tensor:
#      x y z
#    x 2.149340 0.047630 -0.030200 
#    y 0.047630 2.142780 0.024370 
#    z -0.030200 0.024370 2.085220 
# 
# From -- ./inp_files/606424.got.cif
#   From: 2010.05.17/outbox.cif.g08.bks.cpg/sg2_304_cif.got.tgz:606424.got - 2010.06.03 11:33:40.
