data_PCOD9107511
_publ_section_title
;
Structure prediction by ZEFSAII (Michael W. Deem and Ramdas Pophale) SiO2 
 PCOD9107511
Probable space group: P -1
;
_chemical_formula_sum "Si O2"
_cell_formula_units_Z 15
_cell_length_a 6.384792
_cell_length_b 8.043774
_cell_length_c 12.588030
_cell_angle_alpha 65.051214
_cell_angle_beta 88.562075
_cell_angle_gamma 94.420142
_cell_volume 583.235285
_symmetry_space_group_name_H-M "P -1"
_symmetry_group_IT_number 2
_symmetry_cell_setting 'triclinic'
loop_
_space_group_symop_operation_xyz
x,y,z
-x,-y,-z
loop_
_atom_site_type_symbol
_atom_site_label
_atom_site_fract_x
_atom_site_fract_y
_atom_site_fract_z
Si Si1 0.161760 0.171537 0.546380
Si Si2 0.586451 0.716989 0.049806
Si Si3 0.039533 0.583464 0.691823
Si Si4 0.189312 0.763889 0.319712
Si Si5 0.721178 0.653554 0.838931
Si Si6 0.596369 0.974148 0.153460
Si Si7 0.500000 0.500000 0.500000
Si Si8 0.611566 0.149091 0.324462
O O1 0.068898 0.273907 0.420411
O O2 0.320802 0.325588 0.558248
O O3 0.961368 0.123588 0.637318
O O4 0.306018 0.009009 0.559474
O O5 0.734251 0.701425 0.950039
O O6 0.424552 0.856690 0.970895
O O7 0.451072 0.523978 0.121592
O O8 0.688292 0.812809 0.127928
O O9 0.961723 0.382145 0.706760
O O10 0.939778 0.607533 0.801722
O O11 0.282286 0.660586 0.677296
O O12 0.363699 0.881297 0.215642
O O13 0.319404 0.635144 0.427030
O O14 0.614856 0.802565 0.726634
O O15 0.695858 0.067155 0.233626
#
# Coordination Sequence:
#
# PCOD9107511 Si02
#       8
#     2   2   2   2   2   2   1   2
#     4  11  25  42  67  99 138 169 219 262 320 400
#     4   9  20  41  71  93 124 175 224 272 331 371
#     4  11  24  41  64  98 134 172 207 274 329 386
#     4  11  23  42  69  96 132 175 215 270 322 390
#     4  10  22  43  69  93 133 173 214 276 331 383
#     4  10  20  43  71  94 128 174 221 274 321 385
#     4  10  20  40  64  96 126 166 216 258 316 380
#     4  11  25  41  65  99 133 171 220 258 329 400
#
# _framework density 25.718610000000002
#
# number of rings (size 3 to 8) (size 9 to 14) (size 15 to 20)
#    0.000    1.600    2.667    2.000    3.733    5.867 
#    0.000    6.667    2.933    0.000    0.000    0.000 
#    0.000    0.000    0.000    0.000    0.000    0.000 
#
# Total GULP energy -83570.181722 kJ/mol
# GULP energy per Si atom -5571.345448 kJ/mol
# Density = 2.566007 g / cm^3
# Si number density = 25.718610 Si / 1000 Ang^3
#
#
#
# Elastic Constant Matrix: (Units=GPa)
#
#
# Indices 1 2 3 4 5 6 
#
# 1 84.8354 28.7265 23.9696 -12.8372 1.7891 1.7252
# 2 28.7265 111.6839 34.7509 6.3822 2.4780 21.6255
# 3 23.9696 34.7509 64.5060 -5.8168 -4.8372 -1.3640
# 4 -12.8372 6.3822 -5.8168 49.0970 -9.3604 7.5744
# 5 1.7891 2.4780 -4.8372 -9.3604 31.0844 -1.0452
# 6 1.7252 21.6255 -1.3640 7.5744 -1.0452 39.0110
#
#
#
# Elastic Compliance Matrix: (Units=1/GPa)
#
#
# Indices 1 2 3 4 5 6 
#
# 1 0.014273 -0.002827 -0.003450 0.003670 -0.000024 0.000102
# 2 -0.002827 0.013390 -0.006790 -0.002771 -0.003034 -0.007078
# 3 -0.003450 -0.006790 0.021160 0.002788 0.005015 0.004249
# 4 0.003670 -0.002771 0.002788 0.023915 0.007545 -0.002970
# 5 -0.000024 -0.003034 0.005015 0.007545 0.035511 0.001345
# 6 0.000102 -0.007078 0.004249 -0.002970 0.001345 0.030314
#
#
# Mechanical properties :
#
#
# Convention : Reuss Voigt Hill
#
# Bulk Modulus (GPa) = 44.07263 48.43549 46.25406
# Shear Modulus (GPa) = 29.02601 35.41036 32.21819
#
# Velocity S-wave (km/s) = 3.36311 3.71460 3.54322
# Velocity P-wave (km/s) = 5.67929 6.10503 5.89601
#
# Compressibility (1/GPa) = 0.02268982
#
# Stress axis : x y z
#
# Youngs Moduli (GPa) = 70.06124 74.68310 47.26001
#
# Poissons Ratio (x) = 0.21112 0.16302
# Poissons Ratio (y) = 0.19805 0.32090
# Poissons Ratio (z) = 0.24168 0.50710
#
# Static dielectric constant tensor:
#      x y z
#    x 1.953390 -0.015530 0.012150 
#    y -0.015530 2.064140 0.024710 
#    z 0.012150 0.024710 2.084120 
# 
# From -- ./inp_files/34479.got.cif
#   From: 2010.05.17/outbox.cif.g08.bks.cpg/sg2_18_cif.got.tgz:34479.got - 2010.06.03 11:33:40.
