data_PCOD9107954
_publ_section_title
;
Structure prediction by ZEFSAII (Michael W. Deem and Ramdas Pophale) SiO2 
 PCOD9107954
Probable space group: P -1
;
_chemical_formula_sum "Si O2"
_cell_formula_units_Z 12
_cell_length_a 8.938208
_cell_length_b 10.964556
_cell_length_c 8.510010
_cell_angle_alpha 93.136164
_cell_angle_beta 47.824396
_cell_angle_gamma 115.184912
_cell_volume 525.094869
_symmetry_space_group_name_H-M "P -1"
_symmetry_group_IT_number 2
_symmetry_cell_setting 'triclinic'
loop_
_space_group_symop_operation_xyz
x,y,z
-x,-y,-z
loop_
_atom_site_type_symbol
_atom_site_label
_atom_site_fract_x
_atom_site_fract_y
_atom_site_fract_z
Si Si1 0.877149 0.330295 0.574993
Si Si2 0.936481 0.751910 0.182371
Si Si3 0.349878 0.397902 0.333162
Si Si4 0.361157 0.759175 0.921193
Si Si5 0.405812 0.266612 0.838198
Si Si6 0.802871 0.969816 0.763115
O O1 0.642650 0.262597 0.628423
O O2 0.000000 0.500000 0.500000
O O3 0.102997 0.313111 0.400722
O O4 0.766793 0.288839 0.823500
O O5 0.752373 0.623388 0.418159
O O6 0.785200 0.778307 0.166135
O O7 0.084129 0.892380 0.196264
O O8 0.142365 0.730484 0.964290
O O9 0.510948 0.328199 0.211768
O O10 0.495948 0.564106 0.190799
O O11 0.572287 0.923580 0.813483
O O12 0.285081 0.163338 0.064797
O O13 0.000000 0.000000 0.500000
#
# Coordination Sequence:
#
# PCOD9107954 Si02
#       6
#     2   2   2   2   2   2
#     4   8  18  35  58  90 117 161 201 247 297 364
#     4  11  22  41  64  92 130 159 202 260 314 364
#     4  10  20  40  66  92 125 162 206 250 311 379
#     4  10  21  38  64  89 122 165 208 248 308 368
#     4  10  22  39  65  96 127 157 203 268 310 355
#     4  11  22  42  65  87 121 173 213 249 300 375
#
# _framework density 22.853013000000001
#
# number of rings (size 3 to 8) (size 9 to 14) (size 15 to 20)
#    0.000    2.000    1.667    1.500    0.000    6.667 
#    0.000    4.167    0.000    0.000    0.000    0.000 
#    0.000    0.000    0.000    0.000    0.000    0.000 
#
# Total GULP energy -66901.543615 kJ/mol
# GULP energy per Si atom -5575.128635 kJ/mol
# Density = 2.280100 g / cm^3
# Si number density = 22.853013 Si / 1000 Ang^3
#
#
#
# Elastic Constant Matrix: (Units=GPa)
#
#
# Indices 1 2 3 4 5 6 
#
# 1 148.5448 21.4609 58.3658 -2.6593 -40.3724 -15.2172
# 2 21.4609 61.5926 52.1117 -8.2547 -8.7738 -10.5548
# 3 58.3658 52.1117 126.6947 -16.7625 -36.8752 -10.1528
# 4 -2.6593 -8.2547 -16.7625 38.7283 -14.8831 -6.0080
# 5 -40.3724 -8.7738 -36.8752 -14.8831 39.8530 -3.5813
# 6 -15.2172 -10.5548 -10.1528 -6.0080 -3.5813 22.2140
#
#
#
# Elastic Compliance Matrix: (Units=1/GPa)
#
#
# Indices 1 2 3 4 5 6 
#
# 1 0.015343 0.000514 0.006027 0.019159 0.030510 0.023610
# 2 0.000514 0.026664 -0.011538 0.000551 -0.003419 0.007346
# 3 0.006027 -0.011538 0.030124 0.033348 0.046492 0.028929
# 4 0.019159 0.000551 0.033348 0.085923 0.088416 0.066120
# 5 0.030510 -0.003419 0.046492 0.088416 0.139090 0.086861
# 6 0.023610 0.007346 0.028929 0.066120 0.086861 0.109789
#
#
# Mechanical properties :
#
#
# Convention : Reuss Voigt Hill
#
# Bulk Modulus (GPa) = 16.09295 66.74543 41.41919
# Shear Modulus (GPa) = 11.42493 33.81864 22.62178
#
# Velocity S-wave (km/s) = 2.23834 3.85103 3.14965
# Velocity P-wave (km/s) = 3.70641 7.00312 5.60273
#
# Compressibility (1/GPa) = 0.06213902
#
# Stress axis : x y z
#
# Youngs Moduli (GPa) = 65.17456 37.50387 33.19567
#
# Poissons Ratio (x) = -0.01929 -0.20007
# Poissons Ratio (y) = -0.03352 0.38301
# Poissons Ratio (z) = -0.39281 0.43271
#
# Static dielectric constant tensor:
#      x y z
#    x 1.998890 -0.039800 -0.063450 
#    y -0.039800 2.001290 0.000140 
#    z -0.063450 0.000140 1.858790 
# 
# From -- ./inp_files/38659.got.cif
#   From: 2010.05.17/outbox.cif.g08.bks.cpg/sg2_20_cif.got.tgz:38659.got - 2010.06.03 11:33:40.
