data_PCOD9107651
_publ_section_title
;
Structure prediction by ZEFSAII (Michael W. Deem and Ramdas Pophale) SiO2 
 PCOD9107651
Probable space group: P -1
;
_chemical_formula_sum "Si O2"
_cell_formula_units_Z 16
_cell_length_a 22.213625
_cell_length_b 5.377758
_cell_length_c 6.257450
_cell_angle_alpha 89.945590
_cell_angle_beta 117.212013
_cell_angle_gamma 105.422744
_cell_volume 634.459943
_symmetry_space_group_name_H-M "P -1"
_symmetry_group_IT_number 2
_symmetry_cell_setting 'triclinic'
loop_
_space_group_symop_operation_xyz
x,y,z
-x,-y,-z
loop_
_atom_site_type_symbol
_atom_site_label
_atom_site_fract_x
_atom_site_fract_y
_atom_site_fract_z
Si Si1 0.788248 0.807228 0.979131
Si Si2 0.079447 0.817391 0.691548
Si Si3 0.420840 0.369055 0.286672
Si Si4 0.326811 0.413397 0.517060
Si Si5 0.177553 0.539158 0.597955
Si Si6 0.547510 0.293070 0.041868
Si Si7 0.044125 0.175369 0.259554
Si Si8 0.305827 0.004951 0.861208
O O1 0.801480 0.652522 0.205307
O O2 0.739351 0.970309 0.001183
O O3 0.865086 0.997759 0.050073
O O4 0.744394 0.613432 0.729408
O O5 0.126732 0.663166 0.654112
O O6 0.009183 0.684710 0.713319
O O7 0.059296 0.987449 0.469295
O O8 0.500000 0.500000 0.500000
O O9 0.374739 0.318665 0.423874
O O10 0.415002 0.603025 0.123017
O O11 0.386755 0.109481 0.086799
O O12 0.385562 0.671853 0.691944
O O13 0.307760 0.219882 0.684793
O O14 0.120996 0.377446 0.332248
O O15 0.253824 0.743440 0.669346
O O16 0.500000 0.500000 0.000000
O O17 0.500000 0.000000 0.000000
O O18 0.000000 0.000000 0.000000
#
# Coordination Sequence:
#
# PCOD9107651 Si02
#       8
#     2   2   2   2   2   2   2   2
#     4   9  20  39  60  87 123 169 213 266 325 386
#     4   9  20  39  61  89 127 159 211 268 318 389
#     4  10  20  41  67  93 126 170 219 272 338 401
#     4  10  21  43  62  92 129 170 214 269 332 401
#     4  10  20  40  65  90 124 169 215 270 324 392
#     4  11  24  44  68  99 135 173 222 283 339 404
#     4  10  21  38  62  91 127 164 206 265 329 389
#     4   9  21  39  58  89 129 162 214 268 324 388
#
# _framework density 25.218295000000001
#
# number of rings (size 3 to 8) (size 9 to 14) (size 15 to 20)
#    0.000    2.250    1.250    0.375    0.000    5.000 
#   15.750   12.500    0.000    0.000    0.000    0.000 
#    0.000    0.000    0.000    0.000    0.000    0.000 
#
# Total GULP energy -89136.336435 kJ/mol
# GULP energy per Si atom -5571.021027 kJ/mol
# Density = 2.516090 g / cm^3
# Si number density = 25.218295 Si / 1000 Ang^3
#
#
#
# Elastic Constant Matrix: (Units=GPa)
#
#
# Indices 1 2 3 4 5 6 
#
# 1 122.7632 28.6470 33.0819 18.9256 18.5156 20.2302
# 2 28.6470 113.3374 42.5090 47.6642 24.2332 35.6254
# 3 33.0819 42.5090 167.8435 67.5760 36.6324 29.3412
# 4 18.9256 47.6642 67.5760 45.8532 22.7226 19.0450
# 5 18.5156 24.2332 36.6324 22.7226 42.8898 14.8699
# 6 20.2302 35.6254 29.3412 19.0450 14.8699 42.5826
#
#
#
# Elastic Compliance Matrix: (Units=1/GPa)
#
#
# Indices 1 2 3 4 5 6 
#
# 1 0.009263 -0.001125 -0.001018 0.000910 -0.002137 -0.002419
# 2 -0.001125 0.022461 0.009372 -0.032773 0.000728 -0.010310
# 3 -0.001018 0.009372 0.018665 -0.034496 -0.000980 -0.004447
# 4 0.000910 -0.032773 -0.034496 0.110256 -0.012885 0.005943
# 5 -0.002137 0.000728 -0.000980 -0.012885 0.033128 -0.004724
# 6 -0.002419 -0.010310 -0.004447 0.005943 -0.004724 0.035315
#
#
# Mechanical properties :
#
#
# Convention : Reuss Voigt Hill
#
# Bulk Modulus (GPa) = 15.42114 68.04664 41.73389
# Shear Modulus (GPa) = 21.16436 46.24555 33.70496
#
# Velocity S-wave (km/s) = 2.90012 4.28695 3.65982
# Velocity P-wave (km/s) = 4.16444 7.17952 5.86890
#
# Compressibility (1/GPa) = 0.06484605
#
# Stress axis : x y z
#
# Youngs Moduli (GPa) = 107.95320 44.52261 53.57599
#
# Poissons Ratio (x) = 0.05009 0.05454
# Poissons Ratio (y) = 0.12145 -0.50209
# Poissons Ratio (z) = 0.10989 -0.41725
#
# Static dielectric constant tensor:
#      x y z
#    x 2.127150 -0.068510 0.019220 
#    y -0.068510 2.054420 0.137750 
#    z 0.019220 0.137750 2.054140 
# 
# From -- ./inp_files/125794.got.cif
#   From: 2010.05.17/outbox.cif.g08.bks.cpg/sg2_63_cif.got.tgz:125794.got - 2010.06.03 11:33:40.
