data_PCOD9107936
_publ_section_title
;
Structure prediction by ZEFSAII (Michael W. Deem and Ramdas Pophale) SiO2 
 PCOD9107936
Probable space group: P -1
;
_chemical_formula_sum "Si O2"
_cell_formula_units_Z 14
_cell_length_a 12.120510
_cell_length_b 13.474448
_cell_length_c 8.333995
_cell_angle_alpha 76.388584
_cell_angle_beta 49.574904
_cell_angle_gamma 38.930833
_cell_volume 538.295112
_symmetry_space_group_name_H-M "P -1"
_symmetry_group_IT_number 2
_symmetry_cell_setting 'triclinic'
loop_
_space_group_symop_operation_xyz
x,y,z
-x,-y,-z
loop_
_atom_site_type_symbol
_atom_site_label
_atom_site_fract_x
_atom_site_fract_y
_atom_site_fract_z
Si Si1 0.740743 0.927077 0.086024
Si Si2 0.738119 0.374631 0.507130
Si Si3 0.491299 0.327158 0.632758
Si Si4 0.067868 0.057845 0.807119
Si Si5 0.807705 0.398065 0.786723
Si Si6 0.696352 0.665436 0.667295
Si Si7 0.090192 0.361957 0.803786
O O1 0.769593 0.968869 0.210858
O O2 0.484275 0.134596 0.173796
O O3 0.736245 0.810201 0.172518
O O4 0.009796 0.790766 0.786382
O O5 0.574779 0.364826 0.670966
O O6 0.560246 0.567218 0.512056
O O7 0.860673 0.336607 0.574707
O O8 0.734148 0.103822 0.456367
O O9 0.206486 0.445244 0.910859
O O10 0.816701 0.278517 0.901286
O O11 0.000000 0.000000 0.000000
O O12 0.605013 0.613896 0.853133
O O13 0.017152 0.328923 0.736322
O O14 0.749190 0.643279 0.433404
O O15 0.000000 0.500000 0.500000
#
# Coordination Sequence:
#
# PCOD9107936 Si02
#       7
#     2   2   2   2   2   2   2
#     4  10  20  40  66  91 127 167 208 252 315 371
#     4  10  21  39  63  96 126 162 205 259 317 369
#     4  10  21  40  63  91 131 164 204 254 313 383
#     4  11  22  42  63  93 126 165 208 254 322 381
#     4  10  23  39  60  94 125 161 213 255 312 365
#     4  10  21  42  62  91 126 164 214 261 303 362
#     4   9  21  41  64  90 124 171 207 254 308 368
#
# _framework density 26.008039
#
# number of rings (size 3 to 8) (size 9 to 14) (size 15 to 20)
#    0.000    2.000    1.429    1.286    2.000    3.429 
#    5.143   14.286    0.000    0.000    0.000    0.000 
#    0.000    0.000    0.000    0.000    0.000    0.000 
#
# Total GULP energy -78072.689959 kJ/mol
# GULP energy per Si atom -5576.620711 kJ/mol
# Density = 2.594884 g / cm^3
# Si number density = 26.008039 Si / 1000 Ang^3
#
#
#
# Elastic Constant Matrix: (Units=GPa)
#
#
# Indices 1 2 3 4 5 6 
#
# 1 67.5858 6.1731 -2.5756 5.3264 11.7513 13.8099
# 2 6.1731 192.7021 63.9820 -8.2899 -7.9080 30.0359
# 3 -2.5756 63.9820 90.8833 -4.2172 -1.4766 8.7923
# 4 5.3264 -8.2899 -4.2172 42.4000 8.4085 0.7901
# 5 11.7513 -7.9080 -1.4766 8.4085 39.9268 -6.1151
# 6 13.8099 30.0359 8.7923 0.7901 -6.1151 34.5221
#
#
#
# Elastic Compliance Matrix: (Units=1/GPa)
#
#
# Indices 1 2 3 4 5 6 
#
# 1 0.017736 0.000107 0.001123 -0.000681 -0.006328 -0.008580
# 2 0.000107 0.007704 -0.004835 0.001065 0.000250 -0.005494
# 3 0.001123 -0.004835 0.014458 0.000528 -0.000879 -0.000092
# 4 -0.000681 0.001065 0.000528 0.025001 -0.005184 -0.002279
# 5 -0.006328 0.000250 -0.000879 -0.005184 0.029216 0.007832
# 6 -0.008580 -0.005494 -0.000092 -0.002279 0.007832 0.038642
#
#
# Mechanical properties :
#
#
# Convention : Reuss Voigt Hill
#
# Bulk Modulus (GPa) = 30.59303 54.03670 42.31486
# Shear Modulus (GPa) = 33.14226 42.27589 37.70907
#
# Velocity S-wave (km/s) = 3.57362 4.03611 3.81189
# Velocity P-wave (km/s) = 5.36806 6.52245 5.97321
#
# Compressibility (1/GPa) = 0.03268719
#
# Stress axis : x y z
#
# Youngs Moduli (GPa) = 56.38257 129.80536 69.16479
#
# Poissons Ratio (x) = -0.01394 -0.07765
# Poissons Ratio (y) = -0.00606 0.33444
# Poissons Ratio (z) = -0.06330 0.62767
#
# Static dielectric constant tensor:
#      x y z
#    x 2.167210 0.019350 -0.024010 
#    y 0.019350 2.173050 -0.054430 
#    z -0.024010 -0.054430 2.111210 
# 
# From -- ./inp_files/188308.got.cif
#   From: 2010.05.17/outbox.cif.g08.bks.cpg/sg2_95_cif.got.tgz:188308.got - 2010.06.03 11:33:40.
