data_PCOD9107451
_publ_section_title
;
Structure prediction by ZEFSAII (Michael W. Deem and Ramdas Pophale) SiO2 
 PCOD9107451
Probable space group: P -1
;
_chemical_formula_sum "Si O2"
_cell_formula_units_Z 16
_cell_length_a 22.067079
_cell_length_b 9.969451
_cell_length_c 8.809719
_cell_angle_alpha 42.813544
_cell_angle_beta 50.865903
_cell_angle_gamma 28.251906
_cell_volume 622.797527
_symmetry_space_group_name_H-M "P -1"
_symmetry_group_IT_number 2
_symmetry_cell_setting 'triclinic'
loop_
_space_group_symop_operation_xyz
x,y,z
-x,-y,-z
loop_
_atom_site_type_symbol
_atom_site_label
_atom_site_fract_x
_atom_site_fract_y
_atom_site_fract_z
Si Si1 0.568062 0.689796 0.445398
Si Si2 0.886475 0.601388 0.014173
Si Si3 0.778793 0.141256 0.167372
Si Si4 0.363756 0.438632 0.237768
Si Si5 0.222816 0.499361 0.919506
Si Si6 0.653992 0.041652 0.592359
Si Si7 0.814707 0.545518 0.469256
Si Si8 0.990305 0.582974 0.621869
O O1 0.596256 0.533997 0.693430
O O2 0.687657 0.554459 0.289070
O O3 0.491762 0.699499 0.443999
O O4 0.473979 0.062251 0.329078
O O5 0.886063 0.396914 0.088050
O O6 0.799369 0.702104 0.208782
O O7 0.000000 0.500000 0.000000
O O8 0.865622 0.789148 0.747257
O O9 0.819896 0.263725 0.078023
O O10 0.717715 0.127702 0.406149
O O11 0.898609 0.793974 0.189212
O O12 0.672455 0.376081 0.010828
O O13 0.233809 0.578224 0.371898
O O14 0.309499 0.161059 0.150966
O O15 0.727843 0.796218 0.535229
O O16 0.956000 0.311128 0.505077
O O17 0.000000 0.500000 0.500000
#
# Coordination Sequence:
#
# PCOD9107451 Si02
#       8
#     2   2   2   2   2   2   2   2
#     4  10  21  39  67  95 130 178 207 260 326 381
#     4  10  21  38  66  90 120 170 217 261 320 378
#     4  11  24  40  65  96 131 171 214 264 324 388
#     4  10  20  40  64  92 130 170 215 256 322 388
#     4  12  22  41  67  96 134 168 215 266 324 385
#     4  10  22  40  65  95 135 169 209 265 321 383
#     4   9  17  39  62  86 124 164 208 262 319 372
#     4  10  22  41  65  92 128 167 215 271 331 374
#
# _framework density 25.690532000000001
#
# number of rings (size 3 to 8) (size 9 to 14) (size 15 to 20)
#    0.000    1.750    3.750    1.875    0.000    1.500 
#    0.000    9.375    0.000    0.000    0.000    0.000 
#    0.000    0.000    0.000    0.000    0.000    0.000 
#
# Total GULP energy -89166.042187 kJ/mol
# GULP energy per Si atom -5572.877637 kJ/mol
# Density = 2.563206 g / cm^3
# Si number density = 25.690532 Si / 1000 Ang^3
#
#
#
# Elastic Constant Matrix: (Units=GPa)
#
#
# Indices 1 2 3 4 5 6 
#
# 1 156.3006 25.9313 21.2799 -12.2534 2.6719 0.1030
# 2 25.9313 37.2834 21.8461 9.5430 0.0725 3.0610
# 3 21.2799 21.8461 107.6716 15.7681 24.0767 5.7356
# 4 -12.2534 9.5430 15.7681 34.2435 -6.3933 -1.6200
# 5 2.6719 0.0725 24.0767 -6.3933 47.2732 15.4685
# 6 0.1030 3.0610 5.7356 -1.6200 15.4685 19.0981
#
#
#
# Elastic Compliance Matrix: (Units=1/GPa)
#
#
# Indices 1 2 3 4 5 6 
#
# 1 0.008036 -0.006342 -0.001269 0.005381 0.000458 0.001439
# 2 -0.006342 0.037717 -0.005554 -0.009761 0.004764 -0.009030
# 3 -0.001269 -0.005554 0.013397 -0.006546 -0.008740 0.003397
# 4 0.005381 -0.009761 -0.006546 0.038399 0.008200 0.000117
# 5 0.000458 0.004764 -0.008740 0.008200 0.035164 -0.025927
# 6 0.001439 -0.009030 0.003397 0.000117 -0.025927 0.073790
#
#
# Mechanical properties :
#
#
# Convention : Reuss Voigt Hill
#
# Bulk Modulus (GPa) = 30.46833 48.81891 39.64362
# Shear Modulus (GPa) = 20.51084 35.60285 28.05684
#
# Velocity S-wave (km/s) = 2.82863 3.72672 3.30829
# Velocity P-wave (km/s) = 4.74907 6.12877 5.48250
#
# Compressibility (1/GPa) = 0.03282096
#
# Stress axis : x y z
#
# Youngs Moduli (GPa) = 124.44194 26.51293 74.64249
#
# Poissons Ratio (x) = 0.16815 0.09469
# Poissons Ratio (y) = 0.78922 0.41458
# Poissons Ratio (z) = 0.15786 0.14726
#
# Static dielectric constant tensor:
#      x y z
#    x 2.128040 -0.027280 0.017190 
#    y -0.027280 2.199430 -0.049180 
#    z 0.017190 -0.049180 2.089940 
# 
# From -- ./inp_files/353326.got.cif
#   From: 2010.05.17/outbox.cif.g08.bks.cpg/sg2_177_cif.got.tgz:353326.got - 2010.06.03 11:33:40.
