data_PCOD9107466
_publ_section_title
;
Structure prediction by ZEFSAII (Michael W. Deem and Ramdas Pophale) SiO2 
 PCOD9107466
Probable space group: P -1
;
_chemical_formula_sum "Si O2"
_cell_formula_units_Z 14
_cell_length_a 8.615644
_cell_length_b 11.858767
_cell_length_c 12.608131
_cell_angle_alpha 32.562235
_cell_angle_beta 113.150942
_cell_angle_gamma 93.714400
_cell_volume 537.097959
_symmetry_space_group_name_H-M "P -1"
_symmetry_group_IT_number 2
_symmetry_cell_setting 'triclinic'
loop_
_space_group_symop_operation_xyz
x,y,z
-x,-y,-z
loop_
_atom_site_type_symbol
_atom_site_label
_atom_site_fract_x
_atom_site_fract_y
_atom_site_fract_z
Si Si1 0.236053 0.692330 0.958956
Si Si2 0.061171 0.426772 0.224621
Si Si3 0.064538 0.831029 0.366983
Si Si4 0.277865 0.227981 0.663914
Si Si5 0.414810 0.339888 0.808632
Si Si6 0.315971 0.034587 0.288806
Si Si7 0.315129 0.925131 0.615673
O O1 0.171745 0.500954 0.110627
O O2 0.410144 0.616562 0.152273
O O3 0.321324 0.711027 0.855295
O O4 0.056160 0.963309 0.737068
O O5 0.167329 0.364378 0.417913
O O6 0.100072 0.172018 0.390358
O O7 0.844271 0.671442 0.980700
O O8 0.226015 0.543073 0.665155
O O9 0.202388 0.925143 0.278933
O O10 0.879313 0.821283 0.276455
O O11 0.334850 0.379233 0.635994
O O12 0.477016 0.956670 0.910172
O O13 0.345949 0.903465 0.516055
O O14 0.522560 0.018495 0.338213
#
# Coordination Sequence:
#
# PCOD9107466 Si02
#       7
#     2   2   2   2   2   2   2
#     4  10  23  39  66  94 129 163 219 250 325 370
#     4  11  22  42  63  96 128 167 209 266 307 381
#     4  10  20  41  61  96 123 166 210 263 307 382
#     4  10  22  38  66  95 130 167 213 254 324 367
#     4  10  20  40  64  93 129 171 205 266 309 377
#     4  10  25  41  67  92 127 164 219 253 328 371
#     4  11  22  46  62  96 126 171 206 267 313 381
#
# _framework density 26.066008
#
# number of rings (size 3 to 8) (size 9 to 14) (size 15 to 20)
#    0.000    1.714    2.857    1.714    2.000    2.857 
#    2.571    5.000    0.000    0.000    0.000    0.000 
#    0.000    0.000    0.000    0.000    0.000    0.000 
#
# Total GULP energy -78202.658789 kJ/mol
# GULP energy per Si atom -5585.904199 kJ/mol
# Density = 2.600668 g / cm^3
# Si number density = 26.066008 Si / 1000 Ang^3
#
#
#
# Elastic Constant Matrix: (Units=GPa)
#
#
# Indices 1 2 3 4 5 6 
#
# 1 107.3002 20.0868 40.9929 2.3958 12.6096 18.0907
# 2 20.0868 90.4395 34.6199 6.9490 7.7850 14.9581
# 3 40.9929 34.6199 123.2010 -15.5515 27.6858 -12.1411
# 4 2.3958 6.9490 -15.5515 42.6956 -5.3445 5.0057
# 5 12.6096 7.7850 27.6858 -5.3445 41.5369 -2.2619
# 6 18.0907 14.9581 -12.1411 5.0057 -2.2619 29.5613
#
#
#
# Elastic Compliance Matrix: (Units=1/GPa)
#
#
# Indices 1 2 3 4 5 6 
#
# 1 0.013369 0.001376 -0.005895 -0.001981 -0.001244 -0.011059
# 2 0.001376 0.015118 -0.006143 -0.003576 -0.000184 -0.010423
# 3 -0.005895 -0.006143 0.014815 0.004656 -0.005704 0.011576
# 4 -0.001981 -0.003576 0.004656 0.025926 0.001540 0.000661
# 5 -0.001244 -0.000184 -0.005704 0.001540 0.028511 0.000432
# 6 -0.011059 -0.010423 0.011576 0.000661 0.000432 0.050545
#
#
# Mechanical properties :
#
#
# Convention : Reuss Voigt Hill
#
# Bulk Modulus (GPa) = 45.50294 56.92665 51.21480
# Shear Modulus (GPa) = 28.25916 37.77485 33.01700
#
# Velocity S-wave (km/s) = 3.29620 3.81097 3.56289
# Velocity P-wave (km/s) = 5.65520 6.42273 6.05114
#
# Compressibility (1/GPa) = 0.02197660
#
# Stress axis : x y z
#
# Youngs Moduli (GPa) = 74.79879 66.14804 67.50018
#
# Poissons Ratio (x) = -0.09099 0.39792
# Poissons Ratio (y) = -0.10289 0.41465
# Poissons Ratio (z) = 0.44095 0.40635
#
# Static dielectric constant tensor:
#      x y z
#    x 2.085680 -0.002720 0.037200 
#    y -0.002720 2.056430 0.029170 
#    z 0.037200 0.029170 2.063940 
# 
# From -- ./inp_files/505071.got.cif
#   From: 2010.05.17/outbox.cif.g08.bks.cpg/sg2_253_cif.got.tgz:505071.got - 2010.06.03 11:33:40.
