data_PCOD9107141
_publ_section_title
;
Structure prediction by ZEFSAII (Michael W. Deem and Ramdas Pophale) SiO2 
 PCOD9107141
Probable space group: P -1
;
_chemical_formula_sum "Si O2"
_cell_formula_units_Z 16
_cell_length_a 9.594590
_cell_length_b 9.105406
_cell_length_c 16.517218
_cell_angle_alpha 39.990860
_cell_angle_beta 59.721178
_cell_angle_gamma 75.943619
_cell_volume 773.647322
_symmetry_space_group_name_H-M "P -1"
_symmetry_group_IT_number 2
_symmetry_cell_setting 'triclinic'
loop_
_space_group_symop_operation_xyz
x,y,z
-x,-y,-z
loop_
_atom_site_type_symbol
_atom_site_label
_atom_site_fract_x
_atom_site_fract_y
_atom_site_fract_z
Si Si1 0.794269 0.818730 0.891679
Si Si2 0.823523 0.054657 0.515231
Si Si3 0.578171 0.992618 0.758594
Si Si4 0.711311 0.501084 0.343042
Si Si5 0.078892 0.168604 0.980731
Si Si6 0.762229 0.268782 0.114160
Si Si7 0.156791 0.026809 0.636152
Si Si8 0.343013 0.438427 0.493192
O O1 0.641835 0.892040 0.863148
O O2 0.958401 0.915728 0.746690
O O3 0.847310 0.923929 0.921367
O O4 0.757195 0.534438 0.025114
O O5 0.830668 0.331800 0.396434
O O6 0.770332 0.981795 0.470184
O O7 0.692451 0.948963 0.668366
O O8 0.000000 0.000000 0.500000
O O9 0.390891 0.863229 0.842128
O O10 0.613487 0.277101 0.639149
O O11 0.770754 0.643092 0.185370
O O12 0.515118 0.370255 0.450962
O O13 0.715883 0.648229 0.362326
O O14 0.934634 0.278723 0.012291
O O15 0.000000 0.000000 0.000000
O O16 0.767606 0.118637 0.257717
O O17 0.201412 0.299795 0.534303
#
# Coordination Sequence:
#
# PCOD9107141 Si02
#       8
#     2   2   2   2   2   2   2   2
#     4  11  23  41  62  92 132 168 209 259 316 377
#     4  11  22  38  61  93 125 161 203 269 311 369
#     4  11  24  43  64  92 136 165 210 259 326 371
#     4  10  20  40  63  88 125 161 214 251 311 374
#     4  11  22  39  65  92 123 169 216 257 302 381
#     4  11  23  41  66  91 124 176 212 258 307 378
#     4  11  21  40  65  95 124 160 222 255 319 375
#     4  10  22  40  66  93 124 167 203 266 316 377
#
# _framework density 20.681258
#
# number of rings (size 3 to 8) (size 9 to 14) (size 15 to 20)
#    0.000    1.250    1.250    7.875    0.000    3.500 
#    2.250    2.500    0.000    0.000    0.000    0.000 
#    0.000    0.000    0.000    0.000    0.000    0.000 
#
# Total GULP energy -89335.258559 kJ/mol
# GULP energy per Si atom -5583.453660 kJ/mol
# Density = 2.063419 g / cm^3
# Si number density = 20.681258 Si / 1000 Ang^3
#
#
#
# Elastic Constant Matrix: (Units=GPa)
#
#
# Indices 1 2 3 4 5 6 
#
# 1 111.8912 33.1277 31.4794 -1.5406 11.9911 6.5185
# 2 33.1277 80.8325 39.2228 4.2364 5.3394 11.1889
# 3 31.4794 39.2228 62.6396 20.2222 -0.9390 7.6054
# 4 -1.5406 4.2364 20.2222 36.9689 7.9803 -4.2273
# 5 11.9911 5.3394 -0.9390 7.9803 30.1939 5.1190
# 6 6.5185 11.1889 7.6054 -4.2273 5.1190 32.6393
#
#
#
# Elastic Compliance Matrix: (Units=1/GPa)
#
#
# Indices 1 2 3 4 5 6 
#
# 1 0.012253 -0.001411 -0.007719 0.006586 -0.006898 0.001770
# 2 -0.001411 0.019655 -0.013275 0.005705 -0.004511 -0.001916
# 3 -0.007719 -0.013275 0.036595 -0.022663 0.013819 -0.007537
# 4 0.006586 0.005705 -0.022663 0.044104 -0.017768 0.010508
# 5 -0.006898 -0.004511 0.013819 -0.017768 0.043376 -0.009400
# 6 0.001770 -0.001916 -0.007537 0.010508 -0.009400 0.035533
#
#
# Mechanical properties :
#
#
# Convention : Reuss Voigt Hill
#
# Bulk Modulus (GPa) = 42.20623 51.44700 46.82662
# Shear Modulus (GPa) = 20.47299 30.06265 25.26782
#
# Velocity S-wave (km/s) = 3.14973 3.81677 3.49918
# Velocity P-wave (km/s) = 5.80345 6.65986 6.24635
#
# Compressibility (1/GPa) = 0.02369318
#
# Stress axis : x y z
#
# Youngs Moduli (GPa) = 81.61028 50.87664 27.32638
#
# Poissons Ratio (x) = 0.07178 0.21093
# Poissons Ratio (y) = 0.11514 0.36277
# Poissons Ratio (z) = 0.62994 0.67541
#
# Static dielectric constant tensor:
#      x y z
#    x 1.758710 0.014480 0.010280 
#    y 0.014480 1.779900 -0.012560 
#    z 0.010280 -0.012560 1.738900 
# 
# From -- ./inp_files/244397.got.cif
#   From: 2010.05.17/outbox.cif.g08.bks.cpg/sg2_123_cif.got.tgz:244397.got - 2010.06.03 11:33:40.
