data_PCOD9107376
_publ_section_title
;
Structure prediction by ZEFSAII (Michael W. Deem and Ramdas Pophale) SiO2 
 PCOD9107376
Probable space group: P -1
;
_chemical_formula_sum "Si O2"
_cell_formula_units_Z 16
_cell_length_a 12.143626
_cell_length_b 9.740971
_cell_length_c 20.248115
_cell_angle_alpha 38.037785
_cell_angle_beta 136.565655
_cell_angle_gamma 106.773956
_cell_volume 754.352563
_symmetry_space_group_name_H-M "P -1"
_symmetry_group_IT_number 2
_symmetry_cell_setting 'triclinic'
loop_
_space_group_symop_operation_xyz
x,y,z
-x,-y,-z
loop_
_atom_site_type_symbol
_atom_site_label
_atom_site_fract_x
_atom_site_fract_y
_atom_site_fract_z
Si Si1 0.173676 0.751944 0.115579
Si Si2 0.579255 0.806088 0.801405
Si Si3 0.987553 0.807754 0.239864
Si Si4 0.203755 0.226233 0.373448
Si Si5 0.068157 0.867425 0.778856
Si Si6 0.889484 0.459222 0.269426
Si Si7 0.491401 0.337162 0.618245
Si Si8 0.740161 0.168890 0.261125
O O1 0.204794 0.457193 0.247011
O O2 0.397737 0.658316 0.271485
O O3 0.000000 0.000000 0.000000
O O4 0.087617 0.926942 0.942894
O O5 0.454764 0.793884 0.810580
O O6 0.418762 0.990692 0.599742
O O7 0.627279 0.999922 0.780266
O O8 0.783657 0.469114 0.000556
O O9 0.239563 0.511588 0.450477
O O10 0.847320 0.720527 0.193219
O O11 0.969887 0.913827 0.265594
O O12 0.143581 0.064239 0.366139
O O13 0.010934 0.420622 0.269908
O O14 0.195076 0.855827 0.776783
O O15 0.715154 0.438483 0.180454
O O16 0.057053 0.152809 0.499014
O O17 0.500000 0.500000 0.500000
#
# Coordination Sequence:
#
# PCOD9107376 Si02
#       8
#     2   2   2   2   2   2   2   2
#     4  12  21  38  67  93 122 165 214 256 301 370
#     4  11  21  42  67  94 122 166 219 247 303 387
#     4  12  25  42  61 100 128 159 208 265 313 362
#     4  10  20  40  64  88 125 167 205 253 307 376
#     4  11  26  39  63  95 132 162 203 263 321 358
#     4   9  17  38  65  90 119 163 211 255 304 369
#     4  12  22  40  69  94 118 166 214 254 303 376
#     4   9  19  39  67  90 118 171 211 250 305 376
#
# _framework density 21.210242000000001
#
# number of rings (size 3 to 8) (size 9 to 14) (size 15 to 20)
#    0.000    1.250    6.250    1.875    1.750    2.000 
#    0.000    1.875    0.000    0.000    0.000    0.000 
#    0.000    0.000    0.000    0.000    0.000    0.000 
#
# Total GULP energy -89365.118698 kJ/mol
# GULP energy per Si atom -5585.319919 kJ/mol
# Density = 2.116197 g / cm^3
# Si number density = 21.210242 Si / 1000 Ang^3
#
#
#
# Elastic Constant Matrix: (Units=GPa)
#
#
# Indices 1 2 3 4 5 6 
#
# 1 33.7257 36.2385 12.9718 -2.9943 -16.3856 10.0719
# 2 36.2385 135.0752 2.6548 -9.7105 -22.6264 -3.5842
# 3 12.9718 2.6548 76.8282 5.8173 -19.3046 2.2647
# 4 -2.9943 -9.7105 5.8173 32.2001 2.3837 -3.8817
# 5 -16.3856 -22.6264 -19.3046 2.3837 20.5359 -4.4610
# 6 10.0719 -3.5842 2.2647 -3.8817 -4.4610 22.6767
#
#
#
# Elastic Compliance Matrix: (Units=1/GPa)
#
#
# Indices 1 2 3 4 5 6 
#
# 1 0.068739 -0.013953 -0.002039 -0.003047 0.032103 -0.026738
# 2 -0.013953 0.012904 0.003492 0.002553 0.008231 0.009944
# 3 -0.002039 0.003492 0.018671 -0.003685 0.020866 0.003067
# 4 -0.003047 0.002553 -0.003685 0.033430 -0.005493 0.006767
# 5 0.032103 0.008231 0.020866 -0.005493 0.104631 0.004602
# 6 -0.026738 0.009944 0.003067 0.006767 0.004602 0.059303
#
#
# Mechanical properties :
#
#
# Convention : Reuss Voigt Hill
#
# Bulk Modulus (GPa) = 13.27748 38.81771 26.04760
# Shear Modulus (GPa) = 14.37680 28.00014 21.18847
#
# Velocity S-wave (km/s) = 2.60633 3.63729 3.16408
# Velocity P-wave (km/s) = 3.91546 5.99842 5.06516
#
# Compressibility (1/GPa) = 0.07531548
#
# Stress axis : x y z
#
# Youngs Moduli (GPa) = 14.54779 77.49498 53.55843
#
# Poissons Ratio (x) = 1.08125 0.10918
# Poissons Ratio (y) = 0.20298 -0.18701
# Poissons Ratio (z) = 0.02966 -0.27059
#
# Static dielectric constant tensor:
#      x y z
#    x 1.746190 0.029650 0.014990 
#    y 0.029650 1.786660 0.035190 
#    z 0.014990 0.035190 1.808060 
# 
# From -- ./inp_files/562909.got.cif
#   From: 2010.05.17/outbox.cif.g08.bks.cpg/sg2_282_cif.got.tgz:562909.got - 2010.06.03 11:33:40.
