data_PCOD9107337
_publ_section_title
;
Structure prediction by ZEFSAII (Michael W. Deem and Ramdas Pophale) SiO2 
 PCOD9107337
Probable space group: P -1
;
_chemical_formula_sum "Si O2"
_cell_formula_units_Z 9
_cell_length_a 7.459016
_cell_length_b 8.718805
_cell_length_c 7.181518
_cell_angle_alpha 87.120814
_cell_angle_beta 53.521205
_cell_angle_gamma 98.224848
_cell_volume 366.264382
_symmetry_space_group_name_H-M "P -1"
_symmetry_group_IT_number 2
_symmetry_cell_setting 'triclinic'
loop_
_space_group_symop_operation_xyz
x,y,z
-x,-y,-z
loop_
_atom_site_type_symbol
_atom_site_label
_atom_site_fract_x
_atom_site_fract_y
_atom_site_fract_z
Si Si1 0.500000 0.500000 0.000000
Si Si2 0.588334 0.719565 0.341320
Si Si3 0.138644 0.245733 0.484604
Si Si4 0.356614 0.949773 0.275358
Si Si5 0.261128 0.552777 0.868388
O O1 0.733964 0.609546 0.727252
O O2 0.342925 0.626156 0.008491
O O3 0.812826 0.721680 0.326386
O O4 0.122846 0.818474 0.404508
O O5 0.385334 0.637987 0.608218
O O6 0.614970 0.599985 0.161411
O O7 0.469681 0.120859 0.698458
O O8 0.267144 0.100410 0.391780
O O9 0.500000 0.000000 0.000000
O O10 0.000000 0.500000 0.000000
#
# Coordination Sequence:
#
# PCOD9107337 Si02
#       5
#     1   2   2   2   2
#     4  10  20  40  64  86 116 156 198 244 294 348
#     4  10  22  38  58  88 120 155 199 244 294 352
#     4  10  23  40  62  90 122 157 198 246 296 353
#     4  11  23  40  61  89 123 160 198 242 297 356
#     4  10  21  37  60  88 119 154 196 247 298 349
#
# _framework density 24.572413999999998
#
# number of rings (size 3 to 8) (size 9 to 14) (size 15 to 20)
#    0.000    1.778    0.000    3.333    0.000    8.000 
#    0.000   10.000    0.000    0.000    0.000    0.000 
#    0.000    0.000    0.000    0.000    0.000    0.000 
#
# Total GULP energy -50121.290939 kJ/mol
# GULP energy per Si atom -5569.032327 kJ/mol
# Density = 2.451649 g / cm^3
# Si number density = 24.572414 Si / 1000 Ang^3
#
#
#
# Elastic Constant Matrix: (Units=GPa)
#
#
# Indices 1 2 3 4 5 6 
#
# 1 127.5184 -8.7038 46.6317 -19.4812 -14.4627 -4.3601
# 2 -8.7038 78.5111 46.9588 5.6731 13.4501 3.0511
# 3 46.6317 46.9588 108.8250 -20.9006 15.4390 -8.1442
# 4 -19.4812 5.6731 -20.9006 40.8596 -0.9165 10.5584
# 5 -14.4627 13.4501 15.4390 -0.9165 40.1198 -8.8953
# 6 -4.3601 3.0511 -8.1442 10.5584 -8.8953 41.9456
#
#
#
# Elastic Compliance Matrix: (Units=1/GPa)
#
#
# Indices 1 2 3 4 5 6 
#
# 1 0.011834 0.004895 -0.007771 0.001034 0.005709 0.000316
# 2 0.004895 0.021649 -0.012700 -0.006649 -0.001228 -0.002119
# 3 -0.007771 -0.012700 0.020494 0.008215 -0.006079 0.000738
# 4 0.001034 -0.006649 0.008215 0.031622 -0.001172 -0.006022
# 5 0.005709 -0.001228 -0.006079 -0.001172 0.031126 0.006398
# 6 0.000316 -0.002119 0.000738 -0.006022 0.006398 0.027044
#
#
# Mechanical properties :
#
#
# Convention : Reuss Voigt Hill
#
# Bulk Modulus (GPa) = 43.81225 53.84753 48.82989
# Shear Modulus (GPa) = 27.39269 39.91618 33.65443
#
# Velocity S-wave (km/s) = 3.34245 4.03479 3.70483
# Velocity P-wave (km/s) = 5.72403 6.60814 6.18191
#
# Compressibility (1/GPa) = 0.02282467
#
# Stress axis : x y z
#
# Youngs Moduli (GPa) = 84.50236 46.19134 48.79371
#
# Poissons Ratio (x) = -0.22609 0.37916
# Poissons Ratio (y) = -0.41360 0.61970
# Poissons Ratio (z) = 0.65663 0.58665
#
# Static dielectric constant tensor:
#      x y z
#    x 2.550130 0.192330 0.345270 
#    y 0.192330 2.030720 0.153670 
#    z 0.345270 0.153670 2.086210 
# 
# From -- ./inp_files/160887.got.cif
#   From: 2010.05.17/outbox.cif.g08.bks.cpg/sg2_81_cif.got.tgz:160887.got - 2010.06.03 11:33:40.
