data_PCOD9107239
_publ_section_title
;
Structure prediction by ZEFSAII (Michael W. Deem and Ramdas Pophale) SiO2 
 PCOD9107239
Probable space group: P -1
;
_chemical_formula_sum "Si O2"
_cell_formula_units_Z 14
_cell_length_a 13.052560
_cell_length_b 10.105379
_cell_length_c 18.882689
_cell_angle_alpha 142.950917
_cell_angle_beta 26.127839
_cell_angle_gamma 132.985663
_cell_volume 655.141292
_symmetry_space_group_name_H-M "P -1"
_symmetry_group_IT_number 2
_symmetry_cell_setting 'triclinic'
loop_
_space_group_symop_operation_xyz
x,y,z
-x,-y,-z
loop_
_atom_site_type_symbol
_atom_site_label
_atom_site_fract_x
_atom_site_fract_y
_atom_site_fract_z
Si Si1 0.702542 0.146988 0.923095
Si Si2 0.183601 0.658931 0.273572
Si Si3 0.521034 0.577901 0.138348
Si Si4 0.188141 0.031442 0.834586
Si Si5 0.127445 0.132436 0.553460
Si Si6 0.451398 0.383144 0.553005
Si Si7 0.117784 0.705261 0.985027
O O1 0.885056 0.076862 0.716234
O O2 0.589913 0.396249 0.078263
O O3 0.837213 0.148572 0.913838
O O4 0.500000 0.000000 0.000000
O O5 0.255343 0.574792 0.272216
O O6 0.936432 0.706956 0.405855
O O7 0.257386 0.906398 0.343677
O O8 0.327816 0.506544 0.060867
O O9 0.619108 0.804904 0.195435
O O10 0.334499 0.791121 0.626849
O O11 0.039458 0.151504 0.913928
O O12 0.000000 0.000000 0.000000
O O13 0.251430 0.240298 0.587130
O O14 0.500000 0.500000 0.500000
O O15 0.353136 0.579381 0.749973
O O16 0.000000 0.500000 0.000000
#
# Coordination Sequence:
#
# PCOD9107239 Si02
#       7
#     2   2   2   2   2   2   2
#     4  11  25  45  66  93 136 181 222 288 348 413
#     4   9  19  34  67  91 120 170 211 273 344 382
#     4  10  20  40  63  93 133 171 224 280 335 404
#     4  12  25  43  72 104 137 181 238 288 340 414
#     4  10  20  40  63  93 133 171 224 280 335 404
#     4  12  25  43  72 104 137 181 238 288 340 414
#     4  12  24  47  73 100 143 187 227 286 358 410
#
# _framework density 21.369437000000001
#
# number of rings (size 3 to 8) (size 9 to 14) (size 15 to 20)
#    0.000    1.143    5.714    0.857    0.000    7.429 
#    2.571    0.714    0.000    0.000    0.000    0.000 
#    0.000    0.000    0.000    0.000    0.000    0.000 
#
# Total GULP energy -77988.231561 kJ/mol
# GULP energy per Si atom -5570.587969 kJ/mol
# Density = 2.132080 g / cm^3
# Si number density = 21.369437 Si / 1000 Ang^3
#
#
#
# Elastic Constant Matrix: (Units=GPa)
#
#
# Indices 1 2 3 4 5 6 
#
# 1 144.4756 20.2285 28.3751 7.8433 -17.5243 -20.4235
# 2 20.2285 87.8892 15.4488 -6.6917 -3.1127 -13.8222
# 3 28.3751 15.4488 86.9401 16.7137 -7.7689 -15.6147
# 4 7.8433 -6.6917 16.7137 32.9765 -7.6376 -4.5401
# 5 -17.5243 -3.1127 -7.7689 -7.6376 39.0207 12.5041
# 6 -20.4235 -13.8222 -15.6147 -4.5401 12.5041 35.4963
#
#
#
# Elastic Compliance Matrix: (Units=1/GPa)
#
#
# Indices 1 2 3 4 5 6 
#
# 1 0.008076 -0.001099 -0.001689 -0.000398 0.002286 0.002620
# 2 -0.001099 0.012983 -0.002080 0.004448 -0.000347 0.004199
# 3 -0.001689 -0.002080 0.014397 -0.006935 -0.000665 0.003898
# 4 -0.000398 0.004448 -0.006935 0.036275 0.005529 0.001145
# 5 0.002286 -0.000347 -0.000665 0.005529 0.030509 -0.009153
# 6 0.002620 0.004199 0.003898 0.001145 -0.009153 0.036400
#
#
# Mechanical properties :
#
#
# Convention : Reuss Voigt Hill
#
# Bulk Modulus (GPa) = 38.88154 49.71218 44.29686
# Shear Modulus (GPa) = 31.85697 38.51552 35.18625
#
# Velocity S-wave (km/s) = 3.86524 4.25003 4.06220
# Velocity P-wave (km/s) = 6.17694 6.88458 6.54034
#
# Compressibility (1/GPa) = 0.02571914
#
# Stress axis : x y z
#
# Youngs Moduli (GPa) = 123.81649 77.02121 69.45851
#
# Poissons Ratio (x) = 0.08467 0.11734
# Poissons Ratio (y) = 0.13611 0.14449
# Poissons Ratio (z) = 0.20918 0.16022
#
# Static dielectric constant tensor:
#      x y z
#    x 1.692970 -0.031740 -0.168510 
#    y -0.031740 1.731190 -0.026220 
#    z -0.168510 -0.026220 1.781990 
# 
# From -- ./inp_files/333686.got.cif
#   From: 2010.05.17/outbox.cif.g08.bks.cpg/sg2_167_cif.got.tgz:333686.got - 2010.06.03 11:33:40.
