data_PCOD9107455
_publ_section_title
;
Structure prediction by ZEFSAII (Michael W. Deem and Ramdas Pophale) SiO2 
 PCOD9107455
Probable space group: P -1
;
_chemical_formula_sum "Si O2"
_cell_formula_units_Z 14
_cell_length_a 11.211788
_cell_length_b 8.009363
_cell_length_c 12.083626
_cell_angle_alpha 146.219897
_cell_angle_beta 85.490900
_cell_angle_gamma 95.398973
_cell_volume 600.646992
_symmetry_space_group_name_H-M "P -1"
_symmetry_group_IT_number 2
_symmetry_cell_setting 'triclinic'
loop_
_space_group_symop_operation_xyz
x,y,z
-x,-y,-z
loop_
_atom_site_type_symbol
_atom_site_label
_atom_site_fract_x
_atom_site_fract_y
_atom_site_fract_z
Si Si1 0.020075 0.831302 0.066754
Si Si2 0.839914 0.291658 0.799147
Si Si3 0.431549 0.237270 0.061240
Si Si4 0.354043 0.470459 0.893994
Si Si5 0.302509 0.796705 0.459439
Si Si6 0.131106 0.645077 0.586270
Si Si7 0.226045 0.773756 0.861339
O O1 0.104669 0.882803 0.197156
O O2 0.107650 0.896895 0.994107
O O3 0.905278 0.018546 0.198948
O O4 0.959123 0.497932 0.872723
O O5 0.778430 0.156155 0.618520
O O6 0.731942 0.461310 0.960002
O O7 0.519034 0.337141 0.009609
O O8 0.400516 0.552842 0.293021
O O9 0.500000 0.000000 0.000000
O O10 0.307804 0.043943 0.951118
O O11 0.290332 0.605416 0.863387
O O12 0.357220 0.114492 0.675771
O O13 0.214983 0.645351 0.475048
O O14 0.194090 0.545040 0.638325
O O15 0.000000 0.500000 0.500000
#
# Coordination Sequence:
#
# PCOD9107455 Si02
#       7
#     2   2   2   2   2   2   2
#     4  10  20  40  64  92 134 173 213 258 325 384
#     4  10  22  40  66  96 130 171 209 272 324 378
#     4  10  23  46  68  91 129 174 218 271 330 384
#     4  10  23  45  67  96 127 170 227 270 315 386
#     4  12  24  41  69  98 130 166 226 268 323 387
#     4  12  24  37  63 102 135 169 218 265 319 395
#     4  10  22  43  67  92 136 177 213 265 330 380
#
# _framework density 23.308198999999998
#
# number of rings (size 3 to 8) (size 9 to 14) (size 15 to 20)
#    0.000    1.429    1.429    3.429    2.000    1.143 
#    2.571    1.429    0.000    0.000    0.000    0.000 
#    0.000    0.000    0.000    0.000    0.000    0.000 
#
# Total GULP energy -78165.550812 kJ/mol
# GULP energy per Si atom -5583.253629 kJ/mol
# Density = 2.325515 g / cm^3
# Si number density = 23.308199 Si / 1000 Ang^3
#
#
#
# Elastic Constant Matrix: (Units=GPa)
#
#
# Indices 1 2 3 4 5 6 
#
# 1 103.2293 36.8975 17.5292 -8.4855 -7.5254 26.5688
# 2 36.8975 91.4989 13.1596 -24.0943 4.6815 18.2551
# 3 17.5292 13.1596 50.6593 -10.0851 11.3070 4.9658
# 4 -8.4855 -24.0943 -10.0851 40.0899 -2.4131 -0.2815
# 5 -7.5254 4.6815 11.3070 -2.4131 34.0752 10.5886
# 6 26.5688 18.2551 4.9658 -0.2815 10.5886 46.0584
#
#
#
# Elastic Compliance Matrix: (Units=1/GPa)
#
#
# Indices 1 2 3 4 5 6 
#
# 1 0.014639 -0.004000 -0.005038 -0.000150 0.007976 -0.008151
# 2 -0.004000 0.015539 -0.000387 0.008297 -0.001222 -0.003478
# 3 -0.005038 -0.000387 0.024325 0.004257 -0.009664 0.002684
# 4 -0.000150 0.008297 0.004257 0.030989 0.000740 -0.003642
# 5 0.007976 -0.001222 -0.009664 0.000740 0.038220 -0.011857
# 6 -0.008151 -0.003478 0.002684 -0.003642 -0.011857 0.030206
#
#
# Mechanical properties :
#
#
# Convention : Reuss Voigt Hill
#
# Bulk Modulus (GPa) = 28.04784 42.28445 35.16614
# Shear Modulus (GPa) = 27.07790 35.89810 31.48800
#
# Velocity S-wave (km/s) = 3.41212 3.92873 3.67950
# Velocity P-wave (km/s) = 5.25195 6.22581 5.75950
#
# Compressibility (1/GPa) = 0.03565337
#
# Stress axis : x y z
#
# Youngs Moduli (GPa) = 68.30878 64.35329 41.11052
#
# Poissons Ratio (x) = 0.25744 0.20710
# Poissons Ratio (y) = 0.27326 0.01591
# Poissons Ratio (z) = 0.34411 0.02490
#
# Static dielectric constant tensor:
#      x y z
#    x 1.921080 -0.100830 0.021710 
#    y -0.100830 1.982920 0.043250 
#    z 0.021710 0.043250 1.900950 
# 
# From -- ./inp_files/48309.got.cif
#   From: 2010.05.17/outbox.cif.g08.bks.cpg/sg2_25_cif.got.tgz:48309.got - 2010.06.03 11:33:40.
