data_PCOD9107754
_publ_section_title
;
Structure prediction by ZEFSAII (Michael W. Deem and Ramdas Pophale) SiO2 
 PCOD9107754
Probable space group: P -1
;
_chemical_formula_sum "Si O2"
_cell_formula_units_Z 14
_cell_length_a 7.540195
_cell_length_b 22.611163
_cell_length_c 13.578268
_cell_angle_alpha 20.240311
_cell_angle_beta 57.015864
_cell_angle_gamma 57.458312
_cell_volume 668.864124
_symmetry_space_group_name_H-M "P -1"
_symmetry_group_IT_number 2
_symmetry_cell_setting 'triclinic'
loop_
_space_group_symop_operation_xyz
x,y,z
-x,-y,-z
loop_
_atom_site_type_symbol
_atom_site_label
_atom_site_fract_x
_atom_site_fract_y
_atom_site_fract_z
Si Si1 0.301795 0.162825 0.518027
Si Si2 0.346870 0.884382 0.785253
Si Si3 0.855517 0.304687 0.499234
Si Si4 0.952349 0.545118 0.599618
Si Si5 0.536658 0.027710 0.060723
Si Si6 0.504072 0.578064 0.094336
Si Si7 0.909772 0.781891 0.052990
O O1 0.423075 0.291898 0.213218
O O2 0.054232 0.227336 0.495569
O O3 0.333607 0.972323 0.758250
O O4 0.390130 0.141714 0.634736
O O5 0.440521 0.689697 0.038364
O O6 0.500000 0.000000 0.500000
O O7 0.107380 0.893543 0.800922
O O8 0.949940 0.399158 0.415770
O O9 0.722826 0.152949 0.814162
O O10 0.693012 0.435339 0.284478
O O11 0.956017 0.692138 0.285717
O O12 0.078803 0.373034 0.786256
O O13 0.708658 0.502627 0.747671
O O14 0.316797 0.112974 0.038591
O O15 0.500000 0.000000 0.000000
#
# Coordination Sequence:
#
# PCOD9107754 Si02
#       7
#     2   2   2   2   2   2   2
#     4  11  24  42  65  96 135 175 211 271 333 379
#     4   9  20  42  65  94 132 168 214 266 323 390
#     4  12  24  42  70  93 130 174 223 266 323 388
#     4  10  22  41  65  99 127 167 222 273 315 384
#     4  12  25  42  66  97 131 173 221 269 327 388
#     4  10  23  45  66  97 133 167 221 272 318 391
#     4  10  20  40  65  94 134 168 216 273 320 378
#
# _framework density 20.931007000000001
#
# number of rings (size 3 to 8) (size 9 to 14) (size 15 to 20)
#    0.000    1.429    1.429    3.429    2.000    1.143 
#    7.714    2.143    0.000    0.000    0.000    0.000 
#    0.000    0.000    0.000    0.000    0.000    0.000 
#
# Total GULP energy -78267.402784 kJ/mol
# GULP energy per Si atom -5590.528770 kJ/mol
# Density = 2.088337 g / cm^3
# Si number density = 20.931007 Si / 1000 Ang^3
#
#
#
# Elastic Constant Matrix: (Units=GPa)
#
#
# Indices 1 2 3 4 5 6 
#
# 1 95.8013 60.1997 44.0725 3.4573 -7.2133 -12.7824
# 2 60.1997 107.7702 44.2479 0.6393 1.7692 -24.9837
# 3 44.0725 44.2479 81.1978 15.6665 -7.9407 -4.1161
# 4 3.4573 0.6393 15.6665 24.5995 -10.6928 0.0485
# 5 -7.2133 1.7692 -7.9407 -10.6928 37.6154 2.9677
# 6 -12.7824 -24.9837 -4.1161 0.0485 2.9677 44.7035
#
#
#
# Elastic Compliance Matrix: (Units=1/GPa)
#
#
# Indices 1 2 3 4 5 6 
#
# 1 0.018206 -0.007841 -0.005819 0.002844 0.003436 0.000057
# 2 -0.007841 0.017889 -0.006024 0.003003 -0.003348 0.007420
# 3 -0.005819 -0.006024 0.020995 -0.012230 0.000368 -0.003108
# 4 0.002844 0.003003 -0.012230 0.053626 0.013032 0.000442
# 5 0.003436 -0.003348 0.000368 0.013032 0.031416 -0.002955
# 6 0.000057 0.007420 -0.003108 0.000442 -0.002955 0.026442
#
#
# Mechanical properties :
#
#
# Convention : Reuss Voigt Hill
#
# Bulk Modulus (GPa) = 56.42258 64.64549 60.53404
# Shear Modulus (GPa) = 23.38104 30.46694 26.92399
#
# Velocity S-wave (km/s) = 3.34586 3.81936 3.59042
# Velocity P-wave (km/s) = 6.47621 7.09944 6.79498
#
# Compressibility (1/GPa) = 0.01772340
#
# Stress axis : x y z
#
# Youngs Moduli (GPa) = 54.92785 55.89972 47.63109
#
# Poissons Ratio (x) = 0.43828 0.27716
# Poissons Ratio (y) = 0.43066 0.28691
# Poissons Ratio (z) = 0.31962 0.33672
#
# Static dielectric constant tensor:
#      x y z
#    x 1.737960 0.013530 -0.013050 
#    y 0.013530 1.782510 -0.017680 
#    z -0.013050 -0.017680 1.739800 
# 
# From -- ./inp_files/118860.got.cif
#   From: 2010.05.17/outbox.cif.g08.bks.cpg/sg2_60_cif.got.tgz:118860.got - 2010.06.03 11:33:40.
