data_PCOD9107991
_publ_section_title
;
Structure prediction by ZEFSAII (Michael W. Deem and Ramdas Pophale) SiO2 
 PCOD9107991
Probable space group: P -1
;
_chemical_formula_sum "Si O2"
_cell_formula_units_Z 14
_cell_length_a 5.132950
_cell_length_b 25.965851
_cell_length_c 13.788257
_cell_angle_alpha 159.437334
_cell_angle_beta 96.391677
_cell_angle_gamma 90.849557
_cell_volume 602.983840
_symmetry_space_group_name_H-M "P -1"
_symmetry_group_IT_number 2
_symmetry_cell_setting 'triclinic'
loop_
_space_group_symop_operation_xyz
x,y,z
-x,-y,-z
loop_
_atom_site_type_symbol
_atom_site_label
_atom_site_fract_x
_atom_site_fract_y
_atom_site_fract_z
Si Si1 0.855197 0.755604 0.313067
Si Si2 0.430088 0.816241 0.549067
Si Si3 0.432597 0.126609 0.030014
Si Si4 0.507169 0.566405 0.225046
Si Si5 0.072359 0.045294 0.695302
Si Si6 0.947381 0.690985 0.605688
Si Si7 0.204540 0.410953 0.379595
O O1 0.691859 0.803972 0.478728
O O2 0.151079 0.753913 0.362224
O O3 0.680451 0.575261 0.966590
O O4 0.884020 0.887793 0.466506
O O5 0.409900 0.714594 0.465006
O O6 0.471399 0.996722 0.872819
O O7 0.164895 0.164967 0.124551
O O8 0.726317 0.265061 0.287051
O O9 0.359458 0.070988 0.816279
O O10 0.817742 0.623394 0.379450
O O11 0.500000 0.500000 0.000000
O O12 0.073755 0.224338 0.021095
O O13 0.000000 0.000000 0.500000
O O14 0.780350 0.577455 0.483309
O O15 0.500000 0.500000 0.500000
O O16 0.000000 0.500000 0.500000
#
# Coordination Sequence:
#
# PCOD9107991 Si02
#       7
#     2   2   2   2   2   2   2
#     4  10  22  41  64  95 139 167 224 279 341 394
#     4  10  20  40  66  93 130 175 218 280 331 405
#     4  10  22  43  65  98 136 177 226 276 343 412
#     4  10  24  43  67 100 135 181 231 282 339 403
#     4  10  23  45  74 103 136 183 233 289 345 411
#     4  11  24  43  67  94 140 180 224 283 343 407
#     4  11  24  45  67  99 137 179 229 280 348 411
#
# _framework density 23.217870999999999
#
# number of rings (size 3 to 8) (size 9 to 14) (size 15 to 20)
#    0.000    1.714    0.000    4.714    2.000    6.857 
#   10.286   12.143    0.000    0.000    0.000    0.000 
#    0.000    0.000    0.000    0.000    0.000    0.000 
#
# Total GULP energy -78035.075694 kJ/mol
# GULP energy per Si atom -5573.933978 kJ/mol
# Density = 2.316503 g / cm^3
# Si number density = 23.217871 Si / 1000 Ang^3
#
#
#
# Elastic Constant Matrix: (Units=GPa)
#
#
# Indices 1 2 3 4 5 6 
#
# 1 67.7842 44.2430 33.1572 5.9653 17.7261 -6.8199
# 2 44.2430 150.2678 87.7402 13.3975 3.7825 -5.0456
# 3 33.1572 87.7402 115.4651 13.3009 14.3308 -7.4991
# 4 5.9653 13.3975 13.3009 70.2674 -10.4498 -0.9272
# 5 17.7261 3.7825 14.3308 -10.4498 36.0360 8.9472
# 6 -6.8199 -5.0456 -7.4991 -0.9272 8.9472 29.8117
#
#
#
# Elastic Compliance Matrix: (Units=1/GPa)
#
#
# Indices 1 2 3 4 5 6 
#
# 1 0.023387 -0.006485 0.000863 -0.002903 -0.014150 0.008626
# 2 -0.006485 0.014017 -0.009950 0.000723 0.006786 -0.003628
# 3 0.000863 -0.009950 0.017706 -0.002730 -0.008567 0.005453
# 4 -0.002903 0.000723 -0.002730 0.015982 0.007837 -0.003084
# 5 -0.014150 0.006786 -0.008567 0.007837 0.043945 -0.017189
# 6 0.008626 -0.003628 0.005453 -0.003084 -0.017189 0.041338
#
#
# Mechanical properties :
#
#
# Convention : Reuss Voigt Hill
#
# Bulk Modulus (GPa) = 41.72754 73.75531 57.74142
# Shear Modulus (GPa) = 25.57450 38.44811 32.01131
#
# Velocity S-wave (km/s) = 3.32249 4.07378 3.71716
# Velocity P-wave (km/s) = 5.72099 7.34596 6.58380
#
# Compressibility (1/GPa) = 0.02396499
#
# Stress axis : x y z
#
# Youngs Moduli (GPa) = 42.75864 71.34289 56.47909
#
# Poissons Ratio (x) = 0.46265 -0.04872
# Poissons Ratio (y) = 0.27729 0.56197
# Poissons Ratio (z) = -0.03689 0.70987
#
# Static dielectric constant tensor:
#      x y z
#    x 1.895910 0.012160 -0.045950 
#    y 0.012160 1.901530 0.009740 
#    z -0.045950 0.009740 1.982870 
# 
# From -- ./inp_files/486188.got.cif
#   From: 2010.05.17/outbox.cif.g08.bks.cpg/sg2_244_cif.got.tgz:486188.got - 2010.06.03 11:33:40.
