data_PCOD9107113
_publ_section_title
;
Structure prediction by ZEFSAII (Michael W. Deem and Ramdas Pophale) SiO2 
 PCOD9107113
Probable space group: P -1
;
_chemical_formula_sum "Si O2"
_cell_formula_units_Z 16
_cell_length_a 10.546215
_cell_length_b 22.465308
_cell_length_c 18.753190
_cell_angle_alpha 25.585026
_cell_angle_beta 27.273208
_cell_angle_gamma 27.772105
_cell_volume 797.890501
_symmetry_space_group_name_H-M "P -1"
_symmetry_group_IT_number 2
_symmetry_cell_setting 'triclinic'
loop_
_space_group_symop_operation_xyz
x,y,z
-x,-y,-z
loop_
_atom_site_type_symbol
_atom_site_label
_atom_site_fract_x
_atom_site_fract_y
_atom_site_fract_z
Si Si1 0.109158 0.901417 0.447141
Si Si2 0.416889 0.988288 0.972312
Si Si3 0.796383 0.238912 0.036293
Si Si4 0.252878 0.166884 0.422375
Si Si5 0.948544 0.688786 0.026005
Si Si6 0.915963 0.512346 0.611476
Si Si7 0.840270 0.433686 0.430588
Si Si8 0.268661 0.767399 0.661601
O O1 0.407626 0.929710 0.248409
O O2 0.181948 0.789228 0.598594
O O3 0.982795 0.847109 0.501393
O O4 0.856625 0.064864 0.422839
O O5 0.055440 0.080981 0.046570
O O6 0.500000 0.000000 0.000000
O O7 0.596036 0.808977 0.062088
O O8 0.834562 0.374658 0.827964
O O9 0.894639 0.247418 0.060597
O O10 0.462921 0.242836 0.200607
O O11 0.053283 0.262754 0.485106
O O12 0.500000 0.000000 0.500000
O O13 0.984585 0.531937 0.209555
O O14 0.108793 0.680961 0.879825
O O15 0.623662 0.670148 0.597636
O O16 0.000000 0.500000 0.500000
O O17 0.160423 0.523252 0.532809
O O18 0.500000 0.500000 0.500000
#
# Coordination Sequence:
#
# PCOD9107113 Si02
#       8
#     2   2   2   2   2   2   2   2
#     4  10  22  37  64  92 124 164 210 260 311 377
#     4   9  17  33  61  84 115 160 212 246 303 370
#     4  10  21  36  62  92 119 162 213 251 307 383
#     4  12  24  39  64  95 131 160 203 271 319 359
#     4   9  19  38  61  84 118 167 206 254 304 378
#     4  11  23  41  65  88 125 173 210 258 312 381
#     4  11  26  40  62  95 129 162 215 262 313 373
#     4  10  20  40  63  86 121 167 215 251 313 380
#
# _framework density 20.052878
#
# number of rings (size 3 to 8) (size 9 to 14) (size 15 to 20)
#    0.000    1.750    0.000    5.250    8.750    2.000 
#    2.250    1.250    0.000    3.750    0.000    0.000 
#    0.000    0.000    0.000    0.000    0.000    0.000 
#
# Total GULP energy -89322.512493 kJ/mol
# GULP energy per Si atom -5582.657031 kJ/mol
# Density = 2.000724 g / cm^3
# Si number density = 20.052878 Si / 1000 Ang^3
#
#
#
# Elastic Constant Matrix: (Units=GPa)
#
#
# Indices 1 2 3 4 5 6 
#
# 1 94.8502 19.5328 28.1897 -5.9998 19.2420 3.0818
# 2 19.5328 77.9364 13.3336 15.0624 -3.7922 1.4140
# 3 28.1897 13.3336 38.4611 -1.0805 16.5444 5.0674
# 4 -5.9998 15.0624 -1.0805 24.7283 -0.8663 3.0682
# 5 19.2420 -3.7922 16.5444 -0.8663 38.1744 2.3791
# 6 3.0818 1.4140 5.0674 3.0682 2.3791 23.0523
#
#
#
# Elastic Compliance Matrix: (Units=1/GPa)
#
#
# Indices 1 2 3 4 5 6 
#
# 1 0.014764 -0.003679 -0.007436 0.005389 -0.004439 -0.000373
# 2 -0.003679 0.017402 -0.006494 -0.011789 0.006018 0.001800
# 3 -0.007436 -0.006494 0.040741 0.004269 -0.014041 -0.006682
# 4 0.005389 -0.011789 0.004269 0.049855 -0.004161 -0.007142
# 5 -0.004439 0.006018 -0.014041 -0.004161 0.035006 0.000252
# 6 -0.000373 0.001800 -0.006682 -0.007142 0.000252 0.045713
#
#
# Mechanical properties :
#
#
# Convention : Reuss Voigt Hill
#
# Bulk Modulus (GPa) = 26.53094 37.03997 31.78546
# Shear Modulus (GPa) = 19.89964 27.20379 23.55171
#
# Velocity S-wave (km/s) = 3.15359 3.68720 3.43079
# Velocity P-wave (km/s) = 5.14970 6.05298 5.61952
#
# Compressibility (1/GPa) = 0.03769184
#
# Stress axis : x y z
#
# Youngs Moduli (GPa) = 67.73236 57.46321 24.54501
#
# Poissons Ratio (x) = 0.21140 0.18251
# Poissons Ratio (y) = 0.24917 0.15938
# Poissons Ratio (z) = 0.50364 0.37314
#
# Static dielectric constant tensor:
#      x y z
#    x 1.690260 0.003310 -0.008500 
#    y 0.003310 1.756130 -0.019480 
#    z -0.008500 -0.019480 1.746450 
# 
# From -- ./inp_files/509152.got.cif
#   From: 2010.05.17/outbox.cif.g08.bks.cpg/sg2_255_cif.got.tgz:509152.got - 2010.06.03 11:33:40.
