data_PCOD9107565
_publ_section_title
;
Structure prediction by ZEFSAII (Michael W. Deem and Ramdas Pophale) SiO2 
 PCOD9107565
Probable space group: P -1
;
_chemical_formula_sum "Si O2"
_cell_formula_units_Z 12
_cell_length_a 7.816456
_cell_length_b 10.280925
_cell_length_c 14.939962
_cell_angle_alpha 37.171266
_cell_angle_beta 144.019727
_cell_angle_gamma 134.950497
_cell_volume 419.688311
_symmetry_space_group_name_H-M "P -1"
_symmetry_group_IT_number 2
_symmetry_cell_setting 'triclinic'
loop_
_space_group_symop_operation_xyz
x,y,z
-x,-y,-z
loop_
_atom_site_type_symbol
_atom_site_label
_atom_site_fract_x
_atom_site_fract_y
_atom_site_fract_z
Si Si1 0.388127 0.042524 0.530241
Si Si2 0.423592 0.560915 0.273083
Si Si3 0.639310 0.859668 0.064298
Si Si4 0.176204 0.597205 0.709279
Si Si5 0.783389 0.481912 0.021077
Si Si6 0.748193 0.170871 0.785421
O O1 0.367776 0.298162 0.391428
O O2 0.576030 0.031281 0.708308
O O3 0.500000 0.000000 0.500000
O O4 0.113809 0.839935 0.534813
O O5 0.431683 0.679847 0.307480
O O6 0.113256 0.591143 0.076403
O O7 0.689700 0.669938 0.261215
O O8 0.370601 0.756062 0.943577
O O9 0.838616 0.015772 0.990912
O O10 0.500000 0.000000 0.000000
O O11 0.184760 0.541687 0.847162
O O12 0.968468 0.370220 0.718192
O O13 0.518662 0.612429 0.815782
#
# Coordination Sequence:
#
# PCOD9107565 Si02
#       6
#     2   2   2   2   2   2
#     4  12  25  46  69 102 143 187 230 294 356 411
#     4  10  23  43  73 103 142 181 231 290 351 420
#     4  10  20  40  65 104 134 177 232 285 339 414
#     4  10  23  43  71 100 138 184 234 285 350 416
#     4  10  20  42  67 102 138 180 231 286 343 420
#     4  10  23  45  71 102 139 187 233 288 345 425
#
# _framework density 28.592648000000001
#
# number of rings (size 3 to 8) (size 9 to 14) (size 15 to 20)
#    0.000    1.667    1.667    2.000    0.000    4.000 
#   15.000    0.000    0.000    0.000    0.000    0.000 
#    0.000    0.000    0.000    0.000    0.000    0.000 
#
# Total GULP energy -66808.835421 kJ/mol
# GULP energy per Si atom -5567.402952 kJ/mol
# Density = 2.852757 g / cm^3
# Si number density = 28.592648 Si / 1000 Ang^3
#
#
#
# Elastic Constant Matrix: (Units=GPa)
#
#
# Indices 1 2 3 4 5 6 
#
# 1 117.8634 47.8833 35.4302 0.8767 -29.5253 22.8659
# 2 47.8833 178.5329 45.8377 -23.7274 1.6710 -19.6254
# 3 35.4302 45.8377 87.5038 -42.7966 -24.2360 29.3632
# 4 0.8767 -23.7274 -42.7966 65.2669 2.7758 -15.7198
# 5 -29.5253 1.6710 -24.2360 2.7758 34.1353 -11.8727
# 6 22.8659 -19.6254 29.3632 -15.7198 -11.8727 63.1220
#
#
#
# Elastic Compliance Matrix: (Units=1/GPa)
#
#
# Indices 1 2 3 4 5 6 
#
# 1 0.014504 -0.005092 -0.000232 -0.004030 0.010987 -0.005667
# 2 -0.005092 0.009711 -0.006895 0.001065 -0.007449 0.006935
# 3 -0.000232 -0.006895 0.029831 0.014112 0.016958 -0.009232
# 4 -0.004030 0.001065 0.014112 0.025405 0.005303 0.002551
# 5 0.010987 -0.007449 0.016958 0.005303 0.049538 -0.003546
# 6 -0.005667 0.006935 -0.009232 0.002551 -0.003546 0.024314
#
#
# Mechanical properties :
#
#
# Convention : Reuss Voigt Hill
#
# Bulk Modulus (GPa) = 33.77433 71.35583 52.56508
# Shear Modulus (GPa) = 26.65106 49.48811 38.06958
#
# Velocity S-wave (km/s) = 3.05633 4.16480 3.65286
# Velocity P-wave (km/s) = 4.92877 6.93813 6.01791
#
# Compressibility (1/GPa) = 0.02960829
#
# Stress axis : x y z
#
# Youngs Moduli (GPa) = 68.94478 102.97971 33.52269
#
# Poissons Ratio (x) = 0.52436 0.00778
# Poissons Ratio (y) = 0.35106 0.23113
# Poissons Ratio (z) = 0.01600 0.71001
#
# Static dielectric constant tensor:
#      x y z
#    x 2.839530 0.156960 0.277860 
#    y 0.156960 2.305160 -0.067610 
#    z 0.277860 -0.067610 2.502900 
# 
# From -- ./inp_files/557805.got.cif
#   From: 2010.05.17/outbox.cif.g08.bks.cpg/sg2_279_cif.got.tgz:557805.got - 2010.06.03 11:33:40.
