data_PCOD9107112
_publ_section_title
;
Structure prediction by ZEFSAII (Michael W. Deem and Ramdas Pophale) SiO2 
 PCOD9107112
Probable space group: P -1
;
_chemical_formula_sum "Si O2"
_cell_formula_units_Z 12
_cell_length_a 8.510549
_cell_length_b 12.829199
_cell_length_c 10.111934
_cell_angle_alpha 60.382804
_cell_angle_beta 63.434522
_cell_angle_gamma 28.912366
_cell_volume 463.758984
_symmetry_space_group_name_H-M "P -1"
_symmetry_group_IT_number 2
_symmetry_cell_setting 'triclinic'
loop_
_space_group_symop_operation_xyz
x,y,z
-x,-y,-z
loop_
_atom_site_type_symbol
_atom_site_label
_atom_site_fract_x
_atom_site_fract_y
_atom_site_fract_z
Si Si1 0.264369 0.488591 0.889903
Si Si2 0.273573 0.073776 0.709168
Si Si3 0.693818 0.011808 0.953878
Si Si4 0.530635 0.165098 0.641873
Si Si5 0.847826 0.588392 0.783914
Si Si6 0.563136 0.525623 0.600458
O O1 0.514545 0.238910 0.917724
O O2 0.406289 0.531907 0.766201
O O3 0.959311 0.621871 0.832538
O O4 0.188869 0.514087 0.056057
O O5 0.500092 0.061389 0.637112
O O6 0.949762 0.297275 0.616543
O O7 0.497598 0.837795 0.716053
O O8 0.162739 0.101151 0.883978
O O9 0.772660 0.004702 0.775952
O O10 0.500000 0.000000 0.000000
O O11 0.582220 0.258007 0.486636
O O12 0.156346 0.398533 0.692278
O O13 0.500000 0.500000 0.500000
#
# Coordination Sequence:
#
# PCOD9107112 Si02
#       6
#     2   2   2   2   2   2
#     4   9  18  35  58  86 120 154 187 246 300 338
#     4  10  22  36  64  89 113 158 206 231 287 365
#     4   8  15  31  55  84 106 144 193 231 271 341
#     4  10  20  40  63  86 121 154 192 245 298 346
#     4   9  18  37  64  84 111 156 204 234 288 353
#     4  12  22  38  58  89 126 156 185 251 307 333
#
# _framework density 25.875506999999999
#
# number of rings (size 3 to 8) (size 9 to 14) (size 15 to 20)
#    0.000    2.333    3.333    1.500    0.000    3.333 
#    0.000    1.667    3.667    0.000    0.000    0.000 
#    0.000    0.000    0.000    0.000    0.000    0.000 
#
# Total GULP energy -67002.062520 kJ/mol
# GULP energy per Si atom -5583.505210 kJ/mol
# Density = 2.581661 g / cm^3
# Si number density = 25.875507 Si / 1000 Ang^3
#
#
#
# Elastic Constant Matrix: (Units=GPa)
#
#
# Indices 1 2 3 4 5 6 
#
# 1 53.2231 7.6553 49.9940 -8.7945 -9.0269 7.9967
# 2 7.6553 68.4614 20.5889 -4.2720 -0.4670 22.2284
# 3 49.9940 20.5889 166.2752 -17.5929 -34.8928 -2.7784
# 4 -8.7945 -4.2720 -17.5929 39.1159 -12.1763 1.9439
# 5 -9.0269 -0.4670 -34.8928 -12.1763 58.9754 -7.5976
# 6 7.9967 22.2284 -2.7784 1.9439 -7.5976 18.8547
#
#
#
# Elastic Compliance Matrix: (Units=1/GPa)
#
#
# Indices 1 2 3 4 5 6 
#
# 1 0.033314 0.010132 -0.012707 0.002614 -0.005732 -0.030526
# 2 0.010132 0.031707 -0.009785 0.000589 -0.009945 -0.047187
# 3 -0.012707 -0.009785 0.014004 0.004387 0.010080 0.022599
# 4 0.002614 0.000589 0.004387 0.031131 0.009351 -0.000598
# 5 -0.005732 -0.009945 0.010080 0.009351 0.027197 0.025636
# 6 -0.030526 -0.047187 0.022599 -0.000598 0.025636 0.135336
#
#
# Mechanical properties :
#
#
# Convention : Reuss Voigt Hill
#
# Bulk Modulus (GPa) = 18.41558 49.38179 33.89869
# Shear Modulus (GPa) = 15.84728 37.37064 26.60896
#
# Velocity S-wave (km/s) = 2.47744 3.80445 3.21026
# Velocity P-wave (km/s) = 3.91358 6.19873 5.18364
#
# Compressibility (1/GPa) = 0.05430185
#
# Stress axis : x y z
#
# Youngs Moduli (GPa) = 30.01717 31.53924 71.41003
#
# Poissons Ratio (x) = -0.31954 0.90744
# Poissons Ratio (y) = -0.30412 0.69878
# Poissons Ratio (z) = 0.38144 0.30863
#
# Static dielectric constant tensor:
#      x y z
#    x 1.983770 -0.016630 0.024980 
#    y -0.016630 2.092380 0.009230 
#    z 0.024980 0.009230 2.108980 
# 
# From -- ./inp_files/173185.got.cif
#   From: 2010.05.17/outbox.cif.g08.bks.cpg/sg2_87_cif.got.tgz:173185.got - 2010.06.03 11:33:40.
