data_PCOD9107659
_publ_section_title
;
Structure prediction by ZEFSAII (Michael W. Deem and Ramdas Pophale) SiO2 
 PCOD9107659
Probable space group: P -1
;
_chemical_formula_sum "Si O2"
_cell_formula_units_Z 16
_cell_length_a 10.916919
_cell_length_b 12.076081
_cell_length_c 9.062756
_cell_angle_alpha 37.423716
_cell_angle_beta 92.106028
_cell_angle_gamma 94.577592
_cell_volume 723.054858
_symmetry_space_group_name_H-M "P -1"
_symmetry_group_IT_number 2
_symmetry_cell_setting 'triclinic'
loop_
_space_group_symop_operation_xyz
x,y,z
-x,-y,-z
loop_
_atom_site_type_symbol
_atom_site_label
_atom_site_fract_x
_atom_site_fract_y
_atom_site_fract_z
Si Si1 0.366287 0.743586 0.710751
Si Si2 0.236420 0.428280 0.228734
Si Si3 0.367090 0.132344 0.421650
Si Si4 0.614559 0.032881 0.083045
Si Si5 0.023077 0.566301 0.259484
Si Si6 0.629019 0.465444 0.606702
Si Si7 0.876996 0.095263 0.931475
Si Si8 0.778877 0.404077 0.406723
O O1 0.510950 0.743301 0.755883
O O2 0.331321 0.664069 0.632677
O O3 0.340742 0.955817 0.504356
O O4 0.277822 0.613778 0.947631
O O5 0.253996 0.254728 0.311213
O O6 0.112586 0.450403 0.290329
O O7 0.338622 0.418685 0.370974
O O8 0.405871 0.051661 0.667133
O O9 0.632167 0.252073 0.869160
O O10 0.747962 0.980074 0.085093
O O11 0.500000 0.000000 0.000000
O O12 0.085854 0.769602 0.071816
O O13 0.000000 0.500000 0.500000
O O14 0.889907 0.538726 0.207032
O O15 0.500000 0.500000 0.500000
O O16 0.727298 0.501567 0.443377
O O17 0.839987 0.223735 0.658474
O O18 0.000000 0.000000 0.000000
#
# Coordination Sequence:
#
# PCOD9107659 Si02
#       8
#     2   2   2   2   2   2   2   2
#     4  11  24  46  62  94 141 168 220 276 330 406
#     4  12  22  43  67  93 129 178 221 263 342 392
#     4  11  24  40  70  91 134 181 213 270 342 397
#     4  11  21  38  61 100 132 163 225 277 324 388
#     4  10  20  40  65  90 128 164 220 271 327 385
#     4  11  21  38  65  99 130 166 219 283 328 388
#     4  10  21  38  65  97 133 170 214 277 338 386
#     4  10  22  42  62  96 132 166 220 280 317 400
#
# _framework density 22.128335
#
# number of rings (size 3 to 8) (size 9 to 14) (size 15 to 20)
#    0.000    1.250    5.000    3.375    3.500    1.500 
#    2.250    0.625    0.000    0.000    0.000    0.000 
#    0.000    0.000    0.000    0.000    0.000    0.000 
#
# Total GULP energy -89332.949692 kJ/mol
# GULP energy per Si atom -5583.309356 kJ/mol
# Density = 2.207797 g / cm^3
# Si number density = 22.128335 Si / 1000 Ang^3
#
#
#
# Elastic Constant Matrix: (Units=GPa)
#
#
# Indices 1 2 3 4 5 6 
#
# 1 108.9227 8.8523 13.0416 -8.7205 -8.1349 -18.3250
# 2 8.8523 74.1478 -1.7592 -16.3165 -4.4454 -6.0839
# 3 13.0416 -1.7592 35.2093 -1.2947 -10.9287 -5.0379
# 4 -8.7205 -16.3165 -1.2947 22.4456 -3.1970 3.5755
# 5 -8.1349 -4.4454 -10.9287 -3.1970 28.5370 -3.7935
# 6 -18.3250 -6.0839 -5.0379 3.5755 -3.7935 48.5524
#
#
#
# Elastic Compliance Matrix: (Units=1/GPa)
#
#
# Indices 1 2 3 4 5 6 
#
# 1 0.010620 0.000014 -0.002304 0.003848 0.003074 0.003728
# 2 0.000014 0.016922 0.003348 0.012991 0.005638 0.001957
# 3 -0.002304 0.003348 0.034556 0.004932 0.014167 0.003879
# 4 0.003848 0.012991 0.004932 0.057367 0.011471 0.000263
# 5 0.003074 0.005638 0.014167 0.011471 0.044298 0.005953
# 6 0.003728 0.001957 0.003879 0.000263 0.005953 0.023097
#
#
# Mechanical properties :
#
#
# Convention : Reuss Voigt Hill
#
# Bulk Modulus (GPa) = 15.57298 28.72767 22.15033
# Shear Modulus (GPa) = 24.25435 33.11666 28.68551
#
# Velocity S-wave (km/s) = 3.31430 3.87275 3.60436
# Velocity P-wave (km/s) = 4.65821 5.74527 5.23006
#
# Compressibility (1/GPa) = 0.06421377
#
# Stress axis : x y z
#
# Youngs Moduli (GPa) = 94.15886 59.09620 28.93864
#
# Poissons Ratio (x) = -0.00084 0.06668
# Poissons Ratio (y) = -0.00134 -0.09688
# Poissons Ratio (z) = 0.21695 -0.19784
#
# Static dielectric constant tensor:
#      x y z
#    x 1.873350 -0.000320 -0.031560 
#    y -0.000320 1.823370 -0.001790 
#    z -0.031560 -0.001790 1.868790 
# 
# From -- ./inp_files/255920.got.cif
#   From: 2010.05.17/outbox.cif.g08.bks.cpg/sg2_128_cif.got.tgz:255920.got - 2010.06.03 11:33:40.
