data_PCOD9107785
_publ_section_title
;
Structure prediction by ZEFSAII (Michael W. Deem and Ramdas Pophale) SiO2 
 PCOD9107785
Probable space group: P -1
;
_chemical_formula_sum "Si O2"
_cell_formula_units_Z 12
_cell_length_a 5.419669
_cell_length_b 13.165285
_cell_length_c 9.016553
_cell_angle_alpha 120.274066
_cell_angle_beta 57.517129
_cell_angle_gamma 115.940615
_cell_volume 456.249774
_symmetry_space_group_name_H-M "P -1"
_symmetry_group_IT_number 2
_symmetry_cell_setting 'triclinic'
loop_
_space_group_symop_operation_xyz
x,y,z
-x,-y,-z
loop_
_atom_site_type_symbol
_atom_site_label
_atom_site_fract_x
_atom_site_fract_y
_atom_site_fract_z
Si Si1 0.966325 0.414726 0.589388
Si Si2 0.209492 0.853742 0.648433
Si Si3 0.778736 0.384307 0.146030
Si Si4 0.711999 0.130804 0.034334
Si Si5 0.224365 0.102267 0.671781
Si Si6 0.449913 0.339938 0.914858
O O1 0.963540 0.277928 0.446543
O O2 0.638719 0.398510 0.756150
O O3 0.000000 0.500000 0.500000
O O4 0.207725 0.490360 0.682185
O O5 0.127149 0.868839 0.856811
O O6 0.574183 0.869204 0.519408
O O7 0.168378 0.964526 0.640968
O O8 0.596907 0.254348 0.171173
O O9 0.651002 0.386208 0.025497
O O10 0.120263 0.366301 0.039813
O O11 0.907396 0.136638 0.824176
O O12 0.500000 0.000000 0.000000
O O13 0.416000 0.196087 0.798231
#
# Coordination Sequence:
#
# PCOD9107785 Si02
#       6
#     2   2   2   2   2   2
#     4  11  22  42  67  98 142 177 227 282 347 405
#     4  10  20  40  65  96 137 176 232 283 342 416
#     4  11  23  45  69 101 134 182 231 277 346 410
#     4  11  22  38  66  97 140 175 232 282 348 406
#     4   9  21  40  68  96 133 180 227 285 350 399
#     4  10  23  44  74  97 135 180 231 282 340 414
#
# _framework density 26.301383000000001
#
# number of rings (size 3 to 8) (size 9 to 14) (size 15 to 20)
#    0.000    1.667    1.667    2.500    0.000    2.000 
#    0.000   13.333    0.000    0.000    0.000    0.000 
#    0.000    0.000    0.000    0.000    0.000    0.000 
#
# Total GULP energy -67053.314449 kJ/mol
# GULP energy per Si atom -5587.776204 kJ/mol
# Density = 2.624152 g / cm^3
# Si number density = 26.301383 Si / 1000 Ang^3
#
#
#
# Elastic Constant Matrix: (Units=GPa)
#
#
# Indices 1 2 3 4 5 6 
#
# 1 105.5662 32.1239 59.7711 2.9323 7.9447 7.9785
# 2 32.1239 234.3359 60.4435 43.2099 14.1761 0.9900
# 3 59.7711 60.4435 97.8702 0.7056 3.9931 17.1408
# 4 2.9323 43.2099 0.7056 70.0611 17.2135 7.8880
# 5 7.9447 14.1761 3.9931 17.2135 44.2399 -0.6165
# 6 7.9785 0.9900 17.1408 7.8880 -0.6165 26.0384
#
#
#
# Elastic Compliance Matrix: (Units=1/GPa)
#
#
# Indices 1 2 3 4 5 6 
#
# 1 0.014767 0.000732 -0.009760 -0.000795 -0.001667 0.002073
# 2 0.000732 0.006224 -0.004984 -0.004296 0.000053 0.004123
# 3 -0.009760 -0.004984 0.021418 0.004817 -0.000630 -0.012393
# 4 -0.000795 -0.004296 0.004817 0.019534 -0.006639 -0.008839
# 5 -0.001667 0.000053 -0.000630 -0.006639 0.025576 0.003541
# 6 0.002073 0.004123 -0.012393 -0.008839 0.003541 0.048533
#
#
# Mechanical properties :
#
#
# Convention : Reuss Voigt Hill
#
# Bulk Modulus (GPa) = 69.51913 82.49435 76.00674
# Shear Modulus (GPa) = 29.60853 47.09681 38.35267
#
# Velocity S-wave (km/s) = 3.35885 4.23621 3.82278
# Velocity P-wave (km/s) = 6.44450 7.44046 6.96032
#
# Compressibility (1/GPa) = 0.01438453
#
# Stress axis : x y z
#
# Youngs Moduli (GPa) = 67.71972 160.66118 46.69045
#
# Poissons Ratio (x) = -0.11756 0.45568
# Poissons Ratio (y) = -0.04955 0.23271
# Poissons Ratio (z) = 0.66092 0.80077
#
# Static dielectric constant tensor:
#      x y z
#    x 2.104060 0.026170 -0.072990 
#    y 0.026170 2.103050 0.020400 
#    z -0.072990 0.020400 2.121770 
# 
# From -- ./inp_files/88387.got.cif
#   From: 2010.05.17/outbox.cif.g08.bks.cpg/sg2_45_cif.got.tgz:88387.got - 2010.06.03 11:33:40.
