data_PCOD9107123
_publ_section_title
;
Structure prediction by ZEFSAII (Michael W. Deem and Ramdas Pophale) SiO2 
 PCOD9107123
Probable space group: P -1
;
_chemical_formula_sum "Si O2"
_cell_formula_units_Z 16
_cell_length_a 7.825356
_cell_length_b 22.189615
_cell_length_c 18.044488
_cell_angle_alpha 154.818347
_cell_angle_beta 132.673417
_cell_angle_gamma 32.926061
_cell_volume 677.836998
_symmetry_space_group_name_H-M "P -1"
_symmetry_group_IT_number 2
_symmetry_cell_setting 'triclinic'
loop_
_space_group_symop_operation_xyz
x,y,z
-x,-y,-z
loop_
_atom_site_type_symbol
_atom_site_label
_atom_site_fract_x
_atom_site_fract_y
_atom_site_fract_z
Si Si1 0.802052 0.623058 0.912661
Si Si2 0.182679 0.696211 0.048958
Si Si3 0.147303 0.126330 0.998865
Si Si4 0.993587 0.073294 0.434341
Si Si5 0.849597 0.419170 0.837212
Si Si6 0.789217 0.987002 0.735532
Si Si7 0.311551 0.545374 0.420716
Si Si8 0.706458 0.551638 0.424288
O O1 0.827135 0.471703 0.802070
O O2 0.683351 0.614652 0.788786
O O3 0.128280 0.575903 0.943508
O O4 0.547693 0.831226 0.116767
O O5 0.511455 0.552544 0.934252
O O6 0.136560 0.859510 0.264121
O O7 0.876556 0.844002 0.063480
O O8 0.894257 0.353873 0.209805
O O9 0.500000 0.000000 0.000000
O O10 0.022538 0.021537 0.862571
O O11 0.029035 0.188330 0.629360
O O12 0.592429 0.243324 0.483549
O O13 0.200724 0.012480 0.350670
O O14 0.000000 0.500000 0.000000
O O15 0.937612 0.772859 0.567211
O O16 0.500000 0.500000 0.500000
O O17 0.497682 0.562887 0.437055
O O18 0.000000 0.500000 0.500000
#
# Coordination Sequence:
#
# PCOD9107123 Si02
#       8
#     2   2   2   2   2   2   2   2
#     4  12  24  46  66  99 140 172 230 290 328 414
#     4  11  25  42  70 100 134 176 227 278 345 396
#     4  11  20  37  61  92 131 180 223 269 325 401
#     4  10  20  45  66  95 132 176 220 276 337 401
#     4  12  25  49  77  97 133 179 222 290 352 401
#     4  10  20  40  63  86 137 179 214 271 334 383
#     4  11  24  37  58  94 136 182 225 272 333 393
#     4  11  20  36  61  87 132 180 227 265 329 397
#
# _framework density 23.604496999999999
#
# number of rings (size 3 to 8) (size 9 to 14) (size 15 to 20)
#    0.000    1.000    7.500    2.250    3.500    4.500 
#    0.000    0.625    0.000    0.000    0.000    0.000 
#    0.000    0.000    0.000    0.000    0.000    0.000 
#
# Total GULP energy -89326.609300 kJ/mol
# GULP energy per Si atom -5582.913081 kJ/mol
# Density = 2.355077 g / cm^3
# Si number density = 23.604497 Si / 1000 Ang^3
#
#
#
# Elastic Constant Matrix: (Units=GPa)
#
#
# Indices 1 2 3 4 5 6 
#
# 1 88.2061 21.5285 33.8233 3.3958 10.8317 -27.6265
# 2 21.5285 56.6454 24.3353 -14.9424 -0.5869 -7.6151
# 3 33.8233 24.3353 180.4221 -8.1782 -16.2522 -16.9024
# 4 3.3958 -14.9424 -8.1782 43.1994 -4.5254 1.6014
# 5 10.8317 -0.5869 -16.2522 -4.5254 18.8789 -5.4777
# 6 -27.6265 -7.6151 -16.9024 1.6014 -5.4777 31.0839
#
#
#
# Elastic Compliance Matrix: (Units=1/GPa)
#
#
# Indices 1 2 3 4 5 6 
#
# 1 0.019583 -0.006163 -0.003004 -0.005940 -0.011814 0.012486
# 2 -0.006163 0.022811 -0.001024 0.008752 0.005481 0.000069
# 3 -0.003004 -0.001024 0.007438 0.002175 0.009390 0.002667
# 4 -0.005940 0.008752 0.002175 0.028357 0.011971 -0.001304
# 5 -0.011814 0.005481 0.009390 0.011971 0.073262 0.008242
# 6 0.012486 0.000069 0.002667 -0.001304 0.008242 0.046255
#
#
# Mechanical properties :
#
#
# Convention : Reuss Voigt Hill
#
# Bulk Modulus (GPa) = 33.95634 53.84975 43.90304
# Shear Modulus (GPa) = 21.93899 35.00490 28.47194
#
# Velocity S-wave (km/s) = 3.05198 3.85512 3.47682
# Velocity P-wave (km/s) = 5.18037 6.53290 5.89555
#
# Compressibility (1/GPa) = 0.02944958
#
# Stress axis : x y z
#
# Youngs Moduli (GPa) = 51.06411 43.83860 134.44433
#
# Poissons Ratio (x) = 0.27018 0.40383
# Poissons Ratio (y) = 0.31472 0.13773
# Poissons Ratio (z) = 0.15338 0.04491
#
# Static dielectric constant tensor:
#      x y z
#    x 1.900950 0.038900 -0.013480 
#    y 0.038900 2.097770 0.018580 
#    z -0.013480 0.018580 1.941310 
# 
# From -- ./inp_files/533588.got.cif
#   From: 2010.05.17/outbox.cif.g08.bks.cpg/sg2_267_cif.got.tgz:533588.got - 2010.06.03 11:33:40.
