data_PCOD9107067
_publ_section_title
;
Structure prediction by ZEFSAII (Michael W. Deem and Ramdas Pophale) SiO2 
 PCOD9107067
Probable space group: P -1
;
_chemical_formula_sum "Si O2"
_cell_formula_units_Z 16
_cell_length_a 8.110122
_cell_length_b 10.047139
_cell_length_c 12.166904
_cell_angle_alpha 74.222818
_cell_angle_beta 126.110887
_cell_angle_gamma 131.771109
_cell_volume 585.235898
_symmetry_space_group_name_H-M "P -1"
_symmetry_group_IT_number 2
_symmetry_cell_setting 'triclinic'
loop_
_space_group_symop_operation_xyz
x,y,z
-x,-y,-z
loop_
_atom_site_type_symbol
_atom_site_label
_atom_site_fract_x
_atom_site_fract_y
_atom_site_fract_z
Si Si1 0.427302 0.877036 0.229484
Si Si2 0.854794 0.096352 0.174790
Si Si3 0.934547 0.665732 0.428589
Si Si4 0.405472 0.275184 0.950922
Si Si5 0.519273 0.194915 0.318453
Si Si6 0.232241 0.082962 0.458093
Si Si7 0.108366 0.421312 0.825580
Si Si8 0.361829 0.428236 0.211988
O O1 0.567409 0.982193 0.147587
O O2 0.619345 0.863090 0.380654
O O3 0.144549 0.677103 0.172785
O O4 0.398760 0.008638 0.253973
O O5 0.789454 0.936993 0.105651
O O6 0.058844 0.138039 0.343209
O O7 0.048531 0.295545 0.151223
O O8 0.952115 0.624447 0.317006
O O9 0.622602 0.528358 0.374186
O O10 0.157799 0.682906 0.582332
O O11 0.035073 0.866100 0.423819
O O12 0.239789 0.329569 0.924173
O O13 0.538160 0.403424 0.864207
O O14 0.669115 0.364876 0.107822
O O15 0.441239 0.151552 0.426135
O O16 0.391794 0.283320 0.210350
#
# Coordination Sequence:
#
# PCOD9107067 Si02
#       8
#     2   2   2   2   2   2   2   2
#     4  11  20  34  60  92 117 153 195 236 299 353
#     4  11  22  38  58  84 125 160 188 233 299 356
#     4  10  16  34  62  88 114 144 198 251 286 337
#     4  10  22  41  63  85 115 155 203 244 284 344
#     4  10  18  33  61  91 118 143 197 249 290 344
#     4  10  17  35  62  86 117 149 194 239 292 347
#     4  10  18  37  64  88 110 150 207 247 282 337
#     4  10  21  37  60  83 120 156 194 239 292 344
#
# _framework density 27.339406
#
# number of rings (size 3 to 8) (size 9 to 14) (size 15 to 20)
#    0.000    1.750    5.000    2.250    0.000    0.500 
#    0.000   15.625    2.750    0.000    0.000    0.000 
#    0.000    0.000    0.000    0.000    0.000    0.000 
#
# Total GULP energy -89457.973982 kJ/mol
# GULP energy per Si atom -5591.123374 kJ/mol
# Density = 2.727718 g / cm^3
# Si number density = 27.339406 Si / 1000 Ang^3
#
#
#
# Elastic Constant Matrix: (Units=GPa)
#
#
# Indices 1 2 3 4 5 6 
#
# 1 55.6166 18.9139 2.3529 13.1361 -2.0925 18.5730
# 2 18.9139 139.0052 34.6934 29.7319 10.7839 25.6720
# 3 2.3529 34.6934 88.5692 9.1083 8.8853 9.5050
# 4 13.1361 29.7319 9.1083 48.8943 12.5782 24.0897
# 5 -2.0925 10.7839 8.8853 12.5782 15.6357 -0.5681
# 6 18.5730 25.6720 9.5050 24.0897 -0.5681 46.4681
#
#
#
# Elastic Compliance Matrix: (Units=1/GPa)
#
#
# Indices 1 2 3 4 5 6 
#
# 1 0.021590 -0.001698 0.000433 -0.003687 0.006570 -0.005788
# 2 -0.001698 0.009410 -0.002777 -0.002672 -0.003084 -0.002605
# 3 0.000433 -0.002777 0.013160 0.002348 -0.007490 -0.002640
# 4 -0.003687 -0.002672 0.002348 0.040524 -0.033273 -0.018946
# 5 0.006570 -0.003084 -0.007490 -0.033273 0.098679 0.019066
# 6 -0.005788 -0.002605 -0.002640 -0.018946 0.019066 0.035867
#
#
# Mechanical properties :
#
#
# Convention : Reuss Voigt Hill
#
# Bulk Modulus (GPa) = 27.71928 43.90125 35.81027
# Shear Modulus (GPa) = 20.89075 37.34832 29.11954
#
# Velocity S-wave (km/s) = 2.76728 3.70009 3.26715
# Velocity P-wave (km/s) = 4.51347 5.86062 5.23060
#
# Compressibility (1/GPa) = 0.03607597
#
# Stress axis : x y z
#
# Youngs Moduli (GPa) = 46.31698 106.27108 75.98701
#
# Poissons Ratio (x) = 0.18042 -0.03288
# Poissons Ratio (y) = 0.07864 0.21103
# Poissons Ratio (z) = -0.02004 0.29513
#
# Static dielectric constant tensor:
#      x y z
#    x 2.203070 0.050200 0.013940 
#    y 0.050200 2.136760 -0.059640 
#    z 0.013940 -0.059640 2.223880 
# 
# From -- ./inp_files/500421.got.cif
#   From: 2010.05.17/outbox.cif.g08.bks.cpg/sg2_251_cif.got.tgz:500421.got - 2010.06.03 11:33:40.
