data_PCOD9107699
_publ_section_title
;
Structure prediction by ZEFSAII (Michael W. Deem and Ramdas Pophale) SiO2 
 PCOD9107699
Probable space group: P -1
;
_chemical_formula_sum "Si O2"
_cell_formula_units_Z 16
_cell_length_a 12.532802
_cell_length_b 15.967603
_cell_length_c 8.535790
_cell_angle_alpha 77.129325
_cell_angle_beta 100.668711
_cell_angle_gamma 154.036608
_cell_volume 728.584393
_symmetry_space_group_name_H-M "P -1"
_symmetry_group_IT_number 2
_symmetry_cell_setting 'triclinic'
loop_
_space_group_symop_operation_xyz
x,y,z
-x,-y,-z
loop_
_atom_site_type_symbol
_atom_site_label
_atom_site_fract_x
_atom_site_fract_y
_atom_site_fract_z
Si Si1 0.889334 0.523531 0.316468
Si Si2 0.570744 0.569000 0.229470
Si Si3 0.520335 0.813178 0.440325
Si Si4 0.275007 0.701730 0.129052
Si Si5 0.919598 0.303412 0.124843
Si Si6 0.236628 0.424821 0.956535
Si Si7 0.726855 0.772583 0.499717
Si Si8 0.239937 0.863231 0.506721
O O1 0.731640 0.356488 0.462565
O O2 0.714588 0.457761 0.187994
O O3 0.057988 0.586461 0.225470
O O4 0.062098 0.709563 0.384260
O O5 0.752517 0.646749 0.131310
O O6 0.696156 0.701314 0.357196
O O7 0.374349 0.362185 0.335693
O O8 0.428921 0.537112 0.096671
O O9 0.490660 0.835498 0.252412
O O10 0.566001 0.745074 0.463887
O O11 0.715540 0.003819 0.515057
O O12 0.163715 0.535722 0.098878
O O13 0.294061 0.787182 0.964578
O O14 0.870051 0.243594 0.313155
O O15 0.986481 0.272372 0.041318
O O16 0.000000 0.000000 0.500000
O O17 0.500000 0.000000 0.500000
#
# Coordination Sequence:
#
# PCOD9107699 Si02
#       8
#     2   2   2   2   2   2   2   2
#     4  11  22  43  65  96 132 173 222 266 327 397
#     4  10  23  47  70  92 134 173 226 278 340 385
#     4  12  23  39  67  95 128 175 217 267 332 393
#     4  10  20  40  65  92 131 170 214 269 322 394
#     4  10  22  38  67  95 130 173 219 265 331 392
#     4  10  22  42  71  94 127 184 216 273 336 391
#     4  11  26  43  71 101 128 171 228 283 334 393
#     4  12  25  40  66  99 136 174 217 268 329 400
#
# _framework density 21.960391999999999
#
# number of rings (size 3 to 8) (size 9 to 14) (size 15 to 20)
#    0.000    1.250    3.750    1.875    3.500    0.500 
#    0.000    3.750    2.750    0.000    0.000    0.000 
#    0.000    0.000    0.000    0.000    0.000    0.000 
#
# Total GULP energy -89419.361898 kJ/mol
# GULP energy per Si atom -5588.710119 kJ/mol
# Density = 2.191041 g / cm^3
# Si number density = 21.960392 Si / 1000 Ang^3
#
#
#
# Elastic Constant Matrix: (Units=GPa)
#
#
# Indices 1 2 3 4 5 6 
#
# 1 85.6250 17.8442 43.0242 -1.3086 -5.2383 -8.8902
# 2 17.8442 92.2230 25.9311 14.8143 -10.2188 -20.7407
# 3 43.0242 25.9311 107.7142 19.3840 -4.4176 -3.2315
# 4 -1.3086 14.8143 19.3840 14.3529 -0.8067 -5.9290
# 5 -5.2383 -10.2188 -4.4176 -0.8067 41.8346 4.0411
# 6 -8.8902 -20.7407 -3.2315 -5.9290 4.0411 23.3310
#
#
#
# Elastic Compliance Matrix: (Units=1/GPa)
#
#
# Indices 1 2 3 4 5 6 
#
# 1 0.018849 -0.002040 -0.010753 0.022285 0.000238 0.009501
# 2 -0.002040 0.015688 -0.000494 -0.011547 0.002359 0.009757
# 3 -0.010753 -0.000494 0.018809 -0.029814 0.000877 -0.009660
# 4 0.022285 -0.011547 -0.029814 0.135752 -0.003379 0.029180
# 5 0.000238 0.002359 0.000877 -0.003379 0.024812 -0.002847
# 6 0.009501 0.009757 -0.009660 0.029180 -0.002847 0.061726
#
#
# Mechanical properties :
#
#
# Convention : Reuss Voigt Hill
#
# Bulk Modulus (GPa) = 37.35405 51.01792 44.18598
# Shear Modulus (GPa) = 16.07023 29.15453 22.61238
#
# Velocity S-wave (km/s) = 2.70808 3.64757 3.21236
# Velocity P-wave (km/s) = 5.17928 6.40484 5.82438
#
# Compressibility (1/GPa) = 0.02677086
#
# Stress axis : x y z
#
# Youngs Moduli (GPa) = 53.05381 63.74440 53.16496
#
# Poissons Ratio (x) = 0.13004 0.57169
# Poissons Ratio (y) = 0.10823 0.02628
# Poissons Ratio (z) = 0.57050 0.03151
#
# Static dielectric constant tensor:
#      x y z
#    x 1.849520 0.000880 0.025270 
#    y 0.000880 1.815350 -0.002120 
#    z 0.025270 -0.002120 1.812700 
# 
# From -- ./inp_files/272629.got.cif
#   From: 2010.05.17/outbox.cif.g08.bks.cpg/sg2_137_cif.got.tgz:272629.got - 2010.06.03 11:33:40.
