data_PCOD9107730
_publ_section_title
;
Structure prediction by ZEFSAII (Michael W. Deem and Ramdas Pophale) SiO2 
 PCOD9107730
Probable space group: P -1
;
_chemical_formula_sum "Si O2"
_cell_formula_units_Z 16
_cell_length_a 11.605951
_cell_length_b 18.819283
_cell_length_c 5.206553
_cell_angle_alpha 100.176668
_cell_angle_beta 106.309537
_cell_angle_gamma 134.324610
_cell_volume 655.607368
_symmetry_space_group_name_H-M "P -1"
_symmetry_group_IT_number 2
_symmetry_cell_setting 'triclinic'
loop_
_space_group_symop_operation_xyz
x,y,z
-x,-y,-z
loop_
_atom_site_type_symbol
_atom_site_label
_atom_site_fract_x
_atom_site_fract_y
_atom_site_fract_z
Si Si1 0.391994 0.417603 0.625928
Si Si2 0.016089 0.584587 0.256831
Si Si3 0.103078 0.924877 0.538648
Si Si4 0.051875 0.753688 0.674615
Si Si5 0.317905 0.653420 0.813806
Si Si6 0.676480 0.922738 0.726721
Si Si7 0.674495 0.769384 0.342136
Si Si8 0.286782 0.779001 0.170108
O O1 0.500000 0.500000 0.500000
O O2 0.392484 0.331993 0.604430
O O3 0.162820 0.330018 0.406549
O O4 0.500000 0.500000 0.000000
O O5 0.032612 0.665748 0.481917
O O6 0.178679 0.602025 0.452511
O O7 0.085261 0.647618 0.068031
O O8 0.812062 0.451572 0.124217
O O9 0.100773 0.839439 0.558457
O O10 0.886775 0.854132 0.408841
O O11 0.180284 0.973413 0.331297
O O12 0.236905 0.027092 0.904141
O O13 0.225075 0.824637 0.035392
O O14 0.521626 0.709362 0.975292
O O15 0.361731 0.755405 0.000089
O O16 0.667709 0.835935 0.565421
O O17 0.462987 0.859891 0.535722
#
# Coordination Sequence:
#
# PCOD9107730 Si02
#       8
#     2   2   2   2   2   2   2   2
#     4  11  26  45  67 104 138 178 216 261 329 404
#     4  10  20  40  65  93 138 169 219 270 331 395
#     4  11  26  46  66  98 131 174 228 279 329 387
#     4  10  25  40  66  94 134 174 222 271 330 394
#     4   9  20  39  62 101 127 176 214 271 331 397
#     4  11  26  45  70  95 131 174 228 280 333 374
#     4  10  23  44  70  98 133 175 221 274 328 396
#     4  10  23  39  66  96 130 172 221 277 326 399
#
# _framework density 24.404848999999999
#
# number of rings (size 3 to 8) (size 9 to 14) (size 15 to 20)
#    0.000    1.750    0.000    1.875   10.500    5.000 
#    9.000    0.000    0.000    0.000    0.000    0.000 
#    0.000    0.000    0.000    0.000    0.000    0.000 
#
# Total GULP energy -89519.441666 kJ/mol
# GULP energy per Si atom -5594.965104 kJ/mol
# Density = 2.434930 g / cm^3
# Si number density = 24.404849 Si / 1000 Ang^3
#
#
#
# Elastic Constant Matrix: (Units=GPa)
#
#
# Indices 1 2 3 4 5 6 
#
# 1 86.7664 50.9802 43.2295 -12.1101 26.4853 -22.8309
# 2 50.9802 144.2665 19.1877 -13.4412 8.1332 6.5605
# 3 43.2295 19.1877 63.1693 2.5234 26.8183 5.8473
# 4 -12.1101 -13.4412 2.5234 29.1897 2.8954 -6.6687
# 5 26.4853 8.1332 26.8183 2.8954 47.8912 -8.6275
# 6 -22.8309 6.5605 5.8473 -6.6687 -8.6275 31.0503
#
#
#
# Elastic Compliance Matrix: (Units=1/GPa)
#
#
# Indices 1 2 3 4 5 6 
#
# 1 0.091512 -0.022749 -0.070089 0.055509 0.007011 0.099163
# 2 -0.022749 0.013267 0.015152 -0.010178 -0.002072 -0.025145
# 3 -0.070089 0.015152 0.077121 -0.046162 -0.019444 -0.084577
# 4 0.055509 -0.010178 -0.046162 0.071741 0.004868 0.068420
# 5 0.007011 -0.002072 -0.019444 0.004868 0.031375 0.019018
# 6 0.099163 -0.025145 -0.084577 0.068420 0.019018 0.146339
#
#
# Mechanical properties :
#
#
# Convention : Reuss Voigt Hill
#
# Bulk Modulus (GPa) = 37.69590 57.88856 47.79223
# Shear Modulus (GPa) = 8.39533 33.67987 21.03760
#
# Velocity S-wave (km/s) = 1.85674 3.71893 2.93921
# Velocity P-wave (km/s) = 4.48065 6.49709 5.58070
#
# Compressibility (1/GPa) = 0.02652809
#
# Stress axis : x y z
#
# Youngs Moduli (GPa) = 10.92750 75.37292 12.96668
#
# Poissons Ratio (x) = 1.71467 0.90882
# Poissons Ratio (y) = 0.24859 -0.19647
# Poissons Ratio (z) = 0.76590 -1.14204
#
# Static dielectric constant tensor:
#      x y z
#    x 1.903150 -0.006260 -0.025160 
#    y -0.006260 1.915410 0.010580 
#    z -0.025160 0.010580 2.029970 
# 
# From -- ./inp_files/81432.got.cif
#   From: 2010.05.17/outbox.cif.g08.bks.cpg/sg2_41_cif.got.tgz:81432.got - 2010.06.03 11:33:40.
