data_PCOD9107444
_publ_section_title
;
Structure prediction by ZEFSAII (Michael W. Deem and Ramdas Pophale) SiO2 
 PCOD9107444
Probable space group: P -1
;
_chemical_formula_sum "Si O2"
_cell_formula_units_Z 14
_cell_length_a 10.136943
_cell_length_b 8.324174
_cell_length_c 8.166346
_cell_angle_alpha 59.936029
_cell_angle_beta 100.041988
_cell_angle_gamma 114.973794
_cell_volume 540.016898
_symmetry_space_group_name_H-M "P -1"
_symmetry_group_IT_number 2
_symmetry_cell_setting 'triclinic'
loop_
_space_group_symop_operation_xyz
x,y,z
-x,-y,-z
loop_
_atom_site_type_symbol
_atom_site_label
_atom_site_fract_x
_atom_site_fract_y
_atom_site_fract_z
Si Si1 0.949291 0.541149 0.730981
Si Si2 0.646907 0.841410 0.116724
Si Si3 0.219704 0.750641 0.886332
Si Si4 0.921677 0.738223 0.293179
Si Si5 0.628867 0.218645 0.414740
Si Si6 0.445342 0.443813 0.206592
Si Si7 0.771896 0.971626 0.736941
O O1 0.899592 0.636924 0.519215
O O2 0.064935 0.708771 0.786944
O O3 0.028072 0.399453 0.746784
O O4 0.822069 0.396852 0.893278
O O5 0.775770 0.759197 0.196224
O O6 0.488128 0.664290 0.182254
O O7 0.689429 0.019640 0.163881
O O8 0.672972 0.939351 0.892698
O O9 0.313204 0.702649 0.792877
O O10 0.058416 0.953587 0.223268
O O11 0.549983 0.362431 0.376370
O O12 0.500000 0.000000 0.500000
O O13 0.756464 0.167156 0.550640
O O14 0.295849 0.242900 0.263184
O O15 0.500000 0.500000 0.000000
#
# Coordination Sequence:
#
# PCOD9107444 Si02
#       7
#     2   2   2   2   2   2   2
#     4  10  23  38  63  90 134 165 215 257 326 377
#     4  11  23  37  66  97 132 164 216 269 320 371
#     4  11  22  40  59 100 132 161 213 274 320 373
#     4  11  21  41  67  95 125 176 215 257 319 393
#     4  10  21  43  69  84 125 178 215 255 316 391
#     4   9  21  41  63  92 121 169 217 255 316 384
#     4  10  20  40  64  92 126 173 216 253 314 393
#
# _framework density 25.925114000000001
#
# number of rings (size 3 to 8) (size 9 to 14) (size 15 to 20)
#    0.000    1.714    2.857    1.286    2.000    0.571 
#    2.571   10.714    0.000    0.000    0.000    0.000 
#    0.000    0.000    0.000    0.000    0.000    0.000 
#
# Total GULP energy -78307.493682 kJ/mol
# GULP energy per Si atom -5593.392406 kJ/mol
# Density = 2.586611 g / cm^3
# Si number density = 25.925114 Si / 1000 Ang^3
#
#
#
# Elastic Constant Matrix: (Units=GPa)
#
#
# Indices 1 2 3 4 5 6 
#
# 1 66.4287 26.7781 26.1363 0.3277 9.8823 21.6625
# 2 26.7781 186.4696 13.6464 -16.2772 -2.1225 42.2896
# 3 26.1363 13.6464 120.8894 -3.2893 -3.5088 0.5104
# 4 0.3277 -16.2772 -3.2893 28.3307 3.0264 -6.4228
# 5 9.8823 -2.1225 -3.5088 3.0264 32.7957 -5.5782
# 6 21.6625 42.2896 0.5104 -6.4228 -5.5782 35.5185
#
#
#
# Elastic Compliance Matrix: (Units=1/GPa)
#
#
# Indices 1 2 3 4 5 6 
#
# 1 0.024477 0.000495 -0.005678 -0.003545 -0.010643 -0.017749
# 2 0.000495 0.007630 -0.000910 0.002353 -0.001533 -0.009189
# 3 -0.005678 -0.000910 0.009721 0.001486 0.003442 0.005216
# 4 -0.003545 0.002353 0.001486 0.038366 -0.001123 0.006100
# 5 -0.010643 -0.001533 0.003442 -0.001123 0.036416 0.013783
# 6 -0.017749 -0.009189 0.005216 0.006100 0.013783 0.053113
#
#
# Mechanical properties :
#
#
# Convention : Reuss Voigt Hill
#
# Bulk Modulus (GPa) = 33.73631 56.32327 45.02979
# Shear Modulus (GPa) = 26.07033 39.81078 32.94056
#
# Velocity S-wave (km/s) = 3.17456 3.92293 3.56842
# Velocity P-wave (km/s) = 5.14571 6.50321 5.86388
#
# Compressibility (1/GPa) = 0.02964165
#
# Stress axis : x y z
#
# Youngs Moduli (GPa) = 40.85485 131.05787 102.87301
#
# Poissons Ratio (x) = -0.06490 0.58414
# Poissons Ratio (y) = -0.02023 0.09362
# Poissons Ratio (z) = 0.23198 0.11927
#
# Static dielectric constant tensor:
#      x y z
#    x 2.075070 0.006660 0.079120 
#    y 0.006660 2.054490 0.016530 
#    z 0.079120 0.016530 2.068410 
# 
# From -- ./inp_files/189780.got.cif
#   From: 2010.05.17/outbox.cif.g08.bks.cpg/sg2_95_cif.got.tgz:189780.got - 2010.06.03 11:33:40.
