data_PCOD9107694
_publ_section_title
;
Structure prediction by ZEFSAII (Michael W. Deem and Ramdas Pophale) SiO2 
 PCOD9107694
Probable space group: P -1
;
_chemical_formula_sum "Si O2"
_cell_formula_units_Z 14
_cell_length_a 9.142423
_cell_length_b 18.891960
_cell_length_c 8.094674
_cell_angle_alpha 143.792781
_cell_angle_beta 107.732191
_cell_angle_gamma 56.719084
_cell_volume 662.826567
_symmetry_space_group_name_H-M "P -1"
_symmetry_group_IT_number 2
_symmetry_cell_setting 'triclinic'
loop_
_space_group_symop_operation_xyz
x,y,z
-x,-y,-z
loop_
_atom_site_type_symbol
_atom_site_label
_atom_site_fract_x
_atom_site_fract_y
_atom_site_fract_z
Si Si1 0.698688 0.392796 0.444643
Si Si2 0.374046 0.938377 0.893601
Si Si3 0.531877 0.362926 0.648876
Si Si4 0.790112 0.621977 0.005648
Si Si5 0.823144 0.591808 0.331511
Si Si6 0.083939 0.191342 0.083544
Si Si7 0.396304 0.124647 0.828335
O O1 0.500000 0.500000 0.500000
O O2 0.661486 0.331686 0.480446
O O3 0.764912 0.492354 0.724334
O O4 0.863906 0.272449 0.160893
O O5 0.401017 0.794525 0.551708
O O6 0.454431 0.893610 0.021492
O O7 0.500000 0.000000 0.000000
O O8 0.172728 0.069050 0.024731
O O9 0.324708 0.416956 0.631947
O O10 0.500000 0.500000 0.000000
O O11 0.002386 0.561541 0.936373
O O12 0.748250 0.663679 0.261248
O O13 0.678837 0.735644 0.043113
O O14 0.878761 0.686487 0.624567
O O15 0.223879 0.125131 0.851668
O O16 0.500000 0.000000 0.500000
#
# Coordination Sequence:
#
# PCOD9107694 Si02
#       7
#     2   2   2   2   2   2   2
#     4  11  25  39  61  96 138 169 209 273 340 385
#     4  10  21  42  67  93 129 171 222 270 320 394
#     4  12  23  40  66  98 130 175 215 272 332 386
#     4  10  22  38  63  93 129 168 222 272 323 387
#     4  10  20  40  65  92 126 171 223 268 318 395
#     4  10  23  42  66  95 127 175 223 268 320 400
#     4  11  22  36  67 100 122 169 226 276 319 378
#
# _framework density 21.121665
#
# number of rings (size 3 to 8) (size 9 to 14) (size 15 to 20)
#    0.000    1.429    4.286    1.714    4.000    1.714 
#    0.000    0.000    0.000    2.571    0.000    0.000 
#    0.000    0.000    0.000    0.000    0.000    0.000 
#
# Total GULP energy -77939.737034 kJ/mol
# GULP energy per Si atom -5567.124074 kJ/mol
# Density = 2.107359 g / cm^3
# Si number density = 21.121665 Si / 1000 Ang^3
#
#
#
# Elastic Constant Matrix: (Units=GPa)
#
#
# Indices 1 2 3 4 5 6 
#
# 1 124.2625 26.9331 46.1370 14.4739 -27.9876 -7.6184
# 2 26.9331 83.2597 15.6922 13.3886 -10.2183 -2.5591
# 3 46.1370 15.6922 82.3142 8.2792 -9.3930 4.3127
# 4 14.4739 13.3886 8.2792 28.6355 4.5894 -0.6713
# 5 -27.9876 -10.2183 -9.3930 4.5894 41.6886 4.8299
# 6 -7.6184 -2.5591 4.3127 -0.6713 4.8299 30.0335
#
#
#
# Elastic Compliance Matrix: (Units=1/GPa)
#
#
# Indices 1 2 3 4 5 6 
#
# 1 0.012899 -0.001237 -0.005755 -0.005391 0.007341 0.002692
# 2 -0.001237 0.013961 -0.001039 -0.006069 0.002978 0.000410
# 3 -0.005755 -0.001039 0.015913 -0.001307 0.000060 -0.003872
# 4 -0.005391 -0.006069 -0.001307 0.042515 -0.010185 0.000891
# 5 0.007341 0.002978 0.000060 -0.010185 0.031143 -0.003129
# 6 0.002692 0.000410 -0.003872 0.000891 -0.003129 0.035093
#
#
# Mechanical properties :
#
#
# Convention : Reuss Voigt Hill
#
# Bulk Modulus (GPa) = 37.43920 51.92901 44.68410
# Shear Modulus (GPa) = 28.33015 33.47647 30.90331
#
# Velocity S-wave (km/s) = 3.66633 3.98544 3.82921
# Velocity P-wave (km/s) = 5.97382 6.76885 6.38373
#
# Compressibility (1/GPa) = 0.02670997
#
# Stress axis : x y z
#
# Youngs Moduli (GPa) = 77.52632 71.62954 62.83984
#
# Poissons Ratio (x) = 0.08863 0.36164
# Poissons Ratio (y) = 0.09592 0.06530
# Poissons Ratio (z) = 0.44616 0.07444
#
# Static dielectric constant tensor:
#      x y z
#    x 1.836840 0.030800 -0.024920 
#    y 0.030800 1.673710 -0.028680 
#    z -0.024920 -0.028680 1.800530 
# 
# From -- ./inp_files/222784.got.cif
#   From: 2010.05.17/outbox.cif.g08.bks.cpg/sg2_112_cif.got.tgz:222784.got - 2010.06.03 11:33:40.
