data_PCOD9107963
_publ_section_title
;
Structure prediction by ZEFSAII (Michael W. Deem and Ramdas Pophale) SiO2 
 PCOD9107963
Probable space group: P -1
;
_chemical_formula_sum "Si O2"
_cell_formula_units_Z 15
_cell_length_a 13.798955
_cell_length_b 11.095396
_cell_length_c 13.932490
_cell_angle_alpha 31.993140
_cell_angle_beta 147.242705
_cell_angle_gamma 136.531462
_cell_volume 610.931702
_symmetry_space_group_name_H-M "P -1"
_symmetry_group_IT_number 2
_symmetry_cell_setting 'triclinic'
loop_
_space_group_symop_operation_xyz
x,y,z
-x,-y,-z
loop_
_atom_site_type_symbol
_atom_site_label
_atom_site_fract_x
_atom_site_fract_y
_atom_site_fract_z
Si Si1 0.620320 0.071116 0.408550
Si Si2 0.336868 0.076520 0.027916
Si Si3 0.321997 0.277857 0.161276
Si Si4 0.481125 0.690098 0.142635
Si Si5 0.500000 0.500000 0.500000
Si Si6 0.103317 0.673814 0.069683
Si Si7 0.079042 0.786506 0.762179
Si Si8 0.165852 0.468476 0.729853
O O1 0.464916 0.158318 0.291148
O O2 0.743899 0.286241 0.338015
O O3 0.728800 0.893995 0.679184
O O4 0.514222 0.973104 0.293259
O O5 0.378970 0.139663 0.910977
O O6 0.297982 0.314535 0.883562
O O7 0.173098 0.899180 0.031590
O O8 0.431342 0.482537 0.167625
O O9 0.160911 0.343496 0.912857
O O10 0.543222 0.596900 0.358892
O O11 0.291731 0.806009 0.914828
O O12 0.291286 0.566923 0.268333
O O13 0.985899 0.467027 0.156694
O O14 0.022313 0.767516 0.839707
O O15 0.000000 0.000000 0.500000
O O16 0.000000 0.500000 0.500000
#
# Coordination Sequence:
#
# PCOD9107963 Si02
#       8
#     2   2   2   2   1   2   2   2
#     4  10  20  41  67  95 134 171 220 272 320 403
#     4  11  22  42  71  98 129 179 230 272 330 404
#     4  10  20  40  66  92 128 180 216 264 334 396
#     4  11  22  42  70  95 130 181 226 276 337 394
#     4  10  24  40  66  98 130 166 234 280 326 400
#     4  10  24  44  63  96 127 170 224 278 333 398
#     4  10  25  45  63  89 135 171 216 281 344 388
#     4  11  23  41  63 102 142 170 215 275 331 402
#
# _framework density 24.552662000000002
#
# number of rings (size 3 to 8) (size 9 to 14) (size 15 to 20)
#    0.000    1.600    2.667    1.600    3.733    3.733 
#    2.400    0.000    0.000    0.000    0.000    0.000 
#    0.000    0.000    0.000    0.000    0.000    0.000 
#
# Total GULP energy -83622.945540 kJ/mol
# GULP energy per Si atom -5574.863036 kJ/mol
# Density = 2.449678 g / cm^3
# Si number density = 24.552662 Si / 1000 Ang^3
#
#
#
# Elastic Constant Matrix: (Units=GPa)
#
#
# Indices 1 2 3 4 5 6 
#
# 1 72.2515 7.5804 35.0726 0.0301 -29.9043 -4.9927
# 2 7.5804 101.7702 36.3031 -4.3072 -27.6634 8.4074
# 3 35.0726 36.3031 215.1657 10.0849 -57.1962 2.8185
# 4 0.0301 -4.3072 10.0849 36.1094 -3.7984 -6.4378
# 5 -29.9043 -27.6634 -57.1962 -3.7984 32.4030 6.6211
# 6 -4.9927 8.4074 2.8185 -6.4378 6.6211 17.7334
#
#
#
# Elastic Compliance Matrix: (Units=1/GPa)
#
#
# Indices 1 2 3 4 5 6 
#
# 1 0.031446 0.012358 0.008707 0.001700 0.059201 -0.019876
# 2 0.012358 0.021546 0.007508 0.000982 0.048409 -0.025647
# 3 0.008707 0.007508 0.013485 -0.001961 0.042036 -0.019658
# 4 0.001700 0.000982 -0.001961 0.030390 0.000204 0.011281
# 5 0.059201 0.048409 0.042036 0.000204 0.220505 -0.095220
# 6 -0.019876 -0.025647 -0.019658 0.011281 -0.095220 0.105726
#
#
# Mechanical properties :
#
#
# Convention : Reuss Voigt Hill
#
# Bulk Modulus (GPa) = 8.08906 60.78884 34.43895
# Shear Modulus (GPa) = 12.28019 37.93125 25.10572
#
# Velocity S-wave (km/s) = 2.23885 3.93478 3.20116
# Velocity P-wave (km/s) = 3.15990 6.74208 5.26501
#
# Compressibility (1/GPa) = 0.12362381
#
# Stress axis : x y z
#
# Youngs Moduli (GPa) = 31.80043 46.41220 74.15631
#
# Poissons Ratio (x) = -0.57356 -0.64567
# Poissons Ratio (y) = -0.39299 -0.55680
# Poissons Ratio (z) = -0.27688 -0.34848
#
# Static dielectric constant tensor:
#      x y z
#    x 1.965420 -0.058830 0.001940 
#    y -0.058830 1.992190 -0.026410 
#    z 0.001940 -0.026410 1.981210 
# 
# From -- ./inp_files/537925.got.cif
#   From: 2010.05.17/outbox.cif.g08.bks.cpg/sg2_269_cif.got.tgz:537925.got - 2010.06.03 11:33:40.
