data_PCOD9107484
_publ_section_title
;
Structure prediction by ZEFSAII (Michael W. Deem and Ramdas Pophale) SiO2 
 PCOD9107484
Probable space group: P -1
;
_chemical_formula_sum "Si O2"
_cell_formula_units_Z 13
_cell_length_a 12.094532
_cell_length_b 10.039441
_cell_length_c 13.490091
_cell_angle_alpha 147.751807
_cell_angle_beta 32.382740
_cell_angle_gamma 130.581503
_cell_volume 456.324380
_symmetry_space_group_name_H-M "P -1"
_symmetry_group_IT_number 2
_symmetry_cell_setting 'triclinic'
loop_
_space_group_symop_operation_xyz
x,y,z
-x,-y,-z
loop_
_atom_site_type_symbol
_atom_site_label
_atom_site_fract_x
_atom_site_fract_y
_atom_site_fract_z
Si Si1 0.784564 0.760150 0.597366
Si Si2 0.500000 0.500000 0.500000
Si Si3 0.976823 0.919336 0.107936
Si Si4 0.299474 0.506827 0.308727
Si Si5 0.289571 0.129030 0.906345
Si Si6 0.722467 0.835233 0.415697
Si Si7 0.755858 0.246859 0.821933
O O1 0.621298 0.642272 0.583572
O O2 0.777885 0.659956 0.651112
O O3 0.018150 0.688092 0.324425
O O4 0.737782 0.068430 0.817623
O O5 0.653026 0.594153 0.360361
O O6 0.850810 0.215002 0.399833
O O7 0.881328 0.830316 0.024455
O O8 0.921008 0.782076 0.160313
O O9 0.221470 0.922775 0.905767
O O10 0.285440 0.376296 0.130815
O O11 0.550656 0.476943 0.116866
O O12 0.517796 0.992521 0.609297
O O13 0.741929 0.045859 0.616711
#
# Coordination Sequence:
#
# PCOD9107484 Si02
#       7
#     2   1   2   2   2   2   2
#     4  10  20  40  64  94 130 167 214 269 320 383
#     4  10  22  42  66  92 126 164 210 268 324 382
#     4  11  23  40  64  95 133 173 215 269 325 382
#     4  11  22  39  66  95 129 173 215 265 325 383
#     4  10  23  40  62  96 132 170 218 265 319 389
#     4  10  21  42  64  91 131 168 212 271 322 381
#     4   9  21  38  64  94 126 171 220 261 318 390
#
# _framework density 28.488506999999998
#
# number of rings (size 3 to 8) (size 9 to 14) (size 15 to 20)
#    0.000    1.846    0.000    3.231    0.000    3.692 
#    0.000    6.154    0.000    1.846    0.000    0.000 
#    0.000    0.000    0.000    0.000    0.000    0.000 
#
# Total GULP energy -72791.991192 kJ/mol
# GULP energy per Si atom -5599.383938 kJ/mol
# Density = 2.842367 g / cm^3
# Si number density = 28.488507 Si / 1000 Ang^3
#
#
#
# Elastic Constant Matrix: (Units=GPa)
#
#
# Indices 1 2 3 4 5 6 
#
# 1 90.7979 46.1140 41.1098 0.5851 3.3522 20.5654
# 2 46.1140 170.9706 46.4348 -27.8634 4.5138 -10.0780
# 3 41.1098 46.4348 138.5591 3.5411 -7.9078 14.1636
# 4 0.5851 -27.8634 3.5411 42.4441 13.1638 2.2934
# 5 3.3522 4.5138 -7.9078 13.1638 49.6830 -11.1208
# 6 20.5654 -10.0780 14.1636 2.2934 -11.1208 50.7984
#
#
#
# Elastic Compliance Matrix: (Units=1/GPa)
#
#
# Indices 1 2 3 4 5 6 
#
# 1 0.016072 -0.004224 -0.002722 -0.001690 -0.002253 -0.007002
# 2 -0.004224 0.008947 -0.002370 0.006521 -0.001862 0.003444
# 3 -0.002722 -0.002370 0.009159 -0.002943 0.002351 -0.001274
# 4 -0.001690 0.006521 -0.002943 0.031033 -0.009313 -0.000641
# 5 -0.002253 -0.001862 0.002351 -0.009313 0.024563 0.005685
# 6 -0.007002 0.003444 -0.001274 -0.000641 0.005685 0.024833
#
#
# Mechanical properties :
#
#
# Convention : Reuss Voigt Hill
#
# Bulk Modulus (GPa) = 64.33298 74.18277 69.25787
# Shear Modulus (GPa) = 36.12204 46.36303 41.24254
#
# Velocity S-wave (km/s) = 3.56469 4.03852 3.80898
# Velocity P-wave (km/s) = 6.29077 6.91681 6.61120
#
# Compressibility (1/GPa) = 0.01554413
#
# Stress axis : x y z
#
# Youngs Moduli (GPa) = 62.22193 111.77175 109.18562
#
# Poissons Ratio (x) = 0.47214 0.29724
# Poissons Ratio (y) = 0.26283 0.25877
# Poissons Ratio (z) = 0.16939 0.26490
#
# Static dielectric constant tensor:
#      x y z
#    x 2.403020 -0.048430 -0.166150 
#    y -0.048430 2.286070 0.041460 
#    z -0.166150 0.041460 2.233870 
# 
# From -- ./inp_files/531367.got.cif
#   From: 2010.05.17/outbox.cif.g08.bks.cpg/sg2_266_cif.got.tgz:531367.got - 2010.06.03 11:33:40.
