data_PCOD9107682
_publ_section_title
;
Structure prediction by ZEFSAII (Michael W. Deem and Ramdas Pophale) SiO2 
 PCOD9107682
Probable space group: P -1
;
_chemical_formula_sum "Si O2"
_cell_formula_units_Z 16
_cell_length_a 19.412415
_cell_length_b 22.481332
_cell_length_c 9.311936
_cell_angle_alpha 135.791196
_cell_angle_beta 38.378172
_cell_angle_gamma 162.742043
_cell_volume 737.263277
_symmetry_space_group_name_H-M "P -1"
_symmetry_group_IT_number 2
_symmetry_cell_setting 'triclinic'
loop_
_space_group_symop_operation_xyz
x,y,z
-x,-y,-z
loop_
_atom_site_type_symbol
_atom_site_label
_atom_site_fract_x
_atom_site_fract_y
_atom_site_fract_z
Si Si1 0.405201 0.348212 0.698628
Si Si2 0.446636 0.965488 0.858910
Si Si3 0.460829 0.589552 0.089507
Si Si4 0.969131 0.395107 0.274064
Si Si5 0.195470 0.110813 0.205176
Si Si6 0.845912 0.187197 0.357689
Si Si7 0.798939 0.051132 0.940525
Si Si8 0.659143 0.486448 0.237864
O O1 0.450981 0.344442 0.776145
O O2 0.617358 0.462462 0.433957
O O3 0.447529 0.480166 0.874614
O O4 0.111024 0.114944 0.725447
O O5 0.207572 0.734469 0.804417
O O6 0.694296 0.103891 0.603858
O O7 0.372961 0.008520 0.987947
O O8 0.500000 0.000000 0.000000
O O9 0.157824 0.406999 0.255067
O O10 0.651679 0.780441 0.009692
O O11 0.801033 0.221703 0.361345
O O12 0.000000 0.500000 0.500000
O O13 0.236296 0.532055 0.028909
O O14 0.377350 0.313368 0.328063
O O15 0.230152 0.069609 0.212596
O O16 0.760593 0.043464 0.161518
O O17 0.097802 0.285833 0.817897
#
# Coordination Sequence:
#
# PCOD9107682 Si02
#       8
#     2   2   2   2   2   2   2   2
#     4  11  25  42  65  93 139 168 216 281 331 380
#     4  10  23  40  67  99 132 171 220 277 342 391
#     4  11  24  42  65  97 131 176 217 269 333 394
#     4  10  22  41  67  95 128 175 218 267 323 410
#     4  12  21  42  65  95 127 175 226 262 324 397
#     4  10  20  40  65  91 129 176 216 260 327 405
#     4  10  22  42  65  97 130 175 220 268 328 403
#     4  10  23  41  65  97 127 169 225 271 326 388
#
# _framework density 21.701879999999999
#
# number of rings (size 3 to 8) (size 9 to 14) (size 15 to 20)
#    0.000    1.750    3.750    2.250    7.000    3.000 
#    0.000    3.125    0.000    0.000    0.000    0.000 
#    0.000    0.000    0.000    0.000    0.000    0.000 
#
# Total GULP energy -89077.094187 kJ/mol
# GULP energy per Si atom -5567.318387 kJ/mol
# Density = 2.165249 g / cm^3
# Si number density = 21.701880 Si / 1000 Ang^3
#
#
#
# Elastic Constant Matrix: (Units=GPa)
#
#
# Indices 1 2 3 4 5 6 
#
# 1 125.2733 46.1483 65.9287 -1.3468 33.4387 12.4607
# 2 46.1483 78.9645 50.2678 -6.8776 8.8310 13.1383
# 3 65.9287 50.2678 159.7163 -3.2005 31.2005 17.2286
# 4 -1.3468 -6.8776 -3.2005 32.2953 1.1774 4.4830
# 5 33.4387 8.8310 31.2005 1.1774 35.9823 3.1370
# 6 12.4607 13.1383 17.2286 4.4830 3.1370 28.6585
#
#
#
# Elastic Compliance Matrix: (Units=1/GPa)
#
#
# Indices 1 2 3 4 5 6 
#
# 1 0.013714 -0.005551 -0.001917 -0.000287 -0.009609 -0.001169
# 2 -0.005551 0.019129 -0.003915 0.004008 0.004170 -0.005086
# 3 -0.001917 -0.003915 0.009641 0.000610 -0.005405 -0.002671
# 4 -0.000287 0.004008 0.000610 0.032906 -0.001708 -0.007039
# 5 -0.009609 0.004170 -0.005405 -0.001708 0.040321 0.001369
# 6 -0.001169 -0.005086 -0.002671 -0.007039 0.001369 0.040291
#
#
# Mechanical properties :
#
#
# Convention : Reuss Voigt Hill
#
# Bulk Modulus (GPa) = 50.71161 76.51598 63.61379
# Shear Modulus (GPa) = 26.97770 32.82782 29.90276
#
# Velocity S-wave (km/s) = 3.52959 3.89353 3.71602
# Velocity P-wave (km/s) = 6.32683 7.45299 6.91288
#
# Compressibility (1/GPa) = 0.01971935
#
# Stress axis : x y z
#
# Youngs Moduli (GPa) = 72.91795 52.27675 103.72867
#
# Poissons Ratio (x) = 0.29016 0.19880
# Poissons Ratio (y) = 0.40473 0.40610
# Poissons Ratio (z) = 0.13975 0.20467
#
# Static dielectric constant tensor:
#      x y z
#    x 1.878350 -0.051440 -0.121560 
#    y -0.051440 2.011240 0.169970 
#    z -0.121560 0.169970 2.012980 
# 
# From -- ./inp_files/337751.got.cif
#   From: 2010.05.17/outbox.cif.g08.bks.cpg/sg2_169_cif.got.tgz:337751.got - 2010.06.03 11:33:40.
