data_PCOD9107471
_publ_section_title
;
Structure prediction by ZEFSAII (Michael W. Deem and Ramdas Pophale) SiO2 
 PCOD9107471
Probable space group: P -1
;
_chemical_formula_sum "Si O2"
_cell_formula_units_Z 16
_cell_length_a 7.719117
_cell_length_b 18.409257
_cell_length_c 5.191244
_cell_angle_alpha 124.953137
_cell_angle_beta 93.435119
_cell_angle_gamma 91.052016
_cell_volume 602.288996
_symmetry_space_group_name_H-M "P -1"
_symmetry_group_IT_number 2
_symmetry_cell_setting 'triclinic'
loop_
_space_group_symop_operation_xyz
x,y,z
-x,-y,-z
loop_
_atom_site_type_symbol
_atom_site_label
_atom_site_fract_x
_atom_site_fract_y
_atom_site_fract_z
Si Si1 0.000049 0.143221 0.292168
Si Si2 0.836500 0.986622 0.264433
Si Si3 0.440003 0.889100 0.350650
Si Si4 0.508450 0.357997 0.380493
Si Si5 0.861700 0.450174 0.574120
Si Si6 0.673437 0.209658 0.362108
Si Si7 0.201328 0.394062 0.729205
Si Si8 0.276220 0.226470 0.733177
O O1 0.078966 0.186590 0.647404
O O2 0.880052 0.055553 0.175043
O O3 0.870704 0.207134 0.283494
O O4 0.150672 0.110549 0.054277
O O5 0.657155 0.019803 0.430553
O O6 0.000000 0.000000 0.500000
O O7 0.333713 0.820788 0.403556
O O8 0.625861 0.865816 0.435510
O O9 0.422987 0.857631 0.989397
O O10 0.684922 0.399936 0.350766
O O11 0.593373 0.303128 0.507528
O O12 0.359430 0.418282 0.594119
O O13 0.390932 0.287263 0.060140
O O14 0.000000 0.500000 0.500000
O O15 0.001224 0.391741 0.613449
O O16 0.791746 0.527087 0.903646
O O17 0.246131 0.297655 0.646162
#
# Coordination Sequence:
#
# PCOD9107471 Si02
#       8
#     2   2   2   2   2   2   2   2
#     4  10  22  39  66  95 136 181 240 291 360 430
#     4  10  20  40  64  93 133 186 231 295 357 426
#     4  10  21  40  66  97 137 180 234 293 364 421
#     4  11  24  45  71 102 147 186 235 302 362 431
#     4  11  26  47  72 105 141 186 237 291 365 441
#     4  10  20  42  66  99 135 186 235 294 359 425
#     4  11  24  46  71 103 139 185 240 296 362 436
#     4  11  24  42  65 101 134 181 235 300 357 424
#
# _framework density 26.565317
#
# number of rings (size 3 to 8) (size 9 to 14) (size 15 to 20)
#    0.000    1.500    2.500    1.875    0.000    5.500 
#   18.000    0.625    0.000    0.000    0.000    0.000 
#    0.000    0.000    0.000    0.000    0.000    0.000 
#
# Total GULP energy -89191.298396 kJ/mol
# GULP energy per Si atom -5574.456150 kJ/mol
# Density = 2.650485 g / cm^3
# Si number density = 26.565317 Si / 1000 Ang^3
#
#
#
# Elastic Constant Matrix: (Units=GPa)
#
#
# Indices 1 2 3 4 5 6 
#
# 1 162.9199 17.7027 60.1351 9.4213 -1.6287 -29.2429
# 2 17.7027 116.0459 18.5654 10.9891 -0.4324 -26.5429
# 3 60.1351 18.5654 84.5055 -3.1833 12.9833 -8.1181
# 4 9.4213 10.9891 -3.1833 24.9319 -1.6224 -0.4459
# 5 -1.6287 -0.4324 12.9833 -1.6224 48.6922 3.2804
# 6 -29.2429 -26.5429 -8.1181 -0.4459 3.2804 33.2900
#
#
#
# Elastic Compliance Matrix: (Units=1/GPa)
#
#
# Indices 1 2 3 4 5 6 
#
# 1 0.010720 0.002224 -0.007713 -0.005748 0.001632 0.009071
# 2 0.002224 0.011810 -0.003440 -0.006286 0.000185 0.010428
# 3 -0.007713 -0.003440 0.018624 0.006421 -0.004742 -0.004424
# 4 -0.005748 -0.006286 0.006421 0.045737 0.000095 -0.007892
# 5 0.001632 0.000185 -0.004742 0.000095 0.021978 -0.001740
# 6 0.009071 0.010428 -0.004424 -0.007892 -0.001740 0.045309
#
#
# Mechanical properties :
#
#
# Convention : Reuss Voigt Hill
#
# Bulk Modulus (GPa) = 42.92904 61.80863 52.36883
# Shear Modulus (GPa) = 27.80838 39.18736 33.49787
#
# Velocity S-wave (km/s) = 3.23893 3.84491 3.55486
# Velocity P-wave (km/s) = 5.49385 6.55960 6.05024
#
# Compressibility (1/GPa) = 0.02329426
#
# Stress axis : x y z
#
# Youngs Moduli (GPa) = 93.28172 84.67648 53.69522
#
# Poissons Ratio (x) = -0.18830 0.41415
# Poissons Ratio (y) = -0.20744 0.18473
# Poissons Ratio (z) = 0.71949 0.29132
#
# Static dielectric constant tensor:
#      x y z
#    x 2.384890 0.016210 -0.093210 
#    y 0.016210 2.256060 0.026720 
#    z -0.093210 0.026720 2.091240 
# 
# From -- ./inp_files/52114.got.cif
#   From: 2010.05.17/outbox.cif.g08.bks.cpg/sg2_27_cif.got.tgz:52114.got - 2010.06.03 11:33:40.
