data_PCOD9107632
_publ_section_title
;
Structure prediction by ZEFSAII (Michael W. Deem and Ramdas Pophale) SiO2 
 PCOD9107632
Probable space group: P -1
;
_chemical_formula_sum "Si O2"
_cell_formula_units_Z 16
_cell_length_a 19.726651
_cell_length_b 7.037496
_cell_length_c 7.373373
_cell_angle_alpha 101.925700
_cell_angle_beta 57.699338
_cell_angle_gamma 121.317466
_cell_volume 735.564066
_symmetry_space_group_name_H-M "P -1"
_symmetry_group_IT_number 2
_symmetry_cell_setting 'triclinic'
loop_
_space_group_symop_operation_xyz
x,y,z
-x,-y,-z
loop_
_atom_site_type_symbol
_atom_site_label
_atom_site_fract_x
_atom_site_fract_y
_atom_site_fract_z
Si Si1 0.351010 0.269258 0.504229
Si Si2 0.818667 0.543674 0.574559
Si Si3 0.163172 0.012320 0.523391
Si Si4 0.533286 0.762111 0.979248
Si Si5 0.640266 0.977854 0.237280
Si Si6 0.184095 0.698753 0.146453
Si Si7 0.626493 0.279883 0.602234
Si Si8 0.019064 0.558710 0.775132
O O1 0.377939 0.518553 0.456914
O O2 0.243276 0.120508 0.579468
O O3 0.194415 0.888434 0.309577
O O4 0.406680 0.185083 0.278253
O O5 0.634233 0.770544 0.317134
O O6 0.730066 0.376566 0.548628
O O7 0.907429 0.516438 0.404607
O O8 0.841966 0.790403 0.534520
O O9 0.205394 0.528602 0.195505
O O10 0.069118 0.821788 0.708590
O O11 0.441128 0.779782 0.139501
O O12 0.593689 0.897925 0.093260
O O13 0.500000 0.500000 0.000000
O O14 0.600146 0.089098 0.454129
O O15 0.744680 0.174362 0.090000
O O16 0.078489 0.570148 0.210178
O O17 0.000000 0.500000 0.000000
#
# Coordination Sequence:
#
# PCOD9107632 Si02
#       8
#     2   2   2   2   2   2   2   2
#     4  10  22  43  65  92 132 170 211 264 321 379
#     4  10  22  41  64  90 130 163 211 266 310 380
#     4  10  20  40  65  89 127 173 205 259 323 367
#     4  10  23  44  65  95 129 169 217 261 325 384
#     4  12  23  42  67  94 130 169 216 266 321 377
#     4  11  23  39  63  94 122 166 216 257 318 382
#     4  10  23  41  64  97 127 166 216 265 318 380
#     4  11  23  39  61  91 129 164 212 264 312 378
#
# _framework density 21.752013000000002
#
# number of rings (size 3 to 8) (size 9 to 14) (size 15 to 20)
#    0.000    1.500    1.250    4.875    0.000    6.000 
#    2.250    0.000    0.000    0.000    0.000    0.000 
#    0.000    0.000    0.000    0.000    0.000    0.000 
#
# Total GULP energy -89425.377545 kJ/mol
# GULP energy per Si atom -5589.086097 kJ/mol
# Density = 2.170250 g / cm^3
# Si number density = 21.752013 Si / 1000 Ang^3
#
#
#
# Elastic Constant Matrix: (Units=GPa)
#
#
# Indices 1 2 3 4 5 6 
#
# 1 85.1564 27.9730 23.2890 -9.2848 5.9032 -6.3732
# 2 27.9730 81.5048 9.4401 -10.2344 -3.8206 -7.2531
# 3 23.2890 9.4401 72.3929 -16.5721 8.7772 -4.4928
# 4 -9.2848 -10.2344 -16.5721 31.9474 -0.9567 0.1395
# 5 5.9032 -3.8206 8.7772 -0.9567 32.3260 -10.3669
# 6 -6.3732 -7.2531 -4.4928 0.1395 -10.3669 33.1903
#
#
#
# Elastic Compliance Matrix: (Units=1/GPa)
#
#
# Indices 1 2 3 4 5 6 
#
# 1 0.014477 -0.004474 -0.003601 0.000845 -0.001944 0.000704
# 2 -0.004474 0.014733 0.000097 0.003567 0.003772 0.003537
# 3 -0.003601 0.000097 0.017215 0.007804 -0.003614 0.000498
# 4 0.000845 0.003567 0.007804 0.036724 -0.000193 0.001784
# 5 -0.001944 0.003772 -0.003614 -0.000193 0.036339 0.011313
# 6 0.000704 0.003537 0.000498 0.001784 0.011313 0.034631
#
#
# Mechanical properties :
#
#
# Convention : Reuss Voigt Hill
#
# Bulk Modulus (GPa) = 32.82050 40.05091 36.43571
# Shear Modulus (GPa) = 27.74193 31.38286 29.56240
#
# Velocity S-wave (km/s) = 3.57511 3.80248 3.69055
# Velocity P-wave (km/s) = 5.67126 6.14256 5.91160
#
# Compressibility (1/GPa) = 0.03046876
#
# Stress axis : x y z
#
# Youngs Moduli (GPa) = 69.07432 67.87506 58.08886
#
# Poissons Ratio (x) = 0.30367 0.20919
# Poissons Ratio (y) = 0.30903 -0.00563
# Poissons Ratio (z) = 0.24875 -0.00658
#
# Static dielectric constant tensor:
#      x y z
#    x 1.797910 -0.017750 -0.002700 
#    y -0.017750 1.810240 -0.031810 
#    z -0.002700 -0.031810 1.807990 
# 
# From -- ./inp_files/341202.got.cif
#   From: 2010.05.17/outbox.cif.g08.bks.cpg/sg2_171_cif.got.tgz:341202.got - 2010.06.03 11:33:40.
