data_PCOD9107384
_publ_section_title
;
Structure prediction by ZEFSAII (Michael W. Deem and Ramdas Pophale) SiO2 
 PCOD9107384
Probable space group: P -1
;
_chemical_formula_sum "Si O2"
_cell_formula_units_Z 12
_cell_length_a 9.528792
_cell_length_b 15.545633
_cell_length_c 7.338195
_cell_angle_alpha 82.872271
_cell_angle_beta 73.440089
_cell_angle_gamma 26.310447
_cell_volume 439.171789
_symmetry_space_group_name_H-M "P -1"
_symmetry_group_IT_number 2
_symmetry_cell_setting 'triclinic'
loop_
_space_group_symop_operation_xyz
x,y,z
-x,-y,-z
loop_
_atom_site_type_symbol
_atom_site_label
_atom_site_fract_x
_atom_site_fract_y
_atom_site_fract_z
Si Si1 0.134786 0.243210 0.067399
Si Si2 0.421423 0.647204 0.308617
Si Si3 0.502780 0.789405 0.121526
Si Si4 0.925451 0.332235 0.706520
Si Si5 0.262967 0.795591 0.726241
Si Si6 0.659064 0.737380 0.507332
O O1 0.220664 0.298957 0.058239
O O2 0.012703 0.288715 0.896753
O O3 0.797235 0.401851 0.269311
O O4 0.500000 0.000000 0.000000
O O5 0.498785 0.687731 0.138819
O O6 0.153383 0.721594 0.315658
O O7 0.285107 0.762036 0.512517
O O8 0.571306 0.775931 0.313558
O O9 0.125261 0.017999 0.131315
O O10 0.565861 0.576838 0.755812
O O11 0.223779 0.226267 0.518253
O O12 0.358767 0.846098 0.692816
O O13 0.000000 0.500000 0.500000
#
# Coordination Sequence:
#
# PCOD9107384 Si02
#       6
#     2   2   2   2   2   2
#     4  11  24  43  60  83 121 162 198 242 295 352
#     4  11  21  38  63  92 118 153 197 244 294 350
#     4  10  21  39  61  87 120 157 194 242 297 352
#     4  10  21  38  61  88 119 155 197 245 294 348
#     4  10  20  40  64  89 119 155 196 244 294 351
#     4   8  16  32  55  83 116 152 188 233 285 339
#
# _framework density 27.324158000000001
#
# number of rings (size 3 to 8) (size 9 to 14) (size 15 to 20)
#    0.000    2.000    0.000    4.500    0.000    0.000 
#    0.000   28.333    0.000    0.000    0.000    0.000 
#    0.000    0.000    0.000    0.000    0.000    0.000 
#
# Total GULP energy -67250.453660 kJ/mol
# GULP energy per Si atom -5604.204472 kJ/mol
# Density = 2.726197 g / cm^3
# Si number density = 27.324158 Si / 1000 Ang^3
#
#
#
# Elastic Constant Matrix: (Units=GPa)
#
#
# Indices 1 2 3 4 5 6 
#
# 1 255.7402 49.8142 41.9702 -1.1716 -17.3728 -14.0267
# 2 49.8142 131.3850 5.5127 -3.3720 3.2877 -13.9960
# 3 41.9702 5.5127 64.7932 10.0691 6.5861 -8.0844
# 4 -1.1716 -3.3720 10.0691 27.0533 -8.6438 -4.5905
# 5 -17.3728 3.2877 6.5861 -8.6438 36.3769 4.8105
# 6 -14.0267 -13.9960 -8.0844 -4.5905 4.8105 48.0978
#
#
#
# Elastic Compliance Matrix: (Units=1/GPa)
#
#
# Indices 1 2 3 4 5 6 
#
# 1 0.005229 -0.001822 -0.004062 0.002835 0.004048 0.000178
# 2 -0.001822 0.008577 0.000885 0.000416 -0.002018 0.002355
# 3 -0.004062 0.000885 0.020723 -0.010077 -0.008489 0.002443
# 4 0.002835 0.000416 -0.010077 0.045643 0.013690 0.002241
# 5 0.004048 -0.002018 -0.008489 0.013690 0.034793 -0.003007
# 6 0.000178 0.002355 0.002443 0.002241 -0.003007 0.022453
#
#
# Mechanical properties :
#
#
# Convention : Reuss Voigt Hill
#
# Bulk Modulus (GPa) = 40.76441 71.83473 56.29957
# Shear Modulus (GPa) = 32.13463 45.94702 39.04082
#
# Velocity S-wave (km/s) = 3.43308 4.10512 3.78405
# Velocity P-wave (km/s) = 5.53768 6.98686 6.30405
#
# Compressibility (1/GPa) = 0.02453120
#
# Stress axis : x y z
#
# Youngs Moduli (GPa) = 191.22475 116.59280 48.25441
#
# Poissons Ratio (x) = 0.21242 0.19602
# Poissons Ratio (y) = 0.34839 -0.04269
# Poissons Ratio (z) = 0.77679 -0.10316
#
# Static dielectric constant tensor:
#      x y z
#    x 2.127850 0.077970 -0.023870 
#    y 0.077970 2.194390 -0.019700 
#    z -0.023870 -0.019700 2.107500 
# 
# From -- ./inp_files/156853.got.cif
#   From: 2010.05.17/outbox.cif.g08.bks.cpg/sg2_79_cif.got.tgz:156853.got - 2010.06.03 11:33:40.
