data_PCOD9107443
_publ_section_title
;
Structure prediction by ZEFSAII (Michael W. Deem and Ramdas Pophale) SiO2 
 PCOD9107443
Probable space group: P -1
;
_chemical_formula_sum "Si O2"
_cell_formula_units_Z 15
_cell_length_a 9.789499
_cell_length_b 11.676211
_cell_length_c 12.285325
_cell_angle_alpha 34.231519
_cell_angle_beta 107.934100
_cell_angle_gamma 125.974458
_cell_volume 588.553563
_symmetry_space_group_name_H-M "P -1"
_symmetry_group_IT_number 2
_symmetry_cell_setting 'triclinic'
loop_
_space_group_symop_operation_xyz
x,y,z
-x,-y,-z
loop_
_atom_site_type_symbol
_atom_site_label
_atom_site_fract_x
_atom_site_fract_y
_atom_site_fract_z
Si Si1 0.421077 0.890268 0.755153
Si Si2 0.608961 0.953553 0.979277
Si Si3 0.240487 0.127600 0.485743
Si Si4 0.800812 0.768671 0.085852
Si Si5 0.020294 0.474706 0.651632
Si Si6 0.067623 0.369517 0.300589
Si Si7 0.328137 0.198221 0.203403
Si Si8 0.000000 0.500000 0.000000
O O1 0.568442 0.927863 0.678491
O O2 0.509879 0.908910 0.876450
O O3 0.396291 0.111596 0.569854
O O4 0.214105 0.620921 0.904144
O O5 0.816214 0.216159 0.830855
O O6 0.500000 0.000000 0.000000
O O7 0.647349 0.742424 0.144844
O O8 0.211261 0.315231 0.390096
O O9 0.247897 0.167666 0.327130
O O10 0.053610 0.817937 0.689825
O O11 0.818579 0.541473 0.270981
O O12 0.782974 0.845184 0.899768
O O13 0.000000 0.000000 0.000000
O O14 0.034640 0.680795 0.573135
O O15 0.000000 0.500000 0.500000
O O16 0.103295 0.612339 0.058730
O O17 0.500000 0.500000 0.000000
#
# Coordination Sequence:
#
# PCOD9107443 Si02
#       8
#     2   2   2   2   2   2   2   1
#     4  10  22  39  63  94 133 170 213 280 342 396
#     4  10  22  44  66  96 131 180 223 276 328 400
#     4  10  23  40  61  94 133 169 215 280 343 385
#     4   9  23  43  64  95 129 183 217 269 342 413
#     4  11  25  42  69  99 135 177 226 272 333 415
#     4  10  23  39  64  94 128 172 222 274 329 401
#     4  11  23  38  66  96 129 168 229 279 334 402
#     4  10  20  40  64  92 126 170 228 268 332 392
#
# _framework density 25.486211999999998
#
# number of rings (size 3 to 8) (size 9 to 14) (size 15 to 20)
#    0.000    1.867    0.000    2.000   11.200    3.200 
#    4.800    1.333    0.000    0.000    0.000    0.000 
#    0.000    0.000    0.000    0.000    0.000    0.000 
#
# Total GULP energy -83511.022002 kJ/mol
# GULP energy per Si atom -5567.401467 kJ/mol
# Density = 2.542820 g / cm^3
# Si number density = 25.486212 Si / 1000 Ang^3
#
#
#
# Elastic Constant Matrix: (Units=GPa)
#
#
# Indices 1 2 3 4 5 6 
#
# 1 276.6637 52.3892 78.3905 19.3464 34.7387 -27.7787
# 2 52.3892 69.4596 34.9391 12.5377 9.9019 1.0639
# 3 78.3905 34.9391 85.2950 18.8036 24.3302 -12.1253
# 4 19.3464 12.5377 18.8036 38.0352 8.9788 -4.3588
# 5 34.7387 9.9019 24.3302 8.9788 51.0049 0.0422
# 6 -27.7787 1.0639 -12.1253 -4.3588 0.0422 58.2122
#
#
#
# Elastic Compliance Matrix: (Units=1/GPa)
#
#
# Indices 1 2 3 4 5 6 
#
# 1 0.005362 -0.002207 -0.003327 0.000264 -0.001684 0.001927
# 2 -0.002207 0.019518 -0.006054 -0.002913 0.001117 -0.002890
# 3 -0.003327 -0.006054 0.020171 -0.004750 -0.005346 0.002373
# 4 0.000264 -0.002913 -0.004750 0.030265 -0.002677 0.001458
# 5 -0.001684 0.001117 -0.005346 -0.002677 0.023559 -0.002155
# 6 0.001927 -0.002890 0.002373 0.001458 -0.002155 0.018756
#
#
# Mechanical properties :
#
#
# Convention : Reuss Voigt Hill
#
# Bulk Modulus (GPa) = 45.71630 84.76177 65.23904
# Shear Modulus (GPa) = 33.76131 47.16377 40.46254
#
# Velocity S-wave (km/s) = 3.64358 4.30648 3.98882
# Velocity P-wave (km/s) = 5.97306 7.61957 6.84599
#
# Compressibility (1/GPa) = 0.02187403
#
# Stress axis : x y z
#
# Youngs Moduli (GPa) = 186.50598 51.23589 49.57558
#
# Poissons Ratio (x) = 0.11310 0.16496
# Poissons Ratio (y) = 0.41169 0.30011
# Poissons Ratio (z) = 0.62058 0.31016
#
# Static dielectric constant tensor:
#      x y z
#    x 2.124000 0.031460 -0.123720 
#    y 0.031460 2.088580 0.172020 
#    z -0.123720 0.172020 -0.197350 
# 
# From -- ./inp_files/388895.got.cif
#   From: 2010.05.17/outbox.cif.g08.bks.cpg/sg2_195_cif.got.tgz:388895.got - 2010.06.03 11:33:40.
