data_PCOD9107083
_publ_section_title
;
Structure prediction by ZEFSAII (Michael W. Deem and Ramdas Pophale) SiO2 
 PCOD9107083
Probable space group: P -1
;
_chemical_formula_sum "Si O2"
_cell_formula_units_Z 16
_cell_length_a 9.380368
_cell_length_b 22.605599
_cell_length_c 5.017053
_cell_angle_alpha 97.539187
_cell_angle_beta 94.954244
_cell_angle_gamma 45.358537
_cell_volume 750.386173
_symmetry_space_group_name_H-M "P -1"
_symmetry_group_IT_number 2
_symmetry_cell_setting 'triclinic'
loop_
_space_group_symop_operation_xyz
x,y,z
-x,-y,-z
loop_
_atom_site_type_symbol
_atom_site_label
_atom_site_fract_x
_atom_site_fract_y
_atom_site_fract_z
Si Si1 0.149926 0.159276 0.057417
Si Si2 0.536253 0.413357 0.155305
Si Si3 0.751370 0.403515 0.685832
Si Si4 0.926763 0.100048 0.497031
Si Si5 0.597913 0.152109 0.834375
Si Si6 0.797456 0.983770 0.002537
Si Si7 0.810348 0.773175 0.390223
Si Si8 0.713697 0.241227 0.190789
O O1 0.268425 0.064609 0.101850
O O2 0.187812 0.201010 0.297397
O O3 0.915494 0.209014 0.070300
O O4 0.194392 0.169201 0.776920
O O5 0.678626 0.407714 0.381060
O O6 0.322742 0.508267 0.203828
O O7 0.552011 0.340421 0.202471
O O8 0.627881 0.397950 0.869218
O O9 0.984980 0.321712 0.691928
O O10 0.764351 0.103778 0.599248
O O11 0.799753 0.197003 0.468252
O O12 0.022117 0.055834 0.202016
O O13 0.103481 0.051685 0.711989
O O14 0.382795 0.209172 0.699866
O O15 0.641131 0.081893 0.985838
O O16 0.632222 0.204130 0.025494
#
# Coordination Sequence:
#
# PCOD9107083 Si02
#       8
#     2   2   2   2   2   2   2   2
#     4  11  23  40  66  87 122 172 206 261 301 370
#     4  10  21  36  70  93 120 154 218 248 300 366
#     4  10  20  40  62  99 122 158 197 264 304 370
#     4  11  23  40  63  91 120 166 213 263 293 360
#     4  12  28  40  64  94 130 167 206 262 321 367
#     4  11  25  41  66  90 121 165 227 260 298 356
#     4  12  25  42  62  94 135 159 199 260 332 368
#     4  11  23  41  68  95 119 167 217 256 300 373
#
# _framework density 21.322354000000001
#
# number of rings (size 3 to 8) (size 9 to 14) (size 15 to 20)
#    0.000    1.000    5.000    2.250    5.250    1.000 
#    0.000    0.625    0.000    0.750    0.000    0.000 
#    0.000    0.000    0.000    0.000    0.000    0.000 
#
# Total GULP energy -89432.377544 kJ/mol
# GULP energy per Si atom -5589.523596 kJ/mol
# Density = 2.127382 g / cm^3
# Si number density = 21.322354 Si / 1000 Ang^3
#
#
#
# Elastic Constant Matrix: (Units=GPa)
#
#
# Indices 1 2 3 4 5 6 
#
# 1 46.2110 24.2773 2.4800 2.8629 23.0556 -11.9967
# 2 24.2773 158.4773 15.9002 5.1823 18.1137 19.5117
# 3 2.4800 15.9002 85.3708 -6.6436 8.3455 0.0705
# 4 2.8629 5.1823 -6.6436 25.0672 6.9888 -2.8348
# 5 23.0556 18.1137 8.3455 6.9888 33.2223 -7.3132
# 6 -11.9967 19.5117 0.0705 -2.8348 -7.3132 27.5177
#
#
#
# Elastic Compliance Matrix: (Units=1/GPa)
#
#
# Indices 1 2 3 4 5 6 
#
# 1 0.039715 -0.005916 0.002571 0.005486 -0.022601 0.016061
# 2 -0.005916 0.008841 -0.001427 -0.002047 -0.002038 -0.009597
# 3 0.002571 -0.001427 0.012772 0.004916 -0.004965 0.001287
# 4 0.005486 -0.002047 0.004916 0.044995 -0.012244 0.005212
# 5 -0.022601 -0.002038 -0.004965 -0.012244 0.051613 0.004060
# 6 0.016061 -0.009597 0.001287 0.005212 0.004060 0.051760
#
#
# Mechanical properties :
#
#
# Convention : Reuss Voigt Hill
#
# Bulk Modulus (GPa) = 19.31063 41.70825 30.50944
# Shear Modulus (GPa) = 21.14159 33.65487 27.39823
#
# Velocity S-wave (km/s) = 3.15226 3.97720 3.58851
# Velocity P-wave (km/s) = 4.72495 6.37919 5.61334
#
# Compressibility (1/GPa) = 0.05178495
#
# Stress axis : x y z
#
# Youngs Moduli (GPa) = 25.17916 113.11048 78.29880
#
# Poissons Ratio (x) = 0.66912 -0.20131
# Poissons Ratio (y) = 0.14895 0.11172
# Poissons Ratio (z) = -0.06474 0.16140
#
# Static dielectric constant tensor:
#      x y z
#    x 1.772560 0.024900 -0.002190 
#    y 0.024900 1.835170 0.022330 
#    z -0.002190 0.022330 1.800830 
# 
# From -- ./inp_files/53283.got.cif
#   From: 2010.05.17/outbox.cif.g08.bks.cpg/sg2_27_cif.got.tgz:53283.got - 2010.06.03 11:33:40.
