data_PCOD9107868
_publ_section_title
;
Structure prediction by ZEFSAII (Michael W. Deem and Ramdas Pophale) SiO2 
 PCOD9107868
Probable space group: P -1
;
_chemical_formula_sum "Si O2"
_cell_formula_units_Z 12
_cell_length_a 11.241130
_cell_length_b 14.449237
_cell_length_c 18.892475
_cell_angle_alpha 156.136710
_cell_angle_beta 157.545901
_cell_angle_gamma 27.623253
_cell_volume 457.297943
_symmetry_space_group_name_H-M "P -1"
_symmetry_group_IT_number 2
_symmetry_cell_setting 'triclinic'
loop_
_space_group_symop_operation_xyz
x,y,z
-x,-y,-z
loop_
_atom_site_type_symbol
_atom_site_label
_atom_site_fract_x
_atom_site_fract_y
_atom_site_fract_z
Si Si1 0.811604 0.252182 0.650719
Si Si2 0.406220 0.755743 0.267249
Si Si3 0.027734 0.748574 0.923393
Si Si4 0.745157 0.759146 0.989624
Si Si5 0.085112 0.249060 0.655543
Si Si6 0.273475 0.739223 0.900319
O O1 0.140439 0.250321 0.872928
O O2 0.825018 0.222138 0.552534
O O3 0.779087 0.999437 0.484393
O O4 0.617517 0.524901 0.745432
O O5 0.356084 0.719837 0.130077
O O6 0.068500 0.746125 0.111733
O O7 0.500000 0.000000 0.500000
O O8 0.669175 0.526907 0.283267
O O9 0.034047 0.760554 0.850591
O O10 0.940535 0.502829 0.718534
O O11 0.832443 0.012789 0.025727
O O12 0.500000 0.000000 0.000000
O O13 0.388529 0.268207 0.881938
#
# Coordination Sequence:
#
# PCOD9107868 Si02
#       6
#     2   2   2   2   2   2
#     4  10  23  40  63  92 125 171 207 260 313 376
#     4  11  24  42  68  91 130 170 207 264 318 372
#     4  10  22  40  66  94 122 165 211 267 315 376
#     4  11  25  43  63  93 133 170 210 258 313 381
#     4  10  20  40  66  87 124 166 211 261 313 372
#     4  10  22  41  65  92 126 162 213 268 316 369
#
# _framework density 26.241097
#
# number of rings (size 3 to 8) (size 9 to 14) (size 15 to 20)
#    0.000    1.667    3.333    2.000    7.000    2.000 
#    3.000    3.333    0.000    0.000    0.000    0.000 
#    0.000    0.000    0.000    0.000    0.000    0.000 
#
# Total GULP energy -66911.352569 kJ/mol
# GULP energy per Si atom -5575.946047 kJ/mol
# Density = 2.618137 g / cm^3
# Si number density = 26.241097 Si / 1000 Ang^3
#
#
#
# Elastic Constant Matrix: (Units=GPa)
#
#
# Indices 1 2 3 4 5 6 
#
# 1 82.1848 13.6906 20.0324 22.8487 10.7441 9.6748
# 2 13.6906 167.9173 63.2636 81.9458 8.6942 10.4622
# 3 20.0324 63.2636 178.4852 83.3012 2.4115 7.5480
# 4 22.8487 81.9458 83.3012 77.3996 8.6549 2.2405
# 5 10.7441 8.6942 2.4115 8.6549 25.7331 5.8472
# 6 9.6748 10.4622 7.5480 2.2405 5.8472 28.3448
#
#
#
# Elastic Compliance Matrix: (Units=1/GPa)
#
#
# Indices 1 2 3 4 5 6 
#
# 1 0.014723 0.002902 0.001622 -0.008657 -0.003189 -0.005186
# 2 0.002902 0.014847 0.004856 -0.021854 0.002139 -0.006478
# 3 0.001622 0.004856 0.013351 -0.020337 0.004455 -0.005213
# 4 -0.008657 -0.021854 -0.020337 0.061315 -0.010861 0.013831
# 5 -0.003189 0.002139 0.004455 -0.010861 0.044812 -0.009273
# 6 -0.005186 -0.006478 -0.005213 0.013831 -0.009273 0.041649
#
#
# Mechanical properties :
#
#
# Convention : Reuss Voigt Hill
#
# Bulk Modulus (GPa) = 16.21240 69.17336 42.69288
# Shear Modulus (GPa) = 25.97445 48.40222 37.18834
#
# Velocity S-wave (km/s) = 3.14958 4.29945 3.76863
# Velocity P-wave (km/s) = 4.40660 7.14597 5.93646
#
# Compressibility (1/GPa) = 0.06168118
#
# Stress axis : x y z
#
# Youngs Moduli (GPa) = 67.91938 67.35411 74.90096
#
# Poissons Ratio (x) = -0.19544 -0.12148
# Poissons Ratio (y) = -0.19708 -0.36375
# Poissons Ratio (z) = -0.11016 -0.32710
#
# Static dielectric constant tensor:
#      x y z
#    x 2.298430 -0.089960 0.022790 
#    y -0.089960 2.084490 0.076900 
#    z 0.022790 0.076900 2.114810 
# 
# From -- ./inp_files/349741.got.cif
#   From: 2010.05.17/outbox.cif.g08.bks.cpg/sg2_175_cif.got.tgz:349741.got - 2010.06.03 11:33:40.
