data_PCOD9107899
_publ_section_title
;
Structure prediction by ZEFSAII (Michael W. Deem and Ramdas Pophale) SiO2 
 PCOD9107899
Probable space group: P -1
;
_chemical_formula_sum "Si O2"
_cell_formula_units_Z 16
_cell_length_a 14.506140
_cell_length_b 8.090283
_cell_length_c 15.166050
_cell_angle_alpha 57.920106
_cell_angle_beta 146.671936
_cell_angle_gamma 100.283057
_cell_volume 680.951813
_symmetry_space_group_name_H-M "P -1"
_symmetry_group_IT_number 2
_symmetry_cell_setting 'triclinic'
loop_
_space_group_symop_operation_xyz
x,y,z
-x,-y,-z
loop_
_atom_site_type_symbol
_atom_site_label
_atom_site_fract_x
_atom_site_fract_y
_atom_site_fract_z
Si Si1 0.269159 0.971282 0.544668
Si Si2 0.891070 0.881435 0.820414
Si Si3 0.686262 0.915629 0.934811
Si Si4 0.280852 0.140114 0.830325
Si Si5 0.265723 0.430417 0.165882
Si Si6 0.854234 0.421991 0.158915
Si Si7 0.842765 0.340327 0.361797
Si Si8 0.630059 0.237524 0.637594
O O1 0.474890 0.934865 0.753098
O O2 0.250628 0.762810 0.622014
O O3 0.235983 0.015772 0.400986
O O4 0.074720 0.207801 0.364923
O O5 0.840938 0.711582 0.879113
O O6 0.829766 0.102241 0.772055
O O7 0.121139 0.684388 0.027584
O O8 0.678540 0.072734 0.806215
O O9 0.708960 0.977917 0.034122
O O10 0.861663 0.640878 0.134927
O O11 0.229298 0.399207 0.738590
O O12 0.090039 0.180175 0.612666
O O13 0.500000 0.000000 0.000000
O O14 0.466341 0.262433 0.430095
O O15 0.288222 0.485705 0.067649
O O16 0.785327 0.350450 0.210480
O O17 0.500000 0.500000 0.500000
#
# Coordination Sequence:
#
# PCOD9107899 Si02
#       8
#     2   2   2   2   2   2   2   2
#     4  11  22  38  66  95 125 159 218 267 311 374
#     4  10  21  39  65  91 120 167 212 264 313 371
#     4  11  23  39  63  91 123 172 209 263 321 382
#     4  10  23  43  64  87 131 171 203 254 329 377
#     4  10  20  40  66  90 120 162 217 261 315 371
#     4  10  21  38  66  91 120 161 212 267 311 366
#     4  10  23  41  62  98 125 161 213 264 312 382
#     4  12  25  40  60  94 132 165 213 263 321 387
#
# _framework density 23.496523
#
# number of rings (size 3 to 8) (size 9 to 14) (size 15 to 20)
#    0.000    1.500    2.500    2.250    0.000    6.500 
#    0.000    0.000    0.000    0.000    0.000    0.000 
#    0.000    0.000    0.000    0.000    0.000    0.000 
#
# Total GULP energy -89452.623506 kJ/mol
# GULP energy per Si atom -5590.788969 kJ/mol
# Density = 2.344304 g / cm^3
# Si number density = 23.496523 Si / 1000 Ang^3
#
#
#
# Elastic Constant Matrix: (Units=GPa)
#
#
# Indices 1 2 3 4 5 6 
#
# 1 101.1121 32.9005 38.8530 -6.3911 -33.4808 -18.4587
# 2 32.9005 58.8014 17.8539 -21.2815 -2.1526 -12.7514
# 3 38.8530 17.8539 96.3567 2.6272 -21.3413 -9.4996
# 4 -6.3911 -21.2815 2.6272 39.3895 -9.1239 9.2132
# 5 -33.4808 -2.1526 -21.3413 -9.1239 43.3955 -2.1461
# 6 -18.4587 -12.7514 -9.4996 9.2132 -2.1461 36.5787
#
#
#
# Elastic Compliance Matrix: (Units=1/GPa)
#
#
# Indices 1 2 3 4 5 6 
#
# 1 0.019253 -0.007720 -0.002638 0.000661 0.013658 0.006974
# 2 -0.007720 0.026818 -0.002790 0.012315 -0.003338 0.001431
# 3 -0.002638 -0.002790 0.013064 -0.002362 0.003848 0.001909
# 4 0.000661 0.012315 -0.002362 0.034974 0.007096 -0.004379
# 5 0.013658 -0.003338 0.003848 0.007096 0.037152 0.007120
# 6 0.006974 0.001431 0.001909 -0.004379 0.007120 0.033373
#
#
# Mechanical properties :
#
#
# Convention : Reuss Voigt Hill
#
# Bulk Modulus (GPa) = 30.45217 48.38724 39.41970
# Shear Modulus (GPa) = 24.76746 34.98361 29.87553
#
# Velocity S-wave (km/s) = 3.25020 3.86279 3.56966
# Velocity P-wave (km/s) = 5.20322 6.36655 5.81405
#
# Compressibility (1/GPa) = 0.03283838
#
# Stress axis : x y z
#
# Youngs Moduli (GPa) = 51.93956 37.28821 76.54621
#
# Poissons Ratio (x) = 0.28785 0.20196
# Poissons Ratio (y) = 0.40096 0.21359
# Poissons Ratio (z) = 0.13704 0.10405
#
# Static dielectric constant tensor:
#      x y z
#    x 1.863400 -0.022840 0.011960 
#    y -0.022840 1.925880 -0.008960 
#    z 0.011960 -0.008960 1.889000 
# 
# From -- ./inp_files/528298.got.cif
#   From: 2010.05.17/outbox.cif.g08.bks.cpg/sg2_265_cif.got.tgz:528298.got - 2010.06.03 11:33:40.
