data_PCOD9107579
_publ_section_title
;
Structure prediction by ZEFSAII (Michael W. Deem and Ramdas Pophale) SiO2 
 PCOD9107579
Probable space group: P -1
;
_chemical_formula_sum "Si O2"
_cell_formula_units_Z 14
_cell_length_a 11.572369
_cell_length_b 9.495548
_cell_length_c 10.691965
_cell_angle_alpha 113.654164
_cell_angle_beta 41.898580
_cell_angle_gamma 83.272739
_cell_volume 527.152173
_symmetry_space_group_name_H-M "P -1"
_symmetry_group_IT_number 2
_symmetry_cell_setting 'triclinic'
loop_
_space_group_symop_operation_xyz
x,y,z
-x,-y,-z
loop_
_atom_site_type_symbol
_atom_site_label
_atom_site_fract_x
_atom_site_fract_y
_atom_site_fract_z
Si Si1 0.929795 0.182753 0.769476
Si Si2 0.100549 0.605142 0.351160
Si Si3 0.665237 0.624223 0.268741
Si Si4 0.293053 0.303243 0.477112
Si Si5 0.817202 0.933106 0.900347
Si Si6 0.265363 0.672260 0.567613
Si Si7 0.549704 0.219077 0.746846
O O1 0.859650 0.260364 0.710902
O O2 0.837842 0.077120 0.855885
O O3 0.213283 0.010128 0.490571
O O4 0.815815 0.386591 0.017564
O O5 0.915588 0.633072 0.417747
O O6 0.960648 0.717969 0.630445
O O7 0.354521 0.370884 0.062390
O O8 0.769514 0.650979 0.309691
O O9 0.415690 0.697624 0.540792
O O10 0.596096 0.760509 0.248153
O O11 0.328523 0.459720 0.465920
O O12 0.542767 0.065511 0.180762
O O13 0.983136 0.855742 0.860191
O O14 0.355137 0.680411 0.361882
#
# Coordination Sequence:
#
# PCOD9107579 Si02
#       7
#     2   2   2   2   2   2   2
#     4  10  20  40  65  86 108 153 198 242 280 331
#     4  11  24  38  57  89 120 153 187 232 295 341
#     4   9  20  39  61  89 110 148 198 235 289 332
#     4  12  23  38  59  86 125 150 182 242 288 348
#     4  11  23  39  61  85 115 156 197 230 280 345
#     4   9  21  38  61  86 108 153 195 238 280 331
#     4   8  20  39  60  86 112 148 197 238 279 334
#
# _framework density 26.557796
#
# number of rings (size 3 to 8) (size 9 to 14) (size 15 to 20)
#    0.857    1.143    1.429    1.286    0.000    9.143 
#    0.000    1.429    0.000    0.000    0.000    0.000 
#    0.000    0.000    0.000    0.000    0.000    0.000 
#
# Total GULP energy -78353.999876 kJ/mol
# GULP energy per Si atom -5596.714277 kJ/mol
# Density = 2.649735 g / cm^3
# Si number density = 26.557796 Si / 1000 Ang^3
#
#
#
# Elastic Constant Matrix: (Units=GPa)
#
#
# Indices 1 2 3 4 5 6 
#
# 1 94.5051 -3.1107 40.4494 1.6143 -5.4168 1.2178
# 2 -3.1107 65.6236 14.7934 4.9877 -9.0045 -10.3845
# 3 40.4494 14.7934 215.1562 23.1075 -18.9794 -10.2300
# 4 1.6143 4.9877 23.1075 32.6446 1.0055 -15.4842
# 5 -5.4168 -9.0045 -18.9794 1.0055 44.0205 -6.2988
# 6 1.2178 -10.3845 -10.2300 -15.4842 -6.2988 29.6560
#
#
#
# Elastic Compliance Matrix: (Units=1/GPa)
#
#
# Indices 1 2 3 4 5 6 
#
# 1 0.011626 0.001027 -0.002299 0.000669 0.000571 -0.000440
# 2 0.001027 0.017102 -0.000773 0.001167 0.004295 0.007201
# 3 -0.002299 -0.000773 0.005742 -0.003755 0.002164 0.000303
# 4 0.000669 0.001167 -0.003755 0.043472 0.000852 0.021964
# 5 0.000571 0.004295 0.002164 0.000852 0.025744 0.008139
# 6 -0.000440 0.007201 0.000303 0.021964 0.008139 0.049561
#
#
# Mechanical properties :
#
#
# Convention : Reuss Voigt Hill
#
# Bulk Modulus (GPa) = 32.91597 53.28322 43.09959
# Shear Modulus (GPa) = 29.85756 42.80774 36.33265
#
# Velocity S-wave (km/s) = 3.35662 4.01917 3.70274
# Velocity P-wave (km/s) = 5.23866 6.45329 5.87743
#
# Compressibility (1/GPa) = 0.03038039
#
# Stress axis : x y z
#
# Youngs Moduli (GPa) = 86.01323 58.47420 174.16482
#
# Poissons Ratio (x) = -0.06007 0.40035
# Poissons Ratio (y) = -0.08836 0.13463
# Poissons Ratio (z) = 0.19772 0.04520
#
# Static dielectric constant tensor:
#      x y z
#    x 2.132510 0.037650 -0.014750 
#    y 0.037650 2.089860 -0.029530 
#    z -0.014750 -0.029530 2.057190 
# 
# From -- ./inp_files/281532.got.cif
#   From: 2010.05.17/outbox.cif.g08.bks.cpg/sg2_141_cif.got.tgz:281532.got - 2010.06.03 11:33:40.
