data_PCOD9107505
_publ_section_title
;
Structure prediction by ZEFSAII (Michael W. Deem and Ramdas Pophale) SiO2 
 PCOD9107505
Probable space group: P -1
;
_chemical_formula_sum "Si O2"
_cell_formula_units_Z 15
_cell_length_a 11.023075
_cell_length_b 17.798417
_cell_length_c 6.897053
_cell_angle_alpha 72.918926
_cell_angle_beta 75.961771
_cell_angle_gamma 133.523694
_cell_volume 719.224424
_symmetry_space_group_name_H-M "P -1"
_symmetry_group_IT_number 2
_symmetry_cell_setting 'triclinic'
loop_
_space_group_symop_operation_xyz
x,y,z
-x,-y,-z
loop_
_atom_site_type_symbol
_atom_site_label
_atom_site_fract_x
_atom_site_fract_y
_atom_site_fract_z
Si Si1 0.472663 0.485278 0.793576
Si Si2 0.000000 0.000000 0.500000
Si Si3 0.553083 0.794046 0.058957
Si Si4 0.886956 0.360581 0.706562
Si Si5 0.309602 0.519286 0.550133
Si Si6 0.006934 0.178996 0.203068
Si Si7 0.784159 0.176813 0.584821
Si Si8 0.685177 0.005424 0.100426
O O1 0.428633 0.548309 0.673054
O O2 0.666378 0.539864 0.568215
O O3 0.500000 0.500000 0.000000
O O4 0.257433 0.324635 0.947627
O O5 0.021457 0.915905 0.595868
O O6 0.749874 0.870121 0.788725
O O7 0.362767 0.747652 0.062363
O O8 0.432410 0.657730 0.307932
O O9 0.648584 0.899527 0.110088
O O10 0.879035 0.301038 0.565645
O O11 0.000000 0.500000 0.500000
O O12 0.053428 0.406643 0.758263
O O13 0.927520 0.211313 0.338566
O O14 0.863844 0.098942 0.126313
O O15 0.546785 0.080383 0.672475
O O16 0.750637 0.094553 0.828050
#
# Coordination Sequence:
#
# PCOD9107505 Si02
#       8
#     2   1   2   2   2   2   2   2
#     4  11  24  40  63  93 126 167 214 270 319 379
#     4  12  24  42  60 100 136 172 216 264 322 388
#     4  10  21  43  66  95 133 171 214 267 326 381
#     4   9  19  38  72  92 126 174 215 267 321 382
#     4  10  21  43  65  92 124 171 217 259 323 378
#     4  12  24  40  63  97 131 170 213 266 324 387
#     4  10  20  40  64  95 130 165 214 267 319 385
#     4  10  22  39  65  92 128 175 209 260 327 388
#
# _framework density 20.855799000000001
#
# number of rings (size 3 to 8) (size 9 to 14) (size 15 to 20)
#    0.000    1.600    2.667    2.000    0.000    2.667 
#    2.400    0.000    0.000    7.200    0.000    0.000 
#    0.000    0.000    0.000    0.000    0.000    0.000 
#
# Total GULP energy -83531.999089 kJ/mol
# GULP energy per Si atom -5568.799939 kJ/mol
# Density = 2.080833 g / cm^3
# Si number density = 20.855799 Si / 1000 Ang^3
#
#
#
# Elastic Constant Matrix: (Units=GPa)
#
#
# Indices 1 2 3 4 5 6 
#
# 1 132.6845 53.8925 42.9861 5.3578 -9.4516 10.4125
# 2 53.8925 86.3645 19.9832 -7.7288 0.5967 3.1011
# 3 42.9861 19.9832 61.9787 -6.5084 -5.8115 9.4658
# 4 5.3578 -7.7288 -6.5084 27.8870 -5.0867 2.8700
# 5 -9.4516 0.5967 -5.8115 -5.0867 34.6887 -7.9855
# 6 10.4125 3.1011 9.4658 2.8700 -7.9855 20.5037
#
#
#
# Elastic Compliance Matrix: (Units=1/GPa)
#
#
# Indices 1 2 3 4 5 6 
#
# 1 0.013119 -0.007022 -0.007166 -0.005782 0.001434 -0.000924
# 2 -0.007022 0.016476 0.000072 0.005705 -0.001420 -0.000310
# 3 -0.007166 0.000072 0.023199 0.007840 0.001318 -0.007666
# 4 -0.005782 0.005705 0.007840 0.041777 0.004464 -0.005655
# 5 0.001434 -0.001420 0.001318 0.004464 0.032643 0.010967
# 6 -0.000924 -0.000310 -0.007666 -0.005655 0.010967 0.057890
#
#
# Mechanical properties :
#
#
# Convention : Reuss Voigt Hill
#
# Bulk Modulus (GPa) = 40.71638 57.19460 48.95549
# Shear Modulus (GPa) = 22.57091 27.56026 25.06559
#
# Velocity S-wave (km/s) = 3.29331 3.63914 3.47054
# Velocity P-wave (km/s) = 5.83321 6.71872 6.29156
#
# Compressibility (1/GPa) = 0.02456014
#
# Stress axis : x y z
#
# Youngs Moduli (GPa) = 76.22685 60.69518 43.10468
#
# Poissons Ratio (x) = 0.42622 0.30890
# Poissons Ratio (y) = 0.53529 -0.00309
# Poissons Ratio (z) = 0.54626 -0.00435
#
# Static dielectric constant tensor:
#      x y z
#    x 1.798830 0.014800 -0.005100 
#    y 0.014800 1.731890 -0.017100 
#    z -0.005100 -0.017100 1.723450 
# 
# From -- ./inp_files/80478.got.cif
#   From: 2010.05.17/outbox.cif.g08.bks.cpg/sg2_41_cif.got.tgz:80478.got - 2010.06.03 11:33:40.
