data_PCOD9107000
_publ_section_title
;
Structure prediction by ZEFSAII (Michael W. Deem and Ramdas Pophale) SiO2 
 PCOD9107000
Probable space group: P -1
;
_chemical_formula_sum "Si O2"
_cell_formula_units_Z 16
_cell_length_a 16.834971
_cell_length_b 16.169799
_cell_length_c 13.110396
_cell_angle_alpha 52.733798
_cell_angle_beta 156.153020
_cell_angle_gamma 142.254201
_cell_volume 776.980572
_symmetry_space_group_name_H-M "P -1"
_symmetry_group_IT_number 2
_symmetry_cell_setting 'triclinic'
loop_
_space_group_symop_operation_xyz
x,y,z
-x,-y,-z
loop_
_atom_site_type_symbol
_atom_site_label
_atom_site_fract_x
_atom_site_fract_y
_atom_site_fract_z
Si Si1 0.380026 0.109651 0.096583
Si Si2 0.275084 0.591866 0.828501
Si Si3 0.945113 0.284210 0.764355
Si Si4 0.141725 0.909053 0.765788
Si Si5 0.454703 0.212868 0.810175
Si Si6 0.908995 0.896274 0.874667
Si Si7 0.898550 0.344786 0.084090
Si Si8 0.241916 0.662189 0.294199
O O1 0.457921 0.256088 0.037000
O O2 0.667803 0.179499 0.440228
O O3 0.297275 0.003886 0.983176
O O4 0.109662 0.004234 0.934143
O O5 0.000000 0.500000 0.500000
O O6 0.214615 0.452959 0.904788
O O7 0.305024 0.674595 0.903487
O O8 0.834801 0.303715 0.720579
O O9 0.033704 0.202714 0.959591
O O10 0.144360 0.789805 0.834862
O O11 0.806071 0.810237 0.456693
O O12 0.299303 0.041295 0.768163
O O13 0.608972 0.288324 0.827878
O O14 0.572033 0.792559 0.548946
O O15 0.000000 0.000000 0.000000
O O16 0.154680 0.507605 0.316771
O O17 0.936553 0.365147 0.992300
#
# Coordination Sequence:
#
# PCOD9107000 Si02
#       8
#     2   2   2   2   2   2   2   2
#     4  10  21  42  65  92 127 167 206 259 314 368
#     4   9  20  39  69  89 122 169 204 250 318 369
#     4  11  22  43  67  88 130 167 202 264 319 361
#     4  10  22  37  65  92 123 165 207 250 313 367
#     4  10  20  40  62  91 125 162 206 257 304 370
#     4  12  25  39  65  94 125 163 212 259 307 377
#     4  11  23  39  62  90 127 164 206 255 303 374
#     4  11  25  40  62  94 124 166 211 251 314 370
#
# _framework density 20.592535000000002
#
# number of rings (size 3 to 8) (size 9 to 14) (size 15 to 20)
#    0.000    1.500    2.500    2.250    3.500    0.000 
#    0.000    3.750    0.000    0.000    0.000    0.000 
#    0.000    0.000    0.000    0.000    0.000    0.000 
#
# Total GULP energy -89229.596927 kJ/mol
# GULP energy per Si atom -5576.849808 kJ/mol
# Density = 2.054567 g / cm^3
# Si number density = 20.592535 Si / 1000 Ang^3
#
#
#
# Elastic Constant Matrix: (Units=GPa)
#
#
# Indices 1 2 3 4 5 6 
#
# 1 55.3315 40.4907 -4.5756 -3.5438 -6.4584 9.2753
# 2 40.4907 107.0487 20.0729 14.8292 23.3089 6.2159
# 3 -4.5756 20.0729 6.6227 0.1328 -10.7605 -12.9012
# 4 -3.5438 14.8292 0.1328 23.6412 0.2444 -1.0312
# 5 -6.4584 23.3089 -10.7605 0.2444 26.1927 6.7577
# 6 9.2753 6.2159 -12.9012 -1.0312 6.7577 33.1983
#
#
#
# Elastic Compliance Matrix: (Units=1/GPa)
#
#
# Indices 1 2 3 4 5 6 
#
# 1 0.016917 0.001048 -0.030029 0.001424 -0.005110 -0.015508
# 2 0.001048 0.001156 0.028880 -0.000433 0.008799 0.008909
# 3 -0.030029 0.028880 -0.026418 -0.021970 -0.044009 0.000992
# 4 0.001424 -0.000433 -0.021970 0.042716 -0.007120 -0.006078
# 5 -0.005110 0.008799 -0.044009 -0.007120 0.016466 -0.020895
# 6 -0.015508 0.008909 0.000992 -0.006078 -0.020895 0.037237
#
#
# Mechanical properties :
#
#
# Convention : Reuss Voigt Hill
#
# Bulk Modulus (GPa) = -117.01963 31.21989 -42.89987
# Shear Modulus (GPa) = 58.52937 24.14075 41.33506
#
# Velocity S-wave (km/s) = 5.33707 3.42761 4.48513
# Velocity P-wave (km/s) = 4.35552 5.55503 2.43802
#
# Compressibility (1/GPa) = -0.00854557
#
# Stress axis : x y z
#
# Youngs Moduli (GPa) = 59.11148 864.73517 -37.85350
#
# Poissons Ratio (x) = -0.90613 -1.13670
# Poissons Ratio (y) = -0.06194 1.09322
# Poissons Ratio (z) = 1.77506 -24.97387
#
# Static dielectric constant tensor:
#      x y z
#    x 1.722780 0.055120 0.001420 
#    y 0.055120 1.793840 0.070640 
#    z 0.001420 0.070640 1.848980 
# 
# From -- ./inp_files/371162.got.cif
#   From: 2010.05.17/outbox.cif.g08.bks.cpg/sg2_186_cif.got.tgz:371162.got - 2010.06.03 11:33:40.
