data_PCOD9107032
_publ_section_title
;
Structure prediction by ZEFSAII (Michael W. Deem and Ramdas Pophale) SiO2 
 PCOD9107032
Probable space group: P -1
;
_chemical_formula_sum "Si O2"
_cell_formula_units_Z 16
_cell_length_a 25.371954
_cell_length_b 5.633760
_cell_length_c 4.964790
_cell_angle_alpha 91.753628
_cell_angle_beta 60.278646
_cell_angle_gamma 88.457840
_cell_volume 615.292901
_symmetry_space_group_name_H-M "P -1"
_symmetry_group_IT_number 2
_symmetry_cell_setting 'triclinic'
loop_
_space_group_symop_operation_xyz
x,y,z
-x,-y,-z
loop_
_atom_site_type_symbol
_atom_site_label
_atom_site_fract_x
_atom_site_fract_y
_atom_site_fract_z
Si Si1 0.971179 0.803838 0.763495
Si Si2 0.074008 0.387309 0.618199
Si Si3 0.288566 0.876910 0.359634
Si Si4 0.624754 0.461428 0.563572
Si Si5 0.598040 0.053376 0.185153
Si Si6 0.486144 0.302364 0.305862
Si Si7 0.740704 0.731151 0.153639
Si Si8 0.200592 0.508635 0.490937
O O1 0.916858 0.722121 0.704832
O O2 0.021061 0.589588 0.695171
O O3 0.943762 0.823355 0.135464
O O4 0.000000 0.000000 0.500000
O O5 0.129576 0.515753 0.613070
O O6 0.336685 0.659588 0.299458
O O7 0.233551 0.752068 0.352320
O O8 0.264032 0.009283 0.692562
O O9 0.337113 0.039612 0.098244
O O10 0.613104 0.259317 0.366032
O O11 0.559195 0.586680 0.802467
O O12 0.673118 0.636667 0.326853
O O13 0.548895 0.153051 0.089857
O O14 0.559340 0.868446 0.434745
O O15 0.500000 0.500000 0.500000
O O16 0.780406 0.567222 0.258985
O O17 0.771492 0.693971 0.786963
#
# Coordination Sequence:
#
# PCOD9107032 Si02
#       8
#     2   2   2   2   2   2   2   2
#     4  10  21  41  73 108 143 191 237 291 353 414
#     4  10  22  42  69 104 148 188 238 296 350 417
#     4  11  25  40  69  94 129 183 228 284 352 424
#     4  10  21  40  60  91 128 169 220 288 350 419
#     4  10  20  40  62  93 125 167 224 281 359 430
#     4   9  20  36  64  90 126 164 219 288 355 428
#     4  11  25  41  69  98 136 186 238 284 350 417
#     4  11  25  46  66 104 144 186 234 291 345 411
#
# _framework density 26.003876000000002
#
# number of rings (size 3 to 8) (size 9 to 14) (size 15 to 20)
#    0.000    1.750    1.250    1.875    3.500    2.500 
#    0.000   15.000    0.000    0.000    0.000    0.000 
#    0.000    0.000    0.000    0.000    0.000    0.000 
#
# Total GULP energy -89444.851986 kJ/mol
# GULP energy per Si atom -5590.303249 kJ/mol
# Density = 2.594469 g / cm^3
# Si number density = 26.003876 Si / 1000 Ang^3
#
#
#
# Elastic Constant Matrix: (Units=GPa)
#
#
# Indices 1 2 3 4 5 6 
#
# 1 140.0202 38.9076 17.8960 -26.7267 -0.0007 21.8468
# 2 38.9076 94.6952 24.9835 -19.9769 9.2036 11.1496
# 3 17.8960 24.9835 83.8184 -12.1164 20.1118 8.6543
# 4 -26.7267 -19.9769 -12.1164 40.8893 3.5282 7.8869
# 5 -0.0007 9.2036 20.1118 3.5282 35.2863 -11.9392
# 6 21.8468 11.1496 8.6543 7.8869 -11.9392 40.5573
#
#
#
# Elastic Compliance Matrix: (Units=1/GPa)
#
#
# Indices 1 2 3 4 5 6 
#
# 1 0.010228 -0.001453 0.001206 0.008231 -0.003875 -0.008109
# 2 -0.001453 0.014285 -0.000717 0.007565 -0.006202 -0.006289
# 3 0.001206 -0.000717 0.017593 0.008815 -0.014133 -0.010081
# 4 0.008231 0.007565 0.008815 0.042010 -0.018661 -0.022057
# 5 -0.003875 -0.006202 -0.014133 -0.018661 0.048211 0.024629
# 6 -0.008109 -0.006289 -0.010081 -0.022057 0.024629 0.044444
#
#
# Mechanical properties :
#
#
# Convention : Reuss Voigt Hill
#
# Bulk Modulus (GPa) = 24.88845 53.56753 39.22799
# Shear Modulus (GPa) = 26.02938 39.12971 32.57954
#
# Velocity S-wave (km/s) = 3.16726 3.88334 3.54343
# Velocity P-wave (km/s) = 4.79241 6.38370 5.64442
#
# Compressibility (1/GPa) = 0.04017928
#
# Stress axis : x y z
#
# Youngs Moduli (GPa) = 97.77449 70.00177 56.84074
#
# Poissons Ratio (x) = 0.10169 -0.06856
# Poissons Ratio (y) = 0.14203 0.04075
# Poissons Ratio (z) = -0.11793 0.05018
#
# Static dielectric constant tensor:
#      x y z
#    x 2.045510 -0.073790 0.026940 
#    y -0.073790 2.190580 -0.110190 
#    z 0.026940 -0.110190 2.083430 
# 
# From -- ./inp_files/125855.got.cif
#   From: 2010.05.17/outbox.cif.g08.bks.cpg/sg2_63_cif.got.tgz:125855.got - 2010.06.03 11:33:40.
