data_PCOD9107571
_publ_section_title
;
Structure prediction by ZEFSAII (Michael W. Deem and Ramdas Pophale) SiO2 
 PCOD9107571
Probable space group: P -1
;
_chemical_formula_sum "Si O2"
_cell_formula_units_Z 16
_cell_length_a 7.434538
_cell_length_b 16.756697
_cell_length_c 11.596103
_cell_angle_alpha 31.790717
_cell_angle_beta 77.733140
_cell_angle_gamma 72.528487
_cell_volume 723.314626
_symmetry_space_group_name_H-M "P -1"
_symmetry_group_IT_number 2
_symmetry_cell_setting 'triclinic'
loop_
_space_group_symop_operation_xyz
x,y,z
-x,-y,-z
loop_
_atom_site_type_symbol
_atom_site_label
_atom_site_fract_x
_atom_site_fract_y
_atom_site_fract_z
Si Si1 0.259362 0.886187 0.635147
Si Si2 0.066975 0.452854 0.678123
Si Si3 0.004092 0.873441 0.911225
Si Si4 0.389974 0.746512 0.122264
Si Si5 0.637283 0.798344 0.826854
Si Si6 0.208156 0.790181 0.506309
Si Si7 0.571820 0.409788 0.461640
Si Si8 0.038517 0.515729 0.841061
O O1 0.115720 0.878274 0.768388
O O2 0.471345 0.809991 0.741834
O O3 0.223130 0.802357 0.626293
O O4 0.257409 0.065608 0.384134
O O5 0.241234 0.533486 0.585588
O O6 0.934439 0.496314 0.758086
O O7 0.000000 0.500000 0.500000
O O8 0.100494 0.266680 0.901933
O O9 0.173075 0.835891 0.027945
O O10 0.858930 0.037313 0.745174
O O11 0.416935 0.571748 0.278487
O O12 0.459830 0.707993 0.289843
O O13 0.519877 0.828571 0.925130
O O14 0.775384 0.628575 0.018358
O O15 0.387668 0.683575 0.547741
O O16 0.053772 0.693741 0.615942
O O17 0.000000 0.500000 0.000000
#
# Coordination Sequence:
#
# PCOD9107571 Si02
#       8
#     2   2   2   2   2   2   2   2
#     4  10  22  38  61  94 121 161 208 251 314 373
#     4  11  21  40  63  95 118 170 207 252 303 388
#     4  11  22  37  67  89 122 162 207 250 311 373
#     4  10  20  41  64  84 116 173 205 239 310 376
#     4  10  20  40  65  82 124 170 204 249 306 384
#     4  11  22  37  59  95 123 153 202 269 304 357
#     4  10  22  41  64  86 126 159 211 254 307 367
#     4  11  22  39  61  90 128 162 206 262 315 359
#
# _framework density 22.120387000000001
#
# number of rings (size 3 to 8) (size 9 to 14) (size 15 to 20)
#    0.000    1.500    3.750    2.625    0.000    1.000 
#    2.250    0.625    0.000    0.000    0.000    0.000 
#    0.000    0.000    0.000    0.000    0.000    0.000 
#
# Total GULP energy -89196.444495 kJ/mol
# GULP energy per Si atom -5574.777781 kJ/mol
# Density = 2.207004 g / cm^3
# Si number density = 22.120387 Si / 1000 Ang^3
#
#
#
# Elastic Constant Matrix: (Units=GPa)
#
#
# Indices 1 2 3 4 5 6 
#
# 1 45.0377 -0.1162 6.9018 -1.4476 1.7248 13.3802
# 2 -0.1162 95.5931 30.6227 4.5701 2.8991 7.6100
# 3 6.9018 30.6227 117.3867 3.0546 -14.5634 12.2988
# 4 -1.4476 4.5701 3.0546 38.8694 -0.8830 -2.4217
# 5 1.7248 2.8991 -14.5634 -0.8830 29.7524 4.5029
# 6 13.3802 7.6100 12.2988 -2.4217 4.5029 28.8350
#
#
#
# Elastic Compliance Matrix: (Units=1/GPa)
#
#
# Indices 1 2 3 4 5 6 
#
# 1 0.025882 0.001172 -0.000576 0.000119 -0.000069 -0.012053
# 2 0.001172 0.011789 -0.003215 -0.001271 -0.002526 -0.001996
# 3 -0.000576 -0.003215 0.010644 -0.000616 0.006211 -0.004446
# 4 0.000119 -0.001271 -0.000616 0.026102 0.000181 0.002707
# 5 -0.000069 -0.002526 0.006211 0.000181 0.038100 -0.007885
# 6 -0.012053 -0.001996 -0.004446 0.002707 -0.007885 0.044154
#
#
# Mechanical properties :
#
#
# Convention : Reuss Voigt Hill
#
# Bulk Modulus (GPa) = 23.21519 36.98157 30.09838
# Shear Modulus (GPa) = 28.36563 34.19864 31.28213
#
# Velocity S-wave (km/s) = 3.58485 3.93622 3.76463
# Velocity P-wave (km/s) = 5.25857 6.11662 5.70375
#
# Compressibility (1/GPa) = 0.04307524
#
# Stress axis : x y z
#
# Youngs Moduli (GPa) = 38.63663 84.82646 93.95007
#
# Poissons Ratio (x) = -0.09942 0.05415
# Poissons Ratio (y) = -0.04528 0.30209
# Poissons Ratio (z) = 0.02227 0.27276
#
# Static dielectric constant tensor:
#      x y z
#    x 1.915520 -0.029660 -0.021190 
#    y -0.029660 1.876240 0.086930 
#    z -0.021190 0.086930 1.833740 
# 
# From -- ./inp_files/218835.got.cif
#   From: 2010.05.17/outbox.cif.g08.bks.cpg/sg2_110_cif.got.tgz:218835.got - 2010.06.03 11:33:40.
