data_PCOD9107705
_publ_section_title
;
Structure prediction by ZEFSAII (Michael W. Deem and Ramdas Pophale) SiO2 
 PCOD9107705
Probable space group: P -1
;
_chemical_formula_sum "Si O2"
_cell_formula_units_Z 16
_cell_length_a 11.970288
_cell_length_b 8.934100
_cell_length_c 12.192622
_cell_angle_alpha 35.801953
_cell_angle_beta 84.822632
_cell_angle_gamma 83.929123
_cell_volume 758.476700
_symmetry_space_group_name_H-M "P -1"
_symmetry_group_IT_number 2
_symmetry_cell_setting 'triclinic'
loop_
_space_group_symop_operation_xyz
x,y,z
-x,-y,-z
loop_
_atom_site_type_symbol
_atom_site_label
_atom_site_fract_x
_atom_site_fract_y
_atom_site_fract_z
Si Si1 0.438540 0.355129 0.189196
Si Si2 0.070335 0.326592 0.409930
Si Si3 0.420294 0.819388 0.049236
Si Si4 0.196286 0.779321 0.725145
Si Si5 0.727971 0.434150 0.626340
Si Si6 0.179802 0.758336 0.489935
Si Si7 0.175175 0.359038 0.154643
Si Si8 0.599626 0.968046 0.321108
O O1 0.468191 0.530499 0.185490
O O2 0.303904 0.373166 0.178919
O O3 0.485284 0.064937 0.335549
O O4 0.500000 0.500000 0.000000
O O5 0.155730 0.462489 0.401002
O O6 0.094012 0.420555 0.228312
O O7 0.941953 0.359358 0.436146
O O8 0.106631 0.022373 0.585618
O O9 0.313391 0.778149 0.160079
O O10 0.397313 0.944735 0.857710
O O11 0.500000 0.000000 0.000000
O O12 0.220812 0.702272 0.643481
O O13 0.306009 0.886958 0.707043
O O14 0.158548 0.551996 0.940552
O O15 0.742457 0.340579 0.556851
O O16 0.636721 0.671776 0.496247
O O17 0.163716 0.065506 0.297297
#
# Coordination Sequence:
#
# PCOD9107705 Si02
#       8
#     2   2   2   2   2   2   2   2
#     4  10  20  40  65  93 122 167 205 255 311 371
#     4  10  22  44  63  93 125 166 214 261 316 371
#     4  11  24  42  65  93 129 166 206 258 311 376
#     4  10  20  40  67  93 125 160 213 265 304 382
#     4  11  24  44  63  91 132 172 200 264 319 369
#     4  11  26  38  64  97 126 164 216 260 315 374
#     4  11  20  41  67  91 128 163 212 261 315 363
#     4  10  23  42  64  94 126 167 214 251 313 377
#
# _framework density 21.094912000000001
#
# number of rings (size 3 to 8) (size 9 to 14) (size 15 to 20)
#    0.000    1.500    3.750    1.875    3.500    5.000 
#    0.000    0.000    0.000    6.000    0.000    0.000 
#    0.000    0.000    0.000    0.000    0.000    0.000 
#
# Total GULP energy -89379.932418 kJ/mol
# GULP energy per Si atom -5586.245776 kJ/mol
# Density = 2.104690 g / cm^3
# Si number density = 21.094912 Si / 1000 Ang^3
#
#
#
# Elastic Constant Matrix: (Units=GPa)
#
#
# Indices 1 2 3 4 5 6 
#
# 1 66.7681 31.6677 15.6999 7.2712 -11.2826 6.8345
# 2 31.6677 130.3544 45.0149 30.8851 -3.7820 13.3102
# 3 15.6999 45.0149 122.1425 34.9915 -5.9153 6.0072
# 4 7.2712 30.8851 34.9915 26.3278 5.4805 -2.8223
# 5 -11.2826 -3.7820 -5.9153 5.4805 28.0609 5.3060
# 6 6.8345 13.3102 6.0072 -2.8223 5.3060 23.6185
#
#
#
# Elastic Compliance Matrix: (Units=1/GPa)
#
#
# Indices 1 2 3 4 5 6 
#
# 1 0.019158 -0.002180 0.001507 -0.007844 0.010783 -0.008058
# 2 -0.002180 0.014170 0.002498 -0.022413 0.008307 -0.012534
# 3 0.001507 0.002498 0.016785 -0.029622 0.012628 -0.012489
# 4 -0.007844 -0.022413 -0.029622 0.120146 -0.044742 0.046843
# 5 0.010783 0.008307 0.012628 -0.044742 0.058052 -0.029401
# 6 -0.008058 -0.012534 -0.012489 0.046843 -0.029401 0.067114
#
#
# Mechanical properties :
#
#
# Convention : Reuss Voigt Hill
#
# Bulk Modulus (GPa) = 18.60086 56.00333 37.30209
# Shear Modulus (GPa) = 16.14481 30.72694 23.43587
#
# Velocity S-wave (km/s) = 2.76948 3.82069 3.33674
# Velocity P-wave (km/s) = 4.36618 6.78745 5.70671
#
# Compressibility (1/GPa) = 0.05376096
#
# Stress axis : x y z
#
# Youngs Moduli (GPa) = 52.19695 70.57333 59.57730
#
# Poissons Ratio (x) = 0.15387 -0.08977
# Poissons Ratio (y) = 0.11381 -0.14880
# Poissons Ratio (z) = -0.07865 -0.17627
#
# Static dielectric constant tensor:
#      x y z
#    x 1.785730 -0.010180 0.022470 
#    y -0.010180 1.753340 -0.015170 
#    z 0.022470 -0.015170 1.801860 
# 
# From -- ./inp_files/416081.got.cif
#   From: 2010.05.17/outbox.cif.g08.bks.cpg/sg2_209_cif.got.tgz:416081.got - 2010.06.03 11:33:40.
