data_PCOD9107117
_publ_section_title
;
Structure prediction by ZEFSAII (Michael W. Deem and Ramdas Pophale) SiO2 
 PCOD9107117
Probable space group: P -1
;
_chemical_formula_sum "Si O2"
_cell_formula_units_Z 16
_cell_length_a 7.127982
_cell_length_b 14.242325
_cell_length_c 13.366915
_cell_angle_alpha 31.376724
_cell_angle_beta 100.083001
_cell_angle_gamma 103.123288
_cell_volume 687.613888
_symmetry_space_group_name_H-M "P -1"
_symmetry_group_IT_number 2
_symmetry_cell_setting 'triclinic'
loop_
_space_group_symop_operation_xyz
x,y,z
-x,-y,-z
loop_
_atom_site_type_symbol
_atom_site_label
_atom_site_fract_x
_atom_site_fract_y
_atom_site_fract_z
Si Si1 0.751140 0.302338 0.469766
Si Si2 0.336767 0.630544 0.379329
Si Si3 0.159308 0.409475 0.229569
Si Si4 0.927343 0.681458 0.039435
Si Si5 0.150831 0.948360 0.977420
Si Si6 0.166944 0.296736 0.555367
Si Si7 0.740396 0.171044 0.379385
Si Si8 0.650268 0.760179 0.768317
O O1 0.650441 0.320801 0.547470
O O2 0.824568 0.505790 0.250635
O O3 0.660822 0.190608 0.468123
O O4 0.942568 0.217594 0.591324
O O5 0.500000 0.500000 0.500000
O O6 0.297347 0.815659 0.152330
O O7 0.166844 0.477585 0.458133
O O8 0.096102 0.606694 0.059879
O O9 0.954321 0.283299 0.297225
O O10 0.231897 0.351101 0.398589
O O11 0.694212 0.616485 0.820030
O O12 0.024925 0.833193 0.985300
O O13 0.769870 0.737298 0.899407
O O14 0.253329 0.138572 0.765567
O O15 0.000000 0.000000 0.000000
O O16 0.576208 0.242632 0.234109
O O17 0.735127 0.959392 0.551213
#
# Coordination Sequence:
#
# PCOD9107117 Si02
#       8
#     2   2   2   2   2   2   2   2
#     4  10  20  40  63  86 125 166 209 263 310 385
#     4  12  25  41  63  97 134 163 207 273 324 373
#     4  10  21  39  62  87 132 165 206 271 315 374
#     4  10  21  38  64  96 116 165 221 251 316 387
#     4  12  22  39  71  91 120 174 217 254 316 394
#     4  10  21  41  64  93 123 168 217 252 316 389
#     4   9  22  37  57  89 123 164 212 264 316 372
#     4  11  21  38  62  90 124 167 214 259 322 381
#
# _framework density 23.268872999999999
#
# number of rings (size 3 to 8) (size 9 to 14) (size 15 to 20)
#    0.000    1.750    3.750    3.375    1.750    2.500 
#    0.000    3.750    0.000    0.000    0.000    0.000 
#    0.000    0.000    0.000    0.000    0.000    0.000 
#
# Total GULP energy -89348.692588 kJ/mol
# GULP energy per Si atom -5584.293287 kJ/mol
# Density = 2.321591 g / cm^3
# Si number density = 23.268873 Si / 1000 Ang^3
#
#
#
# Elastic Constant Matrix: (Units=GPa)
#
#
# Indices 1 2 3 4 5 6 
#
# 1 28.6872 9.1974 46.7377 12.5280 18.9158 2.6176
# 2 9.1974 89.2673 32.0295 -5.3925 13.7374 -3.6119
# 3 46.7377 32.0295 166.6523 -0.8830 33.6210 -1.5779
# 4 12.5280 -5.3925 -0.8830 41.6716 12.2462 0.3291
# 5 18.9158 13.7374 33.6210 12.2462 33.4680 1.4487
# 6 2.6176 -3.6119 -1.5779 0.3291 1.4487 21.9075
#
#
#
# Elastic Compliance Matrix: (Units=1/GPa)
#
#
# Indices 1 2 3 4 5 6 
#
# 1 0.100388 -0.000118 -0.023546 -0.023578 -0.023899 -0.011775
# 2 -0.000118 0.012762 -0.001364 0.003122 -0.005044 0.002307
# 3 -0.023546 -0.001364 0.013502 0.007974 -0.002770 0.003624
# 4 -0.023578 0.003122 0.007974 0.034166 -0.008639 0.003964
# 5 -0.023899 -0.005044 -0.002770 -0.008639 0.051464 -0.001449
# 6 -0.011775 0.002307 0.003624 0.003964 -0.001449 0.047731
#
#
# Mechanical properties :
#
#
# Convention : Reuss Voigt Hill
#
# Bulk Modulus (GPa) = 13.05546 51.17068 32.11307
# Shear Modulus (GPa) = 14.89871 32.51891 23.70881
#
# Velocity S-wave (km/s) = 2.53313 3.74241 3.19549
# Velocity P-wave (km/s) = 3.76544 6.38067 5.23887
#
# Compressibility (1/GPa) = 0.07659631
#
# Stress axis : x y z
#
# Youngs Moduli (GPa) = 9.96134 78.35815 74.06559
#
# Poissons Ratio (x) = 0.00922 1.74396
# Poissons Ratio (y) = 0.00117 0.10101
# Poissons Ratio (z) = 0.23455 0.10686
#
# Static dielectric constant tensor:
#      x y z
#    x 2.021200 0.150430 -0.031390 
#    y 0.150430 2.109950 -0.056700 
#    z -0.031390 -0.056700 1.961740 
# 
# From -- ./inp_files/505123.got.cif
#   From: 2010.05.17/outbox.cif.g08.bks.cpg/sg2_253_cif.got.tgz:505123.got - 2010.06.03 11:33:40.
