data_PCOD9107449
_publ_section_title
;
Structure prediction by ZEFSAII (Michael W. Deem and Ramdas Pophale) SiO2 
 PCOD9107449
Probable space group: P -1
;
_chemical_formula_sum "Si O2"
_cell_formula_units_Z 16
_cell_length_a 15.889629
_cell_length_b 8.888769
_cell_length_c 14.934541
_cell_angle_alpha 131.334299
_cell_angle_beta 153.678163
_cell_angle_gamma 58.591464
_cell_volume 686.215738
_symmetry_space_group_name_H-M "P -1"
_symmetry_group_IT_number 2
_symmetry_cell_setting 'triclinic'
loop_
_space_group_symop_operation_xyz
x,y,z
-x,-y,-z
loop_
_atom_site_type_symbol
_atom_site_label
_atom_site_fract_x
_atom_site_fract_y
_atom_site_fract_z
Si Si1 0.560264 0.198514 0.578099
Si Si2 0.449929 0.408340 0.722952
Si Si3 0.657372 0.712317 0.745349
Si Si4 0.575376 0.905594 0.912084
Si Si5 0.419444 0.255063 0.815807
Si Si6 0.826147 0.364187 0.519878
Si Si7 0.795522 0.768676 0.228158
Si Si8 0.000448 0.226399 0.042471
O O1 0.465162 0.349978 0.609917
O O2 0.460291 0.150170 0.368873
O O3 0.500000 0.000000 0.500000
O O4 0.790131 0.247491 0.815695
O O5 0.391429 0.234719 0.674130
O O6 0.294758 0.552573 0.641043
O O7 0.664131 0.539885 0.998381
O O8 0.500000 0.500000 0.500000
O O9 0.686281 0.782461 0.901577
O O10 0.854320 0.734070 0.887484
O O11 0.352236 0.776053 0.651253
O O12 0.564521 0.122256 0.943374
O O13 0.681570 0.900900 0.106923
O O14 0.232489 0.192792 0.678205
O O15 0.500000 0.500000 0.000000
O O16 0.930391 0.577746 0.750014
O O17 0.988823 0.239975 0.599147
O O18 0.000000 0.000000 0.000000
#
# Coordination Sequence:
#
# PCOD9107449 Si02
#       8
#     2   2   2   2   2   2   2   2
#     4  12  22  39  64  91 136 177 215 273 329 390
#     4  10  20  40  64  92 129 170 216 276 328 392
#     4  12  24  41  64 101 134 178 218 269 331 393
#     4  11  24  43  67  95 138 171 221 277 332 396
#     4  10  23  42  69  97 126 174 223 275 341 392
#     4  11  22  41  67  94 133 174 223 272 336 392
#     4  10  22  42  67  91 129 173 217 277 332 389
#     4  12  24  39  66  98 134 181 224 263 331 402
#
# _framework density 23.316281
#
# number of rings (size 3 to 8) (size 9 to 14) (size 15 to 20)
#    0.000    1.000    5.000    1.875    0.000    2.500 
#    0.000    2.500    0.000    0.000    0.000    0.000 
#    0.000    0.000    0.000    0.000    0.000    0.000 
#
# Total GULP energy -89279.236059 kJ/mol
# GULP energy per Si atom -5579.952254 kJ/mol
# Density = 2.326321 g / cm^3
# Si number density = 23.316281 Si / 1000 Ang^3
#
#
#
# Elastic Constant Matrix: (Units=GPa)
#
#
# Indices 1 2 3 4 5 6 
#
# 1 120.7943 34.4439 35.5387 -9.1239 21.7021 4.7571
# 2 34.4439 118.5422 3.7836 -6.4114 15.8337 4.7855
# 3 35.5387 3.7836 96.5550 -12.5628 27.3192 -8.0424
# 4 -9.1239 -6.4114 -12.5628 40.6472 -10.1851 2.9282
# 5 21.7021 15.8337 27.3192 -10.1851 41.8841 -5.7430
# 6 4.7571 4.7855 -8.0424 2.9282 -5.7430 40.2812
#
#
#
# Elastic Compliance Matrix: (Units=1/GPa)
#
#
# Indices 1 2 3 4 5 6 
#
# 1 0.010493 -0.002495 -0.003128 0.000484 -0.002606 -0.001974
# 2 -0.002495 0.009633 0.001470 0.000666 -0.003293 -0.001074
# 3 -0.003128 0.001470 0.013911 0.001869 -0.007308 0.001795
# 4 0.000484 0.000666 0.001869 0.026623 0.004610 -0.001041
# 5 -0.002606 -0.003293 -0.007308 0.004610 0.032850 0.003588
# 6 -0.001974 -0.001074 0.001795 -0.001041 0.003588 0.026132
#
#
# Mechanical properties :
#
#
# Convention : Reuss Voigt Hill
#
# Bulk Modulus (GPa) = 38.86602 53.71375 46.28989
# Shear Modulus (GPa) = 36.62309 42.03753 39.33031
#
# Velocity S-wave (km/s) = 3.96752 4.25069 4.11154
# Velocity P-wave (km/s) = 6.13950 6.86864 6.51428
#
# Compressibility (1/GPa) = 0.02572941
#
# Stress axis : x y z
#
# Youngs Moduli (GPa) = 95.30247 103.80898 71.88623
#
# Poissons Ratio (x) = 0.25901 0.22489
# Poissons Ratio (y) = 0.23778 -0.10565
# Poissons Ratio (z) = 0.29814 -0.15257
#
# Static dielectric constant tensor:
#      x y z
#    x 2.127160 -0.094960 -0.007500 
#    y -0.094960 2.022470 0.026720 
#    z -0.007500 0.026720 1.893340 
# 
# From -- ./inp_files/296758.got.cif
#   From: 2010.05.17/outbox.cif.g08.bks.cpg/sg2_149_cif.got.tgz:296758.got - 2010.06.03 11:33:40.
