data_PCOD9107334
_publ_section_title
;
Structure prediction by ZEFSAII (Michael W. Deem and Ramdas Pophale) SiO2 
 PCOD9107334
Probable space group: P -1
;
_chemical_formula_sum "Si O2"
_cell_formula_units_Z 16
_cell_length_a 10.861423
_cell_length_b 15.687668
_cell_length_c 11.263984
_cell_angle_alpha 127.924473
_cell_angle_beta 94.891320
_cell_angle_gamma 43.152644
_cell_volume 765.821012
_symmetry_space_group_name_H-M "P -1"
_symmetry_group_IT_number 2
_symmetry_cell_setting 'triclinic'
loop_
_space_group_symop_operation_xyz
x,y,z
-x,-y,-z
loop_
_atom_site_type_symbol
_atom_site_label
_atom_site_fract_x
_atom_site_fract_y
_atom_site_fract_z
Si Si1 0.404784 0.143428 0.225377
Si Si2 0.892248 0.811349 0.067476
Si Si3 0.753944 0.250002 0.661170
Si Si4 0.948856 0.760597 0.743792
Si Si5 0.671276 0.534066 0.036796
Si Si6 0.119186 0.927314 0.722587
Si Si7 0.437790 0.367388 0.337044
Si Si8 0.620688 0.186697 0.957254
O O1 0.146122 0.284181 0.349444
O O2 0.406391 0.267028 0.294053
O O3 0.618015 0.973428 0.194816
O O4 0.500000 0.000000 0.000000
O O5 0.889120 0.941481 0.206885
O O6 0.956106 0.756135 0.884117
O O7 0.092828 0.605954 0.991320
O O8 0.523168 0.362293 0.794123
O O9 0.757811 0.238823 0.510143
O O10 0.744806 0.375467 0.825290
O O11 0.000000 0.000000 0.500000
O O12 0.210161 0.596395 0.574434
O O13 0.751981 0.989480 0.866495
O O14 0.529488 0.720541 0.095528
O O15 0.298974 0.791662 0.733304
O O16 0.843523 0.098879 0.869995
O O17 0.440113 0.368814 0.197550
#
# Coordination Sequence:
#
# PCOD9107334 Si02
#       8
#     2   2   2   2   2   2   2   2
#     4   9  18  41  66  84 112 149 207 256 281 343
#     4  10  20  40  64  86 115 157 208 243 279 357
#     4  11  20  38  59  79 122 168 202 228 275 362
#     4  11  23  41  64  86 114 160 200 249 298 340
#     4  11  23  37  58  90 119 163 197 235 296 350
#     4  11  21  39  59  89 121 158 197 242 290 347
#     4  11  23  37  64  89 115 157 199 246 298 347
#     4  12  24  37  56  91 134 150 185 251 297 359
#
# _framework density 20.892610000000001
#
# number of rings (size 3 to 8) (size 9 to 14) (size 15 to 20)
#    0.000    1.250    6.250    2.250    1.750    0.500 
#    0.000    0.625    0.000    0.750    0.000    0.000 
#    0.000    0.000    0.000    0.000    0.000    0.000 
#
# Total GULP energy -89301.297239 kJ/mol
# GULP energy per Si atom -5581.331077 kJ/mol
# Density = 2.084506 g / cm^3
# Si number density = 20.892610 Si / 1000 Ang^3
#
#
#
# Elastic Constant Matrix: (Units=GPa)
#
#
# Indices 1 2 3 4 5 6 
#
# 1 46.2288 21.7228 4.8049 1.1499 4.7083 -18.4924
# 2 21.7228 137.1375 10.4800 4.5230 -4.4668 -16.6246
# 3 4.8049 10.4800 70.2655 2.0458 -8.2623 -3.2671
# 4 1.1499 4.5230 2.0458 30.9910 1.8030 -2.8113
# 5 4.7083 -4.4668 -8.2623 1.8030 23.5150 6.3130
# 6 -18.4924 -16.6246 -3.2671 -2.8113 6.3130 23.5513
#
#
#
# Elastic Compliance Matrix: (Units=1/GPa)
#
#
# Indices 1 2 3 4 5 6 
#
# 1 0.038098 -0.002509 -0.002935 0.003202 -0.018243 0.033009
# 2 -0.002509 0.008214 -0.000761 -0.000805 0.000952 0.003371
# 3 -0.002935 -0.000761 0.015242 -0.001414 0.006624 -0.002672
# 4 0.003202 -0.000805 -0.001414 0.033358 -0.005805 0.007288
# 5 -0.018243 0.000952 0.006624 -0.005805 0.056826 -0.028659
# 6 0.033009 0.003371 -0.002672 0.007288 -0.028659 0.078940
#
#
# Mechanical properties :
#
#
# Convention : Reuss Voigt Hill
#
# Bulk Modulus (GPa) = 20.34843 36.40524 28.37684
# Shear Modulus (GPa) = 19.27012 30.05305 24.66159
#
# Velocity S-wave (km/s) = 3.04030 3.79681 3.43942
# Velocity P-wave (km/s) = 4.69950 6.05671 5.42075
#
# Compressibility (1/GPa) = 0.04914383
#
# Stress axis : x y z
#
# Youngs Moduli (GPa) = 26.24816 121.74670 65.60893
#
# Poissons Ratio (x) = 0.30544 0.19254
# Poissons Ratio (y) = 0.06585 0.04996
# Poissons Ratio (z) = 0.07703 0.09270
#
# Static dielectric constant tensor:
#      x y z
#    x 1.772260 0.009800 0.016480 
#    y 0.009800 1.805950 0.026350 
#    z 0.016480 0.026350 1.776880 
# 
# From -- ./inp_files/436891.got.cif
#   From: 2010.05.17/outbox.cif.g08.bks.cpg/sg2_219_cif.got.tgz:436891.got - 2010.06.03 11:33:40.
