data_PCOD9107297
_publ_section_title
;
Structure prediction by ZEFSAII (Michael W. Deem and Ramdas Pophale) SiO2 
 PCOD9107297
Probable space group: P -1
;
_chemical_formula_sum "Si O2"
_cell_formula_units_Z 15
_cell_length_a 14.421855
_cell_length_b 14.060550
_cell_length_c 8.254139
_cell_angle_alpha 78.443428
_cell_angle_beta 120.007388
_cell_angle_gamma 149.727262
_cell_volume 619.391678
_symmetry_space_group_name_H-M "P -1"
_symmetry_group_IT_number 2
_symmetry_cell_setting 'triclinic'
loop_
_space_group_symop_operation_xyz
x,y,z
-x,-y,-z
loop_
_atom_site_type_symbol
_atom_site_label
_atom_site_fract_x
_atom_site_fract_y
_atom_site_fract_z
Si Si1 0.500000 0.500000 0.000000
Si Si2 0.296573 0.539952 0.752321
Si Si3 0.002904 0.982348 0.817163
Si Si4 0.811642 0.516905 0.658067
Si Si5 0.756760 0.005431 0.116466
Si Si6 0.769719 0.122735 0.563681
Si Si7 0.238576 0.728126 0.229510
Si Si8 0.634826 0.820069 0.424567
O O1 0.378935 0.510481 0.927617
O O2 0.226366 0.227661 0.857192
O O3 0.302234 0.513649 0.577454
O O4 0.021526 0.347699 0.614837
O O5 0.492156 0.782245 0.880878
O O6 0.065982 0.923638 0.849132
O O7 0.754668 0.815294 0.570423
O O8 0.000000 0.000000 0.000000
O O9 0.757852 0.361985 0.615462
O O10 0.655975 0.412341 0.718900
O O11 0.097151 0.774950 0.830598
O O12 0.719234 0.933006 0.289535
O O13 0.785675 0.192727 0.721818
O O14 0.511366 0.945784 0.316653
O O15 0.743552 0.985178 0.595083
O O16 0.000000 0.500000 0.000000
#
# Coordination Sequence:
#
# PCOD9107297 Si02
#       8
#     1   2   2   2   2   2   2   2
#     4  10  20  40  64 100 136 180 226 268 328 412
#     4  11  23  43  70  99 142 183 226 280 347 403
#     4  11  23  38  65  99 135 185 233 277 339 403
#     4  11  25  45  67 101 139 175 233 287 341 415
#     4  11  25  41  65 103 136 181 230 273 339 416
#     4  10  22  43  72  96 137 175 228 287 345 405
#     4  10  25  44  72 104 130 179 235 287 354 409
#     4  11  22  43  67  95 139 182 225 291 341 396
#
# _framework density 24.217310999999999
#
# number of rings (size 3 to 8) (size 9 to 14) (size 15 to 20)
#    0.000    1.333    2.667    2.000    3.733    8.533 
#    0.000    1.333    0.000    0.000    0.000    0.000 
#    0.000    0.000    0.000    0.000    0.000    0.000 
#
# Total GULP energy -83558.778558 kJ/mol
# GULP energy per Si atom -5570.585237 kJ/mol
# Density = 2.416219 g / cm^3
# Si number density = 24.217311 Si / 1000 Ang^3
#
#
#
# Elastic Constant Matrix: (Units=GPa)
#
#
# Indices 1 2 3 4 5 6 
#
# 1 88.2100 27.4833 24.5958 11.5809 0.7450 15.9642
# 2 27.4833 95.4011 34.8739 32.7562 -1.7907 9.8966
# 3 24.5958 34.8739 102.3194 28.8313 4.3471 18.7496
# 4 11.5809 32.7562 28.8313 43.9200 3.6222 -6.8538
# 5 0.7450 -1.7907 4.3471 3.6222 24.8039 11.4223
# 6 15.9642 9.8966 18.7496 -6.8538 11.4223 36.9509
#
#
#
# Elastic Compliance Matrix: (Units=1/GPa)
#
#
# Indices 1 2 3 4 5 6 
#
# 1 0.013680 -0.001931 -0.000739 -0.002941 0.002997 -0.006490
# 2 -0.001931 0.016864 -0.000134 -0.013888 0.007203 -0.008417
# 3 -0.000739 -0.000134 0.015038 -0.011566 0.003969 -0.010648
# 4 -0.002941 -0.013888 -0.011566 0.046786 -0.017159 0.024841
# 5 0.002997 0.007203 0.003969 -0.017159 0.054141 -0.025157
# 6 -0.006490 -0.008417 -0.010648 0.024841 -0.025157 0.049908
#
#
# Mechanical properties :
#
#
# Convention : Reuss Voigt Hill
#
# Bulk Modulus (GPa) = 25.01689 51.09293 38.05491
# Shear Modulus (GPa) = 23.21783 34.40014 28.80898
#
# Velocity S-wave (km/s) = 3.09969 3.77301 3.45280
# Velocity P-wave (km/s) = 4.81284 6.33437 5.62529
#
# Compressibility (1/GPa) = 0.03997300
#
# Stress axis : x y z
#
# Youngs Moduli (GPa) = 73.10021 59.29718 66.49723
#
# Poissons Ratio (x) = 0.11451 0.04917
# Poissons Ratio (y) = 0.14117 0.00891
# Poissons Ratio (z) = 0.05406 0.00795
#
# Static dielectric constant tensor:
#      x y z
#    x 1.950590 -0.000180 0.011060 
#    y -0.000180 1.942590 -0.040690 
#    z 0.011060 -0.040690 2.010920 
# 
# From -- ./inp_files/313224.got.cif
#   From: 2010.05.17/outbox.cif.g08.bks.cpg/sg2_157_cif.got.tgz:313224.got - 2010.06.03 11:33:40.
