data_PCOD9107882
_publ_section_title
;
Structure prediction by ZEFSAII (Michael W. Deem and Ramdas Pophale) SiO2 
 PCOD9107882
Probable space group: P -1
;
_chemical_formula_sum "Si O2"
_cell_formula_units_Z 16
_cell_length_a 15.886306
_cell_length_b 12.231721
_cell_length_c 9.323328
_cell_angle_alpha 68.044866
_cell_angle_beta 78.196973
_cell_angle_gamma 136.747249
_cell_volume 761.112393
_symmetry_space_group_name_H-M "P -1"
_symmetry_group_IT_number 2
_symmetry_cell_setting 'triclinic'
loop_
_space_group_symop_operation_xyz
x,y,z
-x,-y,-z
loop_
_atom_site_type_symbol
_atom_site_label
_atom_site_fract_x
_atom_site_fract_y
_atom_site_fract_z
Si Si1 0.650000 0.390308 0.344886
Si Si2 0.714553 0.177609 0.748091
Si Si3 0.358576 0.681421 0.937020
Si Si4 0.185562 0.208930 0.736183
Si Si5 0.297519 0.861115 0.889159
Si Si6 0.922376 0.174632 0.998216
Si Si7 0.102403 0.219833 0.451017
Si Si8 0.965096 0.266790 0.614973
O O1 0.605240 0.335914 0.218602
O O2 0.666533 0.536840 0.347344
O O3 0.487110 0.121633 0.612323
O O4 0.856752 0.582289 0.183341
O O5 0.822196 0.432286 0.582607
O O6 0.858254 0.252384 0.608589
O O7 0.540228 0.952255 0.818560
O O8 0.671514 0.100586 0.967768
O O9 0.237731 0.654790 0.972943
O O10 0.266371 0.476879 0.176558
O O11 0.163875 0.243710 0.571957
O O12 0.192414 0.076342 0.777700
O O13 0.000000 0.000000 0.000000
O O14 0.149961 0.785923 0.944624
O O15 0.887408 0.132350 0.860188
O O16 0.962063 0.156147 0.563157
O O17 0.000000 0.000000 0.500000
#
# Coordination Sequence:
#
# PCOD9107882 Si02
#       8
#     2   2   2   2   2   2   2   2
#     4  11  23  42  63  94 135 173 210 270 322 387
#     4  10  22  41  67  98 128 169 214 270 331 380
#     4  12  25  40  64 100 133 166 216 271 329 384
#     4  10  20  40  66  88 129 176 216 261 317 392
#     4  11  23  41  67  94 126 168 219 272 319 386
#     4  10  22  41  68  94 122 176 223 258 324 387
#     4  12  23  40  67  97 128 172 218 264 328 386
#     4  10  20  40  69  96 129 167 218 269 321 395
#
# _framework density 21.021864000000001
#
# number of rings (size 3 to 8) (size 9 to 14) (size 15 to 20)
#    0.000    1.250    3.750    3.750    0.000    1.000 
#    4.500    0.625    0.000    0.000    0.000    0.000 
#    0.000    0.000    0.000    0.000    0.000    0.000 
#
# Total GULP energy -89337.701021 kJ/mol
# GULP energy per Si atom -5583.606314 kJ/mol
# Density = 2.097402 g / cm^3
# Si number density = 21.021864 Si / 1000 Ang^3
#
#
#
# Elastic Constant Matrix: (Units=GPa)
#
#
# Indices 1 2 3 4 5 6 
#
# 1 85.1217 34.4604 36.5560 -5.1748 8.6405 -17.4400
# 2 34.4604 93.0606 39.3604 14.2064 1.2775 -22.9649
# 3 36.5560 39.3604 115.9680 7.1990 29.0823 -7.3418
# 4 -5.1748 14.2064 7.1990 29.9506 1.3914 1.9216
# 5 8.6405 1.2775 29.0823 1.3914 35.9763 -3.3879
# 6 -17.4400 -22.9649 -7.3418 1.9216 -3.3879 25.2415
#
#
#
# Elastic Compliance Matrix: (Units=1/GPa)
#
#
# Indices 1 2 3 4 5 6 
#
# 1 0.016553 -0.003698 -0.003772 0.005119 -0.000377 0.006535
# 2 -0.003698 0.019685 -0.005560 -0.009928 0.006515 0.015368
# 3 -0.003772 -0.005560 0.014119 -0.000590 -0.010754 -0.004957
# 4 0.005119 -0.009928 -0.000590 0.039836 -0.002795 -0.009076
# 5 -0.000377 0.006515 -0.010754 -0.002795 0.037186 0.007743
# 6 0.006535 0.015368 -0.004957 -0.009076 0.007743 0.058403
#
#
# Mechanical properties :
#
#
# Convention : Reuss Voigt Hill
#
# Bulk Modulus (GPa) = 41.15726 57.21156 49.18441
# Shear Modulus (GPa) = 22.73318 30.48523 26.60920
#
# Velocity S-wave (km/s) = 3.29204 3.81224 3.56165
# Velocity P-wave (km/s) = 5.83703 6.83022 6.35306
#
# Compressibility (1/GPa) = 0.02429705
#
# Stress axis : x y z
#
# Youngs Moduli (GPa) = 60.41047 50.79921 70.82568
#
# Poissons Ratio (x) = 0.18784 0.26718
# Poissons Ratio (y) = 0.22338 0.39381
# Poissons Ratio (z) = 0.22789 0.28246
#
# Static dielectric constant tensor:
#      x y z
#    x 1.833780 0.006620 -0.028980 
#    y 0.006620 1.745940 -0.017530 
#    z -0.028980 -0.017530 1.764150 
# 
# From -- ./inp_files/279604.got.cif
#   From: 2010.05.17/outbox.cif.g08.bks.cpg/sg2_140_cif.got.tgz:279604.got - 2010.06.03 11:33:40.
