data_PCOD9107897
_publ_section_title
;
Structure prediction by ZEFSAII (Michael W. Deem and Ramdas Pophale) SiO2 
 PCOD9107897
Probable space group: P -1
;
_chemical_formula_sum "Si O2"
_cell_formula_units_Z 16
_cell_length_a 18.469161
_cell_length_b 12.085237
_cell_length_c 7.135971
_cell_angle_alpha 123.512383
_cell_angle_beta 96.383460
_cell_angle_gamma 132.089659
_cell_volume 619.384742
_symmetry_space_group_name_H-M "P -1"
_symmetry_group_IT_number 2
_symmetry_cell_setting 'triclinic'
loop_
_space_group_symop_operation_xyz
x,y,z
-x,-y,-z
loop_
_atom_site_type_symbol
_atom_site_label
_atom_site_fract_x
_atom_site_fract_y
_atom_site_fract_z
Si Si1 0.383204 0.125038 0.541208
Si Si2 0.817619 0.707467 0.695797
Si Si3 0.211822 0.061101 0.183751
Si Si4 0.744135 0.647442 0.055705
Si Si5 0.315080 0.725594 0.220381
Si Si6 0.671931 0.224780 0.287702
Si Si7 0.920249 0.443452 0.594399
Si Si8 0.212945 0.998340 0.681463
O O1 0.317456 0.126690 0.380703
O O2 0.562302 0.385049 0.791989
O O3 0.353926 0.151626 0.757508
O O4 0.292765 0.837456 0.234715
O O5 0.747815 0.719183 0.574933
O O6 0.772166 0.655481 0.852600
O O7 0.759973 0.469077 0.408636
O O8 0.000000 0.000000 0.000000
O O9 0.228786 0.062486 0.965809
O O10 0.037080 0.755878 0.931144
O O11 0.775213 0.560872 0.099602
O O12 0.824261 0.921212 0.355140
O O13 0.293381 0.712709 0.423693
O O14 0.500000 0.000000 0.500000
O O15 0.746518 0.202774 0.253665
O O16 0.500000 0.000000 0.000000
O O17 0.000000 0.500000 0.500000
O O18 0.910194 0.319727 0.639628
#
# Coordination Sequence:
#
# PCOD9107897 Si02
#       8
#     2   2   2   2   2   2   2   2
#     4  11  21  40  67  96 128 171 221 269 332 400
#     4  10  20  40  66  89 134 175 216 269 335 397
#     4  10  23  40  67  96 130 174 218 266 341 400
#     4   9  21  38  64  90 129 172 214 274 329 388
#     4   9  20  40  59  91 131 169 211 272 332 388
#     4  11  22  39  68  98 124 174 229 271 334 399
#     4  10  21  38  62  95 133 166 221 276 330 400
#     4  10  21  39  63  94 130 168 217 276 328 389
#
# _framework density 25.832084999999999
#
# number of rings (size 3 to 8) (size 9 to 14) (size 15 to 20)
#    0.000    2.000    2.500    0.375    0.000    9.500 
#    4.500    0.000    0.000    3.750    0.000    0.000 
#    0.000    0.000    0.000    0.000    0.000    0.000 
#
# Total GULP energy -89260.552304 kJ/mol
# GULP energy per Si atom -5578.784519 kJ/mol
# Density = 2.577329 g / cm^3
# Si number density = 25.832085 Si / 1000 Ang^3
#
#
#
# Elastic Constant Matrix: (Units=GPa)
#
#
# Indices 1 2 3 4 5 6 
#
# 1 159.0954 54.6951 30.0501 5.7094 -15.1398 -30.0749
# 2 54.6951 158.2539 30.1157 10.0626 -6.8053 -21.2677
# 3 30.0501 30.1157 41.0817 4.7726 6.4672 -14.5113
# 4 5.7094 10.0626 4.7726 33.5840 -5.8087 1.3093
# 5 -15.1398 -6.8053 6.4672 -5.8087 33.7598 24.3697
# 6 -30.0749 -21.2677 -14.5113 1.3093 24.3697 60.4393
#
#
#
# Elastic Compliance Matrix: (Units=1/GPa)
#
#
# Indices 1 2 3 4 5 6 
#
# 1 0.008355 -0.001634 -0.005396 0.000518 0.004087 0.000628
# 2 -0.001634 0.007932 -0.004502 -0.001271 0.001188 0.000446
# 3 -0.005396 -0.004502 0.041939 -0.008489 -0.024179 0.015734
# 4 0.000518 -0.001271 -0.008489 0.033941 0.013515 -0.008412
# 5 0.004087 0.001188 -0.024179 0.013515 0.058232 -0.027126
# 6 0.000628 0.000446 0.015734 -0.008412 -0.027126 0.031912
#
#
# Mechanical properties :
#
#
# Convention : Reuss Voigt Hill
#
# Bulk Modulus (GPa) = 28.43817 65.35030 46.89423
# Shear Modulus (GPa) = 23.03139 41.79462 32.41301
#
# Velocity S-wave (km/s) = 2.98917 4.02672 3.54610
# Velocity P-wave (km/s) = 4.79023 6.85364 5.91264
#
# Compressibility (1/GPa) = 0.03516401
#
# Stress axis : x y z
#
# Youngs Moduli (GPa) = 119.68223 126.07004 23.84412
#
# Poissons Ratio (x) = 0.20596 0.12866
# Poissons Ratio (y) = 0.19553 0.10734
# Poissons Ratio (z) = 0.64580 0.56752
#
# Static dielectric constant tensor:
#      x y z
#    x 1.775490 -0.095380 -0.113560 
#    y -0.095380 1.995590 0.032370 
#    z -0.113560 0.032370 2.099580 
# 
# From -- ./inp_files/333619.got.cif
#   From: 2010.05.17/outbox.cif.g08.bks.cpg/sg2_167_cif.got.tgz:333619.got - 2010.06.03 11:33:40.
