data_PCOD9107191
_publ_section_title
;
Structure prediction by ZEFSAII (Michael W. Deem and Ramdas Pophale) SiO2 
 PCOD9107191
Probable space group: P -1
;
_chemical_formula_sum "Si O2"
_cell_formula_units_Z 16
_cell_length_a 5.483649
_cell_length_b 10.955727
_cell_length_c 11.108012
_cell_angle_alpha 98.398729
_cell_angle_beta 87.367615
_cell_angle_gamma 92.543172
_cell_volume 659.007422
_symmetry_space_group_name_H-M "P -1"
_symmetry_group_IT_number 2
_symmetry_cell_setting 'triclinic'
loop_
_space_group_symop_operation_xyz
x,y,z
-x,-y,-z
loop_
_atom_site_type_symbol
_atom_site_label
_atom_site_fract_x
_atom_site_fract_y
_atom_site_fract_z
Si Si1 0.971925 0.773501 0.643341
Si Si2 0.393492 0.884430 0.063161
Si Si3 0.699495 0.604300 0.486880
Si Si4 0.681464 0.262439 0.606175
Si Si5 0.997427 0.569306 0.242630
Si Si6 0.744663 0.000603 0.579024
Si Si7 0.113379 0.703314 0.881787
Si Si8 0.876275 0.803149 0.115230
O O1 0.798936 0.651349 0.618350
O O2 0.143759 0.750563 0.518658
O O3 0.119418 0.768873 0.761521
O O4 0.794771 0.887983 0.650496
O O5 0.336510 0.759918 0.965255
O O6 0.615774 0.861019 0.145670
O O7 0.114738 0.897553 0.119664
O O8 0.500000 0.000000 0.000000
O O9 0.500000 0.500000 0.500000
O O10 0.582621 0.721464 0.441436
O O11 0.874365 0.555625 0.374507
O O12 0.731213 0.136464 0.652932
O O13 0.736266 0.377023 0.711269
O O14 0.931756 0.443211 0.156313
O O15 0.907393 0.687003 0.186134
O O16 0.500000 0.000000 0.500000
O O17 0.000000 0.000000 0.500000
O O18 0.886864 0.749427 0.971496
#
# Coordination Sequence:
#
# PCOD9107191 Si02
#       8
#     2   2   2   2   2   2   2   2
#     4  10  21  41  61  98 134 174 226 278 344 402
#     4  10  24  48  73 101 138 174 233 287 349 409
#     4  11  22  36  65  94 138 181 227 281 337 409
#     4  10  22  38  63  94 135 176 225 279 339 408
#     4  11  24  43  64 102 137 184 233 283 345 409
#     4  10  20  40  63  90 130 173 223 271 329 400
#     4  10  24  41  70  99 138 181 230 284 346 409
#     4  10  25  46  73 100 136 180 230 288 346 408
#
# _framework density 24.278938
#
# number of rings (size 3 to 8) (size 9 to 14) (size 15 to 20)
#    0.750    1.000    1.250    2.250    1.750    6.500 
#    0.000    0.000    0.000    0.000    0.000    0.000 
#    0.000    0.000    0.000    0.000    0.000    0.000 
#
# Total GULP energy -89137.244114 kJ/mol
# GULP energy per Si atom -5571.077757 kJ/mol
# Density = 2.422368 g / cm^3
# Si number density = 24.278938 Si / 1000 Ang^3
#
#
#
# Elastic Constant Matrix: (Units=GPa)
#
#
# Indices 1 2 3 4 5 6 
#
# 1 123.5919 32.3517 12.9148 -3.0281 10.3426 0.4964
# 2 32.3517 110.3561 3.5317 0.3553 -6.0592 -1.0232
# 3 12.9148 3.5317 63.1914 -4.5626 0.1183 10.2230
# 4 -3.0281 0.3553 -4.5626 33.1593 -1.0566 10.1937
# 5 10.3426 -6.0592 0.1183 -1.0566 27.2499 -5.4357
# 6 0.4964 -1.0232 10.2230 10.1937 -5.4357 39.8419
#
#
#
# Elastic Compliance Matrix: (Units=1/GPa)
#
#
# Indices 1 2 3 4 5 6 
#
# 1 0.009411 -0.002951 -0.001612 0.000700 -0.004303 -0.000546
# 2 -0.002951 0.010138 -0.000170 -0.000588 0.003547 0.000975
# 3 -0.001612 -0.000170 0.017336 0.003915 -0.000446 -0.005495
# 4 0.000700 -0.000588 0.003915 0.033748 -0.001061 -0.009808
# 5 -0.004303 0.003547 -0.000446 -0.001061 0.040282 0.006026
# 6 -0.000546 0.000975 -0.005495 -0.009808 0.006026 0.029873
#
#
# Mechanical properties :
#
#
# Convention : Reuss Voigt Hill
#
# Bulk Modulus (GPa) = 36.47042 43.85954 40.16498
# Shear Modulus (GPa) = 31.36885 36.60631 33.98758
#
# Velocity S-wave (km/s) = 3.59837 3.88717 3.74555
# Velocity P-wave (km/s) = 5.68492 6.18473 5.94009
#
# Compressibility (1/GPa) = 0.02741948
#
# Stress axis : x y z
#
# Youngs Moduli (GPa) = 106.25357 98.64063 57.68220
#
# Poissons Ratio (x) = 0.29109 0.09296
# Poissons Ratio (y) = 0.31356 0.00983
# Poissons Ratio (z) = 0.17125 0.01681
#
# Static dielectric constant tensor:
#      x y z
#    x 1.992020 -0.012280 0.032180 
#    y -0.012280 2.020950 0.014620 
#    z 0.032180 0.014620 1.909940 
# 
# From -- ./inp_files/364779.got.cif
#   From: 2010.05.17/outbox.cif.g08.bks.cpg/sg2_183_cif.got.tgz:364779.got - 2010.06.03 11:33:40.
