data_PCOD9107109
_publ_section_title
;
Structure prediction by ZEFSAII (Michael W. Deem and Ramdas Pophale) SiO2 
 PCOD9107109
Probable space group: P -1
;
_chemical_formula_sum "Si O2"
_cell_formula_units_Z 16
_cell_length_a 8.852471
_cell_length_b 13.423747
_cell_length_c 9.038286
_cell_angle_alpha 94.168619
_cell_angle_beta 130.187371
_cell_angle_gamma 102.787500
_cell_volume 765.943884
_symmetry_space_group_name_H-M "P -1"
_symmetry_group_IT_number 2
_symmetry_cell_setting 'triclinic'
loop_
_space_group_symop_operation_xyz
x,y,z
-x,-y,-z
loop_
_atom_site_type_symbol
_atom_site_label
_atom_site_fract_x
_atom_site_fract_y
_atom_site_fract_z
Si Si1 0.152925 0.662644 0.399788
Si Si2 0.973539 0.205600 0.886484
Si Si3 0.278939 0.492021 0.294175
Si Si4 0.442964 0.885193 0.024762
Si Si5 0.711190 0.496447 0.055307
Si Si6 0.880401 0.311897 0.121802
Si Si7 0.373987 0.990058 0.270763
Si Si8 0.572032 0.790272 0.839678
O O1 0.232782 0.598550 0.318866
O O2 0.345522 0.703159 0.642343
O O3 0.106710 0.764302 0.315768
O O4 0.918615 0.578413 0.278120
O O5 0.225285 0.242289 0.061579
O O6 0.884475 0.267900 0.955383
O O7 0.866819 0.082130 0.850299
O O8 0.500000 0.500000 0.500000
O O9 0.268592 0.477078 0.107138
O O10 0.112351 0.399733 0.278631
O O11 0.463623 0.919427 0.211117
O O12 0.205860 0.796795 0.849174
O O13 0.579862 0.828230 0.018933
O O14 0.500000 0.000000 0.000000
O O15 0.500000 0.500000 0.000000
O O16 0.728773 0.379373 0.058998
O O17 0.500000 0.000000 0.500000
O O18 0.400615 0.103465 0.228150
#
# Coordination Sequence:
#
# PCOD9107109 Si02
#       8
#     2   2   2   2   2   2   2   2
#     4  11  22  39  63  92 128 166 217 264 316 388
#     4  11  20  38  66  91 126 171 213 261 320 384
#     4  11  22  40  64  94 125 172 219 259 322 398
#     4   9  22  40  64  94 132 166 209 273 321 372
#     4  11  24  40  63  95 130 168 216 271 328 381
#     4  10  20  40  63  85 132 170 207 270 317 376
#     4  10  20  40  67  95 129 172 214 261 322 385
#     4  11  23  39  66  95 128 170 217 267 324 380
#
# _framework density 20.889258000000002
#
# number of rings (size 3 to 8) (size 9 to 14) (size 15 to 20)
#    0.000    1.500    3.750    1.875    1.750    1.000 
#    0.000    3.125    5.500    0.000    0.000    0.000 
#    0.000    0.000    0.000    0.000    0.000    0.000 
#
# Total GULP energy -89073.612978 kJ/mol
# GULP energy per Si atom -5567.100811 kJ/mol
# Density = 2.084171 g / cm^3
# Si number density = 20.889258 Si / 1000 Ang^3
#
#
#
# Elastic Constant Matrix: (Units=GPa)
#
#
# Indices 1 2 3 4 5 6 
#
# 1 133.7991 46.0168 53.1359 9.7029 9.0208 -4.2762
# 2 46.0168 114.5587 33.4508 15.2991 12.7079 7.0056
# 3 53.1359 33.4508 96.0147 12.1513 12.2402 0.2052
# 4 9.7029 15.2991 12.1513 22.9945 -1.2560 0.1379
# 5 9.0208 12.7079 12.2402 -1.2560 35.1236 2.5899
# 6 -4.2762 7.0056 0.2052 0.1379 2.5899 22.8574
#
#
#
# Elastic Compliance Matrix: (Units=1/GPa)
#
#
# Indices 1 2 3 4 5 6 
#
# 1 0.010494 -0.002995 -0.004755 0.000050 -0.000170 0.002943
# 2 -0.002995 0.011653 -0.001265 -0.005959 -0.002943 -0.003751
# 3 -0.004755 -0.001265 0.014582 -0.005051 -0.003569 -0.000198
# 4 0.000050 -0.005959 -0.005051 0.050404 0.005637 0.000938
# 5 -0.000170 -0.002943 -0.003569 0.005637 0.031221 -0.002669
# 6 0.002943 -0.003751 -0.000198 0.000938 -0.002669 0.045748
#
#
# Mechanical properties :
#
#
# Convention : Reuss Voigt Hill
#
# Bulk Modulus (GPa) = 53.47870 67.73105 60.60488
# Shear Modulus (GPa) = 26.54403 30.31305 28.42854
#
# Velocity S-wave (km/s) = 3.56856 3.81350 3.69306
# Velocity P-wave (km/s) = 6.52963 7.20310 6.87462
#
# Compressibility (1/GPa) = 0.01869903
#
# Stress axis : x y z
#
# Youngs Moduli (GPa) = 95.29106 85.81337 68.57696
#
# Poissons Ratio (x) = 0.25698 0.32610
# Poissons Ratio (y) = 0.28537 0.08677
# Poissons Ratio (z) = 0.45314 0.10858
#
# Static dielectric constant tensor:
#      x y z
#    x 1.884630 0.201170 -0.019360 
#    y 0.201170 2.033240 0.033520 
#    z -0.019360 0.033520 1.746310 
# 
# From -- ./inp_files/202310.got.cif
#   From: 2010.05.17/outbox.cif.g08.bks.cpg/sg2_102_cif.got.tgz:202310.got - 2010.06.03 11:33:40.
