data_PCOD9107339
_publ_section_title
;
Structure prediction by ZEFSAII (Michael W. Deem and Ramdas Pophale) SiO2 
 PCOD9107339
Probable space group: P -1
;
_chemical_formula_sum "Si O2"
_cell_formula_units_Z 15
_cell_length_a 15.509649
_cell_length_b 15.494751
_cell_length_c 8.871616
_cell_angle_alpha 52.299076
_cell_angle_beta 70.596065
_cell_angle_gamma 29.714767
_cell_volume 720.647610
_symmetry_space_group_name_H-M "P -1"
_symmetry_group_IT_number 2
_symmetry_cell_setting 'triclinic'
loop_
_space_group_symop_operation_xyz
x,y,z
-x,-y,-z
loop_
_atom_site_type_symbol
_atom_site_label
_atom_site_fract_x
_atom_site_fract_y
_atom_site_fract_z
Si Si1 0.491350 0.676808 0.928055
Si Si2 0.250092 0.008206 0.229636
Si Si3 0.477331 0.453456 0.284938
Si Si4 0.833791 0.596056 0.562114
Si Si5 0.889677 0.881391 0.132782
Si Si6 0.420089 0.060979 0.146991
Si Si7 0.811311 0.524827 0.977047
Si Si8 0.000000 0.000000 0.000000
O O1 0.493542 0.638285 0.794545
O O2 0.642829 0.613736 0.942381
O O3 0.265962 0.950479 0.818194
O O4 0.543987 0.508998 0.166678
O O5 0.336947 0.026749 0.229432
O O6 0.390717 0.756117 0.452123
O O7 0.223436 0.047602 0.022585
O O8 0.024125 0.238020 0.181018
O O9 0.240796 0.709102 0.183678
O O10 0.839458 0.572737 0.763048
O O11 0.000000 0.500000 0.500000
O O12 0.907411 0.402737 0.656502
O O13 0.610778 0.865745 0.355839
O O14 0.951293 0.938816 0.002650
O O15 0.257548 0.323647 0.010576
O O16 0.500000 0.000000 0.000000
#
# Coordination Sequence:
#
# PCOD9107339 Si02
#       8
#     2   2   2   2   2   2   2   1
#     4  10  21  40  61  87 121 159 202 247 304 372
#     4  11  23  40  61  89 122 159 203 255 309 356
#     4  10  22  39  63  90 119 158 204 252 304 364
#     4  11  23  41  65  89 120 165 211 250 305 370
#     4  10  22  40  63  89 122 160 206 253 303 364
#     4  12  24  39  61  92 127 161 207 257 307 362
#     4  11  23  41  62  86 125 165 203 253 308 367
#     4  10  20  40  64  86 116 158 200 242 296 364
#
# _framework density 20.814610999999999
#
# number of rings (size 3 to 8) (size 9 to 14) (size 15 to 20)
#    0.000    1.333    0.000    7.200    0.000    4.800 
#    0.000    6.667    0.000    0.000    0.000    0.000 
#    0.000    0.000    0.000    0.000    0.000    0.000 
#
# Total GULP energy -83546.129658 kJ/mol
# GULP energy per Si atom -5569.741977 kJ/mol
# Density = 2.076724 g / cm^3
# Si number density = 20.814611 Si / 1000 Ang^3
#
#
#
# Elastic Constant Matrix: (Units=GPa)
#
#
# Indices 1 2 3 4 5 6 
#
# 1 76.5677 2.0169 -11.3766 9.4307 -1.5702 0.2649
# 2 2.0169 88.8709 28.8000 -22.7861 -13.8594 21.2447
# 3 -11.3766 28.8000 64.0787 -18.7040 -4.1563 -5.4093
# 4 9.4307 -22.7861 -18.7040 26.2146 -1.4447 -6.2724
# 5 -1.5702 -13.8594 -4.1563 -1.4447 18.2779 -9.4553
# 6 0.2649 21.2447 -5.4093 -6.2724 -9.4553 29.8371
#
#
#
# Elastic Compliance Matrix: (Units=1/GPa)
#
#
# Indices 1 2 3 4 5 6 
#
# 1 0.014150 -0.002765 0.002109 -0.005801 -0.000406 0.000877
# 2 -0.002765 0.020417 -0.006261 0.012417 0.009637 -0.009984
# 3 0.002109 -0.006261 0.025685 0.016558 0.010871 0.016022
# 4 -0.005801 0.012417 0.016558 0.068427 0.026957 0.017140
# 5 -0.000406 0.009637 0.010871 0.026957 0.080125 0.026171
# 6 0.000877 -0.009984 0.016022 0.017140 0.026171 0.055417
#
#
# Mechanical properties :
#
#
# Convention : Reuss Voigt Hill
#
# Bulk Modulus (GPa) = 21.54306 29.82197 25.68252
# Shear Modulus (GPa) = 17.03419 28.87105 22.95262
#
# Velocity S-wave (km/s) = 2.86383 3.72836 3.32432
# Velocity P-wave (km/s) = 4.61604 5.73522 5.20579
#
# Compressibility (1/GPa) = 0.04641866
#
# Stress axis : x y z
#
# Youngs Moduli (GPa) = 70.67256 48.97872 38.93339
#
# Poissons Ratio (x) = 0.13544 -0.08212
# Poissons Ratio (y) = 0.19543 0.24375
# Poissons Ratio (z) = -0.14907 0.30664
#
# Static dielectric constant tensor:
#      x y z
#    x 1.769270 -0.014280 -0.032760 
#    y -0.014280 1.743600 0.010580 
#    z -0.032760 0.010580 1.747220 
# 
# From -- ./inp_files/293942.got.cif
#   From: 2010.05.17/outbox.cif.g08.bks.cpg/sg2_147_cif.got.tgz:293942.got - 2010.06.03 11:33:40.
