data_PCOD9107233
_publ_section_title
;
Structure prediction by ZEFSAII (Michael W. Deem and Ramdas Pophale) SiO2 
 PCOD9107233
Probable space group: P -1
;
_chemical_formula_sum "Si O2"
_cell_formula_units_Z 12
_cell_length_a 7.343921
_cell_length_b 10.191219
_cell_length_c 12.335037
_cell_angle_alpha 65.186092
_cell_angle_beta 66.936453
_cell_angle_gamma 115.803241
_cell_volume 536.573845
_symmetry_space_group_name_H-M "P -1"
_symmetry_group_IT_number 2
_symmetry_cell_setting 'triclinic'
loop_
_space_group_symop_operation_xyz
x,y,z
-x,-y,-z
loop_
_atom_site_type_symbol
_atom_site_label
_atom_site_fract_x
_atom_site_fract_y
_atom_site_fract_z
Si Si1 0.325122 0.517236 0.868394
Si Si2 0.275928 0.754065 0.146290
Si Si3 0.299575 0.234600 0.827729
Si Si4 0.832624 0.559783 0.487968
Si Si5 0.063366 0.636414 0.789265
Si Si6 0.940045 0.799455 0.596352
O O1 0.257021 0.368453 0.842357
O O2 0.318754 0.675407 0.765453
O O3 0.641217 0.641583 0.785638
O O4 0.098421 0.384050 0.062559
O O5 0.464008 0.731291 0.171654
O O6 0.005644 0.682637 0.296184
O O7 0.147700 0.596849 0.130640
O O8 0.500000 0.000000 0.000000
O O9 0.491858 0.353530 0.632192
O O10 0.000000 0.000000 0.000000
O O11 0.000000 0.500000 0.500000
O O12 0.895237 0.705957 0.519762
O O13 0.871527 0.211451 0.371205
O O14 0.000000 0.000000 0.500000
#
# Coordination Sequence:
#
# PCOD9107233 Si02
#       6
#     2   2   2   2   2   2
#     4  10  23  41  63  93 130 172 218 268 318 395
#     4  11  22  37  69  94 124 179 217 268 341 382
#     4  10  20  40  63  93 130 165 217 272 326 393
#     4   9  19  41  62  91 129 169 212 272 322 391
#     4  11  22  42  63  91 134 170 218 270 321 396
#     4  11  23  40  67  91 134 170 215 271 334 385
#
# _framework density 22.364115999999999
#
# number of rings (size 3 to 8) (size 9 to 14) (size 15 to 20)
#    0.000    1.667    5.000    1.500    2.333    0.667 
#    3.000    9.167    0.000    0.000    0.000    0.000 
#    0.000    0.000    0.000    0.000    0.000    0.000 
#
# Total GULP energy -66845.940502 kJ/mol
# GULP energy per Si atom -5570.495042 kJ/mol
# Density = 2.231321 g / cm^3
# Si number density = 22.364116 Si / 1000 Ang^3
#
#
#
# Elastic Constant Matrix: (Units=GPa)
#
#
# Indices 1 2 3 4 5 6 
#
# 1 96.1932 20.7029 21.0248 6.4115 -3.8923 -9.4731
# 2 20.7029 69.0106 45.6736 3.3127 -5.9526 -28.5507
# 3 21.0248 45.6736 134.0549 0.3968 -28.1614 -8.9445
# 4 6.4115 3.3127 0.3968 33.5177 -7.6743 1.1134
# 5 -3.8923 -5.9526 -28.1614 -7.6743 48.6296 -2.3952
# 6 -9.4731 -28.5507 -8.9445 1.1134 -2.3952 37.3683
#
#
#
# Elastic Compliance Matrix: (Units=1/GPa)
#
#
# Indices 1 2 3 4 5 6 
#
# 1 0.011318 -0.002287 -0.000971 -0.002006 -0.000207 0.000936
# 2 -0.002287 0.028846 -0.008381 -0.003202 -0.001051 0.019482
# 3 -0.000971 -0.008381 0.011415 0.002302 0.005692 -0.003621
# 4 -0.002006 -0.003202 0.002302 0.031905 0.005668 -0.002991
# 5 -0.000207 -0.001051 0.005692 0.005668 0.024704 0.001921
# 6 0.000936 0.019482 -0.003621 -0.002991 0.001921 0.041228
#
#
# Mechanical properties :
#
#
# Convention : Reuss Voigt Hill
#
# Bulk Modulus (GPa) = 35.33468 52.67348 44.00408
# Shear Modulus (GPa) = 27.45336 38.02694 32.74015
#
# Velocity S-wave (km/s) = 3.50746 4.12801 3.83032
# Velocity P-wave (km/s) = 5.67777 6.80621 6.26744
#
# Compressibility (1/GPa) = 0.02830080
#
# Stress axis : x y z
#
# Youngs Moduli (GPa) = 88.35744 34.66634 87.60723
#
# Poissons Ratio (x) = 0.07929 0.08505
# Poissons Ratio (y) = 0.20208 0.73423
# Poissons Ratio (z) = 0.08578 0.29054
#
# Static dielectric constant tensor:
#      x y z
#    x 1.904200 0.019190 0.105000 
#    y 0.019190 1.819190 -0.031840 
#    z 0.105000 -0.031840 2.023130 
# 
# From -- ./inp_files/379060.got.cif
#   From: 2010.05.17/outbox.cif.g08.bks.cpg/sg2_190_cif.got.tgz:379060.got - 2010.06.03 11:33:40.
