data_PCOD9107865
_publ_section_title
;
Structure prediction by ZEFSAII (Michael W. Deem and Ramdas Pophale) SiO2 
 PCOD9107865
Probable space group: P -1
;
_chemical_formula_sum "Si O2"
_cell_formula_units_Z 13
_cell_length_a 6.516411
_cell_length_b 27.537252
_cell_length_c 16.042255
_cell_angle_alpha 162.191571
_cell_angle_beta 57.210052
_cell_angle_gamma 130.275738
_cell_volume 637.090661
_symmetry_space_group_name_H-M "P -1"
_symmetry_group_IT_number 2
_symmetry_cell_setting 'triclinic'
loop_
_space_group_symop_operation_xyz
x,y,z
-x,-y,-z
loop_
_atom_site_type_symbol
_atom_site_label
_atom_site_fract_x
_atom_site_fract_y
_atom_site_fract_z
Si Si1 0.836771 0.090471 0.574836
Si Si2 0.753535 0.677405 0.279345
Si Si3 0.319981 0.787322 0.608468
Si Si4 0.227558 0.424394 0.708190
Si Si5 0.000000 0.500000 0.500000
Si Si6 0.486226 0.803572 0.783606
Si Si7 0.157831 0.263802 0.953982
O O1 0.987540 0.208191 0.652295
O O2 0.975468 0.215371 0.830476
O O3 0.500000 0.000000 0.500000
O O4 0.903969 0.925050 0.298259
O O5 0.607442 0.794941 0.530535
O O6 0.834440 0.617571 0.249353
O O7 0.500000 0.500000 0.000000
O O8 0.304407 0.769533 0.682788
O O9 0.050090 0.615219 0.344780
O O10 0.341230 0.976677 0.885251
O O11 0.315606 0.281579 0.417621
O O12 0.508706 0.621716 0.956535
O O13 0.723816 0.302158 0.267792
O O14 0.903002 0.608912 0.764898
#
# Coordination Sequence:
#
# PCOD9107865 Si02
#       7
#     2   2   2   2   1   2   2
#     4  11  25  43  64  90 132 167 205 260 321 374
#     4  11  23  39  60  91 120 156 212 252 297 372
#     4  10  21  38  62  86 126 160 201 254 312 359
#     4  10  21  38  65  90 119 160 209 253 309 372
#     4  10  20  40  66  86 128 162 204 264 316 358
#     4   9  20  38  58  91 123 158 202 256 303 373
#     4  10  23  42  62  94 126 165 210 261 314 377
#
# _framework density 20.405256999999999
#
# number of rings (size 3 to 8) (size 9 to 14) (size 15 to 20)
#    0.000    1.846    1.538    1.385    2.154    4.308 
#    0.000   10.000    0.000    0.000    0.000    0.000 
#    0.000    0.000    0.000    0.000    0.000    0.000 
#
# Total GULP energy -72396.442396 kJ/mol
# GULP energy per Si atom -5568.957107 kJ/mol
# Density = 2.035881 g / cm^3
# Si number density = 20.405257 Si / 1000 Ang^3
#
#
#
# Elastic Constant Matrix: (Units=GPa)
#
#
# Indices 1 2 3 4 5 6 
#
# 1 44.3387 33.6075 15.0348 3.7227 22.2805 13.1500
# 2 33.6075 153.1962 20.9226 13.6442 17.2593 4.8679
# 3 15.0348 20.9226 72.1785 1.1674 5.2285 3.0171
# 4 3.7227 13.6442 1.1674 29.4657 7.2104 1.1537
# 5 22.2805 17.2593 5.2285 7.2104 40.9801 6.5404
# 6 13.1500 4.8679 3.0171 1.1537 6.5404 18.0461
#
#
#
# Elastic Compliance Matrix: (Units=1/GPa)
#
#
# Indices 1 2 3 4 5 6 
#
# 1 0.045210 -0.006695 -0.005232 0.002884 -0.017769 -0.024008
# 2 -0.006695 0.008294 -0.001107 -0.003158 0.000383 0.002890
# 3 -0.005232 -0.001107 0.015130 0.000247 0.001154 0.001148
# 4 0.002884 -0.003158 0.000247 0.036671 -0.006519 -0.001273
# 5 -0.017769 0.000383 0.001154 -0.006519 0.034830 0.000445
# 6 -0.024008 0.002890 0.001148 -0.001273 0.000445 0.071856
#
#
# Mechanical properties :
#
#
# Convention : Reuss Voigt Hill
#
# Bulk Modulus (GPa) = 23.49412 45.42701 34.46056
# Shear Modulus (GPa) = 19.82175 31.04161 25.43168
#
# Velocity S-wave (km/s) = 3.12012 3.90456 3.53417
# Velocity P-wave (km/s) = 4.95166 6.52979 5.79470
#
# Compressibility (1/GPa) = 0.04256385
#
# Stress axis : x y z
#
# Youngs Moduli (GPa) = 22.11912 120.57129 66.09499
#
# Poissons Ratio (x) = 0.80728 0.34583
# Poissons Ratio (y) = 0.14810 0.07316
# Poissons Ratio (z) = 0.11573 0.13347
#
# Static dielectric constant tensor:
#      x y z
#    x 1.731290 -0.000440 -0.018420 
#    y -0.000440 1.688820 0.003160 
#    z -0.018420 0.003160 1.740280 
# 
# From -- ./inp_files/25362.got.cif
#   From: 2010.05.17/outbox.cif.g08.bks.cpg/sg2_13_cif.got.tgz:25362.got - 2010.06.03 11:33:40.
