data_PCOD9107845
_publ_section_title
;
Structure prediction by ZEFSAII (Michael W. Deem and Ramdas Pophale) SiO2 
 PCOD9107845
Probable space group: P -1
;
_chemical_formula_sum "Si O2"
_cell_formula_units_Z 14
_cell_length_a 11.898510
_cell_length_b 16.705477
_cell_length_c 11.002512
_cell_angle_alpha 33.073392
_cell_angle_beta 39.615945
_cell_angle_gamma 27.296708
_cell_volume 544.430100
_symmetry_space_group_name_H-M "P -1"
_symmetry_group_IT_number 2
_symmetry_cell_setting 'triclinic'
loop_
_space_group_symop_operation_xyz
x,y,z
-x,-y,-z
loop_
_atom_site_type_symbol
_atom_site_label
_atom_site_fract_x
_atom_site_fract_y
_atom_site_fract_z
Si Si1 0.881064 0.243799 0.745975
Si Si2 0.976424 0.031762 0.675067
Si Si3 0.582812 0.291570 0.156289
Si Si4 0.724093 0.672472 0.951845
Si Si5 0.635487 0.872474 0.411355
Si Si6 0.649350 0.966392 0.031643
Si Si7 0.586458 0.433541 0.372517
O O1 0.651399 0.487100 0.601332
O O2 0.135045 0.169431 0.671265
O O3 0.767740 0.210214 0.991412
O O4 0.098462 0.851816 0.279358
O O5 0.835194 0.197767 0.476259
O O6 0.899981 0.907710 0.882439
O O7 0.266090 0.864736 0.656782
O O8 0.393349 0.269346 0.324086
O O9 0.500000 0.500000 0.000000
O O10 0.616852 0.876268 0.704155
O O11 0.533089 0.803312 0.054942
O O12 0.661929 0.548507 0.109633
O O13 0.000000 0.500000 0.000000
O O14 0.691543 0.825105 0.281864
O O15 0.500000 0.000000 0.000000
O O16 0.500000 0.500000 0.500000
#
# Coordination Sequence:
#
# PCOD9107845 Si02
#       7
#     2   2   2   2   2   2   2
#     4  11  23  48  77 101 143 186 240 296 353 421
#     4  11  23  49  71 103 147 187 236 297 353 422
#     4  12  27  47  69 108 147 185 238 290 356 426
#     4  10  20  40  66 105 139 169 237 292 342 418
#     4  10  24  46  74 104 143 187 237 291 358 417
#     4  10  22  44  69  98 144 193 229 280 360 423
#     4  10  20  41  70 104 132 181 234 286 353 410
#
# _framework density 25.714962
#
# number of rings (size 3 to 8) (size 9 to 14) (size 15 to 20)
#    0.857    0.571    4.286    1.286    2.000    2.286 
#   10.286    1.429    0.000    0.000    0.000    0.000 
#    0.000    0.000    0.000    0.000    0.000    0.000 
#
# Total GULP energy -78047.805068 kJ/mol
# GULP energy per Si atom -5574.843219 kJ/mol
# Density = 2.565643 g / cm^3
# Si number density = 25.714962 Si / 1000 Ang^3
#
#
#
# Elastic Constant Matrix: (Units=GPa)
#
#
# Indices 1 2 3 4 5 6 
#
# 1 138.5216 32.3164 57.7128 6.1327 -8.2012 -29.0925
# 2 32.3164 87.6976 39.6559 -24.9235 -1.8070 -32.3608
# 3 57.7128 39.6559 171.1770 -2.7604 -20.6585 -8.5592
# 4 6.1327 -24.9235 -2.7604 48.4963 -12.1127 3.3446
# 5 -8.2012 -1.8070 -20.6585 -12.1127 41.3677 -5.8507
# 6 -29.0925 -32.3608 -8.5592 3.3446 -5.8507 49.7762
#
#
#
# Elastic Compliance Matrix: (Units=1/GPa)
#
#
# Indices 1 2 3 4 5 6 
#
# 1 0.009755 -0.001284 -0.002736 -0.002240 0.000507 0.004607
# 2 -0.001284 0.020930 -0.003157 0.010902 0.003979 0.012049
# 3 -0.002736 -0.003157 0.007750 0.000030 0.002919 -0.001978
# 4 -0.002240 0.010902 0.000030 0.028433 0.009071 0.004939
# 5 0.000507 0.003979 0.002919 0.009071 0.029443 0.006237
# 6 0.004607 0.012049 -0.001978 0.004939 0.006237 0.030677
#
#
# Mechanical properties :
#
#
# Convention : Reuss Voigt Hill
#
# Bulk Modulus (GPa) = 41.52800 72.97405 57.25102
# Shear Modulus (GPa) = 33.47393 45.77546 39.62469
#
# Velocity S-wave (km/s) = 3.61186 4.22371 3.92971
# Velocity P-wave (km/s) = 5.79469 7.22675 6.54998
#
# Compressibility (1/GPa) = 0.02408014
#
# Stress axis : x y z
#
# Youngs Moduli (GPa) = 102.50859 47.77780 129.03740
#
# Poissons Ratio (x) = 0.06134 0.35307
# Poissons Ratio (y) = 0.13161 0.40743
# Poissons Ratio (z) = 0.28048 0.15086
#
# Static dielectric constant tensor:
#      x y z
#    x 2.140160 -0.008340 0.053000 
#    y -0.008340 2.201330 -0.024530 
#    z 0.053000 -0.024530 2.159410 
# 
# From -- ./inp_files/438569.got.cif
#   From: 2010.05.17/outbox.cif.g08.bks.cpg/sg2_220_cif.got.tgz:438569.got - 2010.06.03 11:33:40.
