data_PCOD9107870
_publ_section_title
;
Structure prediction by ZEFSAII (Michael W. Deem and Ramdas Pophale) SiO2 
 PCOD9107870
Probable space group: P -1
;
_chemical_formula_sum "Si O2"
_cell_formula_units_Z 16
_cell_length_a 15.006034
_cell_length_b 16.572477
_cell_length_c 9.397562
_cell_angle_alpha 46.828553
_cell_angle_beta 135.003089
_cell_angle_gamma 153.384286
_cell_volume 730.275049
_symmetry_space_group_name_H-M "P -1"
_symmetry_group_IT_number 2
_symmetry_cell_setting 'triclinic'
loop_
_space_group_symop_operation_xyz
x,y,z
-x,-y,-z
loop_
_atom_site_type_symbol
_atom_site_label
_atom_site_fract_x
_atom_site_fract_y
_atom_site_fract_z
Si Si1 0.630519 0.496189 0.731322
Si Si2 0.278089 0.542059 0.415941
Si Si3 0.989217 0.318470 0.928343
Si Si4 0.778953 0.661833 0.174928
Si Si5 0.836731 0.329396 0.275603
Si Si6 0.475111 0.310392 0.071111
Si Si7 0.322985 0.791247 0.073900
Si Si8 0.242736 0.925578 0.314865
O O1 0.500000 0.500000 0.500000
O O2 0.708204 0.479615 0.705676
O O3 0.851032 0.665528 0.858829
O O4 0.488912 0.338525 0.882161
O O5 0.327750 0.468690 0.649485
O O6 0.402479 0.743619 0.316159
O O7 0.056281 0.425252 0.367947
O O8 0.116046 0.518810 0.782257
O O9 0.861434 0.276999 0.968120
O O10 0.829615 0.166349 0.812120
O O11 0.682805 0.512175 0.128219
O O12 0.027046 0.828483 0.248780
O O13 0.698842 0.730899 0.004146
O O14 0.716155 0.155077 0.445562
O O15 0.740855 0.284470 0.067126
O O16 0.415929 0.142581 0.241503
O O17 0.500000 0.000000 0.000000
#
# Coordination Sequence:
#
# PCOD9107870 Si02
#       8
#     2   2   2   2   2   2   2   2
#     4  12  22  41  69  95 127 172 216 270 331 383
#     4  10  20  40  66  87 125 172 214 258 333 377
#     4  11  22  44  63  95 135 171 215 274 331 381
#     4  10  22  43  63  89 131 175 215 267 325 387
#     4  10  21  42  66  91 129 178 210 267 331 385
#     4  11  24  40  64  94 129 173 220 265 323 390
#     4  11  23  38  66  98 130 170 220 270 320 396
#     4  11  24  40  67  96 131 172 219 272 325 388
#
# _framework density 21.909552000000001
#
# number of rings (size 3 to 8) (size 9 to 14) (size 15 to 20)
#    0.000    1.250    5.000    1.500    3.500    0.000 
#    0.000    1.875    0.000    0.000    0.000    0.000 
#    0.000    0.000    0.000    0.000    0.000    0.000 
#
# Total GULP energy -89155.803101 kJ/mol
# GULP energy per Si atom -5572.237694 kJ/mol
# Density = 2.185968 g / cm^3
# Si number density = 21.909552 Si / 1000 Ang^3
#
#
#
# Elastic Constant Matrix: (Units=GPa)
#
#
# Indices 1 2 3 4 5 6 
#
# 1 70.8190 17.0555 31.0490 -2.0014 -8.7538 -14.4701
# 2 17.0555 71.2515 36.7955 -32.7619 -3.3007 -8.2551
# 3 31.0490 36.7955 113.2513 -26.3240 -7.6997 -5.4999
# 4 -2.0014 -32.7619 -26.3240 31.3778 0.7534 0.2050
# 5 -8.7538 -3.3007 -7.6997 0.7534 41.2426 1.6531
# 6 -14.4701 -8.2551 -5.4999 0.2050 1.6531 27.2334
#
#
#
# Elastic Compliance Matrix: (Units=1/GPa)
#
#
# Indices 1 2 3 4 5 6 
#
# 1 0.019093 -0.004617 -0.005033 -0.007937 0.002583 0.007632
# 2 -0.004617 0.030568 -0.001233 0.030536 0.000426 0.006308
# 3 -0.005033 -0.001233 0.012764 0.009078 0.001074 -0.000604
# 4 -0.007937 0.030536 0.009078 0.070800 0.000909 0.006284
# 5 0.002583 0.000426 0.001074 0.000909 0.025005 0.000193
# 6 0.007632 0.006308 -0.000604 0.006284 0.000193 0.042506
#
#
# Mechanical properties :
#
#
# Convention : Reuss Voigt Hill
#
# Bulk Modulus (GPa) = 24.59434 47.23577 35.91505
# Shear Modulus (GPa) = 21.18149 31.33221 26.25685
#
# Velocity S-wave (km/s) = 3.11266 3.78573 3.46558
# Velocity P-wave (km/s) = 4.91610 6.38085 5.69576
#
# Compressibility (1/GPa) = 0.04065977
#
# Stress axis : x y z
#
# Youngs Moduli (GPa) = 52.37398 32.71429 78.34364
#
# Poissons Ratio (x) = 0.15103 0.39433
# Poissons Ratio (y) = 0.24180 0.09658
# Poissons Ratio (z) = 0.26362 0.04033
#
# Static dielectric constant tensor:
#      x y z
#    x 1.849310 -0.011940 0.045500 
#    y -0.011940 1.789440 0.073610 
#    z 0.045500 0.073610 1.753370 
# 
# From -- ./inp_files/314741.got.cif
#   From: 2010.05.17/outbox.cif.g08.bks.cpg/sg2_158_cif.got.tgz:314741.got - 2010.06.03 11:33:40.
