data_PCOD9107259
_publ_section_title
;
Structure prediction by ZEFSAII (Michael W. Deem and Ramdas Pophale) SiO2 
 PCOD9107259
Probable space group: P -1
;
_chemical_formula_sum "Si O2"
_cell_formula_units_Z 16
_cell_length_a 9.828178
_cell_length_b 14.567066
_cell_length_c 13.913895
_cell_angle_alpha 150.062857
_cell_angle_beta 64.584113
_cell_angle_gamma 129.688672
_cell_volume 723.871877
_symmetry_space_group_name_H-M "P -1"
_symmetry_group_IT_number 2
_symmetry_cell_setting 'triclinic'
loop_
_space_group_symop_operation_xyz
x,y,z
-x,-y,-z
loop_
_atom_site_type_symbol
_atom_site_label
_atom_site_fract_x
_atom_site_fract_y
_atom_site_fract_z
Si Si1 0.863581 0.163568 0.395630
Si Si2 0.560852 0.601874 0.209986
Si Si3 0.984444 0.206871 0.192678
Si Si4 0.313359 0.696107 0.046379
Si Si5 0.810403 0.722238 0.081373
Si Si6 0.420879 0.935769 0.859484
Si Si7 0.647543 0.321902 0.521616
Si Si8 0.931543 0.413660 0.802592
O O1 0.678918 0.145353 0.402385
O O2 0.917356 0.293362 0.598165
O O3 0.985507 0.282268 0.370493
O O4 0.859368 0.939539 0.204309
O O5 0.748637 0.762009 0.238697
O O6 0.528182 0.705092 0.404100
O O7 0.561969 0.390240 0.045698
O O8 0.380249 0.504027 0.108890
O O9 0.162775 0.426662 0.286756
O O10 0.780527 0.109021 0.124044
O O11 0.000000 0.000000 0.000000
O O12 0.242376 0.732907 0.202622
O O13 0.422581 0.876342 0.091555
O O14 0.117336 0.490777 0.872391
O O15 0.942625 0.642323 0.983121
O O16 0.376684 0.712648 0.616504
O O17 0.500000 0.000000 0.000000
#
# Coordination Sequence:
#
# PCOD9107259 Si02
#       8
#     2   2   2   2   2   2   2   2
#     4  11  22  38  70  95 123 171 223 260 323 395
#     4  10  20  40  63  95 131 163 212 278 313 394
#     4  11  25  45  68  93 131 174 222 277 325 387
#     4  10  23  43  62  92 141 170 210 265 347 368
#     4  10  21  38  66  97 127 166 218 259 331 384
#     4  11  25  41  66  95 129 174 220 275 325 386
#     4  11  23  42  67  97 131 173 224 271 327 392
#     4  10  23  43  65  95 135 177 205 273 322 410
#
# _framework density 22.103359000000001
#
# number of rings (size 3 to 8) (size 9 to 14) (size 15 to 20)
#    0.000    1.500    1.250    4.500    5.250    0.500 
#    4.500    3.125    0.000    0.000    0.000    0.000 
#    0.000    0.000    0.000    0.000    0.000    0.000 
#
# Total GULP energy -89242.664614 kJ/mol
# GULP energy per Si atom -5577.666538 kJ/mol
# Density = 2.205305 g / cm^3
# Si number density = 22.103359 Si / 1000 Ang^3
#
#
#
# Elastic Constant Matrix: (Units=GPa)
#
#
# Indices 1 2 3 4 5 6 
#
# 1 71.1701 26.0180 34.5059 -16.3865 8.2410 -5.4102
# 2 26.0180 108.1409 31.9382 -7.7713 6.1513 -9.6225
# 3 34.5059 31.9382 76.7195 -25.3396 1.3141 -4.5748
# 4 -16.3865 -7.7713 -25.3396 50.0337 -9.6806 -0.0778
# 5 8.2410 6.1513 1.3141 -9.6806 32.5541 -8.0557
# 6 -5.4102 -9.6225 -4.5748 -0.0778 -8.0557 26.2552
#
#
#
# Elastic Compliance Matrix: (Units=1/GPa)
#
#
# Indices 1 2 3 4 5 6 
#
# 1 0.019090 -0.002121 -0.007029 0.001702 -0.003423 0.000886
# 2 -0.002121 0.011116 -0.003874 -0.001138 -0.001097 0.002622
# 3 -0.007029 -0.003874 0.020661 0.008482 0.004748 0.002213
# 4 0.001702 -0.001138 0.008482 0.026265 0.008247 0.004019
# 5 -0.003423 -0.001097 0.004748 0.008247 0.036782 0.011030
# 6 0.000886 0.002622 0.002213 0.004019 0.011030 0.043013
#
#
# Mechanical properties :
#
#
# Convention : Reuss Voigt Hill
#
# Bulk Modulus (GPa) = 40.29497 48.99499 44.64498
# Shear Modulus (GPa) = 26.14404 32.67317 29.40860
#
# Velocity S-wave (km/s) = 3.44293 3.84891 3.65156
# Velocity P-wave (km/s) = 5.83737 6.47816 6.16609
#
# Compressibility (1/GPa) = 0.02481699
#
# Stress axis : x y z
#
# Youngs Moduli (GPa) = 52.38382 89.96362 48.40005
#
# Poissons Ratio (x) = 0.19081 0.34023
# Poissons Ratio (y) = 0.11110 0.18752
# Poissons Ratio (z) = 0.36823 0.34855
#
# Static dielectric constant tensor:
#      x y z
#    x 1.782320 0.006070 0.010080 
#    y 0.006070 1.889730 0.020540 
#    z 0.010080 0.020540 1.895120 
# 
# From -- ./inp_files/504620.got.cif
#   From: 2010.05.17/outbox.cif.g08.bks.cpg/sg2_253_cif.got.tgz:504620.got - 2010.06.03 11:33:40.
