data_PCOD9107277
_publ_section_title
;
Structure prediction by ZEFSAII (Michael W. Deem and Ramdas Pophale) SiO2 
 PCOD9107277
Probable space group: P -1
;
_chemical_formula_sum "Si O2"
_cell_formula_units_Z 13
_cell_length_a 9.033576
_cell_length_b 19.212821
_cell_length_c 5.060443
_cell_angle_alpha 41.823523
_cell_angle_beta 61.201195
_cell_angle_gamma 56.372127
_cell_volume 483.882076
_symmetry_space_group_name_H-M "P -1"
_symmetry_group_IT_number 2
_symmetry_cell_setting 'triclinic'
loop_
_space_group_symop_operation_xyz
x,y,z
-x,-y,-z
loop_
_atom_site_type_symbol
_atom_site_label
_atom_site_fract_x
_atom_site_fract_y
_atom_site_fract_z
Si Si1 0.578067 0.320039 0.822255
Si Si2 0.272392 0.264709 0.011050
Si Si3 0.082383 0.737252 0.605944
Si Si4 0.000000 0.500000 0.500000
Si Si5 0.091758 0.926885 0.378453
Si Si6 0.488022 0.927271 0.969436
Si Si7 0.301581 0.539120 0.267433
O O1 0.765714 0.243587 0.758000
O O2 0.474408 0.429154 0.421588
O O3 0.624638 0.373921 0.893143
O O4 0.432791 0.260523 0.083977
O O5 0.358833 0.185383 0.919776
O O6 0.119386 0.233965 0.389546
O O7 0.162046 0.382756 0.641271
O O8 0.065502 0.808953 0.683214
O O9 0.169948 0.602826 0.956907
O O10 0.866601 0.486220 0.386492
O O11 0.301816 0.905565 0.233658
O O12 0.000000 0.000000 0.500000
O O13 0.000000 0.000000 0.000000
O O14 0.500000 0.000000 0.500000
O O15 0.500000 0.000000 0.000000
#
# Coordination Sequence:
#
# PCOD9107277 Si02
#       7
#     2   2   2   1   2   2   2
#     4  10  20  40  63  96 132 175 232 288 349 424
#     4  10  21  43  64 101 138 184 237 294 357 433
#     4  11  22  40  65  92 135 179 230 285 362 417
#     4   8  18  40  66  94 142 180 232 290 358 430
#     4  12  27  47  73 106 144 188 246 307 365 433
#     4  12  26  49  75 109 148 193 249 306 368 438
#     4   9  20  37  65  95 134 175 227 288 349 427
#
# _framework density 26.866050999999999
#
# number of rings (size 3 to 8) (size 9 to 14) (size 15 to 20)
#    0.000    1.538    1.538    3.231    2.154    1.231 
#    5.538   13.846    0.000    0.000    0.000    0.000 
#    0.000    0.000    0.000    0.000    0.000    0.000 
#
# Total GULP energy -72405.401804 kJ/mol
# GULP energy per Si atom -5569.646293 kJ/mol
# Density = 2.680490 g / cm^3
# Si number density = 26.866051 Si / 1000 Ang^3
#
#
#
# Elastic Constant Matrix: (Units=GPa)
#
#
# Indices 1 2 3 4 5 6 
#
# 1 202.6833 102.7595 17.6685 26.3202 -34.0586 -16.7261
# 2 102.7595 226.9558 45.1387 -3.5200 -6.8829 -16.8650
# 3 17.6685 45.1387 52.8983 3.1870 3.7363 -2.8050
# 4 26.3202 -3.5200 3.1870 48.0179 -11.7366 -3.3142
# 5 -34.0586 -6.8829 3.7363 -11.7366 48.7012 9.3784
# 6 -16.7261 -16.8650 -2.8050 -3.3142 9.3784 60.8946
#
#
#
# Elastic Compliance Matrix: (Units=1/GPa)
#
#
# Indices 1 2 3 4 5 6 
#
# 1 0.007874 -0.003537 0.000339 -0.003583 0.004044 0.000381
# 2 -0.003537 0.007085 -0.004929 0.002699 -0.000638 0.001009
# 3 0.000339 -0.004929 0.023380 -0.002813 -0.002952 0.000107
# 4 -0.003583 0.002699 -0.002813 0.024137 0.003840 0.000356
# 5 0.004044 -0.000638 -0.002952 0.003840 0.024970 -0.002839
# 6 0.000381 0.001009 0.000107 0.000356 -0.002839 0.017267
#
#
# Mechanical properties :
#
#
# Convention : Reuss Voigt Hill
#
# Bulk Modulus (GPa) = 45.27847 90.40787 67.84317
# Shear Modulus (GPa) = 38.96226 52.65412 45.80819
#
# Velocity S-wave (km/s) = 3.81234 4.43185 4.13372
# Velocity P-wave (km/s) = 6.02234 7.74034 6.93474
#
# Compressibility (1/GPa) = 0.02208555
#
# Stress axis : x y z
#
# Youngs Moduli (GPa) = 127.00421 141.13629 42.77095
#
# Poissons Ratio (x) = 0.49920 -0.01449
# Poissons Ratio (y) = 0.44922 0.21080
# Poissons Ratio (z) = -0.04302 0.69561
#
# Static dielectric constant tensor:
#      x y z
#    x 2.170920 0.053790 0.156380 
#    y 0.053790 2.117550 -0.340730 
#    z 0.156380 -0.340730 2.120050 
# 
# From -- ./inp_files/42989.got.cif
#   From: 2010.05.17/outbox.cif.g08.bks.cpg/sg2_22_cif.got.tgz:42989.got - 2010.06.03 11:33:40.
