data_PCOD9107777
_publ_section_title
;
Structure prediction by ZEFSAII (Michael W. Deem and Ramdas Pophale) SiO2 
 PCOD9107777
Probable space group: P -1
;
_chemical_formula_sum "Si O2"
_cell_formula_units_Z 16
_cell_length_a 9.135305
_cell_length_b 14.871393
_cell_length_c 8.363615
_cell_angle_alpha 139.353225
_cell_angle_beta 72.000677
_cell_angle_gamma 107.516978
_cell_volume 699.844044
_symmetry_space_group_name_H-M "P -1"
_symmetry_group_IT_number 2
_symmetry_cell_setting 'triclinic'
loop_
_space_group_symop_operation_xyz
x,y,z
-x,-y,-z
loop_
_atom_site_type_symbol
_atom_site_label
_atom_site_fract_x
_atom_site_fract_y
_atom_site_fract_z
Si Si1 0.530980 0.640417 0.577268
Si Si2 0.894275 0.665729 0.423740
Si Si3 0.646342 0.157004 0.572831
Si Si4 0.597419 0.869917 0.105908
Si Si5 0.971689 0.087898 0.472356
Si Si6 0.643922 0.437890 0.784921
Si Si7 0.027497 0.427320 0.220748
Si Si8 0.043742 0.171723 0.057985
O O1 0.500000 0.500000 0.500000
O O2 0.709667 0.655561 0.483777
O O3 0.417004 0.624789 0.446807
O O4 0.512339 0.773434 0.870670
O O5 0.977794 0.756067 0.666075
O O6 0.943287 0.758362 0.377530
O O7 0.939584 0.510788 0.230861
O O8 0.498072 0.156672 0.735079
O O9 0.790634 0.106596 0.549984
O O10 0.691095 0.309765 0.698739
O O11 0.609354 0.034531 0.290281
O O12 0.769399 0.825653 0.009562
O O13 0.000000 0.000000 0.500000
O O14 0.016656 0.986939 0.174869
O O15 0.792020 0.546436 0.850145
O O16 0.500000 0.500000 0.000000
O O17 0.985169 0.267558 0.066344
O O18 0.000000 0.500000 0.500000
#
# Coordination Sequence:
#
# PCOD9107777 Si02
#       8
#     2   2   2   2   2   2   2   2
#     4  11  23  42  66  98 132 168 221 276 333 393
#     4  10  21  41  65  92 129 168 220 267 323 395
#     4  10  21  41  64  93 129 175 217 268 326 399
#     4   9  20  40  65  90 133 167 217 266 331 389
#     4  11  23  41  59  92 133 170 216 266 325 386
#     4  12  24  41  69  96 133 173 221 272 335 391
#     4  10  20  40  65  96 125 171 221 265 332 395
#     4   9  19  38  65  87 124 173 210 266 327 385
#
# _framework density 22.862235999999999
#
# number of rings (size 3 to 8) (size 9 to 14) (size 15 to 20)
#    0.000    1.750    1.250    4.125    0.000    4.500 
#    9.000    1.250    0.000    0.000    0.000    0.000 
#    0.000    0.000    0.000    0.000    0.000    0.000 
#
# Total GULP energy -89433.343976 kJ/mol
# GULP energy per Si atom -5589.583998 kJ/mol
# Density = 2.281020 g / cm^3
# Si number density = 22.862236 Si / 1000 Ang^3
#
#
#
# Elastic Constant Matrix: (Units=GPa)
#
#
# Indices 1 2 3 4 5 6 
#
# 1 43.6770 14.7251 10.7231 1.1733 -5.0147 -11.5162
# 2 14.7251 111.6381 8.8197 21.4266 -7.7824 -16.3921
# 3 10.7231 8.8197 77.9426 11.9500 -7.0882 -9.3619
# 4 1.1733 21.4266 11.9500 32.9302 0.3695 -6.3362
# 5 -5.0147 -7.7824 -7.0882 0.3695 32.1134 -0.9744
# 6 -11.5162 -16.3921 -9.3619 -6.3362 -0.9744 42.7808
#
#
#
# Elastic Compliance Matrix: (Units=1/GPa)
#
#
# Indices 1 2 3 4 5 6 
#
# 1 0.026331 -0.002743 -0.002783 0.002965 0.002979 0.005935
# 2 -0.002743 0.011178 0.000744 -0.006948 0.002608 0.002738
# 3 -0.002783 0.000744 0.014455 -0.005283 0.003057 0.001986
# 4 0.002965 -0.006948 -0.005283 0.037197 -0.002741 0.002427
# 5 0.002979 0.002608 0.003057 -0.002741 0.033029 0.002816
# 6 0.005935 0.002738 0.001986 0.002427 0.002816 0.026880
#
#
# Mechanical properties :
#
#
# Convention : Reuss Voigt Hill
#
# Bulk Modulus (GPa) = 23.58561 33.53264 28.55913
# Shear Modulus (GPa) = 28.94077 34.83085 31.88581
#
# Velocity S-wave (km/s) = 3.56178 3.90745 3.73861
# Velocity P-wave (km/s) = 5.22052 5.92087 5.58169
#
# Compressibility (1/GPa) = 0.04239873
#
# Stress axis : x y z
#
# Youngs Moduli (GPa) = 37.97866 89.46297 69.17928
#
# Poissons Ratio (x) = 0.24541 0.19252
# Poissons Ratio (y) = 0.10418 -0.05145
# Poissons Ratio (z) = 0.10569 -0.06654
#
# Static dielectric constant tensor:
#      x y z
#    x 1.797050 -0.013690 0.027820 
#    y -0.013690 1.852880 -0.023850 
#    z 0.027820 -0.023850 1.905060 
# 
# From -- ./inp_files/209226.got.cif
#   From: 2010.05.17/outbox.cif.g08.bks.cpg/sg2_105_cif.got.tgz:209226.got - 2010.06.03 11:33:40.
