data_PCOD9107613
_publ_section_title
;
Structure prediction by ZEFSAII (Michael W. Deem and Ramdas Pophale) SiO2 
 PCOD9107613
Probable space group: P -1
;
_chemical_formula_sum "Si O2"
_cell_formula_units_Z 15
_cell_length_a 9.128381
_cell_length_b 17.860210
_cell_length_c 11.933512
_cell_angle_alpha 151.131388
_cell_angle_beta 138.945198
_cell_angle_gamma 46.242643
_cell_volume 613.933630
_symmetry_space_group_name_H-M "P -1"
_symmetry_group_IT_number 2
_symmetry_cell_setting 'triclinic'
loop_
_space_group_symop_operation_xyz
x,y,z
-x,-y,-z
loop_
_atom_site_type_symbol
_atom_site_label
_atom_site_fract_x
_atom_site_fract_y
_atom_site_fract_z
Si Si1 0.252609 0.806079 0.244796
Si Si2 0.345371 0.485249 0.498251
Si Si3 0.051787 0.581837 0.965704
Si Si4 0.901707 0.748924 0.328642
Si Si5 0.500000 0.000000 0.500000
Si Si6 0.191273 0.989151 0.745346
Si Si7 0.592884 0.788362 0.666796
Si Si8 0.057863 0.675044 0.731575
O O1 0.466756 0.890651 0.448905
O O2 0.264698 0.653189 0.127999
O O3 0.171618 0.758951 0.009562
O O4 0.036791 0.919039 0.309704
O O5 0.500000 0.500000 0.500000
O O6 0.455453 0.375350 0.516909
O O7 0.240892 0.648113 0.704275
O O8 0.131766 0.409292 0.226425
O O9 0.094418 0.403623 0.793171
O O10 0.946247 0.680564 0.139304
O O11 0.680437 0.862865 0.370185
O O12 0.105602 0.856735 0.604273
O O13 0.370158 0.895250 0.643748
O O14 0.316418 0.112592 0.048470
O O15 0.811067 0.759996 0.676964
O O16 0.000000 0.500000 0.500000
#
# Coordination Sequence:
#
# PCOD9107613 Si02
#       8
#     2   2   2   2   1   2   2   2
#     4  10  20  40  65  88 129 161 206 256 309 380
#     4  11  21  34  60  94 123 157 200 258 313 374
#     4  11  22  42  60  90 123 167 214 252 308 370
#     4  10  24  41  63  86 126 168 209 264 297 370
#     4  10  24  42  64  88 122 172 204 264 312 362
#     4   9  17  36  60  87 119 160 201 244 314 361
#     4   9  17  34  62  86 117 162 196 247 310 373
#     4   9  17  35  57  92 116 158 193 258 306 358
#
# _framework density 24.432608999999999
#
# number of rings (size 3 to 8) (size 9 to 14) (size 15 to 20)
#    0.000    2.133    4.000    0.800    1.867    2.667 
#    2.400    2.667    0.000   11.200    0.000    0.000 
#    0.000    0.000    0.000    0.000    0.000    0.000 
#
# Total GULP energy -83505.360805 kJ/mol
# GULP energy per Si atom -5567.024054 kJ/mol
# Density = 2.437700 g / cm^3
# Si number density = 24.432609 Si / 1000 Ang^3
#
#
#
# Elastic Constant Matrix: (Units=GPa)
#
#
# Indices 1 2 3 4 5 6 
#
# 1 150.9725 45.5347 16.3051 31.9391 -21.6882 -1.8357
# 2 45.5347 104.7176 22.4136 17.1483 -11.4152 -7.2375
# 3 16.3051 22.4136 45.5980 16.7205 -16.8896 -4.9164
# 4 31.9391 17.1483 16.7205 36.9616 1.3142 -4.7898
# 5 -21.6882 -11.4152 -16.8896 1.3142 38.2183 21.4625
# 6 -1.8357 -7.2375 -4.9164 -4.7898 21.4625 42.4011
#
#
#
# Elastic Compliance Matrix: (Units=1/GPa)
#
#
# Indices 1 2 3 4 5 6 
#
# 1 0.011261 -0.003295 0.005908 -0.012229 0.012394 -0.007045
# 2 -0.003295 0.012053 -0.005143 -0.000068 -0.001783 0.002213
# 3 0.005908 -0.005143 0.039500 -0.023143 0.026984 -0.012315
# 4 -0.012229 -0.000068 -0.023143 0.051340 -0.028500 0.017001
# 5 0.012394 -0.001783 0.026984 -0.028500 0.063559 -0.032031
# 6 -0.007045 0.002213 -0.012315 0.017001 -0.032031 0.040363
#
#
# Mechanical properties :
#
#
# Convention : Reuss Voigt Hill
#
# Bulk Modulus (GPa) = 17.31473 52.19944 34.75709
# Shear Modulus (GPa) = 20.62818 37.98518 29.30668
#
# Velocity S-wave (km/s) = 2.90882 3.94724 3.46712
# Velocity P-wave (km/s) = 4.28763 6.49502 5.50314
#
# Compressibility (1/GPa) = 0.05775429
#
# Stress axis : x y z
#
# Youngs Moduli (GPa) = 88.80016 82.96906 25.31642
#
# Poissons Ratio (x) = 0.27335 -0.14957
# Poissons Ratio (y) = 0.29256 0.13021
# Poissons Ratio (z) = -0.52464 0.42674
#
# Static dielectric constant tensor:
#      x y z
#    x 2.004400 -0.007830 0.022770 
#    y -0.007830 1.984080 -0.027150 
#    z 0.022770 -0.027150 2.026990 
# 
# From -- ./inp_files/403639.got.cif
#   From: 2010.05.17/outbox.cif.g08.bks.cpg/sg2_202_cif.got.tgz:403639.got - 2010.06.03 11:33:40.
