data_PCOD9107219
_publ_section_title
;
Structure prediction by ZEFSAII (Michael W. Deem and Ramdas Pophale) SiO2 
 PCOD9107219
Probable space group: P -1
;
_chemical_formula_sum "Si O2"
_cell_formula_units_Z 16
_cell_length_a 8.926155
_cell_length_b 7.873684
_cell_length_c 16.023325
_cell_angle_alpha 125.641363
_cell_angle_beta 115.480099
_cell_angle_gamma 97.473028
_cell_volume 706.209197
_symmetry_space_group_name_H-M "P -1"
_symmetry_group_IT_number 2
_symmetry_cell_setting 'triclinic'
loop_
_space_group_symop_operation_xyz
x,y,z
-x,-y,-z
loop_
_atom_site_type_symbol
_atom_site_label
_atom_site_fract_x
_atom_site_fract_y
_atom_site_fract_z
Si Si1 0.209056 0.118912 0.355184
Si Si2 0.429210 0.432116 0.165471
Si Si3 0.456143 0.932978 0.872094
Si Si4 0.944787 0.707511 0.060584
Si Si5 0.460422 0.727719 0.407235
Si Si6 0.074614 0.660437 0.312323
Si Si7 0.687242 0.458643 0.079706
Si Si8 0.011350 0.589344 0.620302
O O1 0.428836 0.289958 0.490923
O O2 0.111285 0.278791 0.368469
O O3 0.128435 0.913455 0.352420
O O4 0.143274 0.952523 0.207583
O O5 0.454128 0.235616 0.168213
O O6 0.514968 0.664742 0.313628
O O7 0.561008 0.492828 0.130175
O O8 0.203126 0.317285 0.054333
O O9 0.231555 0.784288 0.754180
O O10 0.500000 0.000000 0.000000
O O11 0.559228 0.197017 0.930274
O O12 0.801890 0.653787 0.090966
O O13 0.000000 0.500000 0.000000
O O14 0.227542 0.577081 0.306925
O O15 0.500000 0.000000 0.500000
O O16 0.864422 0.464044 0.171582
O O17 0.062164 0.644377 0.403887
O O18 0.000000 0.500000 0.500000
#
# Coordination Sequence:
#
# PCOD9107219 Si02
#       8
#     2   2   2   2   2   2   2   2
#     4  10  23  42  67  89 132 176 211 262 328 377
#     4  11  20  38  70  90 123 168 211 261 322 377
#     4  10  20  40  63  92 127 159 206 266 320 377
#     4  11  23  42  62  99 131 162 215 268 315 389
#     4  10  22  44  63  90 130 172 215 263 321 388
#     4  10  22  43  65  92 131 168 216 263 323 380
#     4  10  21  40  66  95 127 163 212 265 322 381
#     4  12  24  42  64  98 134 161 220 275 312 386
#
# _framework density 22.656175000000001
#
# number of rings (size 3 to 8) (size 9 to 14) (size 15 to 20)
#    0.000    1.500    2.500    4.875    0.000    2.000 
#   15.750    1.250    0.000    0.000    0.000    0.000 
#    0.000    0.000    0.000    0.000    0.000    0.000 
#
# Total GULP energy -89157.696466 kJ/mol
# GULP energy per Si atom -5572.356029 kJ/mol
# Density = 2.260461 g / cm^3
# Si number density = 22.656175 Si / 1000 Ang^3
#
#
#
# Elastic Constant Matrix: (Units=GPa)
#
#
# Indices 1 2 3 4 5 6 
#
# 1 80.2566 16.1617 54.6336 -11.9493 11.7250 -29.3267
# 2 16.1617 78.1788 27.5001 -12.8666 7.8708 -16.5706
# 3 54.6336 27.5001 120.9009 -32.1135 -0.5325 -30.6970
# 4 -11.9493 -12.8666 -32.1135 27.8424 -20.4414 9.2441
# 5 11.7250 7.8708 -0.5325 -20.4414 48.6860 -10.6157
# 6 -29.3267 -16.5706 -30.6970 9.2441 -10.6157 46.6435
#
#
#
# Elastic Compliance Matrix: (Units=1/GPa)
#
#
# Indices 1 2 3 4 5 6 
#
# 1 0.022664 -0.000281 -0.012330 -0.014202 -0.010081 0.006556
# 2 -0.000281 0.014687 -0.001177 0.004352 0.000263 0.003464
# 3 -0.012330 -0.001177 0.025151 0.035708 0.019689 0.005786
# 4 -0.014202 0.004352 0.035708 0.107334 0.049505 0.006111
# 5 -0.010081 0.000263 0.019689 0.049505 0.045509 0.007259
# 6 0.006556 0.003464 0.005786 0.006111 0.007259 0.031040
#
#
# Mechanical properties :
#
#
# Convention : Reuss Voigt Hill
#
# Bulk Modulus (GPa) = 28.63208 52.88078 40.75643
# Shear Modulus (GPa) = 17.50679 36.70378 27.10529
#
# Velocity S-wave (km/s) = 2.78279 4.02933 3.46262
# Velocity P-wave (km/s) = 4.79482 6.71108 5.83219
#
# Compressibility (1/GPa) = 0.03492586
#
# Stress axis : x y z
#
# Youngs Moduli (GPa) = 44.12334 68.08597 39.75962
#
# Poissons Ratio (x) = 0.01914 0.49023
# Poissons Ratio (y) = 0.01240 0.04681
# Poissons Ratio (z) = 0.54403 0.08015
#
# Static dielectric constant tensor:
#      x y z
#    x 1.892850 0.049910 0.049950 
#    y 0.049910 1.913240 0.011020 
#    z 0.049950 0.011020 1.790120 
# 
# From -- ./inp_files/556614.got.cif
#   From: 2010.05.17/outbox.cif.g08.bks.cpg/sg2_279_cif.got.tgz:556614.got - 2010.06.03 11:33:40.
