data_PCOD9107761
_publ_section_title
;
Structure prediction by ZEFSAII (Michael W. Deem and Ramdas Pophale) SiO2 
 PCOD9107761
Probable space group: P -1
;
_chemical_formula_sum "Si O2"
_cell_formula_units_Z 16
_cell_length_a 11.753500
_cell_length_b 7.893756
_cell_length_c 12.011719
_cell_angle_alpha 81.769062
_cell_angle_beta 126.034648
_cell_angle_gamma 129.112817
_cell_volume 651.470987
_symmetry_space_group_name_H-M "P -1"
_symmetry_group_IT_number 2
_symmetry_cell_setting 'triclinic'
loop_
_space_group_symop_operation_xyz
x,y,z
-x,-y,-z
loop_
_atom_site_type_symbol
_atom_site_label
_atom_site_fract_x
_atom_site_fract_y
_atom_site_fract_z
Si Si1 0.076503 0.343257 0.646723
Si Si2 0.010575 0.640655 0.662807
Si Si3 0.603305 0.494441 0.308557
Si Si4 0.689868 0.937249 0.062126
Si Si5 0.808939 0.756993 0.965751
Si Si6 0.404663 0.741833 0.490646
Si Si7 0.663803 0.850617 0.446873
Si Si8 0.613850 0.255556 0.904568
O O1 0.037424 0.351420 0.492711
O O2 0.276471 0.406408 0.744990
O O3 0.116602 0.547784 0.718635
O O4 0.867061 0.098258 0.581907
O O5 0.820595 0.451500 0.643505
O O6 0.136934 0.886588 0.769548
O O7 0.387386 0.379893 0.202469
O O8 0.584407 0.292347 0.369718
O O9 0.716150 0.713419 0.435695
O O10 0.505966 0.779615 0.052665
O O11 0.666476 0.098280 0.964375
O O12 0.749483 0.825165 0.031731
O O13 0.798531 0.539906 0.983782
O O14 0.000000 0.000000 0.000000
O O15 0.524848 0.717295 0.484335
O O16 0.500000 0.000000 0.500000
O O17 0.536584 0.844356 0.278172
#
# Coordination Sequence:
#
# PCOD9107761 Si02
#       8
#     2   2   2   2   2   2   2   2
#     4  10  20  40  65  95 128 164 218 267 326 385
#     4  10  22  38  64  99 127 169 219 266 323 392
#     4  10  25  41  64  93 129 171 215 267 331 387
#     4  11  24  44  72  95 136 178 229 272 331 392
#     4  11  27  48  67  98 138 176 223 282 329 398
#     4  11  23  39  64  95 133 170 210 269 331 396
#     4  11  21  43  65  95 135 165 216 270 330 391
#     4  10  25  44  71 101 127 181 225 275 333 391
#
# _framework density 24.559804
#
# number of rings (size 3 to 8) (size 9 to 14) (size 15 to 20)
#    0.000    1.500    2.500    1.125    8.750    1.500 
#    0.000    0.000    0.000    0.000    0.000    0.000 
#    0.000    0.000    0.000    0.000    0.000    0.000 
#
# Total GULP energy -89275.992824 kJ/mol
# GULP energy per Si atom -5579.749551 kJ/mol
# Density = 2.450390 g / cm^3
# Si number density = 24.559804 Si / 1000 Ang^3
#
#
#
# Elastic Constant Matrix: (Units=GPa)
#
#
# Indices 1 2 3 4 5 6 
#
# 1 108.0013 15.6478 -8.3585 6.5664 0.0489 18.2762
# 2 15.6478 97.6139 13.5581 3.5174 2.7994 11.7440
# 3 -8.3585 13.5581 49.7478 -4.6987 -0.0690 1.0574
# 4 6.5664 3.5174 -4.6987 25.9515 -4.7021 4.2096
# 5 0.0489 2.7994 -0.0690 -4.7021 32.9405 14.6171
# 6 18.2762 11.7440 1.0574 4.2096 14.6171 42.3760
#
#
#
# Elastic Compliance Matrix: (Units=1/GPa)
#
#
# Indices 1 2 3 4 5 6 
#
# 1 0.010507 -0.001434 0.002177 -0.000901 0.002127 -0.004833
# 2 -0.001434 0.011271 -0.003404 -0.001457 -0.000190 -0.002210
# 3 0.002177 -0.003404 0.021847 0.004416 0.001649 -0.001548
# 4 -0.000901 -0.001457 0.004416 0.042509 0.009179 -0.006707
# 5 0.002127 -0.000190 0.001649 0.009179 0.038363 -0.015050
# 6 -0.004833 -0.002210 -0.001548 -0.006707 -0.015050 0.032191
#
#
# Mechanical properties :
#
#
# Convention : Reuss Voigt Hill
#
# Bulk Modulus (GPa) = 26.10723 33.00641 29.55682
# Shear Modulus (GPa) = 28.60786 35.88798 32.24792
#
# Velocity S-wave (km/s) = 3.41665 3.82678 3.62752
# Velocity P-wave (km/s) = 5.12034 5.74404 5.44113
#
# Compressibility (1/GPa) = 0.03830356
#
# Stress axis : x y z
#
# Youngs Moduli (GPa) = 95.17547 88.72446 45.77289
#
# Poissons Ratio (x) = 0.12721 -0.09963
# Poissons Ratio (y) = 0.13646 0.15579
# Poissons Ratio (z) = -0.20717 0.30198
#
# Static dielectric constant tensor:
#      x y z
#    x 2.037660 -0.077140 0.097000 
#    y -0.077140 2.046210 -0.118730 
#    z 0.097000 -0.118730 2.133480 
# 
# From -- ./inp_files/221559.got.cif
#   From: 2010.05.17/outbox.cif.g08.bks.cpg/sg2_111_cif.got.tgz:221559.got - 2010.06.03 11:33:40.
