data_PCOD9107456
_publ_section_title
;
Structure prediction by ZEFSAII (Michael W. Deem and Ramdas Pophale) SiO2 
 PCOD9107456
Probable space group: P -1
;
_chemical_formula_sum "Si O2"
_cell_formula_units_Z 12
_cell_length_a 8.419336
_cell_length_b 6.649552
_cell_length_c 11.000900
_cell_angle_alpha 64.899099
_cell_angle_beta 98.611843
_cell_angle_gamma 78.250242
_cell_volume 526.312470
_symmetry_space_group_name_H-M "P -1"
_symmetry_group_IT_number 2
_symmetry_cell_setting 'triclinic'
loop_
_space_group_symop_operation_xyz
x,y,z
-x,-y,-z
loop_
_atom_site_type_symbol
_atom_site_label
_atom_site_fract_x
_atom_site_fract_y
_atom_site_fract_z
Si Si1 0.740157 0.045511 0.965126
Si Si2 0.629686 0.785448 0.232087
Si Si3 0.623193 0.359815 0.476195
Si Si4 0.081950 0.068603 0.373157
Si Si5 0.371915 0.159459 0.503966
Si Si6 0.951078 0.267068 0.067778
O O1 0.565029 0.117906 0.855501
O O2 0.891510 0.926766 0.923698
O O3 0.784271 0.258938 0.981042
O O4 0.732124 0.864973 0.118202
O O5 0.663852 0.511165 0.331500
O O6 0.649205 0.887569 0.341511
O O7 0.790395 0.174128 0.599140
O O8 0.591039 0.577342 0.526267
O O9 0.563614 0.132138 0.462212
O O10 0.200609 0.224517 0.389579
O O11 0.950471 0.197328 0.225331
O O12 0.000000 0.000000 0.500000
O O13 0.000000 0.500000 0.000000
#
# Coordination Sequence:
#
# PCOD9107456 Si02
#       6
#     2   2   2   2   2   2
#     4  10  23  43  63  89 132 166 212 266 300 396
#     4  10  20  40  64  93 119 162 219 262 315 361
#     4   9  19  36  61  86 119 160 206 253 316 364
#     4  11  23  39  62  96 128 156 214 271 307 382
#     4   9  18  35  60  88 124 155 202 264 311 365
#     4  11  25  43  64  89 134 175 204 246 339 380
#
# _framework density 22.800142999999998
#
# number of rings (size 3 to 8) (size 9 to 14) (size 15 to 20)
#    0.000    2.000    0.000    4.000    4.667    0.000 
#    3.000    5.833    0.000    0.000    0.000    0.000 
#    0.000    0.000    0.000    0.000    0.000    0.000 
#
# Total GULP energy -66856.627362 kJ/mol
# GULP energy per Si atom -5571.385614 kJ/mol
# Density = 2.274825 g / cm^3
# Si number density = 22.800143 Si / 1000 Ang^3
#
#
#
# Elastic Constant Matrix: (Units=GPa)
#
#
# Indices 1 2 3 4 5 6 
#
# 1 34.4912 6.2347 -5.9306 12.7215 -8.8280 6.6080
# 2 6.2347 133.7109 18.1639 5.4419 -1.9614 16.0982
# 3 -5.9306 18.1639 85.3568 6.1557 -12.5104 -13.6900
# 4 12.7215 5.4419 6.1557 35.5716 8.7007 -5.3660
# 5 -8.8280 -1.9614 -12.5104 8.7007 33.5383 -0.3631
# 6 6.6080 16.0982 -13.6900 -5.3660 -0.3631 25.9133
#
#
#
# Elastic Compliance Matrix: (Units=1/GPa)
#
#
# Indices 1 2 3 4 5 6 
#
# 1 0.047381 -0.000021 0.005990 -0.025226 0.021099 -0.013833
# 2 -0.000021 0.008858 -0.002972 -0.001915 -0.000180 -0.007467
# 3 0.005990 -0.002972 0.015648 -0.005382 0.008718 0.007594
# 4 -0.025226 -0.001915 -0.005382 0.045445 -0.020399 0.013904
# 5 0.021099 -0.000180 0.008718 -0.020399 0.043858 -0.004272
# 6 -0.013833 -0.007467 0.007594 0.013904 -0.004272 0.053587
#
#
# Mechanical properties :
#
#
# Convention : Reuss Voigt Hill
#
# Bulk Modulus (GPa) = 12.84040 32.27721 22.55881
# Shear Modulus (GPa) = 21.29970 34.67735 27.98852
#
# Velocity S-wave (km/s) = 3.05977 3.90414 3.50745
# Velocity P-wave (km/s) = 4.25757 5.87455 5.13017
#
# Compressibility (1/GPa) = 0.07787919
#
# Stress axis : x y z
#
# Youngs Moduli (GPa) = 21.10535 112.89408 63.90576
#
# Poissons Ratio (x) = 0.00242 -0.38277
# Poissons Ratio (y) = 0.00045 0.18995
# Poissons Ratio (z) = -0.12641 0.33555
#
# Static dielectric constant tensor:
#      x y z
#    x 1.846120 0.014380 -0.027190 
#    y 0.014380 2.156520 -0.052800 
#    z -0.027190 -0.052800 1.824060 
# 
# From -- ./inp_files/372977.got.cif
#   From: 2010.05.17/outbox.cif.g08.bks.cpg/sg2_187_cif.got.tgz:372977.got - 2010.06.03 11:33:40.
