data_PCOD9107747
_publ_section_title
;
Structure prediction by ZEFSAII (Michael W. Deem and Ramdas Pophale) SiO2 
 PCOD9107747
Probable space group: P -1
;
_chemical_formula_sum "Si O2"
_cell_formula_units_Z 14
_cell_length_a 5.097258
_cell_length_b 8.532241
_cell_length_c 22.997900
_cell_angle_alpha 45.633058
_cell_angle_beta 54.226981
_cell_angle_gamma 55.703277
_cell_volume 559.105052
_symmetry_space_group_name_H-M "P -1"
_symmetry_group_IT_number 2
_symmetry_cell_setting 'triclinic'
loop_
_space_group_symop_operation_xyz
x,y,z
-x,-y,-z
loop_
_atom_site_type_symbol
_atom_site_label
_atom_site_fract_x
_atom_site_fract_y
_atom_site_fract_z
Si Si1 0.636494 0.540522 0.196189
Si Si2 0.122085 0.377103 0.076154
Si Si3 0.192192 0.039418 0.784323
Si Si4 0.157102 0.373393 0.603994
Si Si5 0.942733 0.207587 0.554284
Si Si6 0.155312 0.243711 0.289142
Si Si7 0.271419 0.005085 0.914729
O O1 0.375493 0.402181 0.245501
O O2 0.522148 0.813766 0.142010
O O3 0.950054 0.515451 0.117449
O O4 0.823246 0.408623 0.262282
O O5 0.513819 0.254474 0.055266
O O6 0.967590 0.163092 0.156155
O O7 0.000000 0.500000 0.000000
O O8 0.048641 0.247351 0.705153
O O9 0.148438 0.091325 0.844307
O O10 0.590618 0.922146 0.747364
O O11 0.548032 0.339895 0.577256
O O12 0.959419 0.634711 0.549139
O O13 0.122377 0.238942 0.583560
O O14 0.953811 0.946650 0.608508
O O15 0.000000 0.000000 0.000000
#
# Coordination Sequence:
#
# PCOD9107747 Si02
#       7
#     2   2   2   2   2   2   2
#     4  11  25  42  67  94 133 173 224 268 343 390
#     4  11  25  44  68  92 128 175 224 285 339 403
#     4  10  22  39  64  91 133 173 222 268 341 389
#     4   9  18  30  60  98 131 170 213 277 315 402
#     4   9  16  32  58  99 134 164 221 263 330 381
#     4  10  20  40  65  94 130 176 213 275 323 404
#     4  12  28  43  67  96 133 175 230 285 341 401
#
# _framework density 25.040019000000001
#
# number of rings (size 3 to 8) (size 9 to 14) (size 15 to 20)
#    0.000    1.714    1.429    3.429    8.000    2.286 
#    0.000    0.000    0.000    1.714    0.000    0.000 
#    0.000    0.000    0.000    0.000    0.000    0.000 
#
# Total GULP energy -78228.235917 kJ/mol
# GULP energy per Si atom -5587.731137 kJ/mol
# Density = 2.498303 g / cm^3
# Si number density = 25.040019 Si / 1000 Ang^3
#
#
#
# Elastic Constant Matrix: (Units=GPa)
#
#
# Indices 1 2 3 4 5 6 
#
# 1 113.7942 14.6990 36.1714 -12.6877 8.7677 9.9768
# 2 14.6990 78.8522 36.6762 -24.2482 8.1094 1.3395
# 3 36.1714 36.6762 186.9006 -28.7853 22.6663 7.5609
# 4 -12.6877 -24.2482 -28.7853 36.7924 1.9177 -2.3931
# 5 8.7677 8.1094 22.6663 1.9177 43.1399 -9.3213
# 6 9.9768 1.3395 7.5609 -2.3931 -9.3213 28.8032
#
#
#
# Elastic Compliance Matrix: (Units=1/GPa)
#
#
# Indices 1 2 3 4 5 6 
#
# 1 0.009925 -0.000370 -0.001083 0.002210 -0.002274 -0.003689
# 2 -0.000370 0.016743 -0.001299 0.010015 -0.002926 -0.000424
# 3 -0.001083 -0.001299 0.007056 0.004345 -0.003940 -0.002331
# 4 0.002210 0.010015 0.004345 0.038199 -0.006601 -0.001334
# 5 -0.002274 -0.002926 -0.003940 -0.006601 0.028880 0.010756
# 6 -0.003689 -0.000424 -0.002331 -0.001334 0.010756 0.039998
#
#
# Mechanical properties :
#
#
# Convention : Reuss Voigt Hill
#
# Bulk Modulus (GPa) = 35.43675 61.62669 48.53172
# Shear Modulus (GPa) = 32.11053 41.21378 36.66215
#
# Velocity S-wave (km/s) = 3.58490 4.06139 3.83056
# Velocity P-wave (km/s) = 5.59626 6.83066 6.24404
#
# Compressibility (1/GPa) = 0.02821929
#
# Stress axis : x y z
#
# Youngs Moduli (GPa) = 100.75782 59.72495 141.71960
#
# Poissons Ratio (x) = 0.02212 0.15345
# Poissons Ratio (y) = 0.03732 0.18415
# Poissons Ratio (z) = 0.10910 0.07761
#
# Static dielectric constant tensor:
#      x y z
#    x 2.078090 -0.020480 -0.057980 
#    y -0.020480 2.038380 0.083720 
#    z -0.057980 0.083720 1.867120 
# 
# From -- ./inp_files/117493.got.cif
#   From: 2010.05.17/outbox.cif.g08.bks.cpg/sg2_59_cif.got.tgz:117493.got - 2010.06.03 11:33:40.
