data_PCOD9107472
_publ_section_title
;
Structure prediction by ZEFSAII (Michael W. Deem and Ramdas Pophale) SiO2 
 PCOD9107472
Probable space group: P -1
;
_chemical_formula_sum "Si O2"
_cell_formula_units_Z 16
_cell_length_a 6.665058
_cell_length_b 11.949197
_cell_length_c 12.299667
_cell_angle_alpha 71.981462
_cell_angle_beta 89.900452
_cell_angle_gamma 134.317188
_cell_volume 631.409797
_symmetry_space_group_name_H-M "P -1"
_symmetry_group_IT_number 2
_symmetry_cell_setting 'triclinic'
loop_
_space_group_symop_operation_xyz
x,y,z
-x,-y,-z
loop_
_atom_site_type_symbol
_atom_site_label
_atom_site_fract_x
_atom_site_fract_y
_atom_site_fract_z
Si Si1 0.148932 0.868731 0.050772
Si Si2 0.811808 0.417771 0.360272
Si Si3 0.775829 0.719864 0.593355
Si Si4 0.926508 0.606304 0.963548
Si Si5 0.074397 0.728979 0.410163
Si Si6 0.669839 0.449098 0.808006
Si Si7 0.750566 0.062462 0.290476
Si Si8 0.864236 0.921925 0.167047
O O1 0.067879 0.895177 0.157481
O O2 0.973665 0.680922 0.061048
O O3 0.500000 0.000000 0.000000
O O4 0.043819 0.927989 0.952532
O O5 0.460995 0.279807 0.388771
O O6 0.877497 0.349430 0.472739
O O7 0.943202 0.597820 0.350233
O O8 0.999950 0.454741 0.247083
O O9 0.624863 0.541430 0.703487
O O10 0.847399 0.722305 0.467547
O O11 0.080138 0.861467 0.617935
O O12 0.637317 0.473960 0.925664
O O13 0.126333 0.781512 0.836266
O O14 0.000000 0.500000 0.000000
O O15 0.399484 0.921007 0.336606
O O16 0.451187 0.254899 0.826116
O O17 0.828944 0.968462 0.268182
#
# Coordination Sequence:
#
# PCOD9107472 Si02
#       8
#     2   2   2   2   2   2   2   2
#     4  10  22  39  61  89 119 163 217 269 323 377
#     4  10  21  38  65  94 129 173 210 263 322 392
#     4  10  22  37  62  98 129 170 216 258 326 385
#     4  10  22  40  65  93 126 171 217 267 331 385
#     4  10  20  40  64  93 134 168 214 266 323 384
#     4  10  21  39  62  89 129 167 215 265 316 384
#     4  10  21  41  65  95 135 173 214 276 324 382
#     4  10  21  40  61  86 125 167 210 266 322 377
#
# _framework density 25.340119000000001
#
# number of rings (size 3 to 8) (size 9 to 14) (size 15 to 20)
#    0.000    2.000    1.250    1.500    0.000    4.000 
#    0.000    2.500    0.000    0.000    0.000    0.000 
#    0.000    0.000    0.000    0.000    0.000    0.000 
#
# Total GULP energy -89428.564692 kJ/mol
# GULP energy per Si atom -5589.285293 kJ/mol
# Density = 2.528244 g / cm^3
# Si number density = 25.340119 Si / 1000 Ang^3
#
#
#
# Elastic Constant Matrix: (Units=GPa)
#
#
# Indices 1 2 3 4 5 6 
#
# 1 138.3548 37.8329 30.5430 6.2503 -23.2839 -8.9969
# 2 37.8329 151.0155 28.2845 11.3532 -12.3212 -23.3247
# 3 30.5430 28.2845 44.0186 13.8822 -5.4541 -11.1492
# 4 6.2503 11.3532 13.8822 38.7433 -13.5209 -6.0897
# 5 -23.2839 -12.3212 -5.4541 -13.5209 41.5367 -1.5195
# 6 -8.9969 -23.3247 -11.1492 -6.0897 -1.5195 50.7738
#
#
#
# Elastic Compliance Matrix: (Units=1/GPa)
#
#
# Indices 1 2 3 4 5 6 
#
# 1 0.009646 -0.000978 -0.006213 0.002848 0.005243 0.000394
# 2 -0.000978 0.008100 -0.003649 0.000053 0.001495 0.002798
# 3 -0.006213 -0.003649 0.033039 -0.010511 -0.003535 0.003111
# 4 0.002848 0.000053 -0.010511 0.033415 0.011203 0.002564
# 5 0.005243 0.001495 -0.003535 0.011203 0.030754 0.003104
# 6 0.000394 0.002798 0.003111 0.002564 0.003104 0.022134
#
#
# Mechanical properties :
#
#
# Convention : Reuss Voigt Hill
#
# Bulk Modulus (GPa) = 34.36014 58.52329 46.44172
# Shear Modulus (GPa) = 29.67874 41.99266 35.83570
#
# Velocity S-wave (km/s) = 3.42602 4.07524 3.76465
# Velocity P-wave (km/s) = 5.40732 6.72969 6.10442
#
# Compressibility (1/GPa) = 0.02910349
#
# Stress axis : x y z
#
# Youngs Moduli (GPa) = 103.66685 123.44930 30.26761
#
# Poissons Ratio (x) = 0.12078 0.18807
# Poissons Ratio (y) = 0.10143 0.11045
# Poissons Ratio (z) = 0.64413 0.45047
#
# Static dielectric constant tensor:
#      x y z
#    x 2.023760 -0.014480 -0.019110 
#    y -0.014480 1.965520 0.028380 
#    z -0.019110 0.028380 2.054910 
# 
# From -- ./inp_files/482790.got.cif
#   From: 2010.05.17/outbox.cif.g08.bks.cpg/sg2_242_cif.got.tgz:482790.got - 2010.06.03 11:33:40.
