data_PCOD9107951
_publ_section_title
;
Structure prediction by ZEFSAII (Michael W. Deem and Ramdas Pophale) SiO2 
 PCOD9107951
Probable space group: P -1
;
_chemical_formula_sum "Si O2"
_cell_formula_units_Z 16
_cell_length_a 13.794384
_cell_length_b 10.327410
_cell_length_c 11.496291
_cell_angle_alpha 98.006948
_cell_angle_beta 113.957101
_cell_angle_gamma 29.597365
_cell_volume 651.036171
_symmetry_space_group_name_H-M "P -1"
_symmetry_group_IT_number 2
_symmetry_cell_setting 'triclinic'
loop_
_space_group_symop_operation_xyz
x,y,z
-x,-y,-z
loop_
_atom_site_type_symbol
_atom_site_label
_atom_site_fract_x
_atom_site_fract_y
_atom_site_fract_z
Si Si1 0.783764 0.427727 0.937017
Si Si2 0.164023 0.135011 0.937544
Si Si3 0.837487 0.106253 0.772109
Si Si4 0.709360 0.879273 0.212819
Si Si5 0.561542 0.781236 0.255497
Si Si6 0.904667 0.849704 0.488128
Si Si7 0.994064 0.893111 0.326153
Si Si8 0.471022 0.778422 0.442894
O O1 0.777037 0.302067 0.841951
O O2 0.520463 0.772215 0.875770
O O3 0.949237 0.209007 0.100250
O O4 0.924421 0.382159 0.926828
O O5 0.157373 0.016601 0.834089
O O6 0.168396 0.256602 0.871220
O O7 0.607396 0.862588 0.217535
O O8 0.387588 0.888265 0.103322
O O9 0.933469 0.049983 0.687459
O O10 0.607254 0.269376 0.665049
O O11 0.890071 0.746325 0.375286
O O12 0.449564 0.911026 0.347854
O O13 0.830822 0.431654 0.364817
O O14 0.866449 0.015803 0.403618
O O15 0.707826 0.026795 0.510130
O O16 0.254452 0.533157 0.420235
#
# Coordination Sequence:
#
# PCOD9107951 Si02
#       8
#     2   2   2   2   2   2   2   2
#     4  10  22  41  64  94 125 160 206 256 313 362
#     4  10  21  41  61  92 125 158 206 256 302 363
#     4  10  20  40  66  92 124 161 205 260 306 362
#     4  11  24  42  65  91 125 168 206 251 312 366
#     4  11  24  40  64  95 126 162 207 256 304 369
#     4  10  23  41  61  93 129 161 206 252 307 372
#     4   9  21  40  63  91 127 161 206 254 308 365
#     4  11  22  41  66  94 124 165 205 252 311 369
#
# _framework density 24.576207
#
# number of rings (size 3 to 8) (size 9 to 14) (size 15 to 20)
#    0.000    1.750    1.250    2.625    1.750    2.500 
#    0.000   17.500    0.000    0.000    0.000    0.000 
#    0.000    0.000    0.000    0.000    0.000    0.000 
#
# Total GULP energy -89497.935042 kJ/mol
# GULP energy per Si atom -5593.620940 kJ/mol
# Density = 2.452027 g / cm^3
# Si number density = 24.576207 Si / 1000 Ang^3
#
#
#
# Elastic Constant Matrix: (Units=GPa)
#
#
# Indices 1 2 3 4 5 6 
#
# 1 130.2092 -2.0704 2.5912 2.2457 -16.8011 -37.3512
# 2 -2.0704 27.2537 7.7951 -6.6530 -3.7529 -18.3422
# 3 2.5912 7.7951 124.9351 -2.8946 11.8328 -9.4628
# 4 2.2457 -6.6530 -2.8946 27.0697 -13.8285 -4.3270
# 5 -16.8011 -3.7529 11.8328 -13.8285 53.9484 5.0497
# 6 -37.3512 -18.3422 -9.4628 -4.3270 5.0497 38.2180
#
#
#
# Elastic Compliance Matrix: (Units=1/GPa)
#
#
# Indices 1 2 3 4 5 6 
#
# 1 0.017584 0.026264 -0.000153 0.013944 0.008078 0.030263
# 2 0.026264 0.106797 -0.002099 0.047066 0.020739 0.078993
# 3 -0.000153 -0.002099 0.008431 -0.000592 -0.002304 0.001168
# 4 0.013944 0.047066 -0.000592 0.064207 0.020400 0.040644
# 5 0.008078 0.020739 -0.002304 0.020400 0.026726 0.016056
# 6 0.030263 0.078993 0.001168 0.040644 0.016056 0.096423
#
#
# Mechanical properties :
#
#
# Convention : Reuss Voigt Hill
#
# Bulk Modulus (GPa) = 5.52991 33.22553 19.37772
# Shear Modulus (GPa) = 15.04105 42.11936 28.58021
#
# Velocity S-wave (km/s) = 2.47658 4.14433 3.41386
# Velocity P-wave (km/s) = 3.23000 6.03733 4.84161
#
# Compressibility (1/GPa) = 0.18083475
#
# Stress axis : x y z
#
# Youngs Moduli (GPa) = 56.87120 9.36359 118.60637
#
# Poissons Ratio (x) = -0.24592 0.01817
# Poissons Ratio (y) = -1.49364 0.24893
# Poissons Ratio (z) = 0.00871 0.01965
#
# Static dielectric constant tensor:
#      x y z
#    x 2.018000 -0.004380 -0.023810 
#    y -0.004380 1.932670 0.063070 
#    z -0.023810 0.063070 1.930860 
# 
# From -- ./inp_files/452504.got.cif
#   From: 2010.05.17/outbox.cif.g08.bks.cpg/sg2_227_cif.got.tgz:452504.got - 2010.06.03 11:33:40.
