data_PCOD9107808
_publ_section_title
;
Structure prediction by ZEFSAII (Michael W. Deem and Ramdas Pophale) SiO2 
 PCOD9107808
Probable space group: P -1
;
_chemical_formula_sum "Si O2"
_cell_formula_units_Z 16
_cell_length_a 31.022877
_cell_length_b 4.969591
_cell_length_c 8.120510
_cell_angle_alpha 99.931846
_cell_angle_beta 33.524966
_cell_angle_gamma 110.684746
_cell_volume 628.591749
_symmetry_space_group_name_H-M "P -1"
_symmetry_group_IT_number 2
_symmetry_cell_setting 'triclinic'
loop_
_space_group_symop_operation_xyz
x,y,z
-x,-y,-z
loop_
_atom_site_type_symbol
_atom_site_label
_atom_site_fract_x
_atom_site_fract_y
_atom_site_fract_z
Si Si1 0.520820 0.809059 0.274036
Si Si2 0.052366 0.849537 0.722451
Si Si3 0.111312 0.690283 0.826069
Si Si4 0.255063 0.891484 0.965981
Si Si5 0.237799 0.433391 0.256726
Si Si6 0.591131 0.213743 0.657209
Si Si7 0.094538 0.756096 0.251511
Si Si8 0.375206 0.569287 0.100723
O O1 0.439730 0.686518 0.401495
O O2 0.552909 0.552814 0.187332
O O3 0.500000 0.000000 0.500000
O O4 0.597868 0.078026 0.971073
O O5 0.121968 0.867280 0.639677
O O6 0.075670 0.962002 0.473305
O O7 0.988949 0.509949 0.869213
O O8 0.000000 0.000000 0.000000
O O9 0.161230 0.477939 0.607696
O O10 0.128875 0.846330 0.965348
O O11 0.342484 0.937302 0.601658
O O12 0.262777 0.718407 0.087492
O O13 0.170850 0.705084 0.103716
O O14 0.243372 0.190832 0.083532
O O15 0.299234 0.423302 0.205491
O O16 0.635170 0.472652 0.675386
O O17 0.500000 0.000000 0.000000
O O18 0.000000 0.500000 0.500000
#
# Coordination Sequence:
#
# PCOD9107808 Si02
#       8
#     2   2   2   2   2   2   2   2
#     4  11  22  40  64  96 129 177 226 281 351 426
#     4  10  20  40  65  98 137 183 234 294 358 433
#     4  10  22  39  65  95 139 183 234 295 359 430
#     4  12  26  47  70 103 142 190 244 306 367 446
#     4  12  25  45  70 101 143 189 244 304 366 435
#     4  10  24  44  70 103 144 185 241 303 369 436
#     4  10  22  45  69 106 144 190 248 297 374 437
#     4  11  23  40  64  94 133 176 226 285 355 419
#
# _framework density 25.453724000000001
#
# number of rings (size 3 to 8) (size 9 to 14) (size 15 to 20)
#    0.000    1.250    1.250    4.500    0.000    5.500 
#    4.500    2.500    0.000    0.000    0.000    0.000 
#    0.000    0.000    0.000    0.000    0.000    0.000 
#
# Total GULP energy -89147.598819 kJ/mol
# GULP energy per Si atom -5571.724926 kJ/mol
# Density = 2.539579 g / cm^3
# Si number density = 25.453724 Si / 1000 Ang^3
#
#
#
# Elastic Constant Matrix: (Units=GPa)
#
#
# Indices 1 2 3 4 5 6 
#
# 1 189.6957 31.9282 64.6998 29.3145 1.5235 39.5009
# 2 31.9282 72.7691 37.4355 33.3541 0.7655 1.7809
# 3 64.6998 37.4355 159.1055 31.3005 2.6899 14.0211
# 4 29.3145 33.3541 31.3005 41.3355 9.9259 -2.8338
# 5 1.5235 0.7655 2.6899 9.9259 59.4532 4.3464
# 6 39.5009 1.7809 14.0211 -2.8338 4.3464 36.9325
#
#
#
# Elastic Compliance Matrix: (Units=1/GPa)
#
#
# Indices 1 2 3 4 5 6 
#
# 1 0.008644 -0.000088 -0.001543 -0.005891 0.001512 -0.009285
# 2 -0.000088 0.022921 -0.001678 -0.018014 0.002944 -0.002103
# 3 -0.001543 -0.001678 0.008249 -0.004037 0.000491 -0.001768
# 4 -0.005891 -0.018014 -0.004037 0.048949 -0.008591 0.013469
# 5 0.001512 0.002944 0.000491 -0.008591 0.018505 -0.004782
# 6 -0.009285 -0.002103 -0.001768 0.013469 -0.004782 0.039377
#
#
# Mechanical properties :
#
#
# Convention : Reuss Voigt Hill
#
# Bulk Modulus (GPa) = 30.12290 76.63303 53.37797
# Shear Modulus (GPa) = 30.42697 46.71139 38.56918
#
# Velocity S-wave (km/s) = 3.46118 4.28851 3.89687
# Velocity P-wave (km/s) = 5.27571 7.39554 6.42367
#
# Compressibility (1/GPa) = 0.03319733
#
# Stress axis : x y z
#
# Youngs Moduli (GPa) = 115.68252 43.62839 121.22401
#
# Poissons Ratio (x) = 0.00382 0.18704
# Poissons Ratio (y) = 0.01012 0.20342
# Poissons Ratio (z) = 0.17849 0.07321
#
# Static dielectric constant tensor:
#      x y z
#    x 2.086720 -0.011620 0.088850 
#    y -0.011620 2.101080 -0.116820 
#    z 0.088850 -0.116820 2.160680 
# 
# From -- ./inp_files/358254.got.cif
#   From: 2010.05.17/outbox.cif.g08.bks.cpg/sg2_180_cif.got.tgz:358254.got - 2010.06.03 11:33:40.
