data_PCOD9107673
_publ_section_title
;
Structure prediction by ZEFSAII (Michael W. Deem and Ramdas Pophale) SiO2 
 PCOD9107673
Probable space group: P -1
;
_chemical_formula_sum "Si O2"
_cell_formula_units_Z 16
_cell_length_a 11.222509
_cell_length_b 9.188334
_cell_length_c 8.673063
_cell_angle_alpha 59.342129
_cell_angle_beta 92.927808
_cell_angle_gamma 94.256713
_cell_volume 767.116316
_symmetry_space_group_name_H-M "P -1"
_symmetry_group_IT_number 2
_symmetry_cell_setting 'triclinic'
loop_
_space_group_symop_operation_xyz
x,y,z
-x,-y,-z
loop_
_atom_site_type_symbol
_atom_site_label
_atom_site_fract_x
_atom_site_fract_y
_atom_site_fract_z
Si Si1 0.509631 0.817690 0.671672
Si Si2 0.232887 0.766467 0.659274
Si Si3 0.092104 0.007371 0.361088
Si Si4 0.004561 0.184778 0.822862
Si Si5 0.761838 0.576955 0.320413
Si Si6 0.603379 0.528392 0.619761
Si Si7 0.533097 0.645638 0.052716
Si Si8 0.963346 0.308400 0.062170
O O1 0.371138 0.751151 0.708314
O O2 0.579731 0.695935 0.627807
O O3 0.500000 0.000000 0.500000
O O4 0.554141 0.807932 0.856274
O O5 0.213604 0.944457 0.475064
O O6 0.194981 0.600320 0.645996
O O7 0.150993 0.756252 0.811201
O O8 0.053164 0.857820 0.321150
O O9 0.000000 0.000000 0.500000
O O10 0.071807 0.187473 0.181788
O O11 0.134909 0.275657 0.762541
O O12 0.939351 0.293489 0.886857
O O13 0.000000 0.000000 0.000000
O O14 0.719267 0.549899 0.509034
O O15 0.650580 0.621204 0.177589
O O16 0.500000 0.500000 0.500000
O O17 0.577560 0.375433 0.822792
O O18 0.500000 0.500000 0.000000
O O19 0.000000 0.500000 0.000000
#
# Coordination Sequence:
#
# PCOD9107673 Si02
#       8
#     2   2   2   2   2   2   2   2
#     4  11  23  39  62  95 132 165 214 273 323 387
#     4  11  21  40  61  89 131 172 217 258 333 383
#     4   9  22  41  61  87 129 164 209 279 320 381
#     4  10  22  40  61  94 130 167 217 272 325 389
#     4  11  20  38  70  91 129 178 216 270 329 389
#     4   9  18  38  63  89 123 163 216 270 311 387
#     4   9  18  39  64  92 123 163 215 264 313 384
#     4  10  20  40  65  91 124 166 219 271 318 388
#
# _framework density 20.857333000000001
#
# number of rings (size 3 to 8) (size 9 to 14) (size 15 to 20)
#    0.000    2.000    5.000    0.000    0.000    5.500 
#    2.250    7.500    0.000    0.000    0.000    0.000 
#    0.000    0.000    0.000    0.000    0.000    0.000 
#
# Total GULP energy -89116.743463 kJ/mol
# GULP energy per Si atom -5569.796466 kJ/mol
# Density = 2.080986 g / cm^3
# Si number density = 20.857333 Si / 1000 Ang^3
#
#
#
# Elastic Constant Matrix: (Units=GPa)
#
#
# Indices 1 2 3 4 5 6 
#
# 1 58.8457 12.9772 28.7565 5.0328 -11.2050 -7.6178
# 2 12.9772 84.0804 42.8780 11.2997 -5.2454 -8.8122
# 3 28.7565 42.8780 142.9410 10.4855 -12.2145 -10.4264
# 4 5.0328 11.2997 10.4855 44.7095 -9.7715 -8.8026
# 5 -11.2050 -5.2454 -12.2145 -9.7715 41.6040 -0.7876
# 6 -7.6178 -8.8122 -10.4264 -8.8026 -0.7876 22.9487
#
#
#
# Elastic Compliance Matrix: (Units=1/GPa)
#
#
# Indices 1 2 3 4 5 6 
#
# 1 0.020215 -0.000781 -0.003086 0.000752 0.004720 0.005459
# 2 -0.000781 0.014555 -0.003847 -0.002134 0.000047 0.002765
# 3 -0.003086 -0.003847 0.009011 -0.000200 0.001312 0.001561
# 4 0.000752 -0.002134 -0.000200 0.026103 0.006187 0.009565
# 5 0.004720 0.000047 0.001312 0.006187 0.027255 0.005489
# 6 0.005459 0.002765 0.001561 0.009565 0.005489 0.051016
#
#
# Mechanical properties :
#
#
# Convention : Reuss Voigt Hill
#
# Bulk Modulus (GPa) = 35.26840 50.56563 42.91702
# Shear Modulus (GPa) = 28.89590 35.26946 32.08268
#
# Velocity S-wave (km/s) = 3.72614 4.11662 3.92624
# Velocity P-wave (km/s) = 5.95468 6.84775 6.41677
#
# Compressibility (1/GPa) = 0.02835399
#
# Stress axis : x y z
#
# Youngs Moduli (GPa) = 49.46817 68.70438 110.97116
#
# Poissons Ratio (x) = 0.05363 0.34249
# Poissons Ratio (y) = 0.03861 0.42689
# Poissons Ratio (z) = 0.15267 0.26429
#
# Static dielectric constant tensor:
#      x y z
#    x 1.791900 -0.017790 0.017630 
#    y -0.017790 1.774130 -0.013490 
#    z 0.017630 -0.013490 1.824610 
# 
# From -- ./inp_files/242560.got.cif
#   From: 2010.05.17/outbox.cif.g08.bks.cpg/sg2_122_cif.got.tgz:242560.got - 2010.06.03 11:33:40.
