data_PCOD9107610
_publ_section_title
;
Structure prediction by ZEFSAII (Michael W. Deem and Ramdas Pophale) SiO2 
 PCOD9107610
Probable space group: P -1
;
_chemical_formula_sum "Si O2"
_cell_formula_units_Z 16
_cell_length_a 8.744442
_cell_length_b 9.227840
_cell_length_c 18.915156
_cell_angle_alpha 138.304802
_cell_angle_beta 63.607389
_cell_angle_gamma 131.802788
_cell_volume 752.442935
_symmetry_space_group_name_H-M "P -1"
_symmetry_group_IT_number 2
_symmetry_cell_setting 'triclinic'
loop_
_space_group_symop_operation_xyz
x,y,z
-x,-y,-z
loop_
_atom_site_type_symbol
_atom_site_label
_atom_site_fract_x
_atom_site_fract_y
_atom_site_fract_z
Si Si1 0.399239 0.765997 0.808390
Si Si2 0.028157 0.655935 0.932701
Si Si3 0.350019 0.835097 0.690670
Si Si4 0.130969 0.871660 0.145140
Si Si5 0.529942 0.597582 0.246159
Si Si6 0.412052 0.547948 0.104485
Si Si7 0.890725 0.643302 0.677740
Si Si8 0.649745 0.142929 0.454164
O O1 0.364409 0.701116 0.708882
O O2 0.400650 0.538274 0.765231
O O3 0.225958 0.789272 0.889659
O O4 0.628814 0.023421 0.865580
O O5 0.983679 0.379943 0.871892
O O6 0.832528 0.604960 0.911102
O O7 0.057620 0.807633 0.055288
O O8 0.418795 0.800655 0.586318
O O9 0.111814 0.737562 0.697049
O O10 0.493580 0.143960 0.792261
O O11 0.112438 0.109529 0.258138
O O12 0.502997 0.492333 0.134201
O O13 0.296308 0.500801 0.279653
O O14 0.677699 0.912511 0.339131
O O15 0.500000 0.500000 0.000000
O O16 0.824896 0.422030 0.551491
O O17 0.500000 0.000000 0.500000
#
# Coordination Sequence:
#
# PCOD9107610 Si02
#       8
#     2   2   2   2   2   2   2   2
#     4  11  23  41  63  94 132 163 207 263 313 373
#     4  11  23  39  64  90 135 168 206 256 319 362
#     4  11  22  38  63  92 127 160 213 257 312 376
#     4  10  23  40  61  96 126 169 209 258 311 378
#     4   9  22  40  64  91 124 165 212 257 319 371
#     4  11  23  39  62  91 128 169 214 254 306 376
#     4  10  20  40  65  88 122 162 213 258 314 368
#     4   9  20  41  66  89 122 166 208 263 311 374
#
# _framework density 21.264071999999999
#
# number of rings (size 3 to 8) (size 9 to 14) (size 15 to 20)
#    0.000    1.750    1.250    2.250    7.000    2.000 
#    0.000   10.625    0.000    0.000    0.000    0.000 
#    0.000    0.000    0.000    0.000    0.000    0.000 
#
# Total GULP energy -89291.495304 kJ/mol
# GULP energy per Si atom -5580.718456 kJ/mol
# Density = 2.121567 g / cm^3
# Si number density = 21.264072 Si / 1000 Ang^3
#
#
#
# Elastic Constant Matrix: (Units=GPa)
#
#
# Indices 1 2 3 4 5 6 
#
# 1 103.3580 36.2032 36.8969 -11.0922 24.9252 3.5749
# 2 36.2032 79.4971 36.8642 -18.5250 2.4445 0.7330
# 3 36.8969 36.8642 68.3599 -21.1487 15.4437 15.3635
# 4 -11.0922 -18.5250 -21.1487 39.7029 -5.4420 12.0101
# 5 24.9252 2.4445 15.4437 -5.4420 18.8484 -7.1129
# 6 3.5749 0.7330 15.3635 12.0101 -7.1129 42.6520
#
#
#
# Elastic Compliance Matrix: (Units=1/GPa)
#
#
# Indices 1 2 3 4 5 6 
#
# 1 0.019181 -0.009025 0.003414 0.001324 -0.029627 -0.007996
# 2 -0.009025 0.023094 -0.015467 0.000474 0.025545 0.010058
# 3 0.003414 -0.015467 0.043130 0.019350 -0.042887 -0.028157
# 4 0.001324 0.000474 0.019350 0.040480 -0.013827 -0.020794
# 5 -0.029627 0.025545 -0.042887 -0.013827 0.136744 0.044190
# 6 -0.007996 0.010058 -0.028157 -0.020794 0.044190 0.047310
#
#
# Mechanical properties :
#
#
# Convention : Reuss Voigt Hill
#
# Bulk Modulus (GPa) = 23.12237 52.34927 37.73582
# Shear Modulus (GPa) = 13.64213 29.65737 21.64975
#
# Velocity S-wave (km/s) = 2.53565 3.73864 3.19429
# Velocity P-wave (km/s) = 4.41250 6.58093 5.60263
#
# Compressibility (1/GPa) = 0.04324817
#
# Stress axis : x y z
#
# Youngs Moduli (GPa) = 52.13556 43.30190 23.18556
#
# Poissons Ratio (x) = 0.39079 -0.07915
# Poissons Ratio (y) = 0.47051 0.35862
# Poissons Ratio (z) = -0.17799 0.66977
#
# Static dielectric constant tensor:
#      x y z
#    x 1.771620 -0.012850 -0.000170 
#    y -0.012850 1.850470 -0.028170 
#    z -0.000170 -0.028170 1.763570 
# 
# From -- ./inp_files/556532.got.cif
#   From: 2010.05.17/outbox.cif.g08.bks.cpg/sg2_279_cif.got.tgz:556532.got - 2010.06.03 11:33:40.
