data_PCOD9107803
_publ_section_title
;
Structure prediction by ZEFSAII (Michael W. Deem and Ramdas Pophale) SiO2 
 PCOD9107803
Probable space group: P -1
;
_chemical_formula_sum "Si O2"
_cell_formula_units_Z 14
_cell_length_a 9.598422
_cell_length_b 8.340535
_cell_length_c 7.785745
_cell_angle_alpha 111.922507
_cell_angle_beta 106.137263
_cell_angle_gamma 76.236983
_cell_volume 549.113362
_symmetry_space_group_name_H-M "P -1"
_symmetry_group_IT_number 2
_symmetry_cell_setting 'triclinic'
loop_
_space_group_symop_operation_xyz
x,y,z
-x,-y,-z
loop_
_atom_site_type_symbol
_atom_site_label
_atom_site_fract_x
_atom_site_fract_y
_atom_site_fract_z
Si Si1 0.900105 0.818173 0.389639
Si Si2 0.906584 0.457063 0.116541
Si Si3 0.551429 0.365262 0.310048
Si Si4 0.780305 0.189731 0.505857
Si Si5 0.089499 0.124986 0.191434
Si Si6 0.441066 0.019644 0.287204
Si Si7 0.390190 0.661919 0.154123
O O1 0.849139 0.634860 0.271168
O O2 0.938899 0.869419 0.614692
O O3 0.061982 0.791160 0.355962
O O4 0.789712 0.988743 0.365861
O O5 0.028538 0.321019 0.196099
O O6 0.760579 0.374459 0.996290
O O7 0.000000 0.500000 0.000000
O O8 0.500000 0.500000 0.500000
O O9 0.726189 0.315028 0.377961
O O10 0.498870 0.178370 0.265269
O O11 0.492118 0.480830 0.171747
O O12 0.672707 0.248192 0.650089
O O13 0.264831 0.072772 0.224472
O O14 0.000000 0.000000 0.000000
O O15 0.500000 0.000000 0.500000
O O16 0.465625 0.816367 0.154724
#
# Coordination Sequence:
#
# PCOD9107803 Si02
#       7
#     2   2   2   2   2   2   2
#     4  11  23  40  69  97 140 174 222 290 339 409
#     4  12  24  41  66  99 138 180 230 279 342 409
#     4  10  21  38  67 100 128 178 234 275 340 412
#     4  10  20  40  65  98 131 177 228 275 348 402
#     4  12  25  44  68 102 135 175 231 282 343 410
#     4  12  21  38  70  98 134 177 229 282 341 401
#     4  11  21  42  65 102 131 180 231 280 334 414
#
# _framework density 25.495645
#
# number of rings (size 3 to 8) (size 9 to 14) (size 15 to 20)
#    0.000    0.857    7.143    1.286    4.000    0.000 
#    0.000    0.714    3.143    4.286    0.000    0.000 
#    0.000    0.000    0.000    0.000    0.000    0.000 
#
# Total GULP energy -78137.932341 kJ/mol
# GULP energy per Si atom -5581.280881 kJ/mol
# Density = 2.543762 g / cm^3
# Si number density = 25.495645 Si / 1000 Ang^3
#
#
#
# Elastic Constant Matrix: (Units=GPa)
#
#
# Indices 1 2 3 4 5 6 
#
# 1 58.1677 45.8672 23.8975 2.3699 17.2299 -8.2716
# 2 45.8672 239.7292 60.1131 -1.4066 24.2617 -24.1414
# 3 23.8975 60.1131 107.8259 17.3816 20.9248 -0.2324
# 4 2.3699 -1.4066 17.3816 59.3771 -0.1145 6.9518
# 5 17.2299 24.2617 20.9248 -0.1145 34.3613 -1.8259
# 6 -8.2716 -24.1414 -0.2324 6.9518 -1.8259 55.1516
#
#
#
# Elastic Compliance Matrix: (Units=1/GPa)
#
#
# Indices 1 2 3 4 5 6 
#
# 1 0.022980 -0.002929 -0.001728 -0.000728 -0.008300 0.001974
# 2 -0.002929 0.005628 -0.002423 0.000736 -0.000926 0.001890
# 3 -0.001728 -0.002423 0.012580 -0.003565 -0.005148 -0.000988
# 4 -0.000728 0.000736 -0.003565 0.018173 0.001969 -0.002027
# 5 -0.008300 -0.000926 -0.005148 0.001969 0.037023 -0.000695
# 6 0.001974 0.001890 -0.000988 -0.002027 -0.000695 0.019484
#
#
# Mechanical properties :
#
#
# Convention : Reuss Voigt Hill
#
# Bulk Modulus (GPa) = 36.99927 73.94203 55.47065
# Shear Modulus (GPa) = 35.96174 48.16766 42.06470
#
# Velocity S-wave (km/s) = 3.75974 4.35127 4.06628
# Velocity P-wave (km/s) = 5.77850 7.36950 6.62195
#
# Compressibility (1/GPa) = 0.02702756
#
# Stress axis : x y z
#
# Youngs Moduli (GPa) = 43.51581 177.68719 79.49353
#
# Poissons Ratio (x) = 0.52044 0.13735
# Poissons Ratio (y) = 0.12746 0.19263
# Poissons Ratio (z) = 0.07519 0.43058
#
# Static dielectric constant tensor:
#      x y z
#    x 2.287410 0.101530 -0.044880 
#    y 0.101530 2.281980 -0.012900 
#    z -0.044880 -0.012900 2.039770 
# 
# From -- ./inp_files/241139.got.cif
#   From: 2010.05.17/outbox.cif.g08.bks.cpg/sg2_121_cif.got.tgz:241139.got - 2010.06.03 11:33:40.
