data_PCOD9107430
_publ_section_title
;
Structure prediction by ZEFSAII (Michael W. Deem and Ramdas Pophale) SiO2 
 PCOD9107430
Probable space group: P -1
;
_chemical_formula_sum "Si O2"
_cell_formula_units_Z 14
_cell_length_a 12.351833
_cell_length_b 12.544012
_cell_length_c 22.183100
_cell_angle_alpha 25.768823
_cell_angle_beta 152.950267
_cell_angle_gamma 156.692191
_cell_volume 549.401242
_symmetry_space_group_name_H-M "P -1"
_symmetry_group_IT_number 2
_symmetry_cell_setting 'triclinic'
loop_
_space_group_symop_operation_xyz
x,y,z
-x,-y,-z
loop_
_atom_site_type_symbol
_atom_site_label
_atom_site_fract_x
_atom_site_fract_y
_atom_site_fract_z
Si Si1 0.807514 0.201717 0.513859
Si Si2 0.369101 0.357202 0.441078
Si Si3 0.659472 0.064652 0.765984
Si Si4 0.306614 0.995773 0.744040
Si Si5 0.993044 0.797533 0.849366
Si Si6 0.264041 0.510411 0.786118
Si Si7 0.507471 0.293549 0.933039
O O1 0.801884 0.335625 0.378418
O O2 0.000000 0.500000 0.500000
O O3 0.500000 0.000000 0.500000
O O4 0.919874 0.984575 0.673595
O O5 0.500000 0.500000 0.500000
O O6 0.496610 0.168161 0.590590
O O7 0.018738 0.154559 0.366461
O O8 0.522952 0.659363 0.324361
O O9 0.999609 0.335120 0.792135
O O10 0.510574 0.008016 0.785808
O O11 0.562321 0.754637 0.845115
O O12 0.297334 0.799946 0.893011
O O13 0.714840 0.638031 0.838483
O O14 0.297152 0.062253 0.895417
O O15 0.000000 0.500000 0.000000
O O16 0.294767 0.272530 0.889073
#
# Coordination Sequence:
#
# PCOD9107430 Si02
#       7
#     2   2   2   2   2   2   2
#     4  12  23  46  72  96 130 185 229 283 361 409
#     4  10  20  40  64  91 133 184 228 278 339 396
#     4  11  23  39  64 102 133 174 235 279 323 417
#     4  11  23  41  67  96 143 187 217 282 353 410
#     4  12  26  47  73 105 139 176 242 303 351 425
#     4  12  24  40  69  98 134 180 235 280 339 426
#     4  12  26  45  68  99 141 187 225 282 369 418
#
# _framework density 25.482285999999998
#
# number of rings (size 3 to 8) (size 9 to 14) (size 15 to 20)
#    0.000    0.571    2.857    7.286    0.000    4.571 
#    0.000    0.000    0.000    0.000    0.000    0.000 
#    0.000    0.000    0.000    0.000    0.000    0.000 
#
# Total GULP energy -78296.619866 kJ/mol
# GULP energy per Si atom -5592.615705 kJ/mol
# Density = 2.542429 g / cm^3
# Si number density = 25.482286 Si / 1000 Ang^3
#
#
#
# Elastic Constant Matrix: (Units=GPa)
#
#
# Indices 1 2 3 4 5 6 
#
# 1 42.6799 22.9987 6.6268 -7.4431 3.0019 19.0324
# 2 22.9987 126.8121 14.1305 4.8627 -9.7160 22.4546
# 3 6.6268 14.1305 148.0882 -10.3323 -1.7298 4.0814
# 4 -7.4431 4.8627 -10.3323 31.4320 6.6749 6.5774
# 5 3.0019 -9.7160 -1.7298 6.6749 39.6660 -9.7020
# 6 19.0324 22.4546 4.0814 6.5774 -9.7020 48.9287
#
#
#
# Elastic Compliance Matrix: (Units=1/GPa)
#
#
# Indices 1 2 3 4 5 6 
#
# 1 0.036764 -0.005242 0.000234 0.015189 -0.010536 -0.016045
# 2 -0.005242 0.009500 -0.000838 -0.003361 0.002956 -0.001213
# 3 0.000234 -0.000838 0.007031 0.002782 -0.000576 -0.000781
# 4 0.015189 -0.003361 0.002782 0.042041 -0.012015 -0.012632
# 5 -0.010536 0.002956 -0.000576 -0.012015 0.031325 0.010617
# 6 -0.016045 -0.001213 -0.000781 -0.012632 0.010617 0.031104
#
#
# Mechanical properties :
#
#
# Convention : Reuss Voigt Hill
#
# Bulk Modulus (GPa) = 24.03758 45.01024 34.52391
# Shear Modulus (GPa) = 27.27394 42.26031 34.76712
#
# Velocity S-wave (km/s) = 3.27511 4.07679 3.69774
# Velocity P-wave (km/s) = 4.87394 6.31363 5.63991
#
# Compressibility (1/GPa) = 0.04160153
#
# Stress axis : x y z
#
# Youngs Moduli (GPa) = 27.20081 105.26415 142.22396
#
# Poissons Ratio (x) = 0.55180 -0.03327
# Poissons Ratio (y) = 0.14259 0.11924
# Poissons Ratio (z) = -0.00636 0.08825
#
# Static dielectric constant tensor:
#      x y z
#    x 2.074080 0.034010 0.037700 
#    y 0.034010 1.988550 -0.046830 
#    z 0.037700 -0.046830 2.076720 
# 
# From -- ./inp_files/619629.got.cif
#   From: 2010.05.17/outbox.cif.g08.bks.cpg/sg2_310_cif.got.tgz:619629.got - 2010.06.03 11:33:40.
