data_PCOD9107307
_publ_section_title
;
Structure prediction by ZEFSAII (Michael W. Deem and Ramdas Pophale) SiO2 
 PCOD9107307
Probable space group: P -1
;
_chemical_formula_sum "Si O2"
_cell_formula_units_Z 15
_cell_length_a 8.334758
_cell_length_b 11.346695
_cell_length_c 9.842202
_cell_angle_alpha 114.040604
_cell_angle_beta 69.827806
_cell_angle_gamma 130.529910
_cell_volume 641.782695
_symmetry_space_group_name_H-M "P -1"
_symmetry_group_IT_number 2
_symmetry_cell_setting 'triclinic'
loop_
_space_group_symop_operation_xyz
x,y,z
-x,-y,-z
loop_
_atom_site_type_symbol
_atom_site_label
_atom_site_fract_x
_atom_site_fract_y
_atom_site_fract_z
Si Si1 0.500000 0.000000 0.000000
Si Si2 0.862158 0.846520 0.374417
Si Si3 0.372307 0.670977 0.449891
Si Si4 0.265088 0.488781 0.669666
Si Si5 0.159773 0.103551 0.881381
Si Si6 0.238387 0.851063 0.743281
Si Si7 0.447717 0.671224 0.954293
Si Si8 0.099652 0.464169 0.174876
O O1 0.574234 0.073594 0.166000
O O2 0.541286 0.172056 0.014663
O O3 0.621883 0.790653 0.408609
O O4 0.841951 0.697114 0.374347
O O5 0.943033 0.873325 0.207519
O O6 0.000000 0.000000 0.500000
O O7 0.340299 0.556583 0.529178
O O8 0.273999 0.760964 0.575163
O O9 0.250837 0.571845 0.305460
O O10 0.448704 0.590486 0.776700
O O11 0.087835 0.515382 0.770558
O O12 0.225932 0.989991 0.758867
O O13 0.358534 0.263869 0.967292
O O14 0.000000 0.000000 0.000000
O O15 0.025940 0.720531 0.830284
O O16 0.238022 0.532030 0.031036
#
# Coordination Sequence:
#
# PCOD9107307 Si02
#       8
#     1   2   2   2   2   2   2   2
#     4  10  20  40  64 104 136 166 230 284 338 390
#     4  12  30  46  68 103 144 186 232 285 354 415
#     4  11  24  49  70 102 137 187 230 289 351 416
#     4  11  25  44  72 103 139 185 229 287 347 418
#     4  11  28  46  66 102 142 190 225 294 347 411
#     4  10  23  41  75  98 139 181 234 282 349 409
#     4  11  23  44  70 103 135 184 237 284 346 408
#     4  11  23  43  75 103 137 182 238 287 343 414
#
# _framework density 23.372396999999999
#
# number of rings (size 3 to 8) (size 9 to 14) (size 15 to 20)
#    0.000    1.067    4.000    2.400    7.467    5.333 
#    0.000    0.000    0.000    0.000    0.000    0.000 
#    0.000    0.000    0.000    0.000    0.000    0.000 
#
# Total GULP energy -83734.125936 kJ/mol
# GULP energy per Si atom -5582.275062 kJ/mol
# Density = 2.331920 g / cm^3
# Si number density = 23.372397 Si / 1000 Ang^3
#
#
#
# Elastic Constant Matrix: (Units=GPa)
#
#
# Indices 1 2 3 4 5 6 
#
# 1 36.4730 21.8555 17.2347 4.9480 11.9014 -4.7790
# 2 21.8555 101.5321 37.4671 5.2017 7.5560 -12.0490
# 3 17.2347 37.4671 110.9463 0.2359 33.2910 -9.4367
# 4 4.9480 5.2017 0.2359 49.0234 7.1043 -0.4023
# 5 11.9014 7.5560 33.2910 7.1043 39.9393 1.8211
# 6 -4.7790 -12.0490 -9.4367 -0.4023 1.8211 34.2409
#
#
#
# Elastic Compliance Matrix: (Units=1/GPa)
#
#
# Indices 1 2 3 4 5 6 
#
# 1 0.034806 -0.006252 -0.000432 -0.001564 -0.008687 0.002982
# 2 -0.006252 0.012797 -0.004009 -0.001105 0.002873 0.002360
# 3 -0.000432 -0.004009 0.014102 0.002075 -0.011376 0.003045
# 4 -0.001564 -0.001105 0.002075 0.021374 -0.004878 0.000475
# 5 -0.008687 0.002873 -0.011376 -0.004878 0.037679 -0.005398
# 6 0.002982 0.002360 0.003045 0.000475 -0.005398 0.031583
#
#
# Mechanical properties :
#
#
# Convention : Reuss Voigt Hill
#
# Bulk Modulus (GPa) = 24.80272 44.67402 34.73837
# Shear Modulus (GPa) = 26.71390 36.13365 31.42377
#
# Velocity S-wave (km/s) = 3.38445 3.93618 3.67070
# Velocity P-wave (km/s) = 5.08996 6.30980 5.73242
#
# Compressibility (1/GPa) = 0.04031816
#
# Stress axis : x y z
#
# Youngs Moduli (GPa) = 28.73101 78.14111 70.90957
#
# Poissons Ratio (x) = 0.48856 0.03062
# Poissons Ratio (y) = 0.17963 0.28431
# Poissons Ratio (z) = 0.01241 0.31331
#
# Static dielectric constant tensor:
#      x y z
#    x 1.933150 0.009250 -0.053630 
#    y 0.009250 1.881680 -0.007280 
#    z -0.053630 -0.007280 1.868350 
# 
# From -- ./inp_files/175291.got.cif
#   From: 2010.05.17/outbox.cif.g08.bks.cpg/sg2_88_cif.got.tgz:175291.got - 2010.06.03 11:33:40.
