data_PCOD9107426
_publ_section_title
;
Structure prediction by ZEFSAII (Michael W. Deem and Ramdas Pophale) SiO2 
 PCOD9107426
Probable space group: P -1
;
_chemical_formula_sum "Si O2"
_cell_formula_units_Z 15
_cell_length_a 13.856977
_cell_length_b 9.147124
_cell_length_c 5.291862
_cell_angle_alpha 74.339690
_cell_angle_beta 99.273104
_cell_angle_gamma 73.560697
_cell_volume 598.610018
_symmetry_space_group_name_H-M "P -1"
_symmetry_group_IT_number 2
_symmetry_cell_setting 'triclinic'
loop_
_space_group_symop_operation_xyz
x,y,z
-x,-y,-z
loop_
_atom_site_type_symbol
_atom_site_label
_atom_site_fract_x
_atom_site_fract_y
_atom_site_fract_z
Si Si1 0.958706 0.855346 0.964429
Si Si2 0.334594 0.539214 0.439537
Si Si3 0.474899 0.705524 0.118872
Si Si4 0.000000 0.500000 0.000000
Si Si5 0.174618 0.091662 0.622103
Si Si6 0.592630 0.986749 0.744888
Si Si7 0.316070 0.796430 0.627721
Si Si8 0.758072 0.677094 0.797676
O O1 0.900368 0.908429 0.645935
O O2 0.025987 0.666267 0.028947
O O3 0.885392 0.852960 0.171918
O O4 0.000000 0.000000 0.000000
O O5 0.404347 0.628670 0.288894
O O6 0.409456 0.397730 0.709628
O O7 0.265751 0.677685 0.534158
O O8 0.282579 0.461190 0.251481
O O9 0.453238 0.891601 0.098691
O O10 0.432669 0.700963 0.822263
O O11 0.876812 0.594506 0.973376
O O12 0.230961 0.215036 0.492147
O O13 0.249762 0.906758 0.769953
O O14 0.670125 0.802195 0.878626
O O15 0.500000 0.000000 0.500000
O O16 0.669122 0.071858 0.614818
#
# Coordination Sequence:
#
# PCOD9107426 Si02
#       8
#     2   2   2   1   2   2   2   2
#     4  11  25  49  75 103 141 186 244 306 365 426
#     4  10  21  40  60  95 133 178 229 288 360 417
#     4  10  21  38  63  90 136 174 232 288 345 439
#     4  10  26  44  74 102 144 182 244 302 354 436
#     4  10  25  45  70 104 138 182 240 295 362 439
#     4  10  20  40  64  91 131 179 227 285 360 425
#     4  10  23  37  62  94 136 174 230 289 348 442
#     4  10  22  44  64 100 134 182 230 297 357 423
#
# _framework density 25.058050000000001
#
# number of rings (size 3 to 8) (size 9 to 14) (size 15 to 20)
#    0.000    1.867    1.333    0.800    9.333    2.667 
#    7.200    0.000    0.000    0.000    0.000    0.000 
#    0.000    0.000    0.000    0.000    0.000    0.000 
#
# Total GULP energy -83528.962664 kJ/mol
# GULP energy per Si atom -5568.597511 kJ/mol
# Density = 2.500102 g / cm^3
# Si number density = 25.058050 Si / 1000 Ang^3
#
#
#
# Elastic Constant Matrix: (Units=GPa)
#
#
# Indices 1 2 3 4 5 6 
#
# 1 60.5020 73.6891 13.1038 -3.7707 6.7209 13.4448
# 2 73.6891 218.9704 30.3512 17.7118 8.0832 16.1456
# 3 13.1038 30.3512 73.9336 8.7346 4.1380 11.6708
# 4 -3.7707 17.7118 8.7346 28.8108 9.3932 11.6627
# 5 6.7209 8.0832 4.1380 9.3932 39.3619 1.3281
# 6 13.4448 16.1456 11.6708 11.6627 1.3281 39.0248
#
#
#
# Elastic Compliance Matrix: (Units=1/GPa)
#
#
# Indices 1 2 3 4 5 6 
#
# 1 0.037936 -0.013025 -0.001333 0.021537 -0.008349 -0.013434
# 2 -0.013025 0.009521 -0.001197 -0.009505 0.002539 0.003660
# 3 -0.001333 -0.001197 0.015028 -0.002790 -0.000350 -0.002694
# 4 0.021537 -0.009505 -0.002790 0.056602 -0.014296 -0.019082
# 5 -0.008349 0.002539 -0.000350 -0.014296 0.029582 0.005196
# 6 -0.013434 0.003660 -0.002694 -0.019082 0.005196 0.035070
#
#
# Mechanical properties :
#
#
# Convention : Reuss Voigt Hill
#
# Bulk Modulus (GPa) = 31.87283 65.29936 48.58610
# Shear Modulus (GPa) = 22.19180 37.19029 29.69105
#
# Velocity S-wave (km/s) = 2.97916 3.85667 3.44596
# Velocity P-wave (km/s) = 4.95793 6.77847 5.93838
#
# Compressibility (1/GPa) = 0.03137468
#
# Stress axis : x y z
#
# Youngs Moduli (GPa) = 26.36019 105.02931 66.54323
#
# Poissons Ratio (x) = 1.36800 0.08871
# Poissons Ratio (y) = 0.34334 0.07966
# Poissons Ratio (z) = 0.03514 0.12574
#
# Static dielectric constant tensor:
#      x y z
#    x 2.009130 -0.003220 -0.016720 
#    y -0.003220 2.032590 -0.006620 
#    z -0.016720 -0.006620 1.991840 
# 
# From -- ./inp_files/39285.got.cif
#   From: 2010.05.17/outbox.cif.g08.bks.cpg/sg2_20_cif.got.tgz:39285.got - 2010.06.03 11:33:40.
