data_PCOD9107359
_publ_section_title
;
Structure prediction by ZEFSAII (Michael W. Deem and Ramdas Pophale) SiO2 
 PCOD9107359
Probable space group: P -1
;
_chemical_formula_sum "Si O2"
_cell_formula_units_Z 16
_cell_length_a 7.570842
_cell_length_b 16.041673
_cell_length_c 11.341828
_cell_angle_alpha 119.370966
_cell_angle_beta 116.040859
_cell_angle_gamma 33.342308
_cell_volume 658.553266
_symmetry_space_group_name_H-M "P -1"
_symmetry_group_IT_number 2
_symmetry_cell_setting 'triclinic'
loop_
_space_group_symop_operation_xyz
x,y,z
-x,-y,-z
loop_
_atom_site_type_symbol
_atom_site_label
_atom_site_fract_x
_atom_site_fract_y
_atom_site_fract_z
Si Si1 0.288096 0.988807 0.470956
Si Si2 0.369774 0.092080 0.904808
Si Si3 0.253520 0.373970 0.266241
Si Si4 0.349495 0.287875 0.784071
Si Si5 0.905515 0.271819 0.702165
Si Si6 0.353915 0.814683 0.961284
Si Si7 0.333260 0.505933 0.558220
Si Si8 0.685833 0.818486 0.681943
O O1 0.369205 0.873458 0.322176
O O2 0.400959 0.901124 0.568066
O O3 0.500000 0.000000 0.500000
O O4 0.972029 0.167021 0.546333
O O5 0.033890 0.192552 0.814169
O O6 0.626326 0.951500 0.788523
O O7 0.399176 0.192667 0.989058
O O8 0.500000 0.000000 0.000000
O O9 0.540751 0.285344 0.193537
O O10 0.283396 0.421988 0.429173
O O11 0.290299 0.253035 0.243666
O O12 0.904895 0.539917 0.228254
O O13 0.111175 0.288810 0.745202
O O14 0.525657 0.268763 0.934615
O O15 0.532186 0.433952 0.687314
O O16 0.000000 0.000000 0.000000
O O17 0.500000 0.500000 0.500000
O O18 0.996575 0.684142 0.604262
#
# Coordination Sequence:
#
# PCOD9107359 Si02
#       8
#     2   2   2   2   2   2   2   2
#     4   9  17  36  61  90 117 168 208 248 309 378
#     4  10  21  46  67  85 129 169 211 259 329 379
#     4  12  24  42  63  95 139 166 204 267 331 375
#     4  10  20  40  64  87 132 167 213 251 330 378
#     4   9  20  36  64  93 119 166 216 260 308 375
#     4  11  26  42  67  95 122 171 222 265 306 386
#     4  12  23  39  65  99 130 162 218 262 313 385
#     4  11  23  41  66  95 128 171 206 261 329 376
#
# _framework density 24.295680000000001
#
# number of rings (size 3 to 8) (size 9 to 14) (size 15 to 20)
#    0.000    1.500    3.750    2.250    3.500    0.000 
#    2.250    3.125    0.000    0.000    0.000    0.000 
#    0.000    0.000    0.000    0.000    0.000    0.000 
#
# Total GULP energy -89173.013960 kJ/mol
# GULP energy per Si atom -5573.313372 kJ/mol
# Density = 2.424038 g / cm^3
# Si number density = 24.295680 Si / 1000 Ang^3
#
#
#
# Elastic Constant Matrix: (Units=GPa)
#
#
# Indices 1 2 3 4 5 6 
#
# 1 26.2821 2.0323 7.8770 -0.7327 -9.5664 13.1672
# 2 2.0323 88.9220 11.7519 -27.7609 0.1268 14.4845
# 3 7.8770 11.7519 87.5464 -9.4182 -12.8785 3.4228
# 4 -0.7327 -27.7609 -9.4182 50.9046 3.5238 -6.1563
# 5 -9.5664 0.1268 -12.8785 3.5238 21.6783 -3.4202
# 6 13.1672 14.4845 3.4228 -6.1563 -3.4202 29.3248
#
#
#
# Elastic Compliance Matrix: (Units=1/GPa)
#
#
# Indices 1 2 3 4 5 6 
#
# 1 0.058806 0.002084 -0.001747 -0.002885 0.021371 -0.025343
# 2 0.002084 0.014728 -0.001466 0.007125 -0.002270 -0.006809
# 3 -0.001747 -0.001466 0.012874 0.001211 0.006856 0.001059
# 4 -0.002885 0.007125 0.001211 0.024274 -0.004187 0.002242
# 5 0.021371 -0.002270 0.006856 -0.004187 0.059826 -0.003177
# 6 -0.025343 -0.006809 0.001059 0.002242 -0.003177 0.048820
#
#
# Mechanical properties :
#
#
# Convention : Reuss Voigt Hill
#
# Bulk Modulus (GPa) = 11.88327 27.34143 19.61235
# Shear Modulus (GPa) = 20.02924 32.45417 26.24170
#
# Velocity S-wave (km/s) = 2.87434 3.65882 3.29005
# Velocity P-wave (km/s) = 3.98968 5.39698 4.74578
#
# Compressibility (1/GPa) = 0.08415193
#
# Stress axis : x y z
#
# Youngs Moduli (GPa) = 17.00495 67.89575 77.67687
#
# Poissons Ratio (x) = -0.14149 0.13567
# Poissons Ratio (y) = -0.03544 0.11386
# Poissons Ratio (z) = 0.02970 0.09952
#
# Static dielectric constant tensor:
#      x y z
#    x 1.899630 0.020350 0.090460 
#    y 0.020350 1.919550 -0.007220 
#    z 0.090460 -0.007220 2.303340 
# 
# From -- ./inp_files/329325.got.cif
#   From: 2010.05.17/outbox.cif.g08.bks.cpg/sg2_165_cif.got.tgz:329325.got - 2010.06.03 11:33:40.
