data_PCOD9107434
_publ_section_title
;
Structure prediction by ZEFSAII (Michael W. Deem and Ramdas Pophale) SiO2 
 PCOD9107434
Probable space group: P -1
;
_chemical_formula_sum "Si O2"
_cell_formula_units_Z 13
_cell_length_a 13.327012
_cell_length_b 18.774222
_cell_length_c 16.570795
_cell_angle_alpha 23.044700
_cell_angle_beta 22.778746
_cell_angle_gamma 19.263977
_cell_volume 487.669821
_symmetry_space_group_name_H-M "P -1"
_symmetry_group_IT_number 2
_symmetry_cell_setting 'triclinic'
loop_
_space_group_symop_operation_xyz
x,y,z
-x,-y,-z
loop_
_atom_site_type_symbol
_atom_site_label
_atom_site_fract_x
_atom_site_fract_y
_atom_site_fract_z
Si Si1 0.195216 0.136778 0.496321
Si Si2 0.446241 0.213691 0.645327
Si Si3 0.500000 0.000000 0.000000
Si Si4 0.959495 0.730591 0.692980
Si Si5 0.894842 0.747467 0.296114
Si Si6 0.588669 0.271605 0.128856
Si Si7 0.766264 0.438307 0.166787
O O1 0.944247 0.258585 0.480274
O O2 0.260410 0.299725 0.321422
O O3 0.556552 0.943376 0.388119
O O4 0.180328 0.971403 0.738357
O O5 0.415169 0.166269 0.810023
O O6 0.191857 0.224824 0.763398
O O7 0.483971 0.411103 0.393014
O O8 0.794431 0.978861 0.596894
O O9 0.877095 0.781595 0.907284
O O10 0.209696 0.557345 0.757672
O O11 0.714058 0.665115 0.937078
O O12 0.000000 0.500000 0.500000
O O13 0.196202 0.752061 0.080902
O O14 0.500000 0.500000 0.000000
#
# Coordination Sequence:
#
# PCOD9107434 Si02
#       7
#     2   2   1   2   2   2   2
#     4  10  23  41  63  92 127 167 211 270 315 373
#     4  10  23  40  62  90 127 167 205 262 313 370
#     4  10  20  40  64  92 118 156 212 254 308 378
#     4   9  20  39  63  89 122 164 203 254 320 374
#     4  11  23  41  62  92 128 174 213 251 319 381
#     4  11  23  41  63  91 125 163 216 266 314 372
#     4  10  21  41  63  91 127 161 205 260 319 372
#
# _framework density 26.657378999999999
#
# number of rings (size 3 to 8) (size 9 to 14) (size 15 to 20)
#    0.000    1.846    1.538    2.308    2.154    4.923 
#    0.000   12.308    0.000    0.000    0.000    0.000 
#    0.000    0.000    0.000    0.000    0.000    0.000 
#
# Total GULP energy -72429.182320 kJ/mol
# GULP energy per Si atom -5571.475563 kJ/mol
# Density = 2.659671 g / cm^3
# Si number density = 26.657379 Si / 1000 Ang^3
#
#
#
# Elastic Constant Matrix: (Units=GPa)
#
#
# Indices 1 2 3 4 5 6 
#
# 1 104.8127 16.2582 53.7003 -0.3370 20.3445 8.8477
# 2 16.2582 84.1891 34.7246 8.7638 -6.3292 19.9591
# 3 53.7003 34.7246 163.1176 -9.0039 -1.1433 6.7506
# 4 -0.3370 8.7638 -9.0039 46.4728 -1.8883 -1.8991
# 5 20.3445 -6.3292 -1.1433 -1.8883 49.6826 -10.9473
# 6 8.8477 19.9591 6.7506 -1.8991 -10.9473 28.2870
#
#
#
# Elastic Compliance Matrix: (Units=1/GPa)
#
#
# Indices 1 2 3 4 5 6 
#
# 1 0.013663 0.000274 -0.004422 -0.001353 -0.007089 -0.006246
# 2 0.000274 0.016265 -0.003320 -0.004204 -0.000778 -0.011353
# 3 -0.004422 -0.003320 0.008327 0.002414 0.002285 0.002785
# 4 -0.001353 -0.004204 0.002414 0.023065 0.002090 0.005171
# 5 -0.007089 -0.000778 0.002285 0.002090 0.025783 0.012340
# 6 -0.006246 -0.011353 0.002785 0.005171 0.012340 0.049775
#
#
# Mechanical properties :
#
#
# Convention : Reuss Voigt Hill
#
# Bulk Modulus (GPa) = 42.88446 62.38730 52.63588
# Shear Modulus (GPa) = 31.33065 41.38423 36.35744
#
# Velocity S-wave (km/s) = 3.43200 3.94439 3.69708
# Velocity P-wave (km/s) = 5.64154 6.64819 6.16545
#
# Compressibility (1/GPa) = 0.02331847
#
# Stress axis : x y z
#
# Youngs Moduli (GPa) = 73.19025 61.48003 120.08729
#
# Poissons Ratio (x) = -0.01685 0.53106
# Poissons Ratio (y) = -0.02006 0.39875
# Poissons Ratio (z) = 0.32366 0.20414
#
# Static dielectric constant tensor:
#      x y z
#    x 2.152070 -0.001430 -0.041600 
#    y -0.001430 2.149580 0.029610 
#    z -0.041600 0.029610 2.054290 
# 
# From -- ./inp_files/574362.got.cif
#   From: 2010.05.17/outbox.cif.g08.bks.cpg/sg2_288_cif.got.tgz:574362.got - 2010.06.03 11:33:40.
