data_PCOD9107154
_publ_section_title
;
Structure prediction by ZEFSAII (Michael W. Deem and Ramdas Pophale) SiO2 
 PCOD9107154
Probable space group: P -1
;
_chemical_formula_sum "Si O2"
_cell_formula_units_Z 14
_cell_length_a 23.796875
_cell_length_b 9.669081
_cell_length_c 15.211477
_cell_angle_alpha 142.298598
_cell_angle_beta 18.323393
_cell_angle_gamma 139.962637
_cell_volume 670.990822
_symmetry_space_group_name_H-M "P -1"
_symmetry_group_IT_number 2
_symmetry_cell_setting 'triclinic'
loop_
_space_group_symop_operation_xyz
x,y,z
-x,-y,-z
loop_
_atom_site_type_symbol
_atom_site_label
_atom_site_fract_x
_atom_site_fract_y
_atom_site_fract_z
Si Si1 0.033136 0.771415 0.083270
Si Si2 0.335565 0.326604 0.634730
Si Si3 0.681166 0.987810 0.670866
Si Si4 0.169373 0.926235 0.768396
Si Si5 0.865744 0.250808 0.891310
Si Si6 0.272302 0.201828 0.204611
Si Si7 0.346704 0.629048 0.213603
O O1 0.845169 0.888107 0.427980
O O2 0.153881 0.823006 0.015293
O O3 0.000000 0.500000 0.000000
O O4 0.117057 0.851409 0.905996
O O5 0.500000 0.500000 0.500000
O O6 0.353308 0.172697 0.444451
O O7 0.298193 0.155267 0.684692
O O8 0.179966 0.493476 0.930016
O O9 0.734329 0.239406 0.680575
O O10 0.500000 0.000000 0.000000
O O11 0.262137 0.733461 0.479604
O O12 0.000000 0.000000 0.000000
O O13 0.074859 0.239517 0.552093
O O14 0.741442 0.066433 0.928463
O O15 0.306684 0.360969 0.147163
O O16 0.441376 0.290662 0.057688
#
# Coordination Sequence:
#
# PCOD9107154 Si02
#       7
#     2   2   2   2   2   2   2
#     4  12  22  39  65  98 127 167 215 268 321 380
#     4  11  23  43  67  93 126 172 217 267 323 388
#     4  11  23  40  64  93 129 168 217 261 324 380
#     4  11  20  39  66  91 120 170 216 256 314 393
#     4  11  22  40  64  93 129 165 213 262 326 374
#     4  10  22  39  64  92 128 168 209 263 321 383
#     4  10  20  40  63  89 123 170 215 252 316 387
#
# _framework density 20.864667000000001
#
# number of rings (size 3 to 8) (size 9 to 14) (size 15 to 20)
#    0.000    1.143    4.286    4.286    0.000    2.286 
#    2.571    2.143    0.000    0.000    0.000    0.000 
#    0.000    0.000    0.000    0.000    0.000    0.000 
#
# Total GULP energy -78195.625537 kJ/mol
# GULP energy per Si atom -5585.401824 kJ/mol
# Density = 2.081718 g / cm^3
# Si number density = 20.864667 Si / 1000 Ang^3
#
#
#
# Elastic Constant Matrix: (Units=GPa)
#
#
# Indices 1 2 3 4 5 6 
#
# 1 42.1239 16.1368 3.5319 -5.2239 3.1425 -22.1655
# 2 16.1368 128.8027 21.0054 -2.5427 9.5206 -21.7708
# 3 3.5319 21.0054 92.1288 2.7126 7.5201 -13.4180
# 4 -5.2239 -2.5427 2.7126 37.3234 -7.7935 -5.8794
# 5 3.1425 9.5206 7.5201 -7.7935 28.6871 -4.4037
# 6 -22.1655 -21.7708 -13.4180 -5.8794 -4.4037 37.6970
#
#
#
# Elastic Compliance Matrix: (Units=1/GPa)
#
#
# Indices 1 2 3 4 5 6 
#
# 1 0.037459 -0.000925 0.001816 0.009187 0.001875 0.023790
# 2 -0.000925 0.008922 -0.001293 0.000871 -0.001656 0.004090
# 3 0.001816 -0.001293 0.011902 -0.000538 -0.002392 0.004194
# 4 0.009187 0.000871 -0.000538 0.031986 0.009346 0.011794
# 5 0.001875 -0.001656 -0.002392 0.009346 0.039187 0.005330
# 6 0.023790 0.004090 0.004194 0.011794 0.005330 0.046832
#
#
# Mechanical properties :
#
#
# Convention : Reuss Voigt Hill
#
# Bulk Modulus (GPa) = 17.39823 38.26705 27.83264
# Shear Modulus (GPa) = 25.47734 35.56692 30.52213
#
# Velocity S-wave (km/s) = 3.49818 4.13322 3.82889
# Velocity P-wave (km/s) = 4.96720 6.41548 5.73722
#
# Compressibility (1/GPa) = 0.05747710
#
# Stress axis : x y z
#
# Youngs Moduli (GPa) = 26.69573 112.08713 84.02280
#
# Poissons Ratio (x) = 0.10373 -0.15260
# Poissons Ratio (y) = 0.02470 0.10868
# Poissons Ratio (z) = -0.04848 0.14497
#
# Static dielectric constant tensor:
#      x y z
#    x 1.784360 -0.015680 -0.022890 
#    y -0.015680 1.754370 -0.000180 
#    z -0.022890 -0.000180 1.802870 
# 
# From -- ./inp_files/174908.got.cif
#   From: 2010.05.17/outbox.cif.g08.bks.cpg/sg2_88_cif.got.tgz:174908.got - 2010.06.03 11:33:40.
