data_PCOD9107441
_publ_section_title
;
Structure prediction by ZEFSAII (Michael W. Deem and Ramdas Pophale) SiO2 
 PCOD9107441
Probable space group: P -1
;
_chemical_formula_sum "Si O2"
_cell_formula_units_Z 14
_cell_length_a 25.836713
_cell_length_b 12.650005
_cell_length_c 5.304607
_cell_angle_alpha 114.770874
_cell_angle_beta 61.016939
_cell_angle_gamma 158.658062
_cell_volume 549.087685
_symmetry_space_group_name_H-M "P -1"
_symmetry_group_IT_number 2
_symmetry_cell_setting 'triclinic'
loop_
_space_group_symop_operation_xyz
x,y,z
-x,-y,-z
loop_
_atom_site_type_symbol
_atom_site_label
_atom_site_fract_x
_atom_site_fract_y
_atom_site_fract_z
Si Si1 0.509149 0.777853 0.330626
Si Si2 0.153787 0.816575 0.333402
Si Si3 0.164671 0.640532 0.785056
Si Si4 0.097104 0.935512 0.854689
Si Si5 0.921430 0.723957 0.681848
Si Si6 0.772049 0.658395 0.708078
Si Si7 0.454047 0.290264 0.312329
O O1 0.368920 0.602893 0.405159
O O2 0.512312 0.738674 0.570405
O O3 0.679350 0.128551 0.242605
O O4 0.493281 0.646202 0.030093
O O5 0.159239 0.965303 0.514403
O O6 0.000000 0.500000 0.500000
O O7 0.277650 0.981730 0.380330
O O8 0.175958 0.799132 0.986934
O O9 0.136534 0.511736 0.475100
O O10 0.011442 0.333549 0.982028
O O11 0.982175 0.827590 0.924308
O O12 0.229456 0.236002 0.987732
O O13 0.798230 0.590516 0.744121
O O14 0.074512 0.035210 0.491109
O O15 0.500000 0.500000 0.500000
#
# Coordination Sequence:
#
# PCOD9107441 Si02
#       7
#     2   2   2   2   2   2   2
#     4  11  25  42  66  93 138 168 218 267 334 390
#     4   9  20  38  62  93 127 165 211 260 325 384
#     4   9  22  40  59  96 125 168 212 263 327 386
#     4  10  20  40  64  92 125 168 219 268 323 381
#     4  10  22  40  67  87 130 162 229 269 318 381
#     4  10  23  41  61  97 120 175 216 275 321 382
#     4  11  24  43  62  98 133 174 214 267 323 400
#
# _framework density 25.496839000000001
#
# number of rings (size 3 to 8) (size 9 to 14) (size 15 to 20)
#    0.000    2.000    0.000    1.714   10.000    1.143 
#   10.286    0.714    0.000    0.000    0.000    0.000 
#    0.000    0.000    0.000    0.000    0.000    0.000 
#
# Total GULP energy -78096.405229 kJ/mol
# GULP energy per Si atom -5578.314659 kJ/mol
# Density = 2.543881 g / cm^3
# Si number density = 25.496839 Si / 1000 Ang^3
#
#
#
# Elastic Constant Matrix: (Units=GPa)
#
#
# Indices 1 2 3 4 5 6 
#
# 1 96.5450 38.8465 5.5067 10.8264 3.8420 33.9667
# 2 38.8465 142.4865 24.5468 12.7798 1.3388 47.5294
# 3 5.5067 24.5468 67.0278 13.4610 -1.8293 -7.1577
# 4 10.8264 12.7798 13.4610 31.9407 5.7324 3.8512
# 5 3.8420 1.3388 -1.8293 5.7324 25.7263 12.4301
# 6 33.9667 47.5294 -7.1577 3.8512 12.4301 50.3499
#
#
#
# Elastic Compliance Matrix: (Units=1/GPa)
#
#
# Indices 1 2 3 4 5 6 
#
# 1 0.014428 0.000258 -0.001594 -0.003692 0.003786 -0.010855
# 2 0.000258 0.012952 -0.005696 -0.002264 0.006456 -0.014631
# 3 -0.001594 -0.005696 0.019438 -0.006310 -0.001548 0.010080
# 4 -0.003692 -0.002264 -0.006310 0.037473 -0.009704 0.003260
# 5 0.003786 0.006456 -0.001548 -0.009704 0.049900 -0.020445
# 6 -0.010855 -0.014631 0.010080 0.003260 -0.020445 0.047226
#
#
# Mechanical properties :
#
#
# Convention : Reuss Voigt Hill
#
# Bulk Modulus (GPa) = 30.53208 49.31771 39.92490
# Shear Modulus (GPa) = 24.22497 37.41400 30.81949
#
# Velocity S-wave (km/s) = 3.08574 3.83482 3.48049
# Velocity P-wave (km/s) = 4.96956 6.24439 5.64309
#
# Compressibility (1/GPa) = 0.03275244
#
# Stress axis : x y z
#
# Youngs Moduli (GPa) = 69.31178 77.20846 51.44680
#
# Poissons Ratio (x) = -0.01990 0.08201
# Poissons Ratio (y) = -0.01787 0.29304
# Poissons Ratio (z) = 0.11049 0.43978
#
# Static dielectric constant tensor:
#      x y z
#    x 2.062150 -0.003920 -0.052880 
#    y -0.003920 2.008240 0.000950 
#    z -0.052880 0.000950 2.142500 
# 
# From -- ./inp_files/76587.got.cif
#   From: 2010.05.17/outbox.cif.g08.bks.cpg/sg2_39_cif.got.tgz:76587.got - 2010.06.03 11:33:40.
