data_PCOD9107034
_publ_section_title
;
Structure prediction by ZEFSAII (Michael W. Deem and Ramdas Pophale) SiO2 
 PCOD9107034
Probable space group: P -1
;
_chemical_formula_sum "Si O2"
_cell_formula_units_Z 16
_cell_length_a 9.647357
_cell_length_b 28.667895
_cell_length_c 22.733537
_cell_angle_alpha 12.594595
_cell_angle_beta 31.791217
_cell_angle_gamma 28.468536
_cell_volume 651.595468
_symmetry_space_group_name_H-M "P -1"
_symmetry_group_IT_number 2
_symmetry_cell_setting 'triclinic'
loop_
_space_group_symop_operation_xyz
x,y,z
-x,-y,-z
loop_
_atom_site_type_symbol
_atom_site_label
_atom_site_fract_x
_atom_site_fract_y
_atom_site_fract_z
Si Si1 0.258961 0.037116 0.493918
Si Si2 0.599009 0.872297 0.360523
Si Si3 0.210852 0.638364 0.257141
Si Si4 0.821339 0.883905 0.998840
Si Si5 0.692356 0.234086 0.512117
Si Si6 0.483564 0.487253 0.952226
Si Si7 0.780124 0.417824 0.542243
Si Si8 0.152669 0.180994 0.229409
O O1 0.500000 0.000000 0.500000
O O2 0.327574 0.096848 0.330789
O O3 0.265933 0.778926 0.817121
O O4 0.941682 0.235782 0.378420
O O5 0.494465 0.856247 0.351536
O O6 0.563026 0.664690 0.666511
O O7 0.942407 0.791672 0.330159
O O8 0.380739 0.111393 0.178829
O O9 0.496414 0.476249 0.317019
O O10 0.264349 0.659109 0.280986
O O11 0.000000 0.500000 0.500000
O O12 0.036222 0.856504 0.009023
O O13 0.859515 0.638816 0.255822
O O14 0.500000 0.000000 0.000000
O O15 0.840109 0.052363 0.734733
O O16 0.132996 0.567504 0.971369
O O17 0.500000 0.500000 0.000000
O O18 0.500000 0.500000 0.500000
O O19 0.000000 0.000000 0.500000
#
# Coordination Sequence:
#
# PCOD9107034 Si02
#       8
#     2   2   2   2   2   2   2   2
#     4  12  26  40  64  99 131 158 208 274 320 364
#     4  11  20  40  70  93 120 172 224 248 307 388
#     4  10  20  40  62  93 126 162 212 256 297 379
#     4  11  20  40  69  89 120 174 213 248 307 380
#     4  12  21  40  71  89 121 171 219 247 305 385
#     4  11  20  42  69  90 123 172 214 255 311 384
#     4  11  23  40  66  96 134 159 204 273 315 355
#     4  10  20  40  63  91 127 160 215 258 299 384
#
# _framework density 24.555112999999999
#
# number of rings (size 3 to 8) (size 9 to 14) (size 15 to 20)
#    0.000    1.000   10.000    0.750    0.000    1.500 
#    0.000    2.500    0.000    0.000    0.000    0.000 
#    0.000    0.000    0.000    0.000    0.000    0.000 
#
# Total GULP energy -89411.670317 kJ/mol
# GULP energy per Si atom -5588.229395 kJ/mol
# Density = 2.449922 g / cm^3
# Si number density = 24.555113 Si / 1000 Ang^3
#
#
#
# Elastic Constant Matrix: (Units=GPa)
#
#
# Indices 1 2 3 4 5 6 
#
# 1 167.2686 47.7986 27.2408 -6.8589 51.8769 5.4636
# 2 47.7986 182.5141 18.3830 -29.0260 12.7819 14.4071
# 3 27.2408 18.3830 70.1844 -5.6110 23.9112 12.0801
# 4 -6.8589 -29.0260 -5.6110 34.1408 1.6527 7.5778
# 5 51.8769 12.7819 23.9112 1.6527 49.7942 -1.0273
# 6 5.4636 14.4071 12.0801 7.5778 -1.0273 35.3883
#
#
#
# Elastic Compliance Matrix: (Units=1/GPa)
#
#
# Indices 1 2 3 4 5 6 
#
# 1 0.009482 -0.001461 0.000453 0.001577 -0.009808 -0.001646
# 2 -0.001461 0.007353 0.000223 0.007002 -0.000795 -0.004367
# 3 0.000453 0.000223 0.019386 0.005807 -0.010203 -0.008318
# 4 0.001577 0.007002 0.005807 0.039972 -0.007842 -0.013864
# 5 -0.009808 -0.000795 -0.010203 -0.007842 0.035831 0.008040
# 6 -0.001646 -0.004367 -0.008318 -0.013864 0.008040 0.036331
#
#
# Mechanical properties :
#
#
# Convention : Reuss Voigt Hill
#
# Bulk Modulus (GPa) = 28.85821 67.42355 48.14088
# Shear Modulus (GPa) = 30.96449 45.63430 38.29939
#
# Velocity S-wave (km/s) = 3.55494 4.31564 3.95363
# Velocity P-wave (km/s) = 5.35052 7.23538 6.36313
#
# Compressibility (1/GPa) = 0.03465218
#
# Stress axis : x y z
#
# Youngs Moduli (GPa) = 105.45752 135.99458 51.58421
#
# Poissons Ratio (x) = 0.19873 -0.02338
# Poissons Ratio (y) = 0.15411 -0.01153
# Poissons Ratio (z) = -0.04780 -0.03039
#
# Static dielectric constant tensor:
#      x y z
#    x 1.916840 -0.064580 -0.035970 
#    y -0.064580 1.979370 0.052730 
#    z -0.035970 0.052730 1.926730 
# 
# From -- ./inp_files/313124.got.cif
#   From: 2010.05.17/outbox.cif.g08.bks.cpg/sg2_157_cif.got.tgz:313124.got - 2010.06.03 11:33:40.
