data_PCOD9107479
_publ_section_title
;
Structure prediction by ZEFSAII (Michael W. Deem and Ramdas Pophale) SiO2 
 PCOD9107479
Probable space group: P -1
;
_chemical_formula_sum "Si O2"
_cell_formula_units_Z 14
_cell_length_a 11.466746
_cell_length_b 9.787115
_cell_length_c 18.915121
_cell_angle_alpha 132.424095
_cell_angle_beta 25.359843
_cell_angle_gamma 142.434628
_cell_volume 547.201087
_symmetry_space_group_name_H-M "P -1"
_symmetry_group_IT_number 2
_symmetry_cell_setting 'triclinic'
loop_
_space_group_symop_operation_xyz
x,y,z
-x,-y,-z
loop_
_atom_site_type_symbol
_atom_site_label
_atom_site_fract_x
_atom_site_fract_y
_atom_site_fract_z
Si Si1 0.705012 0.762092 0.308747
Si Si2 0.841016 0.005583 0.972682
Si Si3 0.771948 0.244537 0.634296
Si Si4 0.675154 0.207262 0.028521
Si Si5 0.247193 0.516130 0.595225
Si Si6 0.717553 0.575590 0.696406
Si Si7 0.026138 0.771870 0.884347
O O1 0.503743 0.726423 0.476051
O O2 0.440101 0.624523 0.345066
O O3 0.976150 0.991914 0.198976
O O4 0.927204 0.659487 0.157129
O O5 0.610335 0.079481 0.094751
O O6 0.055767 0.208962 0.983302
O O7 0.787115 0.798555 0.973595
O O8 0.763356 0.463976 0.700217
O O9 0.998276 0.312825 0.605461
O O10 0.953566 0.234951 0.461519
O O11 0.410142 0.003686 0.751826
O O12 0.516832 0.339331 0.145337
O O13 0.500000 0.000000 0.000000
O O14 0.500000 0.500000 0.500000
O O15 0.039254 0.570078 0.778732
#
# Coordination Sequence:
#
# PCOD9107479 Si02
#       7
#     2   2   2   2   2   2   2
#     4   9  21  42  64  89 127 168 213 255 319 377
#     4   9  23  42  64  95 123 178 207 253 335 365
#     4  10  23  41  66  95 126 171 214 260 330 370
#     4  10  22  35  64  95 126 164 215 255 311 384
#     4  11  27  42  66  99 127 168 214 269 320 377
#     4  10  20  40  64  94 126 167 216 266 309 386
#     4  11  23  45  68  90 138 163 214 272 311 385
#
# _framework density 25.584745000000002
#
# number of rings (size 3 to 8) (size 9 to 14) (size 15 to 20)
#    0.857    1.143    1.429    0.429    8.000    2.286 
#    0.000    2.857    0.000    0.000    0.000    0.000 
#    0.000    0.000    0.000    0.000    0.000    0.000 
#
# Total GULP energy -77961.039121 kJ/mol
# GULP energy per Si atom -5568.645652 kJ/mol
# Density = 2.552651 g / cm^3
# Si number density = 25.584745 Si / 1000 Ang^3
#
#
#
# Elastic Constant Matrix: (Units=GPa)
#
#
# Indices 1 2 3 4 5 6 
#
# 1 137.4314 30.2742 5.5405 2.4669 -12.6511 -19.2421
# 2 30.2742 57.6850 1.6238 -6.4207 -8.8540 0.9060
# 3 5.5405 1.6238 60.4893 -1.6898 -12.8361 -2.8392
# 4 2.4669 -6.4207 -1.6898 47.3493 -9.9192 -5.9606
# 5 -12.6511 -8.8540 -12.8361 -9.9192 46.5520 -2.4865
# 6 -19.2421 0.9060 -2.8392 -5.9606 -2.4865 29.9212
#
#
#
# Elastic Compliance Matrix: (Units=1/GPa)
#
#
# Indices 1 2 3 4 5 6 
#
# 1 0.009389 -0.004707 -0.000004 0.000096 0.002016 0.006367
# 2 -0.004707 0.020742 0.000574 0.003465 0.003422 -0.002626
# 3 -0.000004 0.000574 0.017901 0.002228 0.005657 0.002593
# 4 0.000096 0.003465 0.002228 0.023743 0.006650 0.005451
# 5 0.002016 0.003422 0.005657 0.006650 0.025935 0.005209
# 6 0.006367 -0.002626 0.002593 0.005451 0.005209 0.039360
#
#
# Mechanical properties :
#
#
# Convention : Reuss Voigt Hill
#
# Bulk Modulus (GPa) = 25.15291 36.72031 30.93661
# Shear Modulus (GPa) = 31.52641 39.30898 35.41769
#
# Velocity S-wave (km/s) = 3.51413 3.92397 3.72469
# Velocity P-wave (km/s) = 5.13011 5.90878 5.53316
#
# Compressibility (1/GPa) = 0.03975682
#
# Stress axis : x y z
#
# Youngs Moduli (GPa) = 106.51136 48.21157 55.86192
#
# Poissons Ratio (x) = 0.22694 0.00024
# Poissons Ratio (y) = 0.50137 -0.03207
# Poissons Ratio (z) = 0.00047 -0.02767
#
# Static dielectric constant tensor:
#      x y z
#    x 2.031610 -0.029300 -0.028670 
#    y -0.029300 2.114930 -0.114070 
#    z -0.028670 -0.114070 2.152570 
# 
# From -- ./inp_files/593715.got.cif
#   From: 2010.05.17/outbox.cif.g08.bks.cpg/sg2_297_cif.got.tgz:593715.got - 2010.06.03 11:33:40.
