data_PCOD9107218
_publ_section_title
;
Structure prediction by ZEFSAII (Michael W. Deem and Ramdas Pophale) SiO2 
 PCOD9107218
Probable space group: P -1
;
_chemical_formula_sum "Si O2"
_cell_formula_units_Z 14
_cell_length_a 11.343449
_cell_length_b 27.748295
_cell_length_c 11.879659
_cell_angle_alpha 23.695146
_cell_angle_beta 24.506537
_cell_angle_gamma 27.252246
_cell_volume 587.362377
_symmetry_space_group_name_H-M "P -1"
_symmetry_group_IT_number 2
_symmetry_cell_setting 'triclinic'
loop_
_space_group_symop_operation_xyz
x,y,z
-x,-y,-z
loop_
_atom_site_type_symbol
_atom_site_label
_atom_site_fract_x
_atom_site_fract_y
_atom_site_fract_z
Si Si1 0.831556 0.836865 0.498395
Si Si2 0.164935 0.945659 0.808630
Si Si3 0.958415 0.609058 0.518351
Si Si4 0.122877 0.059512 0.368291
Si Si5 0.497183 0.226562 0.621756
Si Si6 0.474796 0.534188 0.815547
Si Si7 0.834345 0.406758 0.385540
O O1 0.848793 0.918116 0.418732
O O2 0.086585 0.702184 0.545078
O O3 0.487257 0.840909 0.784545
O O4 0.894187 0.916353 0.168078
O O5 0.165904 0.961209 0.642459
O O6 0.713565 0.711788 0.434144
O O7 0.261063 0.559580 0.288053
O O8 0.026011 0.654176 0.485316
O O9 0.828768 0.492225 0.898786
O O10 0.844177 0.184251 0.375849
O O11 0.402572 0.106869 0.998313
O O12 0.000000 0.000000 0.500000
O O13 0.471403 0.330597 0.518715
O O14 0.500000 0.500000 0.000000
O O15 0.500000 0.500000 0.500000
O O16 0.000000 0.500000 0.000000
#
# Coordination Sequence:
#
# PCOD9107218 Si02
#       7
#     2   2   2   2   2   2   2
#     4  10  23  46  70  91 130 178 230 270 334 397
#     4  10  23  44  70  95 126 182 227 276 325 392
#     4  11  23  40  67  93 133 178 214 271 334 407
#     4  12  26  38  63 102 136 162 224 273 334 393
#     4  11  23  41  62  94 131 180 206 264 337 389
#     4  10  20  40  63  92 126 170 228 251 314 417
#     4  12  27  43  66 102 134 172 227 286 350 397
#
# _framework density 23.835370000000001
#
# number of rings (size 3 to 8) (size 9 to 14) (size 15 to 20)
#    0.000    1.143    0.000    7.286    4.000    3.429 
#    0.000    0.000    0.000    0.000    0.000    0.000 
#    0.000    0.000    0.000    0.000    0.000    0.000 
#
# Total GULP energy -78288.466841 kJ/mol
# GULP energy per Si atom -5592.033346 kJ/mol
# Density = 2.378112 g / cm^3
# Si number density = 23.835370 Si / 1000 Ang^3
#
#
#
# Elastic Constant Matrix: (Units=GPa)
#
#
# Indices 1 2 3 4 5 6 
#
# 1 62.7825 -11.4509 3.5827 5.1584 12.2649 9.6913
# 2 -11.4509 75.1886 -9.7172 21.5965 -7.5073 -0.7415
# 3 3.5827 -9.7172 106.4530 14.8049 -2.6562 -1.6801
# 4 5.1584 21.5965 14.8049 39.8575 -4.1383 -3.1743
# 5 12.2649 -7.5073 -2.6562 -4.1383 24.9091 -3.2480
# 6 9.6913 -0.7415 -1.6801 -3.1743 -3.2480 18.0130
#
#
#
# Elastic Compliance Matrix: (Units=1/GPa)
#
#
# Indices 1 2 3 4 5 6 
#
# 1 0.022257 0.004197 0.000149 -0.007794 -0.012995 -0.015505
# 2 0.004197 0.017698 0.003040 -0.011366 0.001310 -0.003013
# 3 0.000149 0.003040 0.010451 -0.005414 0.001092 0.000263
# 4 -0.007794 -0.011366 -0.005414 0.035880 0.007210 0.010843
# 5 -0.012995 0.001310 0.001092 0.007210 0.050540 0.017531
# 6 -0.015505 -0.003013 0.000263 0.010843 0.017531 0.068830
#
#
# Mechanical properties :
#
#
# Convention : Reuss Voigt Hill
#
# Bulk Modulus (GPa) = 15.34245 23.25038 19.29641
# Shear Modulus (GPa) = 23.51744 34.02322 28.77033
#
# Velocity S-wave (km/s) = 3.14452 3.78223 3.47802
# Velocity P-wave (km/s) = 4.43112 5.37116 4.92363
#
# Compressibility (1/GPa) = 0.06517866
#
# Stress axis : x y z
#
# Youngs Moduli (GPa) = 44.92873 56.50457 95.68780
#
# Poissons Ratio (x) = -0.23717 -0.01427
# Poissons Ratio (y) = -0.18858 -0.29089
# Poissons Ratio (z) = -0.00670 -0.17178
#
# Static dielectric constant tensor:
#      x y z
#    x 1.933270 0.002080 0.001000 
#    y 0.002080 1.987890 -0.055660 
#    z 0.001000 -0.055660 1.860910 
# 
# From -- ./inp_files/439524.got.cif
#   From: 2010.05.17/outbox.cif.g08.bks.cpg/sg2_220_cif.got.tgz:439524.got - 2010.06.03 11:33:40.
