data_PCOD9107772
_publ_section_title
;
Structure prediction by ZEFSAII (Michael W. Deem and Ramdas Pophale) SiO2 
 PCOD9107772
Probable space group: P -1
;
_chemical_formula_sum "Si O2"
_cell_formula_units_Z 16
_cell_length_a 12.513604
_cell_length_b 11.655480
_cell_length_c 8.606284
_cell_angle_alpha 118.728626
_cell_angle_beta 43.101091
_cell_angle_gamma 95.525611
_cell_volume 680.802940
_symmetry_space_group_name_H-M "P -1"
_symmetry_group_IT_number 2
_symmetry_cell_setting 'triclinic'
loop_
_space_group_symop_operation_xyz
x,y,z
-x,-y,-z
loop_
_atom_site_type_symbol
_atom_site_label
_atom_site_fract_x
_atom_site_fract_y
_atom_site_fract_z
Si Si1 0.780602 0.892218 0.727132
Si Si2 0.950058 0.389682 0.584571
Si Si3 0.362330 0.935875 0.597247
Si Si4 0.422595 0.883041 0.159057
Si Si5 0.481805 0.652174 0.688320
Si Si6 0.976614 0.784477 0.900676
Si Si7 0.839709 0.582752 0.103393
Si Si8 0.194624 0.863192 0.967398
O O1 0.899276 0.728295 0.544065
O O2 0.728190 0.974382 0.669244
O O3 0.590948 0.917673 0.006457
O O4 0.865668 0.986039 0.784089
O O5 0.000000 0.500000 0.500000
O O6 0.916778 0.301330 0.419666
O O7 0.821077 0.485197 0.917031
O O8 0.371804 0.866360 0.375980
O O9 0.370655 0.836623 0.667928
O O10 0.500000 0.000000 0.500000
O O11 0.178239 0.070351 0.898524
O O12 0.475597 0.733573 0.912590
O O13 0.500000 0.500000 0.500000
O O14 0.660368 0.653382 0.431918
O O15 0.276005 0.742907 0.930322
O O16 0.079859 0.831436 0.946059
O O17 0.892358 0.695135 0.027571
O O18 0.000000 0.500000 0.000000
#
# Coordination Sequence:
#
# PCOD9107772 Si02
#       8
#     2   2   2   2   2   2   2   2
#     4  10  20  40  65  95 135 171 218 280 328 391
#     4  10  22  40  62  96 134 173 222 272 331 397
#     4  12  22  39  66 101 129 173 218 268 338 397
#     4  10  23  39  69  97 131 171 224 277 334 390
#     4  11  25  47  65  96 136 173 224 273 330 399
#     4  11  24  41  64  98 133 169 222 274 332 392
#     4  11  24  41  70  93 129 179 222 268 335 400
#     4  11  23  42  66  95 134 173 216 283 328 392
#
# _framework density 23.501662
#
# number of rings (size 3 to 8) (size 9 to 14) (size 15 to 20)
#    0.000    1.250    2.500    2.625    5.250    3.000 
#    0.000    2.500    0.000    0.000    0.000    0.000 
#    0.000    0.000    0.000    0.000    0.000    0.000 
#
# Total GULP energy -89088.116956 kJ/mol
# GULP energy per Si atom -5568.007310 kJ/mol
# Density = 2.344817 g / cm^3
# Si number density = 23.501662 Si / 1000 Ang^3
#
#
#
# Elastic Constant Matrix: (Units=GPa)
#
#
# Indices 1 2 3 4 5 6 
#
# 1 106.2788 -1.3963 25.5082 10.5150 11.7785 23.9886
# 2 -1.3963 49.6260 10.5744 10.7390 5.6559 12.9402
# 3 25.5082 10.5744 73.2352 12.6596 33.1859 -4.5169
# 4 10.5150 10.7390 12.6596 31.6735 -1.8743 2.0215
# 5 11.7785 5.6559 33.1859 -1.8743 45.4231 3.6011
# 6 23.9886 12.9402 -4.5169 2.0215 3.6011 30.3463
#
#
#
# Elastic Compliance Matrix: (Units=1/GPa)
#
#
# Indices 1 2 3 4 5 6 
#
# 1 0.014922 0.006556 -0.007415 -0.003101 0.001849 -0.015708
# 2 0.006556 0.027913 -0.006191 -0.008024 0.000406 -0.017520
# 3 -0.007415 -0.006191 0.028682 -0.009084 -0.019884 0.015735
# 4 -0.003101 -0.008024 -0.009084 0.039501 0.010015 0.000701
# 5 0.001849 0.000406 -0.019884 0.010015 0.037193 -0.009674
# 6 -0.015708 -0.017520 0.015735 0.000701 -0.009674 0.056284
#
#
# Mechanical properties :
#
#
# Convention : Reuss Voigt Hill
#
# Bulk Modulus (GPa) = 17.41608 33.16810 25.29209
# Shear Modulus (GPa) = 21.03187 34.45215 27.74201
#
# Velocity S-wave (km/s) = 2.99475 3.83292 3.43946
# Velocity P-wave (km/s) = 4.40281 5.80793 5.15348
#
# Compressibility (1/GPa) = 0.05741819
#
# Stress axis : x y z
#
# Youngs Moduli (GPa) = 67.01307 35.82559 34.86496
#
# Poissons Ratio (x) = -0.23488 0.25851
# Poissons Ratio (y) = -0.43935 0.21586
# Poissons Ratio (z) = 0.49687 0.22181
#
# Static dielectric constant tensor:
#      x y z
#    x 1.878940 0.113220 0.034160 
#    y 0.113220 2.121260 0.060600 
#    z 0.034160 0.060600 1.922620 
# 
# From -- ./inp_files/262928.got.cif
#   From: 2010.05.17/outbox.cif.g08.bks.cpg/sg2_132_cif.got.tgz:262928.got - 2010.06.03 11:33:40.
