data_PCOD9107489
_publ_section_title
;
Structure prediction by ZEFSAII (Michael W. Deem and Ramdas Pophale) SiO2 
 PCOD9107489
Probable space group: P -1
;
_chemical_formula_sum "Si O2"
_cell_formula_units_Z 15
_cell_length_a 25.524453
_cell_length_b 5.313090
_cell_length_c 5.102546
_cell_angle_alpha 85.836136
_cell_angle_beta 70.476946
_cell_angle_gamma 63.870516
_cell_volume 583.260393
_symmetry_space_group_name_H-M "P -1"
_symmetry_group_IT_number 2
_symmetry_cell_setting 'triclinic'
loop_
_space_group_symop_operation_xyz
x,y,z
-x,-y,-z
loop_
_atom_site_type_symbol
_atom_site_label
_atom_site_fract_x
_atom_site_fract_y
_atom_site_fract_z
Si Si1 0.552937 0.380256 0.198308
Si Si2 0.500000 0.000000 0.000000
Si Si3 0.213852 0.384537 0.867379
Si Si4 0.983982 0.743637 0.293297
Si Si5 0.689342 0.182902 0.169596
Si Si6 0.868501 0.777013 0.329671
Si Si7 0.898791 0.279748 0.732900
Si Si8 0.256375 0.689110 0.408021
O O1 0.500000 0.500000 0.500000
O O2 0.619057 0.247195 0.240312
O O3 0.545217 0.666833 0.040196
O O4 0.542764 0.137073 0.074028
O O5 0.163428 0.287023 0.859035
O O6 0.249156 0.426967 0.558005
O O7 0.264734 0.136610 0.963903
O O8 0.166896 0.681181 0.047713
O O9 0.937524 0.737761 0.148768
O O10 0.000000 0.500000 0.500000
O O11 0.048428 0.755832 0.137522
O O12 0.936067 0.017964 0.506331
O O13 0.706592 0.232589 0.431371
O O14 0.708471 0.360529 0.919221
O O15 0.879857 0.547697 0.553667
O O16 0.814156 0.067894 0.501797
#
# Coordination Sequence:
#
# PCOD9107489 Si02
#       8
#     2   1   2   2   2   2   2   2
#     4  11  26  51  82 123 163 219 265 330 398 477
#     4  10  26  48  84 116 170 206 270 324 396 470
#     4  11  25  42  72  99 140 194 247 308 383 450
#     4   9  20  36  64  92 134 176 240 305 383 452
#     4  11  28  47  74 114 154 197 259 310 382 459
#     4  10  21  41  60  94 136 178 242 304 376 449
#     4  10  20  40  64  94 131 185 236 310 379 455
#     4  11  26  44  71 107 147 200 246 316 375 458
#
# _framework density 25.717500000000001
#
# number of rings (size 3 to 8) (size 9 to 14) (size 15 to 20)
#    0.000    1.600    1.333    1.200    9.333    2.667 
#    0.000    9.333    0.000    0.000    0.000    0.000 
#    0.000    0.000    0.000    0.000    0.000    0.000 
#
# Total GULP energy -83637.020605 kJ/mol
# GULP energy per Si atom -5575.801374 kJ/mol
# Density = 2.565897 g / cm^3
# Si number density = 25.717500 Si / 1000 Ang^3
#
#
#
# Elastic Constant Matrix: (Units=GPa)
#
#
# Indices 1 2 3 4 5 6 
#
# 1 200.2858 88.3642 21.2019 11.1080 4.1271 -37.0798
# 2 88.3642 91.7373 18.0953 -12.4262 5.2876 9.0174
# 3 21.2019 18.0953 61.6223 -3.5952 -7.7384 -0.6970
# 4 11.1080 -12.4262 -3.5952 32.2498 3.9207 -4.7550
# 5 4.1271 5.2876 -7.7384 3.9207 41.6626 9.7770
# 6 -37.0798 9.0174 -0.6970 -4.7550 9.7770 58.6973
#
#
#
# Elastic Compliance Matrix: (Units=1/GPa)
#
#
# Indices 1 2 3 4 5 6 
#
# 1 0.015388 -0.017090 -0.000899 -0.010093 -0.001327 0.011739
# 2 -0.017090 0.031485 -0.002728 0.015731 -0.000950 -0.014232
# 3 -0.000899 -0.002728 0.017852 0.000710 0.003805 -0.000513
# 4 -0.010093 0.015731 0.000710 0.040323 -0.003501 -0.004934
# 5 -0.001327 -0.000950 0.003805 -0.003501 0.026547 -0.005353
# 6 0.011739 -0.014232 -0.000513 -0.004934 -0.005353 0.027125
#
#
# Mechanical properties :
#
#
# Convention : Reuss Voigt Hill
#
# Bulk Modulus (GPa) = 42.93454 67.66314 55.29884
# Shear Modulus (GPa) = 24.04821 41.58754 32.81787
#
# Velocity S-wave (km/s) = 3.06124 4.02567 3.57612
# Velocity P-wave (km/s) = 5.40610 6.92642 6.21294
#
# Compressibility (1/GPa) = 0.02329127
#
# Stress axis : x y z
#
# Youngs Moduli (GPa) = 64.98457 31.76157 56.01713
#
# Poissons Ratio (x) = 0.54279 0.05036
# Poissons Ratio (y) = 1.11056 0.15282
# Poissons Ratio (z) = 0.05842 0.08665
#
# Static dielectric constant tensor:
#      x y z
#    x 2.133330 0.139610 0.072540 
#    y 0.139610 2.091980 0.046230 
#    z 0.072540 0.046230 2.081480 
# 
# From -- ./inp_files/121142.got.cif
#   From: 2010.05.17/outbox.cif.g08.bks.cpg/sg2_61_cif.got.tgz:121142.got - 2010.06.03 11:33:40.
