data_PCOD9107204
_publ_section_title
;
Structure prediction by ZEFSAII (Michael W. Deem and Ramdas Pophale) SiO2 
 PCOD9107204
Probable space group: P -1
;
_chemical_formula_sum "Si O2"
_cell_formula_units_Z 16
_cell_length_a 8.600971
_cell_length_b 9.042634
_cell_length_c 15.435713
_cell_angle_alpha 62.354247
_cell_angle_beta 81.925861
_cell_angle_gamma 123.447489
_cell_volume 749.090212
_symmetry_space_group_name_H-M "P -1"
_symmetry_group_IT_number 2
_symmetry_cell_setting 'triclinic'
loop_
_space_group_symop_operation_xyz
x,y,z
-x,-y,-z
loop_
_atom_site_type_symbol
_atom_site_label
_atom_site_fract_x
_atom_site_fract_y
_atom_site_fract_z
Si Si1 0.802301 0.796957 0.005427
Si Si2 0.566986 0.079008 0.757220
Si Si3 0.514942 0.813037 0.539115
Si Si4 0.911768 0.265528 0.032773
Si Si5 0.057998 0.042429 0.585415
Si Si6 0.578121 0.729732 0.751740
Si Si7 0.802196 0.482062 0.502401
Si Si8 0.727975 0.112961 0.907307
O O1 0.604125 0.540274 0.130813
O O2 0.931096 0.767226 0.941327
O O3 0.714476 0.904932 0.946687
O O4 0.000000 0.000000 0.000000
O O5 0.615641 0.262428 0.637389
O O6 0.744407 0.211289 0.786143
O O7 0.333524 0.939953 0.857631
O O8 0.567130 0.897176 0.760188
O O9 0.732076 0.923155 0.436569
O O10 0.534130 0.745317 0.650706
O O11 0.296992 0.592326 0.565546
O O12 0.500000 0.000000 0.500000
O O13 0.905857 0.274623 0.925406
O O14 0.000000 0.500000 0.000000
O O15 0.131604 0.283338 0.540366
O O16 0.000000 0.000000 0.500000
O O17 0.825892 0.838857 0.707483
O O18 0.000000 0.500000 0.500000
O O19 0.500000 0.000000 0.000000
#
# Coordination Sequence:
#
# PCOD9107204 Si02
#       8
#     2   2   2   2   2   2   2   2
#     4  10  22  42  67  95 129 170 222 274 329 397
#     4  11  22  42  65  94 134 176 217 266 338 389
#     4  11  23  44  69 100 136 176 225 276 339 397
#     4  10  20  40  63  91 128 165 218 276 320 389
#     4  10  23  43  65  98 134 173 223 279 328 402
#     4  11  22  44  69  96 136 176 223 277 335 399
#     4  12  23  43  69  99 137 174 223 278 332 405
#     4   9  22  41  62  90 127 171 215 268 327 385
#
# _framework density 21.359242999999999
#
# number of rings (size 3 to 8) (size 9 to 14) (size 15 to 20)
#    0.000    1.500    3.750    1.125    0.000    8.500 
#    2.250    3.750    0.000    0.000    0.000    0.000 
#    0.000    0.000    0.000    0.000    0.000    0.000 
#
# Total GULP energy -89314.718629 kJ/mol
# GULP energy per Si atom -5582.169914 kJ/mol
# Density = 2.131063 g / cm^3
# Si number density = 21.359243 Si / 1000 Ang^3
#
#
#
# Elastic Constant Matrix: (Units=GPa)
#
#
# Indices 1 2 3 4 5 6 
#
# 1 143.8526 37.8873 21.4222 1.3619 -26.2100 -11.9721
# 2 37.8873 129.2891 23.1767 0.7568 0.2255 -6.6518
# 3 21.4222 23.1767 70.5271 -4.1721 -12.1432 8.5384
# 4 1.3619 0.7568 -4.1721 34.7094 7.2263 3.5566
# 5 -26.2100 0.2255 -12.1432 7.2263 33.3131 4.7486
# 6 -11.9721 -6.6518 8.5384 3.5566 4.7486 35.2767
#
#
#
# Elastic Compliance Matrix: (Units=1/GPa)
#
#
# Indices 1 2 3 4 5 6 
#
# 1 0.009239 -0.002371 -0.001226 -0.002143 0.006981 0.002262
# 2 -0.002371 0.009101 -0.003105 0.000004 -0.003361 0.002115
# 3 -0.001226 -0.003105 0.017439 0.001608 0.005946 -0.006185
# 4 -0.002143 0.000004 0.001608 0.030951 -0.007351 -0.003247
# 5 0.006981 -0.003361 0.005946 -0.007351 0.039913 -0.004336
# 6 0.002262 0.002115 -0.006185 -0.003247 -0.004336 0.031922
#
#
# Mechanical properties :
#
#
# Convention : Reuss Voigt Hill
#
# Bulk Modulus (GPa) = 44.69173 56.51568 50.60370
# Shear Modulus (GPa) = 31.36227 38.07201 34.71714
#
# Velocity S-wave (km/s) = 3.83603 4.22650 4.03599
# Velocity P-wave (km/s) = 6.37098 7.09470 6.74256
#
# Compressibility (1/GPa) = 0.02237551
#
# Stress axis : x y z
#
# Youngs Moduli (GPa) = 108.23732 109.88222 57.34140
#
# Poissons Ratio (x) = 0.26053 0.07029
# Poissons Ratio (y) = 0.25663 0.17805
# Poissons Ratio (z) = 0.13268 0.34119
#
# Static dielectric constant tensor:
#      x y z
#    x 1.782270 0.034540 0.034790 
#    y 0.034540 1.777120 0.019680 
#    z 0.034790 0.019680 1.644060 
# 
# From -- ./inp_files/494660.got.cif
#   From: 2010.05.17/outbox.cif.g08.bks.cpg/sg2_248_cif.got.tgz:494660.got - 2010.06.03 11:33:40.
