data_PCOD9107738
_publ_section_title
;
Structure prediction by ZEFSAII (Michael W. Deem and Ramdas Pophale) SiO2 
 PCOD9107738
Probable space group: P -1
;
_chemical_formula_sum "Si O2"
_cell_formula_units_Z 16
_cell_length_a 9.479273
_cell_length_b 11.541935
_cell_length_c 11.016587
_cell_angle_alpha 55.925782
_cell_angle_beta 133.533875
_cell_angle_gamma 128.452047
_cell_volume 665.574007
_symmetry_space_group_name_H-M "P -1"
_symmetry_group_IT_number 2
_symmetry_cell_setting 'triclinic'
loop_
_space_group_symop_operation_xyz
x,y,z
-x,-y,-z
loop_
_atom_site_type_symbol
_atom_site_label
_atom_site_fract_x
_atom_site_fract_y
_atom_site_fract_z
Si Si1 0.595435 0.832700 0.895601
Si Si2 0.684819 0.160188 0.474323
Si Si3 0.952736 0.912967 0.394307
Si Si4 0.247782 0.652147 0.965334
Si Si5 0.975541 0.779845 0.868524
Si Si6 0.261601 0.810117 0.248599
Si Si7 0.714939 0.609910 0.994290
Si Si8 0.511305 0.653020 0.351662
O O1 0.432054 0.765651 0.726311
O O2 0.685654 0.011134 0.827163
O O3 0.450309 0.791857 0.951884
O O4 0.764294 0.755529 0.029229
O O5 0.786408 0.244410 0.609536
O O6 0.856603 0.129681 0.512739
O O7 0.500000 0.000000 0.500000
O O8 0.740182 0.761917 0.370490
O O9 0.951560 0.043627 0.223242
O O10 0.000000 0.000000 0.500000
O O11 0.339035 0.610064 0.166903
O O12 0.058273 0.702469 0.856884
O O13 0.195486 0.518410 0.915368
O O14 0.087052 0.756759 0.071547
O O15 0.736493 0.692508 0.824634
O O16 0.447560 0.760869 0.342093
O O17 0.500000 0.500000 0.000000
O O18 0.500000 0.500000 0.500000
#
# Coordination Sequence:
#
# PCOD9107738 Si02
#       8
#     2   2   2   2   2   2   2   2
#     4  10  20  40  65  94 128 167 218 272 318 394
#     4  10  21  38  63  97 131 164 214 273 323 377
#     4  12  25  41  70 102 128 179 225 270 331 387
#     4  10  22  41  65  92 130 172 212 267 335 386
#     4  11  22  40  67  95 129 168 227 271 315 403
#     4  10  22  41  66  94 129 170 216 273 333 382
#     4  10  23  39  63  96 131 173 213 270 332 387
#     4  11  26  44  65  95 138 172 217 278 334 394
#
# _framework density 24.039401000000002
#
# number of rings (size 3 to 8) (size 9 to 14) (size 15 to 20)
#    0.000    1.500    0.000    5.625    3.500    6.000 
#    9.000    0.625    0.000    0.000    0.000    0.000 
#    0.000    0.000    0.000    0.000    0.000    0.000 
#
# Total GULP energy -89218.794362 kJ/mol
# GULP energy per Si atom -5576.174648 kJ/mol
# Density = 2.398469 g / cm^3
# Si number density = 24.039401 Si / 1000 Ang^3
#
#
#
# Elastic Constant Matrix: (Units=GPa)
#
#
# Indices 1 2 3 4 5 6 
#
# 1 185.0618 30.7326 14.3990 -12.8072 25.2349 -11.1854
# 2 30.7326 94.6074 9.2756 -29.8785 11.0048 4.0279
# 3 14.3990 9.2756 77.4111 -6.1350 -5.6788 7.2129
# 4 -12.8072 -29.8785 -6.1350 34.8725 -6.0155 -9.8275
# 5 25.2349 11.0048 -5.6788 -6.0155 43.4503 -9.7397
# 6 -11.1854 4.0279 7.2129 -9.8275 -9.7397 42.0079
#
#
#
# Elastic Compliance Matrix: (Units=1/GPa)
#
#
# Indices 1 2 3 4 5 6 
#
# 1 0.006294 -0.001373 -0.001305 0.000812 -0.003025 0.001520
# 2 -0.001373 0.015089 -0.000749 0.012345 -0.001206 0.000925
# 3 -0.001305 -0.000749 0.013696 0.001227 0.002514 -0.001758
# 4 0.000812 0.012345 0.001227 0.043452 0.004844 0.010110
# 5 -0.003025 -0.001206 0.002514 0.004844 0.027508 0.006390
# 6 0.001520 0.000925 -0.001758 0.010110 0.006390 0.028270
#
#
# Mechanical properties :
#
#
# Convention : Reuss Voigt Hill
#
# Bulk Modulus (GPa) = 35.43038 51.76609 43.59823
# Shear Modulus (GPa) = 33.20697 44.24434 38.72565
#
# Velocity S-wave (km/s) = 3.72069 4.29475 4.01799
# Velocity P-wave (km/s) = 5.76442 6.79513 6.30088
#
# Compressibility (1/GPa) = 0.02822437
#
# Stress axis : x y z
#
# Youngs Moduli (GPa) = 158.88851 66.27369 73.01410
#
# Poissons Ratio (x) = 0.09099 0.09531
# Poissons Ratio (y) = 0.21813 0.05468
# Poissons Ratio (z) = 0.20741 0.04963
#
# Static dielectric constant tensor:
#      x y z
#    x 2.396990 0.393960 0.274390 
#    y 0.393960 2.292320 0.303750 
#    z 0.274390 0.303750 2.138720 
# 
# From -- ./inp_files/208282.got.cif
#   From: 2010.05.17/outbox.cif.g08.bks.cpg/sg2_105_cif.got.tgz:208282.got - 2010.06.03 11:33:40.
