data_PCOD9107240
_publ_section_title
;
Structure prediction by ZEFSAII (Michael W. Deem and Ramdas Pophale) SiO2 
 PCOD9107240
Probable space group: P -1
;
_chemical_formula_sum "Si O2"
_cell_formula_units_Z 14
_cell_length_a 17.893604
_cell_length_b 11.637314
_cell_length_c 17.268827
_cell_angle_alpha 21.736658
_cell_angle_beta 28.922374
_cell_angle_gamma 28.447240
_cell_volume 598.424112
_symmetry_space_group_name_H-M "P -1"
_symmetry_group_IT_number 2
_symmetry_cell_setting 'triclinic'
loop_
_space_group_symop_operation_xyz
x,y,z
-x,-y,-z
loop_
_atom_site_type_symbol
_atom_site_label
_atom_site_fract_x
_atom_site_fract_y
_atom_site_fract_z
Si Si1 0.502400 0.710086 0.241037
Si Si2 0.150416 0.691171 0.020002
Si Si3 0.229367 0.730366 0.599246
Si Si4 0.920962 0.687058 0.109268
Si Si5 0.908290 0.838463 0.417601
Si Si6 0.620307 0.271981 0.096527
Si Si7 0.400123 0.914098 0.552114
O O1 0.357163 0.799866 0.380489
O O2 0.666577 0.521501 0.266113
O O3 0.483311 0.435908 0.370791
O O4 0.500000 0.000000 0.000000
O O5 0.062700 0.513591 0.153901
O O6 0.280147 0.538302 0.066445
O O7 0.262927 0.849874 0.769751
O O8 0.000000 0.000000 0.000000
O O9 0.129979 0.547123 0.755258
O O10 0.103747 0.073531 0.536093
O O11 0.756452 0.946297 0.137563
O O12 0.004308 0.914066 0.847530
O O13 0.000000 0.500000 0.500000
O O14 0.718719 0.913074 0.519885
O O15 0.501273 0.145206 0.337102
O O16 0.500000 0.500000 0.000000
#
# Coordination Sequence:
#
# PCOD9107240 Si02
#       7
#     2   2   2   2   2   2   2
#     4  10  22  42  67 104 139 180 242 298 353 422
#     4   9  21  39  61  91 137 182 220 287 349 411
#     4  10  21  42  74  98 139 191 235 297 358 430
#     4  10  20  40  67  95 138 188 231 287 359 425
#     4  10  21  39  67 102 140 182 231 287 363 431
#     4  11  21  36  65 100 135 183 235 286 356 421
#     4  10  20  40  63  93 138 171 237 288 340 422
#
# _framework density 23.394780999999998
#
# number of rings (size 3 to 8) (size 9 to 14) (size 15 to 20)
#    0.000    2.000    1.429    1.714    0.000    1.143 
#    7.714    2.857    6.286    8.571    0.000    0.000 
#    0.000    0.000    0.000    0.000    0.000    0.000 
#
# Total GULP energy -78009.340379 kJ/mol
# GULP energy per Si atom -5572.095741 kJ/mol
# Density = 2.334153 g / cm^3
# Si number density = 23.394781 Si / 1000 Ang^3
#
#
#
# Elastic Constant Matrix: (Units=GPa)
#
#
# Indices 1 2 3 4 5 6 
#
# 1 173.3386 40.5087 74.6161 -3.9606 -20.4077 -15.1100
# 2 40.5087 104.8064 50.3542 13.4415 -5.7621 19.8681
# 3 74.6161 50.3542 124.4594 9.4441 5.2410 1.3334
# 4 -3.9606 13.4415 9.4441 32.8923 9.6296 0.0601
# 5 -20.4077 -5.7621 5.2410 9.6296 63.3612 2.8971
# 6 -15.1100 19.8681 1.3334 0.0601 2.8971 41.8591
#
#
#
# Elastic Compliance Matrix: (Units=1/GPa)
#
#
# Indices 1 2 3 4 5 6 
#
# 1 0.009150 -0.002169 -0.004964 0.002656 0.002560 0.004310
# 2 -0.002169 0.014750 -0.004244 -0.005705 0.002217 -0.007794
# 3 -0.004964 -0.004244 0.012980 -0.001774 -0.002789 0.000005
# 4 0.002656 -0.005705 -0.001774 0.035026 -0.005024 0.004020
# 5 0.002560 0.002217 -0.002789 -0.005024 0.017861 -0.001269
# 6 0.004310 -0.007794 0.000005 0.004020 -0.001269 0.029226
#
#
# Mechanical properties :
#
#
# Convention : Reuss Voigt Hill
#
# Bulk Modulus (GPa) = 70.79036 81.50693 76.14864
# Shear Modulus (GPa) = 34.13992 43.43089 38.78540
#
# Velocity S-wave (km/s) = 3.82422 4.31331 4.07611
# Velocity P-wave (km/s) = 7.05863 7.72798 7.40087
#
# Compressibility (1/GPa) = 0.01412622
#
# Stress axis : x y z
#
# Youngs Moduli (GPa) = 109.28476 67.79739 77.04196
#
# Poissons Ratio (x) = 0.14703 0.38244
# Poissons Ratio (y) = 0.23700 0.32699
# Poissons Ratio (z) = 0.54249 0.28776
#
# Static dielectric constant tensor:
#      x y z
#    x 2.083090 0.075530 0.057000 
#    y 0.075530 1.937920 -0.045660 
#    z 0.057000 -0.045660 2.025000 
# 
# From -- ./inp_files/575887.got.cif
#   From: 2010.05.17/outbox.cif.g08.bks.cpg/sg2_288_cif.got.tgz:575887.got - 2010.06.03 11:33:40.
