data_PCOD9107287
_publ_section_title
;
Structure prediction by ZEFSAII (Michael W. Deem and Ramdas Pophale) SiO2 
 PCOD9107287
Probable space group: P -1
;
_chemical_formula_sum "Si O2"
_cell_formula_units_Z 14
_cell_length_a 6.458014
_cell_length_b 19.733139
_cell_length_c 11.540491
_cell_angle_alpha 149.974392
_cell_angle_beta 58.460727
_cell_angle_gamma 127.021627
_cell_volume 587.551925
_symmetry_space_group_name_H-M "P -1"
_symmetry_group_IT_number 2
_symmetry_cell_setting 'triclinic'
loop_
_space_group_symop_operation_xyz
x,y,z
-x,-y,-z
loop_
_atom_site_type_symbol
_atom_site_label
_atom_site_fract_x
_atom_site_fract_y
_atom_site_fract_z
Si Si1 0.117345 0.847962 0.294714
Si Si2 0.066526 0.609723 0.469304
Si Si3 0.372776 0.009932 0.835793
Si Si4 0.608636 0.772671 0.463676
Si Si5 0.979744 0.294696 0.126635
Si Si6 0.628371 0.859594 0.222146
Si Si7 0.803963 0.774268 0.664780
O O1 0.319072 0.797383 0.237229
O O2 0.819810 0.769708 0.302590
O O3 0.214341 0.018811 0.551123
O O4 0.158208 0.812670 0.097340
O O5 0.318660 0.656055 0.381005
O O6 0.118140 0.708238 0.717101
O O7 0.011683 0.450000 0.295393
O O8 0.823923 0.632287 0.509175
O O9 0.564569 0.925955 0.691973
O O10 0.093067 0.888327 0.766301
O O11 0.344702 0.047620 0.765975
O O12 0.383133 0.153044 0.113525
O O13 0.734864 0.758366 0.527667
O O14 0.245415 0.260789 0.009082
#
# Coordination Sequence:
#
# PCOD9107287 Si02
#       7
#     2   2   2   2   2   2   2
#     4  11  27  41  68  99 135 174 213 269 338 385
#     4  10  25  45  70  95 129 175 230 263 318 390
#     4  10  21  36  64 100 132 167 213 271 328 385
#     4  11  24  40  68  98 131 173 217 269 329 388
#     4  11  25  47  67  96 133 177 217 273 322 387
#     4  11  24  42  66 101 135 168 217 267 331 400
#     4  10  20  40  63  98 134 167 214 276 321 381
#
# _framework density 23.827680000000001
#
# number of rings (size 3 to 8) (size 9 to 14) (size 15 to 20)
#    0.000    1.429    2.857    0.857    8.000    1.714 
#    0.000    4.286    0.000    0.000    0.000    0.000 
#    0.000    0.000    0.000    0.000    0.000    0.000 
#
# Total GULP energy -78222.293641 kJ/mol
# GULP energy per Si atom -5587.306689 kJ/mol
# Density = 2.377345 g / cm^3
# Si number density = 23.827680 Si / 1000 Ang^3
#
#
#
# Elastic Constant Matrix: (Units=GPa)
#
#
# Indices 1 2 3 4 5 6 
#
# 1 106.5276 21.7415 32.0266 8.6116 -20.5746 -26.2998
# 2 21.7415 82.1220 18.3145 -11.2453 -10.4607 -25.6774
# 3 32.0266 18.3145 68.4330 -6.1197 -12.0300 -16.5610
# 4 8.6116 -11.2453 -6.1197 31.9407 -12.1413 -12.0265
# 5 -20.5746 -10.4607 -12.0300 -12.1413 43.9990 -2.1807
# 6 -26.2998 -25.6774 -16.5610 -12.0265 -2.1807 39.8379
#
#
#
# Elastic Compliance Matrix: (Units=1/GPa)
#
#
# Indices 1 2 3 4 5 6 
#
# 1 0.013553 0.001442 -0.002814 0.002783 0.007172 0.009940
# 2 0.001442 0.025154 0.004560 0.026086 0.016479 0.027837
# 3 -0.002814 0.004560 0.022058 0.016875 0.011247 0.015961
# 4 0.002783 0.026086 0.016875 0.075404 0.035421 0.050369
# 5 0.007172 0.016479 0.011247 0.035421 0.044492 0.033160
# 6 0.009940 0.027837 0.015961 0.050369 0.033160 0.073262
#
#
# Mechanical properties :
#
#
# Convention : Reuss Voigt Hill
#
# Bulk Modulus (GPa) = 14.89399 44.58310 29.73854
# Shear Modulus (GPa) = 18.52348 35.48885 27.00617
#
# Velocity S-wave (km/s) = 2.79120 3.86346 3.37025
# Velocity P-wave (km/s) = 4.08069 6.21715 5.25856
#
# Compressibility (1/GPa) = 0.06714117
#
# Stress axis : x y z
#
# Youngs Moduli (GPa) = 73.78473 39.75583 45.33453
#
# Poissons Ratio (x) = -0.05733 0.12755
# Poissons Ratio (y) = -0.10640 -0.20671
# Poissons Ratio (z) = 0.20760 -0.18128
#
# Static dielectric constant tensor:
#      x y z
#    x 1.976910 0.084440 -0.009130 
#    y 0.084440 1.957230 -0.016550 
#    z -0.009130 -0.016550 1.900200 
# 
# From -- ./inp_files/370500.got.cif
#   From: 2010.05.17/outbox.cif.g08.bks.cpg/sg2_186_cif.got.tgz:370500.got - 2010.06.03 11:33:40.
