data_PCOD9107165
_publ_section_title
;
Structure prediction by ZEFSAII (Michael W. Deem and Ramdas Pophale) SiO2 
 PCOD9107165
Probable space group: P -1
;
_chemical_formula_sum "Si O2"
_cell_formula_units_Z 16
_cell_length_a 14.891213
_cell_length_b 9.271497
_cell_length_c 12.046428
_cell_angle_alpha 67.221253
_cell_angle_beta 54.198731
_cell_angle_gamma 112.251285
_cell_volume 730.628769
_symmetry_space_group_name_H-M "P -1"
_symmetry_group_IT_number 2
_symmetry_cell_setting 'triclinic'
loop_
_space_group_symop_operation_xyz
x,y,z
-x,-y,-z
loop_
_atom_site_type_symbol
_atom_site_label
_atom_site_fract_x
_atom_site_fract_y
_atom_site_fract_z
Si Si1 0.126766 0.536465 0.188242
Si Si2 0.243071 0.838946 0.318608
Si Si3 0.523334 0.900354 0.143856
Si Si4 0.130893 0.751957 0.910101
Si Si5 0.290608 0.207462 0.260406
Si Si6 0.512758 0.324620 0.540416
Si Si7 0.951505 0.902719 0.717100
Si Si8 0.084976 0.189828 0.983943
O O1 0.982308 0.401973 0.434251
O O2 0.105209 0.339935 0.207679
O O3 0.338209 0.805852 0.996429
O O4 0.085635 0.625096 0.101218
O O5 0.326941 0.762111 0.300135
O O6 0.295898 0.026101 0.320085
O O7 0.359700 0.025727 0.069478
O O8 0.497793 0.744547 0.304247
O O9 0.354454 0.043281 0.672830
O O10 0.000000 0.500000 0.000000
O O11 0.060469 0.837874 0.894877
O O12 0.158712 0.105769 0.281394
O O13 0.176767 0.160899 0.455733
O O14 0.500000 0.500000 0.000000
O O15 0.500000 0.500000 0.500000
O O16 0.712065 0.514778 0.284978
O O17 0.903864 0.881102 0.884906
O O18 0.000000 0.000000 0.000000
#
# Coordination Sequence:
#
# PCOD9107165 Si02
#       8
#     2   2   2   2   2   2   2   2
#     4  10  20  40  63  89 129 165 216 272 333 395
#     4  10  21  38  63  91 125 165 212 270 333 391
#     4  10  22  39  62  94 125 165 222 267 327 404
#     4  11  23  44  67  97 132 178 224 277 339 404
#     4  10  22  40  64  92 128 171 218 277 343 397
#     4  11  25  43  66  98 137 177 228 277 341 409
#     4  10  23  40  61  96 129 171 226 275 336 414
#     4  12  25  43  67  97 138 179 225 283 341 403
#
# _framework density 21.898947
#
# number of rings (size 3 to 8) (size 9 to 14) (size 15 to 20)
#    0.000    1.500    2.500    1.875    1.750    2.500 
#    2.250    3.750    0.000    0.000    0.000    0.000 
#    0.000    0.000    0.000    0.000    0.000    0.000 
#
# Total GULP energy -89166.575014 kJ/mol
# GULP energy per Si atom -5572.910938 kJ/mol
# Density = 2.184910 g / cm^3
# Si number density = 21.898947 Si / 1000 Ang^3
#
#
#
# Elastic Constant Matrix: (Units=GPa)
#
#
# Indices 1 2 3 4 5 6 
#
# 1 74.3627 -1.5720 31.0537 6.8538 9.8394 4.5636
# 2 -1.5720 60.4422 15.3525 -3.7423 5.2459 17.4290
# 3 31.0537 15.3525 132.9482 -5.8862 -1.0871 16.7187
# 4 6.8538 -3.7423 -5.8862 27.6684 2.1035 5.9032
# 5 9.8394 5.2459 -1.0871 2.1035 30.1397 0.4249
# 6 4.5636 17.4290 16.7187 5.9032 0.4249 24.1644
#
#
#
# Elastic Compliance Matrix: (Units=1/GPa)
#
#
# Indices 1 2 3 4 5 6 
#
# 1 0.016392 0.001821 -0.004226 -0.004217 -0.005521 -0.000358
# 2 0.001821 0.022724 -0.000540 0.006693 -0.004784 -0.017911
# 3 -0.004226 -0.000540 0.009595 0.004285 0.001613 -0.006526
# 4 -0.004217 0.006693 0.004285 0.042905 -0.002382 -0.017435
# 5 -0.005521 -0.004784 0.001613 -0.002382 0.035992 0.003326
# 6 -0.000358 -0.017911 -0.006526 -0.017435 0.003326 0.063085
#
#
# Mechanical properties :
#
#
# Convention : Reuss Voigt Hill
#
# Bulk Modulus (GPa) = 23.35303 39.71350 31.53327
# Shear Modulus (GPa) = 23.71301 31.25576 27.48438
#
# Velocity S-wave (km/s) = 3.29422 3.78202 3.54652
# Velocity P-wave (km/s) = 5.01561 6.10294 5.58579
#
# Compressibility (1/GPa) = 0.04282100
#
# Stress axis : x y z
#
# Youngs Moduli (GPa) = 61.00511 44.00717 104.22415
#
# Poissons Ratio (x) = -0.08014 0.44044
# Poissons Ratio (y) = -0.11110 0.05626
# Poissons Ratio (z) = 0.25780 0.02376
#
# Static dielectric constant tensor:
#      x y z
#    x 1.802160 0.034300 0.017690 
#    y 0.034300 1.846750 0.002560 
#    z 0.017690 0.002560 1.803450 
# 
# From -- ./inp_files/306994.got.cif
#   From: 2010.05.17/outbox.cif.g08.bks.cpg/sg2_154_cif.got.tgz:306994.got - 2010.06.03 11:33:40.
