data_PCOD9107371
_publ_section_title
;
Structure prediction by ZEFSAII (Michael W. Deem and Ramdas Pophale) SiO2 
 PCOD9107371
Probable space group: P -1
;
_chemical_formula_sum "Si O2"
_cell_formula_units_Z 14
_cell_length_a 9.715968
_cell_length_b 5.443847
_cell_length_c 14.933040
_cell_angle_alpha 75.322141
_cell_angle_beta 112.741613
_cell_angle_gamma 73.391292
_cell_volume 636.133392
_symmetry_space_group_name_H-M "P -1"
_symmetry_group_IT_number 2
_symmetry_cell_setting 'triclinic'
loop_
_space_group_symop_operation_xyz
x,y,z
-x,-y,-z
loop_
_atom_site_type_symbol
_atom_site_label
_atom_site_fract_x
_atom_site_fract_y
_atom_site_fract_z
Si Si1 0.062775 0.764992 0.295645
Si Si2 0.405057 0.702323 0.375942
Si Si3 0.193958 0.405323 0.036156
Si Si4 0.122380 0.000882 0.951195
Si Si5 0.952551 0.676187 0.562724
Si Si6 0.553716 0.758875 0.723747
Si Si7 0.198158 0.872615 0.656426
O O1 0.208809 0.860753 0.330974
O O2 0.134194 0.445157 0.378204
O O3 0.987812 0.813255 0.174211
O O4 0.916729 0.930207 0.313115
O O5 0.500000 0.500000 0.500000
O O6 0.416428 0.491041 0.316417
O O7 0.469185 0.939656 0.349871
O O8 0.298177 0.326380 0.160388
O O9 0.209460 0.675343 0.973858
O O10 0.000000 0.500000 0.000000
O O11 0.236745 0.138791 0.006936
O O12 0.000000 0.000000 0.000000
O O13 0.000000 0.500000 0.500000
O O14 0.125034 0.644840 0.650654
O O15 0.841239 0.984292 0.466648
O O16 0.386600 0.793898 0.728161
#
# Coordination Sequence:
#
# PCOD9107371 Si02
#       7
#     2   2   2   2   2   2   2
#     4  11  24  41  70  99 131 179 230 277 336 408
#     4  12  27  41  66 104 141 171 224 282 341 406
#     4  10  20  40  64  88 123 172 219 267 331 392
#     4  10  21  39  65  93 125 170 221 277 332 389
#     4   9  21  41  67  94 134 183 225 263 336 411
#     4  12  26  45  67  99 137 181 222 282 344 396
#     4  10  24  41  70  94 139 180 226 271 339 411
#
# _framework density 22.007963
#
# number of rings (size 3 to 8) (size 9 to 14) (size 15 to 20)
#    0.000    1.429    0.000    5.571   14.000    0.000 
#    0.000    1.429    0.000    0.000    0.000    0.000 
#    0.000    0.000    0.000    0.000    0.000    0.000 
#
# Total GULP energy -78155.652391 kJ/mol
# GULP energy per Si atom -5582.546599 kJ/mol
# Density = 2.195787 g / cm^3
# Si number density = 22.007963 Si / 1000 Ang^3
#
#
#
# Elastic Constant Matrix: (Units=GPa)
#
#
# Indices 1 2 3 4 5 6 
#
# 1 91.4442 12.2699 14.5955 15.2993 13.9982 -3.7046
# 2 12.2699 115.1078 6.1662 18.5028 3.2812 19.5656
# 3 14.5955 6.1662 105.3809 21.7918 6.8706 -5.2544
# 4 15.2993 18.5028 21.7918 25.5857 7.0055 3.9956
# 5 13.9982 3.2812 6.8706 7.0055 35.2011 1.3562
# 6 -3.7046 19.5656 -5.2544 3.9956 1.3562 25.8523
#
#
#
# Elastic Compliance Matrix: (Units=1/GPa)
#
#
# Indices 1 2 3 4 5 6 
#
# 1 0.012900 -0.000824 0.000089 -0.006714 -0.003878 0.003732
# 2 -0.000824 0.011113 0.000497 -0.007056 0.000884 -0.007383
# 3 0.000089 0.000497 0.011954 -0.011090 -0.000354 0.003799
# 4 -0.006714 -0.007056 -0.011090 0.060440 -0.006271 -0.006889
# 5 -0.003878 0.000884 -0.000354 -0.006271 0.031261 -0.001967
# 6 0.003732 -0.007383 0.003799 -0.006889 -0.001967 0.046744
#
#
# Mechanical properties :
#
#
# Convention : Reuss Voigt Hill
#
# Bulk Modulus (GPa) = 28.17654 41.99955 35.08804
# Shear Modulus (GPa) = 26.77834 35.92125 31.34979
#
# Velocity S-wave (km/s) = 3.49199 4.04442 3.77832
# Velocity P-wave (km/s) = 5.39345 6.39805 5.91711
#
# Compressibility (1/GPa) = 0.03549052
#
# Stress axis : x y z
#
# Youngs Moduli (GPa) = 77.51798 89.98694 83.65519
#
# Poissons Ratio (x) = 0.07418 -0.00744
# Poissons Ratio (y) = 0.06390 -0.04160
# Poissons Ratio (z) = -0.00689 -0.04475
#
# Static dielectric constant tensor:
#      x y z
#    x 1.807450 -0.012580 0.006310 
#    y -0.012580 1.949660 -0.036510 
#    z 0.006310 -0.036510 1.795250 
# 
# From -- ./inp_files/27689.got.cif
#   From: 2010.05.17/outbox.cif.g08.bks.cpg/sg2_14_cif.got.tgz:27689.got - 2010.06.03 11:33:40.
