data_PCOD9107383
_publ_section_title
;
Structure prediction by ZEFSAII (Michael W. Deem and Ramdas Pophale) SiO2 
 PCOD9107383
Probable space group: P -1
;
_chemical_formula_sum "Si O2"
_cell_formula_units_Z 16
_cell_length_a 8.629255
_cell_length_b 21.104610
_cell_length_c 8.947335
_cell_angle_alpha 36.813961
_cell_angle_beta 46.760933
_cell_angle_gamma 58.212657
_cell_volume 710.435374
_symmetry_space_group_name_H-M "P -1"
_symmetry_group_IT_number 2
_symmetry_cell_setting 'triclinic'
loop_
_space_group_symop_operation_xyz
x,y,z
-x,-y,-z
loop_
_atom_site_type_symbol
_atom_site_label
_atom_site_fract_x
_atom_site_fract_y
_atom_site_fract_z
Si Si1 0.260349 0.023676 0.162761
Si Si2 0.597504 0.404499 0.702464
Si Si3 0.847528 0.771543 0.981891
Si Si4 0.930763 0.140364 0.599548
Si Si5 0.733971 0.746601 0.608068
Si Si6 0.991914 0.337961 0.684100
Si Si7 0.413025 0.805508 0.049015
Si Si8 0.333610 0.863715 0.669014
O O1 0.097200 0.976987 0.231530
O O2 0.246553 0.957712 0.452888
O O3 0.204160 0.140547 0.025052
O O4 0.500000 0.000000 0.000000
O O5 0.500000 0.500000 0.500000
O O6 0.819900 0.425615 0.604205
O O7 0.670931 0.313139 0.713153
O O8 0.409709 0.343707 0.037608
O O9 0.040987 0.790940 0.700311
O O10 0.652382 0.788281 0.968164
O O11 0.857718 0.661474 0.270739
O O12 0.712908 0.153441 0.806299
O O13 0.107769 0.182160 0.523492
O O14 0.552546 0.824327 0.527084
O O15 0.867136 0.691304 0.496305
O O16 0.836608 0.235518 0.025659
O O17 0.387125 0.878401 0.782292
#
# Coordination Sequence:
#
# PCOD9107383 Si02
#       8
#     2   2   2   2   2   2   2   2
#     4  12  25  39  58  91 126 169 213 259 286 345
#     4  10  22  42  68  97 119 146 202 258 306 377
#     4  12  23  41  60  87 128 166 206 250 303 348
#     4  12  21  40  61  87 124 168 206 248 300 355
#     4  10  20  40  64  89 118 165 198 246 311 364
#     4  10  21  39  64  89 120 165 198 244 317 363
#     4  10  22  41  62  88 122 161 200 256 307 360
#     4  10  21  39  57  86 124 160 213 249 300 347
#
# _framework density 22.5214
#
# number of rings (size 3 to 8) (size 9 to 14) (size 15 to 20)
#    0.000    1.500    7.500    1.125    0.000    1.000 
#    0.000    3.750    0.000    1.500    0.000    0.000 
#    0.000    0.000    0.000    0.000    0.000    0.000 
#
# Total GULP energy -89186.666633 kJ/mol
# GULP energy per Si atom -5574.166665 kJ/mol
# Density = 2.247014 g / cm^3
# Si number density = 22.521400 Si / 1000 Ang^3
#
#
#
# Elastic Constant Matrix: (Units=GPa)
#
#
# Indices 1 2 3 4 5 6 
#
# 1 69.1749 22.8261 26.9830 1.5929 18.0229 -15.2815
# 2 22.8261 80.4408 39.8116 10.6792 9.9934 -6.7351
# 3 26.9830 39.8116 60.8335 18.6155 11.2593 -9.4202
# 4 1.5929 10.6792 18.6155 45.1666 -8.6040 2.1790
# 5 18.0229 9.9934 11.2593 -8.6040 29.7109 -2.0378
# 6 -15.2815 -6.7351 -9.4202 2.1790 -2.0378 37.1521
#
#
#
# Elastic Compliance Matrix: (Units=1/GPa)
#
#
# Indices 1 2 3 4 5 6 
#
# 1 0.021087 -0.001468 -0.005449 -0.000348 -0.009888 0.006504
# 2 -0.001468 0.018577 -0.011407 0.000180 -0.000996 -0.000194
# 3 -0.005449 -0.011407 0.032222 -0.012173 -0.008311 0.004119
# 4 -0.000348 0.000180 -0.012173 0.029829 0.013112 -0.004227
# 5 -0.009888 -0.000996 -0.008311 0.013112 0.046624 -0.004567
# 6 0.006504 -0.000194 0.004119 -0.004227 -0.004567 0.030598
#
#
# Mechanical properties :
#
#
# Convention : Reuss Voigt Hill
#
# Bulk Modulus (GPa) = 28.37875 43.29893 35.83884
# Shear Modulus (GPa) = 21.99436 30.46114 26.22775
#
# Velocity S-wave (km/s) = 3.12845 3.68168 3.41628
# Velocity P-wave (km/s) = 5.06732 6.11068 5.61330
#
# Compressibility (1/GPa) = 0.03523763
#
# Stress axis : x y z
#
# Youngs Moduli (GPa) = 47.42301 53.82897 31.03500
#
# Poissons Ratio (x) = 0.07901 0.16911
# Poissons Ratio (y) = 0.06960 0.35403
# Poissons Ratio (z) = 0.25840 0.61405
#
# Static dielectric constant tensor:
#      x y z
#    x 2.112040 0.016390 -0.033390 
#    y 0.016390 1.797470 0.003270 
#    z -0.033390 0.003270 1.857150 
# 
# From -- ./inp_files/225208.got.cif
#   From: 2010.05.17/outbox.cif.g08.bks.cpg/sg2_113_cif.got.tgz:225208.got - 2010.06.03 11:33:40.
