data_PCOD9107436
_publ_section_title
;
Structure prediction by ZEFSAII (Michael W. Deem and Ramdas Pophale) SiO2 
 PCOD9107436
Probable space group: P -1
;
_chemical_formula_sum "Si O2"
_cell_formula_units_Z 16
_cell_length_a 8.995287
_cell_length_b 12.371197
_cell_length_c 14.303219
_cell_angle_alpha 66.557481
_cell_angle_beta 100.325414
_cell_angle_gamma 148.904411
_cell_volume 709.090859
_symmetry_space_group_name_H-M "P -1"
_symmetry_group_IT_number 2
_symmetry_cell_setting 'triclinic'
loop_
_space_group_symop_operation_xyz
x,y,z
-x,-y,-z
loop_
_atom_site_type_symbol
_atom_site_label
_atom_site_fract_x
_atom_site_fract_y
_atom_site_fract_z
Si Si1 0.749936 0.894636 0.782454
Si Si2 0.341735 0.577586 0.483784
Si Si3 0.559238 0.582278 0.340744
Si Si4 0.889194 0.468315 0.247704
Si Si5 0.518249 0.479985 0.870255
Si Si6 0.218156 0.590971 0.071969
Si Si7 0.283063 0.764375 0.504459
Si Si8 0.150080 0.903292 0.082811
O O1 0.467176 0.754585 0.740827
O O2 0.684976 0.711346 0.841542
O O3 0.756723 0.962904 0.859576
O O4 0.085412 0.146137 0.694117
O O5 0.381762 0.558023 0.390119
O O6 0.493581 0.582980 0.565312
O O7 0.451479 0.782942 0.452052
O O8 0.978024 0.340467 0.542153
O O9 0.496165 0.536795 0.239203
O O10 0.892492 0.426269 0.367851
O O11 0.039286 0.480293 0.187284
O O12 0.053981 0.705646 0.167316
O O13 0.693985 0.482500 0.920081
O O14 0.160786 0.248087 0.939405
O O15 0.000000 0.500000 0.000000
O O16 0.545238 0.879568 0.019221
O O17 0.500000 0.000000 0.500000
#
# Coordination Sequence:
#
# PCOD9107436 Si02
#       8
#     2   2   2   2   2   2   2   2
#     4  10  20  40  64  92 121 171 212 258 313 376
#     4  10  22  39  61  93 125 161 217 261 315 381
#     4  10  21  41  64  89 125 168 213 264 313 376
#     4  11  23  42  66  92 132 169 215 258 325 378
#     4  10  23  41  66  91 127 167 217 252 323 381
#     4  12  24  44  63  99 131 166 215 268 316 378
#     4  11  23  40  64  95 130 166 207 263 325 377
#     4  10  22  44  65  89 128 178 210 263 313 378
#
# _framework density 22.564104
#
# number of rings (size 3 to 8) (size 9 to 14) (size 15 to 20)
#    0.000    1.500    1.250    4.500    0.000    3.500 
#   11.250    3.125    0.000    0.000    0.000    0.000 
#    0.000    0.000    0.000    0.000    0.000    0.000 
#
# Total GULP energy -89485.971043 kJ/mol
# GULP energy per Si atom -5592.873190 kJ/mol
# Density = 2.251275 g / cm^3
# Si number density = 22.564104 Si / 1000 Ang^3
#
#
#
# Elastic Constant Matrix: (Units=GPa)
#
#
# Indices 1 2 3 4 5 6 
#
# 1 135.5834 36.9748 13.8175 4.9236 -2.2551 -2.5069
# 2 36.9748 86.8563 1.7085 1.2504 -1.9071 -18.2529
# 3 13.8175 1.7085 43.2440 11.2235 -10.9300 10.1190
# 4 4.9236 1.2504 11.2235 27.1324 -0.0649 1.6440
# 5 -2.2551 -1.9071 -10.9300 -0.0649 31.3828 5.1615
# 6 -2.5069 -18.2529 10.1190 1.6440 5.1615 30.9000
#
#
#
# Elastic Compliance Matrix: (Units=1/GPa)
#
#
# Indices 1 2 3 4 5 6 
#
# 1 0.008650 -0.003771 -0.002470 -0.000336 -0.000364 -0.000638
# 2 -0.003771 0.015137 -0.002136 0.000285 -0.001673 0.009600
# 3 -0.002470 -0.002136 0.034150 -0.012680 0.013911 -0.014295
# 4 -0.000336 0.000285 -0.012680 0.041964 -0.004807 0.002864
# 5 -0.000364 -0.001673 0.013911 -0.004807 0.038504 -0.011750
# 6 -0.000638 0.009600 -0.014295 0.002864 -0.011750 0.044473
#
#
# Mechanical properties :
#
#
# Convention : Reuss Voigt Hill
#
# Bulk Modulus (GPa) = 24.28201 41.18725 32.73463
# Shear Modulus (GPa) = 23.43440 32.09526 27.76483
#
# Velocity S-wave (km/s) = 3.22618 3.77557 3.51164
# Velocity P-wave (km/s) = 4.96612 6.10734 5.56606
#
# Compressibility (1/GPa) = 0.04118275
#
# Stress axis : x y z
#
# Youngs Moduli (GPa) = 115.60663 66.06274 29.28219
#
# Poissons Ratio (x) = 0.24912 0.07233
# Poissons Ratio (y) = 0.43595 0.06255
# Poissons Ratio (z) = 0.28557 0.14113
#
# Static dielectric constant tensor:
#      x y z
#    x 1.856200 -0.001010 0.004520 
#    y -0.001010 1.815260 -0.021220 
#    z 0.004520 -0.021220 1.858460 
# 
# From -- ./inp_files/49413.got.cif
#   From: 2010.05.17/outbox.cif.g08.bks.cpg/sg2_25_cif.got.tgz:49413.got - 2010.06.03 11:33:40.
