data_PCOD9107749
_publ_section_title
;
Structure prediction by ZEFSAII (Michael W. Deem and Ramdas Pophale) SiO2 
 PCOD9107749
Probable space group: P -1
;
_chemical_formula_sum "Si O2"
_cell_formula_units_Z 12
_cell_length_a 17.910677
_cell_length_b 5.043462
_cell_length_c 5.579773
_cell_angle_alpha 87.730751
_cell_angle_beta 115.363242
_cell_angle_gamma 87.135087
_cell_volume 453.837947
_symmetry_space_group_name_H-M "P -1"
_symmetry_group_IT_number 2
_symmetry_cell_setting 'triclinic'
loop_
_space_group_symop_operation_xyz
x,y,z
-x,-y,-z
loop_
_atom_site_type_symbol
_atom_site_label
_atom_site_fract_x
_atom_site_fract_y
_atom_site_fract_z
Si Si1 0.096715 0.053657 0.637870
Si Si2 0.244601 0.658152 0.866089
Si Si3 0.672954 0.861978 0.244463
Si Si4 0.483439 0.217390 0.260586
Si Si5 0.363640 0.539847 0.416654
Si Si6 0.060927 0.237242 0.081524
O O1 0.150162 0.772799 0.732744
O O2 0.111696 0.199917 0.400294
O O3 0.000000 0.000000 0.500000
O O4 0.889723 0.789671 0.100653
O O5 0.272481 0.360432 0.830763
O O6 0.286010 0.863463 0.737765
O O7 0.286181 0.699389 0.181743
O O8 0.667298 0.723768 0.498076
O O9 0.578441 0.885473 0.016757
O O10 0.425048 0.459329 0.284348
O O11 0.572457 0.325188 0.324830
O O12 0.500000 0.000000 0.500000
O O13 0.000000 0.500000 0.000000
O O14 0.000000 0.000000 0.000000
#
# Coordination Sequence:
#
# PCOD9107749 Si02
#       6
#     2   2   2   2   2   2
#     4  10  24  47  73 103 141 187 238 292 354 423
#     4  11  26  43  64 100 135 174 231 284 345 417
#     4  11  25  42  66  98 133 179 223 279 354 404
#     4  10  20  40  65  94 131 173 229 272 338 418
#     4  10  23  41  64  94 136 174 221 286 337 414
#     4  10  22  42  71 101 133 174 230 288 346 415
#
# _framework density 26.441153
#
# number of rings (size 3 to 8) (size 9 to 14) (size 15 to 20)
#    0.000    1.667    1.667    1.000    4.667    6.000 
#    3.000    0.000    0.000    0.000    0.000    0.000 
#    0.000    0.000    0.000    0.000    0.000    0.000 
#
# Total GULP energy -67197.263525 kJ/mol
# GULP energy per Si atom -5599.771960 kJ/mol
# Density = 2.638097 g / cm^3
# Si number density = 26.441153 Si / 1000 Ang^3
#
#
#
# Elastic Constant Matrix: (Units=GPa)
#
#
# Indices 1 2 3 4 5 6 
#
# 1 111.8561 15.2739 55.6707 -3.1327 22.5535 -15.8961
# 2 15.2739 95.0586 17.3300 -8.8808 -2.2644 -11.0308
# 3 55.6707 17.3300 167.2363 -17.7470 0.0331 -13.3415
# 4 -3.1327 -8.8808 -17.7470 46.9115 -7.3794 -4.2311
# 5 22.5535 -2.2644 0.0331 -7.3794 64.1426 -4.8112
# 6 -15.8961 -11.0308 -13.3415 -4.2311 -4.8112 51.8135
#
#
#
# Elastic Compliance Matrix: (Units=1/GPa)
#
#
# Indices 1 2 3 4 5 6 
#
# 1 0.012171 -0.001252 -0.003916 -0.001413 -0.004339 0.001941
# 2 -0.001252 0.011289 -0.000327 0.002333 0.001276 0.002244
# 3 -0.003916 -0.000327 0.007723 0.002981 0.001789 0.001127
# 4 -0.001413 0.002333 0.002981 0.023625 0.003527 0.003088
# 5 -0.004339 0.001276 0.001789 0.003527 0.017665 0.001330
# 6 0.001941 0.002244 0.001127 0.003088 0.001330 0.021039
#
#
# Mechanical properties :
#
#
# Convention : Reuss Voigt Hill
#
# Bulk Modulus (GPa) = 49.51993 61.18889 55.35441
# Shear Modulus (GPa) = 44.95028 51.63195 48.29112
#
# Velocity S-wave (km/s) = 4.12759 4.42374 4.27823
# Velocity P-wave (km/s) = 6.44089 7.02029 6.73682
#
# Compressibility (1/GPa) = 0.02019389
#
# Stress axis : x y z
#
# Youngs Moduli (GPa) = 82.16179 88.57932 129.48323
#
# Poissons Ratio (x) = 0.11089 0.50707
# Poissons Ratio (y) = 0.10285 0.04231
# Poissons Ratio (z) = 0.32176 0.02895
#
# Static dielectric constant tensor:
#      x y z
#    x 2.092330 -0.020840 -0.074370 
#    y -0.020840 2.110860 0.098380 
#    z -0.074370 0.098380 2.130230 
# 
# From -- ./inp_files/102746.got.cif
#   From: 2010.05.17/outbox.cif.g08.bks.cpg/sg2_52_cif.got.tgz:102746.got - 2010.06.03 11:33:40.
