data_PCOD9107357
_publ_section_title
;
Structure prediction by ZEFSAII (Michael W. Deem and Ramdas Pophale) SiO2 
 PCOD9107357
Probable space group: P -1
;
_chemical_formula_sum "Si O2"
_cell_formula_units_Z 11
_cell_length_a 10.059552
_cell_length_b 4.938864
_cell_length_c 10.946239
_cell_angle_alpha 88.797922
_cell_angle_beta 52.176042
_cell_angle_gamma 79.983152
_cell_volume 420.455298
_symmetry_space_group_name_H-M "P -1"
_symmetry_group_IT_number 2
_symmetry_cell_setting 'triclinic'
loop_
_space_group_symop_operation_xyz
x,y,z
-x,-y,-z
loop_
_atom_site_type_symbol
_atom_site_label
_atom_site_fract_x
_atom_site_fract_y
_atom_site_fract_z
Si Si1 0.503497 0.281297 0.392207
Si Si2 0.261320 0.457278 0.312255
Si Si3 0.807985 0.995166 0.067095
Si Si4 0.176271 0.514293 0.100306
Si Si5 0.848086 0.843841 0.401898
Si Si6 0.000000 0.000000 0.500000
O O1 0.500000 0.500000 0.500000
O O2 0.421688 0.433884 0.311551
O O3 0.682341 0.101502 0.248721
O O4 0.352179 0.114665 0.508295
O O5 0.276732 0.372617 0.163880
O O6 0.143245 0.268627 0.454865
O O7 0.164349 0.771227 0.354525
O O8 0.760593 0.215049 0.982941
O O9 0.802663 0.695502 0.021999
O O10 0.000000 0.000000 0.000000
O O11 0.974487 0.633755 0.248282
O O12 0.928773 0.099632 0.390910
#
# Coordination Sequence:
#
# PCOD9107357 Si02
#       6
#     2   2   2   2   2   1
#     4  10  24  47  67 100 147 185 243 287 353 430
#     4   9  23  38  70 104 136 185 235 287 349 414
#     4  12  28  47  71 102 145 192 234 295 368 419
#     4  11  24  44  74 102 142 180 243 295 356 423
#     4   9  22  39  68 104 135 184 235 284 347 421
#     4  10  16  34  66 100 132 166 236 282 342 404
#
# _framework density 26.162116999999999
#
# number of rings (size 3 to 8) (size 9 to 14) (size 15 to 20)
#    1.091    0.727    0.000    3.818   10.182    2.909 
#    0.000    2.727    0.000    0.000    0.000    0.000 
#    0.000    0.000    0.000    0.000    0.000    0.000 
#
# Total GULP energy -61343.790274 kJ/mol
# GULP energy per Si atom -5576.708207 kJ/mol
# Density = 2.610257 g / cm^3
# Si number density = 26.162117 Si / 1000 Ang^3
#
#
#
# Elastic Constant Matrix: (Units=GPa)
#
#
# Indices 1 2 3 4 5 6 
#
# 1 148.1139 0.4756 77.0723 23.1888 -6.0459 -2.6585
# 2 0.4756 75.4931 32.4094 -3.3075 -0.1307 8.4342
# 3 77.0723 32.4094 185.2736 25.6481 -3.7664 -0.4605
# 4 23.1888 -3.3075 25.6481 56.6254 -3.5097 20.2578
# 5 -6.0459 -0.1307 -3.7664 -3.5097 43.3544 5.9129
# 6 -2.6585 8.4342 -0.4605 20.2578 5.9129 30.7656
#
#
#
# Elastic Compliance Matrix: (Units=1/GPa)
#
#
# Indices 1 2 3 4 5 6 
#
# 1 0.009107 0.001114 -0.003582 -0.002796 0.000438 0.002185
# 2 0.001114 0.016101 -0.004005 0.005293 0.001393 -0.008131
# 3 -0.003582 -0.004005 0.008098 -0.003711 -0.000581 0.003465
# 4 -0.002796 0.005293 -0.003711 0.028805 0.004581 -0.021595
# 5 0.000438 0.001393 -0.000581 0.004581 0.024554 -0.008088
# 6 0.002185 -0.008131 0.003465 -0.021595 -0.008088 0.050748
#
#
# Mechanical properties :
#
#
# Convention : Reuss Voigt Hill
#
# Bulk Modulus (GPa) = 49.11093 69.86612 59.48852
# Shear Modulus (GPa) = 31.81778 46.07730 38.94754
#
# Velocity S-wave (km/s) = 3.49116 4.20124 3.86255
# Velocity P-wave (km/s) = 5.92144 7.09204 6.53301
#
# Compressibility (1/GPa) = 0.02036207
#
# Stress axis : x y z
#
# Youngs Moduli (GPa) = 109.80919 62.10715 123.48008
#
# Poissons Ratio (x) = -0.06922 0.44228
# Poissons Ratio (y) = -0.12238 0.49451
# Poissons Ratio (z) = 0.39332 0.24873
#
# Static dielectric constant tensor:
#      x y z
#    x 2.566040 0.213580 0.125080 
#    y 0.213580 2.379110 -0.064700 
#    z 0.125080 -0.064700 2.125650 
# 
# From -- ./inp_files/407892.got.cif
#   From: 2010.05.17/outbox.cif.g08.bks.cpg/sg2_204_cif.got.tgz:407892.got - 2010.06.03 11:33:40.
