data_PCOD9107714
_publ_section_title
;
Structure prediction by ZEFSAII (Michael W. Deem and Ramdas Pophale) SiO2 
 PCOD9107714
Probable space group: P -1
;
_chemical_formula_sum "Si O2"
_cell_formula_units_Z 12
_cell_length_a 8.749512
_cell_length_b 14.914404
_cell_length_c 15.209725
_cell_angle_alpha 27.300866
_cell_angle_beta 32.895377
_cell_angle_gamma 33.973161
_cell_volume 466.044899
_symmetry_space_group_name_H-M "P -1"
_symmetry_group_IT_number 2
_symmetry_cell_setting 'triclinic'
loop_
_space_group_symop_operation_xyz
x,y,z
-x,-y,-z
loop_
_atom_site_type_symbol
_atom_site_label
_atom_site_fract_x
_atom_site_fract_y
_atom_site_fract_z
Si Si1 0.351303 0.285279 0.614824
Si Si2 0.106109 0.990636 0.796771
Si Si3 0.758769 0.676981 0.177923
Si Si4 0.657976 0.610870 0.923907
Si Si5 0.470646 0.819250 0.005664
Si Si6 0.290587 0.366600 0.372363
O O1 0.425117 0.340153 0.631111
O O2 0.418537 0.326920 0.445228
O O3 0.999542 0.426373 0.666242
O O4 0.483238 0.038601 0.776407
O O5 0.203883 0.172533 0.548009
O O6 0.887778 0.126904 0.860385
O O7 0.407020 0.820952 0.832130
O O8 0.908388 0.859486 0.965574
O O9 0.576932 0.745164 0.116912
O O10 0.029050 0.468039 0.206875
O O11 0.665380 0.654432 0.986410
O O12 0.524938 0.422601 0.149536
#
# Coordination Sequence:
#
# PCOD9107714 Si02
#       6
#     2   2   2   2   2   2
#     4  10  20  40  65  93 126 165 220 260 303 392
#     4  11  22  42  69  92 128 172 221 263 306 392
#     4  11  25  41  65  99 136 167 207 272 336 372
#     4  12  23  43  68  96 132 169 215 270 321 381
#     4  11  21  43  68  93 129 181 208 257 332 392
#     4  11  22  38  71 101 118 168 230 263 312 377
#
# _framework density 25.748593
#
# number of rings (size 3 to 8) (size 9 to 14) (size 15 to 20)
#    0.000    1.000    5.000    5.500    0.000    0.667 
#    0.000    8.333    0.000    0.000    0.000    0.000 
#    0.000    0.000    0.000    0.000    0.000    0.000 
#
# Total GULP energy -66977.812532 kJ/mol
# GULP energy per Si atom -5581.484378 kJ/mol
# Density = 2.568999 g / cm^3
# Si number density = 25.748593 Si / 1000 Ang^3
#
#
#
# Elastic Constant Matrix: (Units=GPa)
#
#
# Indices 1 2 3 4 5 6 
#
# 1 115.3182 26.6578 31.1932 -16.3454 25.4316 17.2845
# 2 26.6578 107.4295 12.8132 -1.7095 -0.1458 9.1929
# 3 31.1932 12.8132 97.1460 -7.6967 15.4232 0.1095
# 4 -16.3454 -1.7095 -7.6967 32.8929 3.1266 7.8954
# 5 25.4316 -0.1458 15.4232 3.1266 40.8111 -5.8470
# 6 17.2845 9.1929 0.1095 7.8954 -5.8470 40.8605
#
#
#
# Elastic Compliance Matrix: (Units=1/GPa)
#
#
# Indices 1 2 3 4 5 6 
#
# 1 0.014955 -0.002542 -0.001963 0.010069 -0.010679 -0.009223
# 2 -0.002542 0.010096 -0.000896 -0.000955 0.001927 -0.000734
# 3 -0.001963 -0.000896 0.011733 0.002010 -0.003349 0.000133
# 4 0.010069 -0.000955 0.002010 0.040224 -0.012060 -0.013548
# 5 -0.010679 0.001927 -0.003349 -0.012060 0.034992 0.011430
# 6 -0.009223 -0.000734 0.000133 -0.013548 0.011430 0.032793
#
#
# Mechanical properties :
#
#
# Convention : Reuss Voigt Hill
#
# Bulk Modulus (GPa) = 38.48844 51.24691 44.86767
# Shear Modulus (GPa) = 30.44019 39.52821 34.98420
#
# Velocity S-wave (km/s) = 3.44206 3.92236 3.69003
# Velocity P-wave (km/s) = 5.54772 6.36076 5.96810
#
# Compressibility (1/GPa) = 0.02598183
#
# Stress axis : x y z
#
# Youngs Moduli (GPa) = 66.86758 99.04665 85.22890
#
# Poissons Ratio (x) = 0.25176 0.16732
# Poissons Ratio (y) = 0.16997 0.07639
# Poissons Ratio (z) = 0.13127 0.08877
#
# Static dielectric constant tensor:
#      x y z
#    x 2.209190 0.073800 -0.056120 
#    y 0.073800 1.969390 0.002790 
#    z -0.056120 0.002790 2.084910 
# 
# From -- ./inp_files/148049.got.cif
#   From: 2010.05.17/outbox.cif.g08.bks.cpg/sg2_75_cif.got.tgz:148049.got - 2010.06.03 11:33:40.
