data_PCOD9107753
_publ_section_title
;
Structure prediction by ZEFSAII (Michael W. Deem and Ramdas Pophale) SiO2 
 PCOD9107753
Probable space group: P -1
;
_chemical_formula_sum "Si O2"
_cell_formula_units_Z 16
_cell_length_a 20.756732
_cell_length_b 23.167319
_cell_length_c 9.466527
_cell_angle_alpha 31.322198
_cell_angle_beta 147.016973
_cell_angle_gamma 161.533814
_cell_volume 738.210965
_symmetry_space_group_name_H-M "P -1"
_symmetry_group_IT_number 2
_symmetry_cell_setting 'triclinic'
loop_
_space_group_symop_operation_xyz
x,y,z
-x,-y,-z
loop_
_atom_site_type_symbol
_atom_site_label
_atom_site_fract_x
_atom_site_fract_y
_atom_site_fract_z
Si Si1 0.311867 0.714291 0.669726
Si Si2 0.580678 0.824856 0.176164
Si Si3 0.623861 0.617023 0.752923
Si Si4 0.372461 0.009669 0.790453
Si Si5 0.430430 0.229284 0.189077
Si Si6 0.072384 0.676264 0.116871
Si Si7 0.003242 0.978067 0.884990
Si Si8 0.051281 0.189846 0.292772
O O1 0.392881 0.687157 0.759323
O O2 0.269180 0.787500 0.337619
O O3 0.096966 0.548926 0.710821
O O4 0.474121 0.815491 0.879931
O O5 0.501749 0.638010 0.451489
O O6 0.573247 0.886368 0.180595
O O7 0.820177 0.990261 0.228447
O O8 0.768278 0.706711 0.694461
O O9 0.492382 0.403776 0.976903
O O10 0.787176 0.764908 0.871849
O O11 0.398618 0.124167 0.482983
O O12 0.500000 0.000000 0.000000
O O13 0.148154 0.783547 0.884394
O O14 0.204306 0.057433 0.060803
O O15 0.948538 0.679791 0.955114
O O16 0.050187 0.124457 0.575151
O O17 0.000000 0.000000 0.000000
#
# Coordination Sequence:
#
# PCOD9107753 Si02
#       8
#     2   2   2   2   2   2   2   2
#     4  11  22  41  69 101 124 174 235 269 334 396
#     4  10  23  40  68  99 130 173 222 274 342 395
#     4  11  23  43  66 101 140 166 224 282 326 406
#     4  11  24  47  63  91 138 179 219 275 339 395
#     4  12  24  43  72 101 131 184 222 270 344 400
#     4  10  22  41  67  90 138 168 218 283 325 391
#     4  11  24  41  64 100 138 176 219 269 343 402
#     4  10  20  40  65  94 133 170 213 279 334 386
#
# _framework density 21.674022000000001
#
# number of rings (size 3 to 8) (size 9 to 14) (size 15 to 20)
#    0.000    1.250    2.500    5.250    1.750    5.000 
#    4.500    0.625    0.000    0.000    0.000    0.000 
#    0.000    0.000    0.000    0.000    0.000    0.000 
#
# Total GULP energy -89174.838558 kJ/mol
# GULP energy per Si atom -5573.427410 kJ/mol
# Density = 2.162469 g / cm^3
# Si number density = 21.674022 Si / 1000 Ang^3
#
#
#
# Elastic Constant Matrix: (Units=GPa)
#
#
# Indices 1 2 3 4 5 6 
#
# 1 79.1562 9.9465 13.0380 -3.1506 6.9483 17.6954
# 2 9.9465 54.0347 32.8808 -5.9977 -13.7526 16.6184
# 3 13.0380 32.8808 98.7282 11.0634 -4.8132 10.5603
# 4 -3.1506 -5.9977 11.0634 28.5693 5.4379 -4.2515
# 5 6.9483 -13.7526 -4.8132 5.4379 36.6068 -2.7535
# 6 17.6954 16.6184 10.5603 -4.2515 -2.7535 25.8995
#
#
#
# Elastic Compliance Matrix: (Units=1/GPa)
#
#
# Indices 1 2 3 4 5 6 
#
# 1 0.015578 0.000373 -0.001432 0.001559 -0.004024 -0.010471
# 2 0.000373 0.031471 -0.009265 0.006434 0.008472 -0.014714
# 3 -0.001432 -0.009265 0.014263 -0.007610 -0.000215 -0.000165
# 4 0.001559 0.006434 -0.007610 0.040974 -0.004655 0.004141
# 5 -0.004024 0.008472 -0.000215 -0.004655 0.031929 0.000032
# 6 -0.010471 -0.014714 -0.000165 0.004141 0.000032 0.055957
#
#
# Mechanical properties :
#
#
# Convention : Reuss Voigt Hill
#
# Bulk Modulus (GPa) = 24.59096 38.18330 31.38713
# Shear Modulus (GPa) = 22.28401 29.95204 26.11802
#
# Velocity S-wave (km/s) = 3.20995 3.72147 3.47513
# Velocity P-wave (km/s) = 5.01087 6.01008 5.53308
#
# Compressibility (1/GPa) = 0.04066535
#
# Stress axis : x y z
#
# Youngs Moduli (GPa) = 64.19150 31.77504 70.10962
#
# Poissons Ratio (x) = -0.01186 0.10043
# Poissons Ratio (y) = -0.02396 0.64954
# Poissons Ratio (z) = 0.09195 0.29438
#
# Static dielectric constant tensor:
#      x y z
#    x 1.791540 -0.015010 0.008160 
#    y -0.015010 1.929160 -0.035420 
#    z 0.008160 -0.035420 1.854710 
# 
# From -- ./inp_files/349987.got.cif
#   From: 2010.05.17/outbox.cif.g08.bks.cpg/sg2_175_cif.got.tgz:349987.got - 2010.06.03 11:33:40.
