data_PCOD9107406
_publ_section_title
;
Structure prediction by ZEFSAII (Michael W. Deem and Ramdas Pophale) SiO2 
 PCOD9107406
Probable space group: P -1
;
_chemical_formula_sum "Si O2"
_cell_formula_units_Z 15
_cell_length_a 10.633930
_cell_length_b 17.053936
_cell_length_c 14.377547
_cell_angle_alpha 26.284308
_cell_angle_beta 33.014724
_cell_angle_gamma 33.655975
_cell_volume 593.004332
_symmetry_space_group_name_H-M "P -1"
_symmetry_group_IT_number 2
_symmetry_cell_setting 'triclinic'
loop_
_space_group_symop_operation_xyz
x,y,z
-x,-y,-z
loop_
_atom_site_type_symbol
_atom_site_label
_atom_site_fract_x
_atom_site_fract_y
_atom_site_fract_z
Si Si1 0.372501 0.584517 0.350970
Si Si2 0.495310 0.742077 0.523236
Si Si3 0.753558 0.011958 0.036183
Si Si4 0.111772 0.578759 0.709624
Si Si5 0.325260 0.485528 0.026629
Si Si6 0.977756 0.993513 0.397606
Si Si7 0.500000 0.000000 0.000000
Si Si8 0.242797 0.810940 0.858967
O O1 0.402816 0.387330 0.492418
O O2 0.183223 0.614433 0.521513
O O3 0.637830 0.557994 0.258751
O O4 0.305750 0.770572 0.132830
O O5 0.647460 0.879066 0.303660
O O6 0.497086 0.588167 0.762952
O O7 0.213233 0.877525 0.547799
O O8 0.042170 0.912457 0.950397
O O9 0.628918 0.012320 0.010404
O O10 0.031274 0.773495 0.605499
O O11 0.887528 0.504332 0.923696
O O12 0.205809 0.620128 0.043979
O O13 0.481784 0.275691 0.182184
O O14 0.817094 0.055560 0.335414
O O15 0.232357 0.029489 0.184238
#
# Coordination Sequence:
#
# PCOD9107406 Si02
#       8
#     2   2   2   2   2   2   1   2
#     4  11  25  42  64 103 130 172 218 270 328 398
#     4  11  26  41  64 101 137 166 214 277 341 371
#     4  11  23  41  68  92 134 176 215 268 331 397
#     4  11  23  42  67  96 133 169 227 266 322 399
#     4  10  23  41  67  96 131 171 223 279 319 388
#     4  10  22  42  68  97 127 177 215 271 328 387
#     4  10  20  40  64  90 124 172 222 248 312 398
#     4   9  20  44  67  93 123 181 228 256 329 396
#
# _framework density 25.294924000000002
#
# number of rings (size 3 to 8) (size 9 to 14) (size 15 to 20)
#    0.000    1.600    2.667    1.600    9.333    3.733 
#    0.000    2.000    0.000    0.000    0.000    0.000 
#    0.000    0.000    0.000    0.000    0.000    0.000 
#
# Total GULP energy -83677.906691 kJ/mol
# GULP energy per Si atom -5578.527113 kJ/mol
# Density = 2.523735 g / cm^3
# Si number density = 25.294924 Si / 1000 Ang^3
#
#
#
# Elastic Constant Matrix: (Units=GPa)
#
#
# Indices 1 2 3 4 5 6 
#
# 1 29.3587 15.7528 10.1022 -6.5943 7.2989 5.8906
# 2 15.7528 115.2012 57.1479 -19.5751 -11.7178 14.7539
# 3 10.1022 57.1479 92.9111 -15.1773 -1.2144 6.0278
# 4 -6.5943 -19.5751 -15.1773 27.2829 3.7130 3.1124
# 5 7.2989 -11.7178 -1.2144 3.7130 20.3428 -2.9347
# 6 5.8906 14.7539 6.0278 3.1124 -2.9347 30.9729
#
#
#
# Elastic Compliance Matrix: (Units=1/GPa)
#
#
# Indices 1 2 3 4 5 6 
#
# 1 0.047748 -0.006109 0.000857 0.012054 -0.024220 -0.009844
# 2 -0.006109 0.015694 -0.007820 0.004670 0.009280 -0.004382
# 3 0.000857 -0.007820 0.016145 0.004268 -0.004693 -0.000453
# 4 0.012054 0.004670 0.004268 0.048188 -0.011807 -0.011309
# 5 -0.024220 0.009280 -0.004693 -0.011807 0.066304 0.008568
# 6 -0.009844 -0.004382 -0.000453 -0.011309 0.008568 0.038282
#
#
# Mechanical properties :
#
#
# Convention : Reuss Voigt Hill
#
# Bulk Modulus (GPa) = 18.71166 44.83076 31.77121
# Shear Modulus (GPa) = 18.09491 26.01759 22.05625
#
# Velocity S-wave (km/s) = 2.67752 3.21061 2.95611
# Velocity P-wave (km/s) = 4.11974 5.61300 4.92331
#
# Compressibility (1/GPa) = 0.05344262
#
# Stress axis : x y z
#
# Youngs Moduli (GPa) = 20.94323 63.71851 61.93772
#
# Poissons Ratio (x) = 0.38925 -0.05308
# Poissons Ratio (y) = 0.12794 0.48438
# Poissons Ratio (z) = -0.01795 0.49830
#
# Static dielectric constant tensor:
#      x y z
#    x 2.074110 0.035740 0.046800 
#    y 0.035740 1.958140 0.002920 
#    z 0.046800 0.002920 1.984110 
# 
# From -- ./inp_files/559257.got.cif
#   From: 2010.05.17/outbox.cif.g08.bks.cpg/sg2_280_cif.got.tgz:559257.got - 2010.06.03 11:33:40.
