data_PCOD9107064
_publ_section_title
;
Structure prediction by ZEFSAII (Michael W. Deem and Ramdas Pophale) SiO2 
 PCOD9107064
Probable space group: P -1
;
_chemical_formula_sum "Si O2"
_cell_formula_units_Z 14
_cell_length_a 8.990505
_cell_length_b 20.384082
_cell_length_c 16.132684
_cell_angle_alpha 162.211544
_cell_angle_beta 39.508215
_cell_angle_gamma 138.391840
_cell_volume 573.326356
_symmetry_space_group_name_H-M "P -1"
_symmetry_group_IT_number 2
_symmetry_cell_setting 'triclinic'
loop_
_space_group_symop_operation_xyz
x,y,z
-x,-y,-z
loop_
_atom_site_type_symbol
_atom_site_label
_atom_site_fract_x
_atom_site_fract_y
_atom_site_fract_z
Si Si1 0.389995 0.624921 0.564785
Si Si2 0.574941 0.804199 0.858353
Si Si3 0.284486 0.377114 0.896523
Si Si4 0.819131 0.181842 0.266485
Si Si5 0.277997 0.496484 0.861300
Si Si6 0.524668 0.023037 0.615279
Si Si7 0.925649 0.277157 0.504538
O O1 0.390540 0.771556 0.823998
O O2 0.401805 0.392299 0.324685
O O3 0.191989 0.691340 0.663878
O O4 0.619959 0.624119 0.405819
O O5 0.819867 0.810298 0.709655
O O6 0.584027 0.022729 0.168667
O O7 0.346205 0.392826 0.793604
O O8 0.271993 0.131127 0.631798
O O9 0.500000 0.500000 0.000000
O O10 0.080414 0.523224 0.189886
O O11 0.865065 0.347993 0.521761
O O12 0.000000 0.000000 0.000000
O O13 0.403958 0.737427 0.097996
O O14 0.000000 0.500000 0.000000
O O15 0.500000 0.000000 0.500000
O O16 0.277233 0.911093 0.618412
#
# Coordination Sequence:
#
# PCOD9107064 Si02
#       7
#     2   2   2   2   2   2   2
#     4  11  23  41  66  90 136 177 212 275 341 380
#     4  10  23  43  62  94 130 173 222 271 330 401
#     4  10  20  40  62  95 132 167 216 269 324 391
#     4  10  22  40  64  95 128 170 226 269 324 395
#     4  12  25  42  68  99 134 173 219 274 334 398
#     4  11  22  39  65  94 131 174 216 267 330 389
#     4  10  20  40  65  93 131 167 224 272 322 397
#
# _framework density 24.418903
#
# number of rings (size 3 to 8) (size 9 to 14) (size 15 to 20)
#    0.000    1.429    2.857    3.857    0.000    2.857 
#    5.143    2.857    0.000    0.000    0.000    0.000 
#    0.000    0.000    0.000    0.000    0.000    0.000 
#
# Total GULP energy -78017.455103 kJ/mol
# GULP energy per Si atom -5572.675365 kJ/mol
# Density = 2.436332 g / cm^3
# Si number density = 24.418903 Si / 1000 Ang^3
#
#
#
# Elastic Constant Matrix: (Units=GPa)
#
#
# Indices 1 2 3 4 5 6 
#
# 1 113.3078 42.7135 26.8286 7.9819 -3.4269 -36.4796
# 2 42.7135 94.8266 20.2087 2.8549 -7.8231 -26.8591
# 3 26.8286 20.2087 86.5514 1.8553 -9.0776 -24.5988
# 4 7.9819 2.8549 1.8553 38.1889 -6.2335 -9.3828
# 5 -3.4269 -7.8231 -9.0776 -6.2335 38.0224 -12.4641
# 6 -36.4796 -26.8591 -24.5988 -9.3828 -12.4641 39.1792
#
#
#
# Elastic Compliance Matrix: (Units=1/GPa)
#
#
# Indices 1 2 3 4 5 6 
#
# 1 0.014192 -0.001893 0.000907 0.001827 0.006299 0.014927
# 2 -0.001893 0.015437 0.001596 0.003834 0.008413 0.013416
# 3 0.000907 0.001596 0.016781 0.004833 0.010804 0.017069
# 4 0.001827 0.003834 0.004833 0.032324 0.013797 0.019494
# 5 0.006299 0.008413 0.010804 0.013797 0.045282 0.036125
# 6 0.014927 0.013416 0.017069 0.019494 0.036125 0.075497
#
#
# Mechanical properties :
#
#
# Convention : Reuss Voigt Hill
#
# Bulk Modulus (GPa) = 20.99592 52.68751 36.84171
# Shear Modulus (GPa) = 23.34580 36.74044 30.04312
#
# Velocity S-wave (km/s) = 3.09537 3.88311 3.51140
# Velocity P-wave (km/s) = 4.62514 6.45973 5.61783
#
# Compressibility (1/GPa) = 0.04762829
#
# Stress axis : x y z
#
# Youngs Moduli (GPa) = 70.46190 64.77913 59.59199
#
# Poissons Ratio (x) = 0.12265 -0.05403
# Poissons Ratio (y) = 0.13341 -0.09510
# Poissons Ratio (z) = -0.06389 -0.10337
#
# Static dielectric constant tensor:
#      x y z
#    x 1.977050 0.038380 0.012930 
#    y 0.038380 2.030910 -0.055940 
#    z 0.012930 -0.055940 2.058910 
# 
# From -- ./inp_files/507370.got.cif
#   From: 2010.05.17/outbox.cif.g08.bks.cpg/sg2_254_cif.got.tgz:507370.got - 2010.06.03 11:33:40.
