data_PCOD9107391
_publ_section_title
;
Structure prediction by ZEFSAII (Michael W. Deem and Ramdas Pophale) SiO2 
 PCOD9107391
Probable space group: P -1
;
_chemical_formula_sum "Si O2"
_cell_formula_units_Z 16
_cell_length_a 6.975365
_cell_length_b 18.696993
_cell_length_c 19.012001
_cell_angle_alpha 158.429206
_cell_angle_beta 66.778159
_cell_angle_gamma 100.224138
_cell_volume 694.107149
_symmetry_space_group_name_H-M "P -1"
_symmetry_group_IT_number 2
_symmetry_cell_setting 'triclinic'
loop_
_space_group_symop_operation_xyz
x,y,z
-x,-y,-z
loop_
_atom_site_type_symbol
_atom_site_label
_atom_site_fract_x
_atom_site_fract_y
_atom_site_fract_z
Si Si1 0.053167 0.639376 0.458093
Si Si2 0.248403 0.344032 0.746818
Si Si3 0.221826 0.935070 0.002123
Si Si4 0.118455 0.631856 0.821475
Si Si5 0.580842 0.390718 0.108803
Si Si6 0.565933 0.896229 0.206715
Si Si7 0.783041 0.722585 0.777462
Si Si8 0.331635 0.396182 0.933326
O O1 0.281320 0.599280 0.340975
O O2 0.190120 0.393401 0.257425
O O3 0.935406 0.858142 0.727567
O O4 0.849160 0.615101 0.424338
O O5 0.257689 0.567641 0.931306
O O6 0.361583 0.264100 0.734983
O O7 0.413105 0.161808 0.495816
O O8 0.968096 0.406676 0.841771
O O9 0.191085 0.062408 0.048757
O O10 0.153408 0.746779 0.852445
O O11 0.513917 0.804547 0.860114
O O12 0.839338 0.800867 0.048655
O O13 0.311169 0.613747 0.834633
O O14 0.588968 0.161441 0.876260
O O15 0.605018 0.752797 0.141554
O O16 0.000000 0.500000 0.500000
O O17 0.500000 0.500000 0.000000
#
# Coordination Sequence:
#
# PCOD9107391 Si02
#       8
#     2   2   2   2   2   2   2   2
#     4  10  22  40  62  90 124 158 203 254 299 360
#     4  11  24  41  65  89 122 163 201 252 308 358
#     4  10  20  40  64  89 124 162 200 252 305 353
#     4  11  23  40  64  91 122 162 204 247 304 365
#     4  11  22  42  61  90 127 156 205 256 294 365
#     4  11  24  42  64  92 120 161 205 247 309 363
#     4   9  19  39  64  90 125 159 203 255 296 355
#     4  11  23  43  63  91 124 156 207 255 298 365
#
# _framework density 23.051195
#
# number of rings (size 3 to 8) (size 9 to 14) (size 15 to 20)
#    0.000    1.500    3.750    1.125    0.000    3.000 
#    2.250    5.625    0.000    0.000    0.000    0.000 
#    0.000    0.000    0.000    0.000    0.000    0.000 
#
# Total GULP energy -89392.653321 kJ/mol
# GULP energy per Si atom -5587.040833 kJ/mol
# Density = 2.299873 g / cm^3
# Si number density = 23.051195 Si / 1000 Ang^3
#
#
#
# Elastic Constant Matrix: (Units=GPa)
#
#
# Indices 1 2 3 4 5 6 
#
# 1 122.5807 20.1031 6.5230 8.7867 5.4169 18.8036
# 2 20.1031 93.9358 -16.6392 10.0913 -11.5415 14.1505
# 3 6.5230 -16.6392 44.7083 -6.2465 -0.8827 10.6442
# 4 8.7867 10.0913 -6.2465 30.6279 -0.8660 0.3371
# 5 5.4169 -11.5415 -0.8827 -0.8660 15.4357 -6.5868
# 6 18.8036 14.1505 10.6442 0.3371 -6.5868 54.3653
#
#
#
# Elastic Compliance Matrix: (Units=1/GPa)
#
#
# Indices 1 2 3 4 5 6 
#
# 1 0.009643 -0.002547 -0.002110 -0.002518 -0.006863 -0.003075
# 2 -0.002547 0.014263 0.006212 -0.002372 0.010608 -0.002748
# 3 -0.002110 0.006212 0.027016 0.004265 0.004769 -0.005625
# 4 -0.002518 -0.002372 0.004265 0.035062 0.001589 0.000628
# 5 -0.006863 0.010608 0.004769 0.001589 0.079003 0.008241
# 6 -0.003075 -0.002748 -0.005625 0.000628 0.008241 0.022269
#
#
# Mechanical properties :
#
#
# Convention : Reuss Voigt Hill
#
# Bulk Modulus (GPa) = 18.50706 31.24427 24.87566
# Shear Modulus (GPa) = 24.73319 36.83499 30.78409
#
# Velocity S-wave (km/s) = 3.27917 4.00179 3.65837
# Velocity P-wave (km/s) = 4.73111 5.91068 5.35348
#
# Compressibility (1/GPa) = 0.05403344
#
# Stress axis : x y z
#
# Youngs Moduli (GPa) = 103.69838 70.11078 37.01448
#
# Poissons Ratio (x) = 0.17857 0.07810
# Poissons Ratio (y) = 0.26412 -0.22994
# Poissons Ratio (z) = 0.21881 -0.43555
#
# Static dielectric constant tensor:
#      x y z
#    x 1.902300 -0.032390 0.023450 
#    y -0.032390 1.902880 0.015830 
#    z 0.023450 0.015830 1.836530 
# 
# From -- ./inp_files/11197.got.cif
#   From: 2010.05.17/outbox.cif.g08.bks.cpg/sg2_6_cif.got.tgz:11197.got - 2010.06.03 11:33:40.
