data_PCOD9107519
_publ_section_title
;
Structure prediction by ZEFSAII (Michael W. Deem and Ramdas Pophale) SiO2 
 PCOD9107519
Probable space group: P -1
;
_chemical_formula_sum "Si O2"
_cell_formula_units_Z 16
_cell_length_a 9.813987
_cell_length_b 5.031188
_cell_length_c 15.602451
_cell_angle_alpha 54.808837
_cell_angle_beta 97.964381
_cell_angle_gamma 98.961001
_cell_volume 620.764857
_symmetry_space_group_name_H-M "P -1"
_symmetry_group_IT_number 2
_symmetry_cell_setting 'triclinic'
loop_
_space_group_symop_operation_xyz
x,y,z
-x,-y,-z
loop_
_atom_site_type_symbol
_atom_site_label
_atom_site_fract_x
_atom_site_fract_y
_atom_site_fract_z
Si Si1 0.707516 0.661515 0.142198
Si Si2 0.367734 0.694464 0.968781
Si Si3 0.785149 0.066401 0.374009
Si Si4 0.241531 0.255942 0.175204
Si Si5 0.356736 0.654414 0.352680
Si Si6 0.991832 0.965917 0.106243
Si Si7 0.092158 0.324541 0.320244
Si Si8 0.630679 0.377758 0.444060
O O1 0.720796 0.494807 0.081687
O O2 0.723634 0.362716 0.261978
O O3 0.832358 0.944546 0.118643
O O4 0.593880 0.912927 0.102950
O O5 0.500000 0.500000 0.000000
O O6 0.313115 0.583131 0.079607
O O7 0.719040 0.128559 0.448861
O O8 0.952989 0.109587 0.376818
O O9 0.723853 0.724790 0.392750
O O10 0.191257 0.204293 0.277972
O O11 0.341725 0.963781 0.231827
O O12 0.099316 0.214716 0.117060
O O13 0.200860 0.472877 0.372429
O O14 0.484146 0.448423 0.376318
O O15 0.395111 0.736992 0.439155
O O16 0.034205 0.624410 0.209193
O O17 0.000000 0.000000 0.000000
#
# Coordination Sequence:
#
# PCOD9107519 Si02
#       8
#     2   2   2   2   2   2   2   2
#     4  11  25  43  67  98 138 181 237 281 351 427
#     4  12  27  43  66 102 142 191 232 285 353 426
#     4  11  27  46  75 108 144 188 241 309 356 422
#     4  11  25  42  71 102 146 185 238 298 354 430
#     4  10  27  47  74 105 143 192 243 296 367 439
#     4  10  20  40  64  96 132 184 234 284 345 415
#     4  10  25  43  71 105 145 190 240 298 366 425
#     4  11  27  50  76 106 142 193 244 300 368 429
#
# _framework density 25.774653000000001
#
# number of rings (size 3 to 8) (size 9 to 14) (size 15 to 20)
#    0.000    1.250    1.250    1.875   17.500    3.000 
#    0.000    0.000    0.000    0.000    0.000    0.000 
#    0.000    0.000    0.000    0.000    0.000    0.000 
#
# Total GULP energy -89387.973987 kJ/mol
# GULP energy per Si atom -5586.748374 kJ/mol
# Density = 2.571599 g / cm^3
# Si number density = 25.774653 Si / 1000 Ang^3
#
#
#
# Elastic Constant Matrix: (Units=GPa)
#
#
# Indices 1 2 3 4 5 6 
#
# 1 63.4342 29.3909 20.8374 6.3440 2.6755 9.2074
# 2 29.3909 110.2492 22.7374 -12.0818 6.9556 -1.5045
# 3 20.8374 22.7374 93.6821 -8.4211 6.2956 5.5021
# 4 6.3440 -12.0818 -8.4211 37.7323 3.5188 -3.4654
# 5 2.6755 6.9556 6.2956 3.5188 31.1473 4.6487
# 6 9.2074 -1.5045 5.5021 -3.4654 4.6487 42.8263
#
#
#
# Elastic Compliance Matrix: (Units=1/GPa)
#
#
# Indices 1 2 3 4 5 6 
#
# 1 0.020978 -0.005753 -0.003708 -0.006816 0.001745 -0.004977
# 2 -0.005753 0.011570 -0.001043 0.004929 -0.002806 0.002481
# 3 -0.003708 -0.001043 0.012207 0.003194 -0.002231 -0.000307
# 4 -0.006816 0.004929 0.003194 0.030827 -0.005285 0.004296
# 5 0.001745 -0.002806 -0.002231 -0.005285 0.034277 -0.004335
# 6 -0.004977 0.002481 -0.000307 0.004296 -0.004335 0.025365
#
#
# Mechanical properties :
#
#
# Convention : Reuss Voigt Hill
#
# Bulk Modulus (GPa) = 42.10643 45.92186 44.01415
# Shear Modulus (GPa) = 30.46049 35.30117 32.88083
#
# Velocity S-wave (km/s) = 3.44146 3.70484 3.57557
# Velocity P-wave (km/s) = 5.67128 6.01302 5.84465
#
# Compressibility (1/GPa) = 0.02374934
#
# Stress axis : x y z
#
# Youngs Moduli (GPa) = 47.66854 86.43031 81.91905
#
# Poissons Ratio (x) = 0.49722 0.30372
# Poissons Ratio (y) = 0.27423 0.08541
# Poissons Ratio (z) = 0.17673 0.09012
#
# Static dielectric constant tensor:
#      x y z
#    x 0.052170 2.387230 -1.226370 
#    y 2.387230 -0.674140 1.542910 
#    z -1.226370 1.542910 1.273980 
# 
# From -- ./inp_files/553175.got.cif
#   From: 2010.05.17/outbox.cif.g08.bks.cpg/sg2_277_cif.got.tgz:553175.got - 2010.06.03 11:33:40.
