data_PCOD9107167
_publ_section_title
;
Structure prediction by ZEFSAII (Michael W. Deem and Ramdas Pophale) SiO2 
 PCOD9107167
Probable space group: P -1
;
_chemical_formula_sum "Si O2"
_cell_formula_units_Z 16
_cell_length_a 22.897819
_cell_length_b 12.777326
_cell_length_c 6.721807
_cell_angle_alpha 51.950926
_cell_angle_beta 125.083683
_cell_angle_gamma 151.241124
_cell_volume 742.019245
_symmetry_space_group_name_H-M "P -1"
_symmetry_group_IT_number 2
_symmetry_cell_setting 'triclinic'
loop_
_space_group_symop_operation_xyz
x,y,z
-x,-y,-z
loop_
_atom_site_type_symbol
_atom_site_label
_atom_site_fract_x
_atom_site_fract_y
_atom_site_fract_z
Si Si1 0.891142 0.760455 0.177367
Si Si2 0.408468 0.380676 0.143020
Si Si3 0.833836 0.882412 0.238861
Si Si4 0.635319 0.156705 0.025381
Si Si5 0.713324 0.545919 0.729838
Si Si6 0.026338 0.631739 0.090163
Si Si7 0.452015 0.240411 0.702371
Si Si8 0.146806 0.587723 0.616067
O O1 0.884003 0.825255 0.296698
O O2 0.906895 0.624851 0.350567
O O3 0.771048 0.610833 0.983917
O O4 0.000000 0.000000 0.000000
O O5 0.377173 0.210500 0.428416
O O6 0.491560 0.593044 0.203547
O O7 0.500000 0.500000 0.000000
O O8 0.284906 0.254480 0.961385
O O9 0.790492 0.769629 0.501548
O O10 0.920513 0.141579 0.115593
O O11 0.706933 0.389482 0.801192
O O12 0.712058 0.231246 0.282469
O O13 0.500000 0.000000 0.000000
O O14 0.618536 0.992539 0.074831
O O15 0.574346 0.381612 0.660270
O O16 0.121632 0.683761 0.336486
O O17 0.915861 0.488468 0.199300
O O18 0.000000 0.500000 0.000000
#
# Coordination Sequence:
#
# PCOD9107167 Si02
#       8
#     2   2   2   2   2   2   2   2
#     4  11  23  42  67  90 127 171 214 266 327 378
#     4  11  22  37  64  97 124 169 215 259 316 381
#     4  12  24  41  67  99 130 167 217 271 322 387
#     4   9  20  41  67  91 128 171 206 260 321 380
#     4  10  22  39  64  95 124 165 213 257 320 385
#     4  11  26  43  67  97 129 169 220 272 329 388
#     4  10  20  40  63  89 132 167 208 259 311 376
#     4  10  23  45  66  95 129 170 220 266 328 392
#
# _framework density 21.562783
#
# number of rings (size 3 to 8) (size 9 to 14) (size 15 to 20)
#    0.000    1.500    3.750    0.750    1.750    3.500 
#    0.000    3.125    0.000    0.000    0.000    0.000 
#    0.000    0.000    0.000    0.000    0.000    0.000 
#
# Total GULP energy -89216.344906 kJ/mol
# GULP energy per Si atom -5576.021557 kJ/mol
# Density = 2.151371 g / cm^3
# Si number density = 21.562783 Si / 1000 Ang^3
#
#
#
# Elastic Constant Matrix: (Units=GPa)
#
#
# Indices 1 2 3 4 5 6 
#
# 1 77.3256 25.0030 20.7559 1.7164 1.0015 -25.1702
# 2 25.0030 95.2011 26.4511 -12.8487 1.6767 -26.9290
# 3 20.7559 26.4511 76.7093 -7.8841 5.3126 -16.0460
# 4 1.7164 -12.8487 -7.8841 34.0651 0.0118 13.6553
# 5 1.0015 1.6767 5.3126 0.0118 28.5268 6.0102
# 6 -25.1702 -26.9290 -16.0460 13.6553 6.0102 41.6691
#
#
#
# Elastic Compliance Matrix: (Units=1/GPa)
#
#
# Indices 1 2 3 4 5 6 
#
# 1 0.018023 -0.001691 -0.002422 -0.006679 -0.002483 0.011408
# 2 -0.001691 0.013812 -0.002630 0.002107 -0.001619 0.006435
# 3 -0.002422 -0.002630 0.015569 0.001625 -0.003244 0.002768
# 4 -0.006679 0.002107 0.001625 0.036663 0.002842 -0.014471
# 5 -0.002483 -0.001619 -0.003244 0.002842 0.037990 -0.010206
# 6 0.011408 0.006435 0.002768 -0.014471 -0.010206 0.042329
#
#
# Mechanical properties :
#
#
# Convention : Reuss Voigt Hill
#
# Bulk Modulus (GPa) = 29.48301 43.73955 36.61128
# Shear Modulus (GPa) = 26.43001 32.65393 29.54197
#
# Velocity S-wave (km/s) = 3.50483 3.89571 3.70543
# Velocity P-wave (km/s) = 5.48464 6.36900 5.94329
#
# Compressibility (1/GPa) = 0.03391784
#
# Stress axis : x y z
#
# Youngs Moduli (GPa) = 55.48434 72.39988 64.22955
#
# Poissons Ratio (x) = 0.12245 0.15554
# Poissons Ratio (y) = 0.09384 0.16895
# Poissons Ratio (z) = 0.13436 0.19044
#
# Static dielectric constant tensor:
#      x y z
#    x 1.751590 0.035860 0.143480 
#    y 0.035860 1.754550 -0.082800 
#    z 0.143480 -0.082800 1.673000 
# 
# From -- ./inp_files/123604.got.cif
#   From: 2010.05.17/outbox.cif.g08.bks.cpg/sg2_62_cif.got.tgz:123604.got - 2010.06.03 11:33:40.
