data_PCOD9107070
_publ_section_title
;
Structure prediction by ZEFSAII (Michael W. Deem and Ramdas Pophale) SiO2 
 PCOD9107070
Probable space group: P -1
;
_chemical_formula_sum "Si O2"
_cell_formula_units_Z 16
_cell_length_a 10.974397
_cell_length_b 10.467379
_cell_length_c 11.432343
_cell_angle_alpha 137.378262
_cell_angle_beta 60.138466
_cell_angle_gamma 125.651055
_cell_volume 716.910677
_symmetry_space_group_name_H-M "P -1"
_symmetry_group_IT_number 2
_symmetry_cell_setting 'triclinic'
loop_
_space_group_symop_operation_xyz
x,y,z
-x,-y,-z
loop_
_atom_site_type_symbol
_atom_site_label
_atom_site_fract_x
_atom_site_fract_y
_atom_site_fract_z
Si Si1 0.601225 0.251102 0.837452
Si Si2 0.851888 0.101347 0.510523
Si Si3 0.342282 0.903046 0.847738
Si Si4 0.148915 0.698544 0.594067
Si Si5 0.458445 0.760504 0.384453
Si Si6 0.618649 0.506026 0.217005
Si Si7 0.849348 0.742861 0.425339
Si Si8 0.626524 0.832896 0.769122
O O1 0.716081 0.140712 0.670134
O O2 0.578217 0.352762 0.797923
O O3 0.436667 0.096353 0.851410
O O4 0.663135 0.405733 0.017133
O O5 0.847842 0.134179 0.394936
O O6 0.004634 0.276737 0.602102
O O7 0.882611 0.906547 0.414021
O O8 0.191560 0.779606 0.761885
O O9 0.485548 0.833108 0.756529
O O10 0.317117 0.978545 0.040290
O O11 0.306610 0.671926 0.471069
O O12 0.000000 0.500000 0.500000
O O13 0.596247 0.715659 0.342501
O O14 0.500000 0.000000 0.500000
O O15 0.737455 0.537277 0.283859
O O16 0.454844 0.359833 0.240200
O O17 0.757171 0.811402 0.613900
#
# Coordination Sequence:
#
# PCOD9107070 Si02
#       8
#     2   2   2   2   2   2   2   2
#     4  10  20  40  62  96 122 162 222 259 325 375
#     4  10  24  41  62  88 128 178 208 258 325 389
#     4  10  20  40  66  93 125 172 209 269 321 380
#     4  11  24  39  65  93 129 169 217 258 324 386
#     4  11  21  40  67  92 128 169 213 268 323 386
#     4  11  23  35  67  97 123 162 213 282 308 377
#     4  11  22  41  61  91 130 169 218 255 326 385
#     4  10  22  38  66  95 127 164 218 265 322 376
#
# _framework density 22.317983000000002
#
# number of rings (size 3 to 8) (size 9 to 14) (size 15 to 20)
#    0.000    1.500    2.500    3.000    3.500    0.500 
#    0.000    5.625    0.000    0.000    0.000    0.000 
#    0.000    0.000    0.000    0.000    0.000    0.000 
#
# Total GULP energy -89173.293985 kJ/mol
# GULP energy per Si atom -5573.330874 kJ/mol
# Density = 2.226719 g / cm^3
# Si number density = 22.317983 Si / 1000 Ang^3
#
#
#
# Elastic Constant Matrix: (Units=GPa)
#
#
# Indices 1 2 3 4 5 6 
#
# 1 113.1291 3.0806 37.8086 6.2319 39.2377 10.2223
# 2 3.0806 42.7015 21.1269 1.6210 11.7342 3.5016
# 3 37.8086 21.1269 97.3967 -6.5682 27.2188 10.7697
# 4 6.2319 1.6210 -6.5682 23.3355 -2.7294 7.2017
# 5 39.2377 11.7342 27.2188 -2.7294 30.9347 6.9474
# 6 10.2223 3.5016 10.7697 7.2017 6.9474 38.2202
#
#
#
# Elastic Compliance Matrix: (Units=1/GPa)
#
#
# Indices 1 2 3 4 5 6 
#
# 1 0.018675 0.007108 -0.002520 -0.009613 -0.025348 0.001483
# 2 0.007108 0.030356 -0.005317 -0.007897 -0.016857 0.001368
# 3 -0.002520 -0.005317 0.014991 0.005327 -0.006874 -0.002817
# 4 -0.009613 -0.007897 0.005327 0.053073 0.017752 -0.011434
# 5 -0.025348 -0.016857 -0.006874 0.017752 0.080208 -0.007664
# 6 0.001483 0.001368 -0.002817 -0.011434 -0.007664 0.029983
#
#
# Mechanical properties :
#
#
# Convention : Reuss Voigt Hill
#
# Bulk Modulus (GPa) = 15.98345 41.91770 28.95058
# Shear Modulus (GPa) = 20.03212 31.24549 25.63880
#
# Velocity S-wave (km/s) = 2.99921 3.74574 3.39307
# Velocity P-wave (km/s) = 4.37846 6.12619 5.32452
#
# Compressibility (1/GPa) = 0.06256471
#
# Stress axis : x y z
#
# Youngs Moduli (GPa) = 53.54630 32.94240 66.70799
#
# Poissons Ratio (x) = -0.23417 0.16810
# Poissons Ratio (y) = -0.38063 0.35470
# Poissons Ratio (z) = 0.13493 0.17516
#
# Static dielectric constant tensor:
#      x y z
#    x 1.865990 -0.021800 0.059020 
#    y -0.021800 1.931160 0.072890 
#    z 0.059020 0.072890 1.889130 
# 
# From -- ./inp_files/397467.got.cif
#   From: 2010.05.17/outbox.cif.g08.bks.cpg/sg2_199_cif.got.tgz:397467.got - 2010.06.03 11:33:40.
