data_PCOD9107213
_publ_section_title
;
Structure prediction by ZEFSAII (Michael W. Deem and Ramdas Pophale) SiO2 
 PCOD9107213
Probable space group: P -1
;
_chemical_formula_sum "Si O2"
_cell_formula_units_Z 16
_cell_length_a 9.831648
_cell_length_b 11.447548
_cell_length_c 22.768618
_cell_angle_alpha 43.946152
_cell_angle_beta 34.438081
_cell_angle_gamma 68.304105
_cell_volume 825.572460
_symmetry_space_group_name_H-M "P -1"
_symmetry_group_IT_number 2
_symmetry_cell_setting 'triclinic'
loop_
_space_group_symop_operation_xyz
x,y,z
-x,-y,-z
loop_
_atom_site_type_symbol
_atom_site_label
_atom_site_fract_x
_atom_site_fract_y
_atom_site_fract_z
Si Si1 0.574032 0.618987 0.869560
Si Si2 0.290278 0.337007 0.958140
Si Si3 0.834483 0.082140 0.857165
Si Si4 0.757123 0.504476 0.510077
Si Si5 0.806591 0.615407 0.587926
Si Si6 0.293308 0.822777 0.833550
Si Si7 0.839062 0.988464 0.501753
Si Si8 0.149170 0.110840 0.845961
O O1 0.459014 0.471319 0.906759
O O2 0.414761 0.734582 0.869413
O O3 0.500000 0.500000 0.000000
O O4 0.926112 0.784685 0.687540
O O5 0.534349 0.423709 0.788866
O O6 0.026181 0.338669 0.022759
O O7 0.149536 0.100298 0.107887
O O8 0.057524 0.296942 0.668590
O O9 0.914847 0.100375 0.890115
O O10 0.500000 0.000000 0.000000
O O11 0.773694 0.579620 0.543279
O O12 0.420540 0.344466 0.671987
O O13 0.909885 0.381522 0.497336
O O14 0.819869 0.814644 0.531271
O O15 0.523274 0.920497 0.662031
O O16 0.263525 0.988188 0.817267
O O17 0.000000 0.000000 0.500000
O O18 0.000000 0.000000 0.000000
#
# Coordination Sequence:
#
# PCOD9107213 Si02
#       8
#     2   2   2   2   2   2   2   2
#     4  11  24  39  63  97 125 160 214 266 320 367
#     4  11  22  42  63  92 124 172 209 257 321 390
#     4  11  24  41  64  95 134 165 211 269 322 377
#     4  11  23  40  65  95 131 171 211 274 319 379
#     4  11  22  38  69  91 128 169 223 255 328 383
#     4  10  22  42  68  86 127 168 211 258 315 384
#     4  10  20  40  63  92 121 168 211 259 310 387
#     4  11  25  44  67  98 129 170 221 259 325 391
#
# _framework density 19.380490000000002
#
# number of rings (size 3 to 8) (size 9 to 14) (size 15 to 20)
#    0.000    1.250    3.750    3.750    3.500    1.000 
#    0.000    5.625    0.000    0.000    0.000    0.000 
#    0.000    0.000    0.000    0.000    0.000    0.000 
#
# Total GULP energy -89260.200206 kJ/mol
# GULP energy per Si atom -5578.762513 kJ/mol
# Density = 1.933638 g / cm^3
# Si number density = 19.380490 Si / 1000 Ang^3
#
#
#
# Elastic Constant Matrix: (Units=GPa)
#
#
# Indices 1 2 3 4 5 6 
#
# 1 120.6653 30.9274 68.4848 5.4188 2.6669 5.2023
# 2 30.9274 81.0305 42.7853 2.8917 1.5348 12.0749
# 3 68.4848 42.7853 148.2212 0.4674 6.5227 11.8061
# 4 5.4188 2.8917 0.4674 34.1391 -0.3831 0.1128
# 5 2.6669 1.5348 6.5227 -0.3831 43.0149 4.4415
# 6 5.2023 12.0749 11.8061 0.1128 4.4415 17.8280
#
#
#
# Elastic Compliance Matrix: (Units=1/GPa)
#
#
# Indices 1 2 3 4 5 6 
#
# 1 0.011577 -0.001968 -0.004870 -0.001609 -0.000048 0.001202
# 2 -0.001968 0.015987 -0.003069 -0.000962 0.000879 -0.008434
# 3 -0.004870 -0.003069 0.010157 0.000895 -0.000808 -0.003031
# 4 -0.001609 -0.000962 0.000895 0.029618 0.000233 0.000283
# 5 -0.000048 0.000879 -0.000808 0.000233 0.023965 -0.006019
# 6 0.001202 -0.008434 -0.003031 0.000283 -0.006019 0.064958
#
#
# Mechanical properties :
#
#
# Convention : Reuss Voigt Hill
#
# Bulk Modulus (GPa) = 55.84397 70.47909 63.16153
# Shear Modulus (GPa) = 27.46555 32.84438 30.15496
#
# Velocity S-wave (km/s) = 3.76862 4.12116 3.94883
# Velocity P-wave (km/s) = 6.91475 7.68701 7.31109
#
# Compressibility (1/GPa) = 0.01790704
#
# Stress axis : x y z
#
# Youngs Moduli (GPa) = 86.37742 62.54902 98.45698
#
# Poissons Ratio (x) = 0.12311 0.47944
# Poissons Ratio (y) = 0.17001 0.30220
# Poissons Ratio (z) = 0.42062 0.19198
#
# Static dielectric constant tensor:
#      x y z
#    x 1.651380 -0.002120 -0.098400 
#    y -0.002120 1.674260 0.065900 
#    z -0.098400 0.065900 1.644470 
# 
# From -- ./inp_files/589529.got.cif
#   From: 2010.05.17/outbox.cif.g08.bks.cpg/sg2_295_cif.got.tgz:589529.got - 2010.06.03 11:33:40.
