data_PCOD9107331
_publ_section_title
;
Structure prediction by ZEFSAII (Michael W. Deem and Ramdas Pophale) SiO2 
 PCOD9107331
Probable space group: P -1
;
_chemical_formula_sum "Si O2"
_cell_formula_units_Z 12
_cell_length_a 11.652941
_cell_length_b 7.698176
_cell_length_c 19.133615
_cell_angle_alpha 134.391606
_cell_angle_beta 146.507854
_cell_angle_gamma 70.161840
_cell_volume 531.619784
_symmetry_space_group_name_H-M "P -1"
_symmetry_group_IT_number 2
_symmetry_cell_setting 'triclinic'
loop_
_space_group_symop_operation_xyz
x,y,z
-x,-y,-z
loop_
_atom_site_type_symbol
_atom_site_label
_atom_site_fract_x
_atom_site_fract_y
_atom_site_fract_z
Si Si1 0.542000 0.978820 0.740164
Si Si2 0.051412 0.501921 0.645691
Si Si3 0.176847 0.321847 0.532055
Si Si4 0.678078 0.041677 0.972855
Si Si5 0.632394 0.065245 0.510506
Si Si6 0.790708 0.701472 0.740018
O O1 0.558053 0.081729 0.697237
O O2 0.739170 0.887859 0.818052
O O3 0.227593 0.702718 0.512438
O O4 0.614296 0.145919 0.898623
O O5 0.092508 0.290406 0.560996
O O6 0.280904 0.741953 0.882451
O O7 0.024922 0.690580 0.626024
O O8 0.214351 0.075679 0.457260
O O9 0.446555 0.676159 0.761433
O O10 0.956886 0.095868 0.124485
O O11 0.802347 0.434843 0.697668
O O12 0.500000 0.000000 0.500000
O O13 0.500000 0.500000 0.500000
#
# Coordination Sequence:
#
# PCOD9107331 Si02
#       6
#     2   2   2   2   2   2
#     4  10  22  39  65  92 118 168 201 240 311 367
#     4  10  20  43  66  85 126 164 200 244 303 372
#     4  10  24  39  65  96 118 158 208 250 299 354
#     4  11  20  40  66  88 120 165 205 240 302 376
#     4  11  22  40  61  91 128 154 201 263 300 344
#     4  10  20  40  64  85 124 165 197 239 311 365
#
# _framework density 22.572524000000001
#
# number of rings (size 3 to 8) (size 9 to 14) (size 15 to 20)
#    0.000    1.667    3.333    3.000    2.333    0.667 
#    3.000    5.000    0.000    0.000    0.000    0.000 
#    0.000    0.000    0.000    0.000    0.000    0.000 
#
# Total GULP energy -66850.898915 kJ/mol
# GULP energy per Si atom -5570.908243 kJ/mol
# Density = 2.252115 g / cm^3
# Si number density = 22.572524 Si / 1000 Ang^3
#
#
#
# Elastic Constant Matrix: (Units=GPa)
#
#
# Indices 1 2 3 4 5 6 
#
# 1 146.6213 37.3913 25.7361 -3.1330 -21.6955 -6.2079
# 2 37.3913 69.7776 4.5136 3.7812 -8.3037 -16.4553
# 3 25.7361 4.5136 77.4953 -8.3216 -10.7330 13.9991
# 4 -3.1330 3.7812 -8.3216 16.0737 2.9174 -6.5331
# 5 -21.6955 -8.3037 -10.7330 2.9174 60.0021 -4.8592
# 6 -6.2079 -16.4553 13.9991 -6.5331 -4.8592 36.2814
#
#
#
# Elastic Compliance Matrix: (Units=1/GPa)
#
#
# Indices 1 2 3 4 5 6 
#
# 1 0.008672 -0.004049 -0.002389 0.001469 0.002167 0.001124
# 2 -0.004049 0.018845 -0.001285 -0.002925 0.001708 0.008052
# 3 -0.002389 -0.001285 0.015547 0.005305 0.001003 -0.005901
# 4 0.001469 -0.002925 0.005305 0.069988 -0.001577 0.009269
# 5 0.002167 0.001708 0.001003 -0.001577 0.018178 0.002909
# 6 0.001124 0.008052 -0.005901 0.009269 0.002909 0.035742
#
#
# Mechanical properties :
#
#
# Convention : Reuss Voigt Hill
#
# Bulk Modulus (GPa) = 36.20929 47.68622 41.94776
# Shear Modulus (GPa) = 26.09276 37.55498 31.82387
#
# Velocity S-wave (km/s) = 3.40362 4.08333 3.75887
# Velocity P-wave (km/s) = 5.61447 6.58810 6.12068
#
# Compressibility (1/GPa) = 0.02761722
#
# Stress axis : x y z
#
# Youngs Moduli (GPa) = 115.31418 53.06510 64.32162
#
# Poissons Ratio (x) = 0.21486 0.15368
# Poissons Ratio (y) = 0.46691 0.08265
# Poissons Ratio (z) = 0.27551 0.06819
#
# Static dielectric constant tensor:
#      x y z
#    x 1.955750 -0.007320 -0.026860 
#    y -0.007320 1.879620 0.004280 
#    z -0.026860 0.004280 1.935460 
# 
# From -- ./inp_files/269710.got.cif
#   From: 2010.05.17/outbox.cif.g08.bks.cpg/sg2_135_cif.got.tgz:269710.got - 2010.06.03 11:33:40.
