data_PCOD9107392
_publ_section_title
;
Structure prediction by ZEFSAII (Michael W. Deem and Ramdas Pophale) SiO2 
 PCOD9107392
Probable space group: P -1
;
_chemical_formula_sum "Si O2"
_cell_formula_units_Z 12
_cell_length_a 12.394867
_cell_length_b 21.230664
_cell_length_c 14.443376
_cell_angle_alpha 159.363040
_cell_angle_beta 31.609413
_cell_angle_gamma 157.511277
_cell_volume 509.990857
_symmetry_space_group_name_H-M "P -1"
_symmetry_group_IT_number 2
_symmetry_cell_setting 'triclinic'
loop_
_space_group_symop_operation_xyz
x,y,z
-x,-y,-z
loop_
_atom_site_type_symbol
_atom_site_label
_atom_site_fract_x
_atom_site_fract_y
_atom_site_fract_z
Si Si1 0.757340 0.843566 0.040519
Si Si2 0.832722 0.119865 0.880316
Si Si3 0.208646 0.317583 0.701250
Si Si4 0.952060 0.757361 0.476853
Si Si5 0.951403 0.265815 0.205500
Si Si6 0.542956 0.233857 0.130612
O O1 0.452534 0.608491 0.899623
O O2 0.813393 0.038331 0.339789
O O3 0.817163 0.706214 0.870671
O O4 0.000000 0.000000 0.000000
O O5 0.080715 0.278650 0.841099
O O6 0.710390 0.845241 0.579900
O O7 0.947924 0.211498 0.025450
O O8 0.640953 0.174947 0.066131
O O9 0.980672 0.200083 0.622482
O O10 0.814188 0.489721 0.241297
O O11 0.690826 0.747327 0.659232
O O12 0.000000 0.500000 0.500000
O O13 0.648820 0.024943 0.138619
#
# Coordination Sequence:
#
# PCOD9107392 Si02
#       6
#     2   2   2   2   2   2
#     4  11  23  39  67  92 121 169 213 260 303 373
#     4  11  24  40  64  93 135 165 201 265 324 368
#     4  11  23  44  63  94 130 169 204 260 320 377
#     4  10  22  41  66  91 123 166 219 254 314 370
#     4  11  23  37  62 100 121 163 220 258 311 372
#     4  10  20  40  64  89 124 165 213 262 302 370
#
# _framework density 23.529833
#
# number of rings (size 3 to 8) (size 9 to 14) (size 15 to 20)
#    0.000    1.333    3.333    4.500    4.667    1.333 
#    3.000    0.833    0.000    0.000    0.000    0.000 
#    0.000    0.000    0.000    0.000    0.000    0.000 
#
# Total GULP energy -66969.845496 kJ/mol
# GULP energy per Si atom -5580.820458 kJ/mol
# Density = 2.347628 g / cm^3
# Si number density = 23.529833 Si / 1000 Ang^3
#
#
#
# Elastic Constant Matrix: (Units=GPa)
#
#
# Indices 1 2 3 4 5 6 
#
# 1 97.2537 -1.9055 27.7448 -1.9886 6.9337 -14.8135
# 2 -1.9055 67.3030 43.7051 8.6654 14.9618 -14.6468
# 3 27.7448 43.7051 144.3859 30.2676 4.8300 -12.0822
# 4 -1.9886 8.6654 30.2676 42.2664 -4.4561 -6.7034
# 5 6.9337 14.9618 4.8300 -4.4561 45.0682 0.7535
# 6 -14.8135 -14.6468 -12.0822 -6.7034 0.7535 26.6073
#
#
#
# Elastic Compliance Matrix: (Units=1/GPa)
#
#
# Indices 1 2 3 4 5 6 
#
# 1 0.013267 0.005276 -0.003997 0.003572 -0.003169 0.009465
# 2 0.005276 0.024332 -0.007345 0.001831 -0.008150 0.013688
# 3 -0.003997 -0.007345 0.011084 -0.006970 0.001227 -0.003026
# 4 0.003572 0.001831 -0.006970 0.029854 0.002420 0.007284
# 5 -0.003169 -0.008150 0.001227 0.002420 0.025587 -0.005809
# 6 0.009465 0.013688 -0.003026 0.007284 -0.005809 0.051014
#
#
# Mechanical properties :
#
#
# Convention : Reuss Voigt Hill
#
# Bulk Modulus (GPa) = 27.35931 49.78126 38.57029
# Shear Modulus (GPa) = 27.86239 38.74825 33.30532
#
# Velocity S-wave (km/s) = 3.44485 4.06245 3.76633
# Velocity P-wave (km/s) = 5.24170 6.57322 5.94486
#
# Compressibility (1/GPa) = 0.03655063
#
# Stress axis : x y z
#
# Youngs Moduli (GPa) = 75.37696 41.09804 90.21956
#
# Poissons Ratio (x) = -0.21681 0.36060
# Poissons Ratio (y) = -0.39766 0.66264
# Poissons Ratio (z) = 0.30127 0.30185
#
# Static dielectric constant tensor:
#      x y z
#    x 1.917310 0.032880 -0.002850 
#    y 0.032880 2.014220 -0.021030 
#    z -0.002850 -0.021030 1.907520 
# 
# From -- ./inp_files/189851.got.cif
#   From: 2010.05.17/outbox.cif.g08.bks.cpg/sg2_95_cif.got.tgz:189851.got - 2010.06.03 11:33:40.
