data_PCOD9107743
_publ_section_title
;
Structure prediction by ZEFSAII (Michael W. Deem and Ramdas Pophale) SiO2 
 PCOD9107743
Probable space group: P -1
;
_chemical_formula_sum "Si O2"
_cell_formula_units_Z 16
_cell_length_a 14.964100
_cell_length_b 7.379343
_cell_length_c 8.404825
_cell_angle_alpha 122.372396
_cell_angle_beta 94.902836
_cell_angle_gamma 64.629379
_cell_volume 695.550467
_symmetry_space_group_name_H-M "P -1"
_symmetry_group_IT_number 2
_symmetry_cell_setting 'triclinic'
loop_
_space_group_symop_operation_xyz
x,y,z
-x,-y,-z
loop_
_atom_site_type_symbol
_atom_site_label
_atom_site_fract_x
_atom_site_fract_y
_atom_site_fract_z
Si Si1 0.251411 0.468391 0.473766
Si Si2 0.409032 0.012214 0.597394
Si Si3 0.643232 0.305925 0.780555
Si Si4 0.088407 0.365647 0.577088
Si Si5 0.696859 0.426769 0.148694
Si Si6 0.137761 0.818036 0.352424
Si Si7 0.542386 0.767379 0.787246
Si Si8 0.073942 0.758887 0.989488
O O1 0.189742 0.353437 0.505659
O O2 0.303568 0.571460 0.659081
O O3 0.162881 0.677138 0.455957
O O4 0.347606 0.293073 0.300548
O O5 0.354709 0.913394 0.421260
O O6 0.459764 0.833923 0.667573
O O7 0.500000 0.000000 0.500000
O O8 0.345337 0.289720 0.770789
O O9 0.749975 0.298812 0.757997
O O10 0.560228 0.540383 0.791386
O O11 0.638196 0.321907 0.978652
O O12 0.064713 0.533133 0.807610
O O13 0.000000 0.500000 0.500000
O O14 0.100960 0.102091 0.493182
O O15 0.814848 0.283040 0.062706
O O16 0.069635 0.778080 0.189085
O O17 0.500000 0.000000 0.000000
O O18 0.000000 0.000000 0.000000
#
# Coordination Sequence:
#
# PCOD9107743 Si02
#       8
#     2   2   2   2   2   2   2   2
#     4  10  23  43  67  99 135 171 228 272 324 404
#     4  12  23  40  63  93 132 172 220 272 329 395
#     4  10  22  40  65  89 129 173 219 267 330 387
#     4  11  22  42  71  94 131 176 213 273 342 387
#     4  10  21  41  64  90 129 172 216 269 330 382
#     4  10  22  42  66  94 132 173 214 275 328 389
#     4  11  22  42  65  96 131 175 222 276 324 387
#     4  10  20  40  65  94 129 168 217 274 324 393
#
# _framework density 23.003363
#
# number of rings (size 3 to 8) (size 9 to 14) (size 15 to 20)
#    0.000    1.500    3.750    1.875    0.000    1.000 
#    0.000    5.625    2.750    0.000    0.000    0.000 
#    0.000    0.000    0.000    0.000    0.000    0.000 
#
# Total GULP energy -89356.519775 kJ/mol
# GULP energy per Si atom -5584.782486 kJ/mol
# Density = 2.295101 g / cm^3
# Si number density = 23.003363 Si / 1000 Ang^3
#
#
#
# Elastic Constant Matrix: (Units=GPa)
#
#
# Indices 1 2 3 4 5 6 
#
# 1 53.2702 20.3921 25.4350 -5.7094 -7.5263 -13.9509
# 2 20.3921 191.8480 83.1268 -3.8226 14.0107 -31.6290
# 3 25.4350 83.1268 171.5483 -16.6349 26.8146 -7.3367
# 4 -5.7094 -3.8226 -16.6349 41.0885 -17.0025 4.2451
# 5 -7.5263 14.0107 26.8146 -17.0025 34.3185 0.2495
# 6 -13.9509 -31.6290 -7.3367 4.2451 0.2495 26.6256
#
#
#
# Elastic Compliance Matrix: (Units=1/GPa)
#
#
# Indices 1 2 3 4 5 6 
#
# 1 0.026445 0.000623 -0.005066 0.005427 0.012103 0.012222
# 2 0.000623 0.008437 -0.003739 -0.002306 -0.001599 0.009701
# 3 -0.005066 -0.003739 0.009268 0.000453 -0.006569 -0.004553
# 4 0.005427 -0.002306 0.000453 0.033148 0.018238 -0.005227
# 5 0.012103 -0.001599 -0.006569 0.018238 0.046619 -0.000713
# 6 0.012222 0.009701 -0.004553 -0.005227 -0.000713 0.055071
#
#
# Mechanical properties :
#
#
# Convention : Reuss Voigt Hill
#
# Bulk Modulus (GPa) = 35.98927 74.95269 55.47098
# Shear Modulus (GPa) = 24.43631 39.58736 32.01183
#
# Velocity S-wave (km/s) = 3.26282 4.15292 3.73448
# Velocity P-wave (km/s) = 5.46570 7.45988 6.53925
#
# Compressibility (1/GPa) = 0.02778606
#
# Stress axis : x y z
#
# Youngs Moduli (GPa) = 37.81450 118.53110 107.89542
#
# Poissons Ratio (x) = -0.07388 0.54658
# Poissons Ratio (y) = -0.02357 0.40346
# Poissons Ratio (z) = 0.19156 0.44323
#
# Static dielectric constant tensor:
#      x y z
#    x 1.893050 0.011550 -0.040400 
#    y 0.011550 1.880570 -0.071040 
#    z -0.040400 -0.071040 1.887380 
# 
# From -- ./inp_files/328076.got.cif
#   From: 2010.05.17/outbox.cif.g08.bks.cpg/sg2_165_cif.got.tgz:328076.got - 2010.06.03 11:33:40.
