data_PCOD9107567
_publ_section_title
;
Structure prediction by ZEFSAII (Michael W. Deem and Ramdas Pophale) SiO2 
 PCOD9107567
Probable space group: P -1
;
_chemical_formula_sum "Si O2"
_cell_formula_units_Z 14
_cell_length_a 7.775411
_cell_length_b 17.330443
_cell_length_c 5.041210
_cell_angle_alpha 52.711665
_cell_angle_beta 95.471861
_cell_angle_gamma 87.835343
_cell_volume 534.064718
_symmetry_space_group_name_H-M "P -1"
_symmetry_group_IT_number 2
_symmetry_cell_setting 'triclinic'
loop_
_space_group_symop_operation_xyz
x,y,z
-x,-y,-z
loop_
_atom_site_type_symbol
_atom_site_label
_atom_site_fract_x
_atom_site_fract_y
_atom_site_fract_z
Si Si1 0.645827 0.322328 0.566366
Si Si2 0.892984 0.170709 0.190391
Si Si3 0.418013 0.935828 0.400617
Si Si4 0.151346 0.058240 0.785990
Si Si5 0.429153 0.282577 0.126521
Si Si6 0.904943 0.728283 0.596909
Si Si7 0.048708 0.560734 0.628288
O O1 0.556141 0.324553 0.266765
O O2 0.754270 0.413740 0.422409
O O3 0.790740 0.226030 0.816734
O O4 0.498112 0.310528 0.790969
O O5 0.750074 0.105714 0.408659
O O6 0.075604 0.099932 0.402242
O O7 0.929361 0.257854 0.219120
O O8 0.542837 0.835248 0.588024
O O9 0.500000 0.000000 0.500000
O O10 0.331028 0.992189 0.010278
O O11 0.155805 0.160278 0.728425
O O12 0.000000 0.000000 0.000000
O O13 0.236196 0.311822 0.148549
O O14 0.938883 0.663847 0.476581
O O15 0.000000 0.500000 0.500000
O O16 0.000000 0.500000 0.000000
#
# Coordination Sequence:
#
# PCOD9107567 Si02
#       7
#     2   2   2   2   2   2   2
#     4  11  24  49  73 107 146 191 244 300 377 439
#     4   8  19  39  64  97 143 200 239 295 350 426
#     4  10  20  40  65 105 153 201 251 298 357 433
#     4   8  18  39  67 105 147 198 252 299 351 428
#     4  11  26  44  72 106 155 200 233 306 377 432
#     4  10  23  46  72 109 150 191 251 304 369 440
#     4  12  26  49  82 110 138 189 247 305 374 452
#
# _framework density 26.214054000000001
#
# number of rings (size 3 to 8) (size 9 to 14) (size 15 to 20)
#    0.857    1.143    0.000    3.429    4.000    2.857 
#    0.000    5.714    0.000    0.000    0.000    0.000 
#    0.000    0.000    0.000    0.000    0.000    0.000 
#
# Total GULP energy -78262.032183 kJ/mol
# GULP energy per Si atom -5590.145156 kJ/mol
# Density = 2.615439 g / cm^3
# Si number density = 26.214054 Si / 1000 Ang^3
#
#
#
# Elastic Constant Matrix: (Units=GPa)
#
#
# Indices 1 2 3 4 5 6 
#
# 1 156.6330 49.5492 13.9610 4.5188 -15.3915 12.0143
# 2 49.5492 163.6125 9.1281 2.5785 -18.0990 16.2958
# 3 13.9610 9.1281 81.1618 13.6138 -20.7386 -4.6715
# 4 4.5188 2.5785 13.6138 35.5139 7.4996 -8.2013
# 5 -15.3915 -18.0990 -20.7386 7.4996 36.3801 5.4908
# 6 12.0143 16.2958 -4.6715 -8.2013 5.4908 38.0747
#
#
#
# Elastic Compliance Matrix: (Units=1/GPa)
#
#
# Indices 1 2 3 4 5 6 
#
# 1 0.007467 -0.001627 -0.000120 -0.002028 0.003085 -0.002557
# 2 -0.001627 0.007482 0.000807 -0.002487 0.004579 -0.003786
# 3 -0.000120 0.000807 0.016869 -0.009575 0.012253 -0.002067
# 4 -0.002028 -0.002487 -0.009575 0.038509 -0.017198 0.011305
# 5 0.003085 0.004579 0.012253 -0.017198 0.043318 -0.011381
# 6 -0.002557 -0.003786 -0.002067 0.011305 -0.011381 0.032514
#
#
# Mechanical properties :
#
#
# Convention : Reuss Voigt Hill
#
# Bulk Modulus (GPa) = 33.40070 60.74265 47.07167
# Shear Modulus (GPa) = 31.64172 43.91168 37.77670
#
# Velocity S-wave (km/s) = 3.47803 4.09726 3.80028
# Velocity P-wave (km/s) = 5.37570 6.75318 6.10343
#
# Compressibility (1/GPa) = 0.02993949
#
# Stress axis : x y z
#
# Youngs Moduli (GPa) = 133.91384 133.64668 59.28114
#
# Poissons Ratio (x) = 0.21743 0.00712
# Poissons Ratio (y) = 0.21786 -0.04787
# Poissons Ratio (z) = 0.01609 -0.10792
#
# Static dielectric constant tensor:
#      x y z
#    x 2.146570 -0.081460 0.006700 
#    y -0.081460 2.053890 -0.037450 
#    z 0.006700 -0.037450 2.136750 
# 
# From -- ./inp_files/34074.got.cif
#   From: 2010.05.17/outbox.cif.g08.bks.cpg/sg2_18_cif.got.tgz:34074.got - 2010.06.03 11:33:40.
