data_PCOD9107310
_publ_section_title
;
Structure prediction by ZEFSAII (Michael W. Deem and Ramdas Pophale) SiO2 
 PCOD9107310
Probable space group: P -1
;
_chemical_formula_sum "Si O2"
_cell_formula_units_Z 14
_cell_length_a 17.661741
_cell_length_b 5.187398
_cell_length_c 9.372435
_cell_angle_alpha 75.357100
_cell_angle_beta 124.556252
_cell_angle_gamma 115.581064
_cell_volume 637.831694
_symmetry_space_group_name_H-M "P -1"
_symmetry_group_IT_number 2
_symmetry_cell_setting 'triclinic'
loop_
_space_group_symop_operation_xyz
x,y,z
-x,-y,-z
loop_
_atom_site_type_symbol
_atom_site_label
_atom_site_fract_x
_atom_site_fract_y
_atom_site_fract_z
Si Si1 0.839598 0.761120 0.312957
Si Si2 0.025162 0.773942 0.386858
Si Si3 0.537667 0.703142 0.185174
Si Si4 0.194390 0.712010 0.437583
Si Si5 0.690087 0.615738 0.541600
Si Si6 0.564072 0.175289 0.673865
Si Si7 0.357333 0.152739 0.989225
O O1 0.800144 0.443376 0.383854
O O2 0.749837 0.848180 0.156515
O O3 0.919224 0.805806 0.265104
O O4 0.899813 0.960068 0.480804
O O5 0.082801 0.713625 0.322038
O O6 0.000000 0.500000 0.500000
O O7 0.612244 0.546617 0.336840
O O8 0.512015 0.826445 0.284566
O O9 0.595066 0.921417 0.093403
O O10 0.434872 0.471235 0.056921
O O11 0.231310 0.534565 0.387319
O O12 0.261567 0.043309 0.452388
O O13 0.629491 0.482427 0.637505
O O14 0.500000 0.000000 0.500000
O O15 0.635105 0.035453 0.843380
#
# Coordination Sequence:
#
# PCOD9107310 Si02
#       7
#     2   2   2   2   2   2   2
#     4  10  20  40  64 106 131 174 221 293 346 402
#     4   9  19  36  69  99 135 164 223 289 348 408
#     4  11  24  42  64  96 135 184 233 288 332 402
#     4  11  21  39  65  99 127 173 224 280 335 404
#     4  12  24  39  70  93 139 181 232 272 336 412
#     4  12  26  43  64  95 141 192 236 277 338 406
#     4  11  24  42  67 100 139 176 231 289 344 399
#
# _framework density 21.949365
#
# number of rings (size 3 to 8) (size 9 to 14) (size 15 to 20)
#    0.000    1.143    4.286    1.714    2.000    3.429 
#    0.000    0.000    0.000    1.714    0.000    0.000 
#    0.000    0.000    0.000    0.000    0.000    0.000 
#
# Total GULP energy -78208.868737 kJ/mol
# GULP energy per Si atom -5586.347767 kJ/mol
# Density = 2.189941 g / cm^3
# Si number density = 21.949365 Si / 1000 Ang^3
#
#
#
# Elastic Constant Matrix: (Units=GPa)
#
#
# Indices 1 2 3 4 5 6 
#
# 1 121.5765 36.0938 50.5154 -1.1092 15.4036 -7.0988
# 2 36.0938 140.6775 35.1921 -13.8221 1.7897 12.4158
# 3 50.5154 35.1921 83.0227 -19.4776 5.3131 13.4848
# 4 -1.1092 -13.8221 -19.4776 24.4979 -0.9678 -5.2727
# 5 15.4036 1.7897 5.3131 -0.9678 34.6494 2.1554
# 6 -7.0988 12.4158 13.4848 -5.2727 2.1554 33.3232
#
#
#
# Elastic Compliance Matrix: (Units=1/GPa)
#
#
# Indices 1 2 3 4 5 6 
#
# 1 0.014202 -0.002393 -0.010217 -0.007487 -0.005281 0.007208
# 2 -0.002393 0.008534 -0.000981 0.003359 0.001043 -0.002828
# 3 -0.010217 -0.000981 0.023777 0.016023 0.001955 -0.009024
# 4 -0.007487 0.003359 0.016023 0.055040 0.002283 -0.000769
# 5 -0.005281 0.001043 0.001955 0.002283 0.031165 -0.003959
# 6 0.007208 -0.002828 -0.009024 -0.000769 -0.003959 0.036384
#
#
# Mechanical properties :
#
#
# Convention : Reuss Voigt Hill
#
# Bulk Modulus (GPa) = 51.72549 65.43103 58.57826
# Shear Modulus (GPa) = 24.66371 33.39245 29.02808
#
# Velocity S-wave (km/s) = 3.35575 3.90467 3.64057
# Velocity P-wave (km/s) = 6.21544 7.08543 6.66464
#
# Compressibility (1/GPa) = 0.01933283
#
# Stress axis : x y z
#
# Youngs Moduli (GPa) = 70.41111 117.17598 42.05820
#
# Poissons Ratio (x) = 0.28037 0.42969
# Poissons Ratio (y) = 0.16848 0.04125
# Poissons Ratio (z) = 0.71936 0.11493
#
# Static dielectric constant tensor:
#      x y z
#    x 1.913140 -0.047320 0.010250 
#    y -0.047320 1.846730 0.005450 
#    z 0.010250 0.005450 1.812060 
# 
# From -- ./inp_files/323481.got.cif
#   From: 2010.05.17/outbox.cif.g08.bks.cpg/sg2_162_cif.got.tgz:323481.got - 2010.06.03 11:33:40.
