data_PCOD9107243
_publ_section_title
;
Structure prediction by ZEFSAII (Michael W. Deem and Ramdas Pophale) SiO2 
 PCOD9107243
Probable space group: P -1
;
_chemical_formula_sum "Si O2"
_cell_formula_units_Z 12
_cell_length_a 18.276754
_cell_length_b 9.093172
_cell_length_c 8.838191
_cell_angle_alpha 54.468142
_cell_angle_beta 37.015437
_cell_angle_gamma 34.985357
_cell_volume 495.546201
_symmetry_space_group_name_H-M "P -1"
_symmetry_group_IT_number 2
_symmetry_cell_setting 'triclinic'
loop_
_space_group_symop_operation_xyz
x,y,z
-x,-y,-z
loop_
_atom_site_type_symbol
_atom_site_label
_atom_site_fract_x
_atom_site_fract_y
_atom_site_fract_z
Si Si1 0.358643 0.054577 0.353664
Si Si2 0.513158 0.369668 0.846907
Si Si3 0.151909 0.794678 0.572110
Si Si4 0.116400 0.203722 0.938135
Si Si5 0.580790 0.033964 0.204592
Si Si6 0.157030 0.645006 0.308634
O O1 0.242878 0.091914 0.654135
O O2 0.239020 0.358204 0.324570
O O3 0.406731 0.864781 0.258165
O O4 0.542238 0.927622 0.200900
O O5 0.648142 0.389924 0.598545
O O6 0.306100 0.616345 0.007037
O O7 0.515643 0.278460 0.065733
O O8 0.148627 0.709630 0.460834
O O9 0.039454 0.101942 0.575057
O O10 0.027385 0.792110 0.867231
O O11 0.243867 0.067316 0.955719
O O12 0.000000 0.500000 0.000000
O O13 0.500000 0.000000 0.500000
#
# Coordination Sequence:
#
# PCOD9107243 Si02
#       6
#     2   2   2   2   2   2
#     4  10  22  42  67  94 128 169 214 263 323 381
#     4  11  23  41  66 100 132 163 213 268 328 377
#     4  11  23  38  65  95 130 169 215 265 316 379
#     4  11  22  42  63  93 127 170 221 261 311 388
#     4   9  19  37  64  90 121 164 212 255 303 381
#     4  10  20  40  63  94 126 169 217 261 311 385
#
# _framework density 24.215705
#
# number of rings (size 3 to 8) (size 9 to 14) (size 15 to 20)
#    0.000    1.667    1.667    4.500    0.000    2.667 
#    6.000    0.833    0.000    0.000    0.000    0.000 
#    0.000    0.000    0.000    0.000    0.000    0.000 
#
# Total GULP energy -66842.408196 kJ/mol
# GULP energy per Si atom -5570.200683 kJ/mol
# Density = 2.416059 g / cm^3
# Si number density = 24.215705 Si / 1000 Ang^3
#
#
#
# Elastic Constant Matrix: (Units=GPa)
#
#
# Indices 1 2 3 4 5 6 
#
# 1 55.9163 9.8864 32.6629 1.5724 -8.0235 15.2455
# 2 9.8864 50.4354 6.3081 11.5629 16.7457 15.0921
# 3 32.6629 6.3081 134.6819 6.0104 -19.9446 2.8831
# 4 1.5724 11.5629 6.0104 37.3041 10.6590 -3.4705
# 5 -8.0235 16.7457 -19.9446 10.6590 39.5791 2.5274
# 6 15.2455 15.0921 2.8831 -3.4705 2.5274 29.6606
#
#
#
# Elastic Compliance Matrix: (Units=1/GPa)
#
#
# Indices 1 2 3 4 5 6 
#
# 1 0.025159 -0.001697 -0.004966 -0.002215 0.004694 -0.012244
# 2 -0.001697 0.029955 -0.002051 -0.006965 -0.011280 -0.014024
# 3 -0.004966 -0.002051 0.009517 -0.001945 0.005052 0.002013
# 4 -0.002215 -0.006965 -0.001945 0.032477 -0.007825 0.009338
# 5 0.004694 -0.011280 0.005052 -0.007825 0.035715 -0.001123
# 6 -0.012244 -0.014024 0.002013 0.009338 -0.001123 0.048137
#
#
# Mechanical properties :
#
#
# Convention : Reuss Voigt Hill
#
# Bulk Modulus (GPa) = 21.18517 37.63873 29.41195
# Shear Modulus (GPa) = 23.35114 34.12050 28.73582
#
# Velocity S-wave (km/s) = 3.10868 3.75777 3.44853
# Velocity P-wave (km/s) = 4.65325 5.86554 5.29421
#
# Compressibility (1/GPa) = 0.04720284
#
# Stress axis : x y z
#
# Youngs Moduli (GPa) = 39.74701 33.38340 105.07379
#
# Poissons Ratio (x) = 0.05667 0.52179
# Poissons Ratio (y) = 0.06747 0.21548
# Poissons Ratio (z) = 0.19738 0.06846
#
# Static dielectric constant tensor:
#      x y z
#    x 1.947380 -0.048350 -0.057240 
#    y -0.048350 2.021220 -0.048520 
#    z -0.057240 -0.048520 1.999040 
# 
# From -- ./inp_files/240081.got.cif
#   From: 2010.05.17/outbox.cif.g08.bks.cpg/sg2_121_cif.got.tgz:240081.got - 2010.06.03 11:33:40.
