data_PCOD9107061
_publ_section_title
;
Structure prediction by ZEFSAII (Michael W. Deem and Ramdas Pophale) SiO2 
 PCOD9107061
Probable space group: P -1
;
_chemical_formula_sum "Si O2"
_cell_formula_units_Z 16
_cell_length_a 18.927527
_cell_length_b 18.438498
_cell_length_c 10.028696
_cell_angle_alpha 150.381492
_cell_angle_beta 149.884894
_cell_angle_gamma 22.867009
_cell_volume 633.746777
_symmetry_space_group_name_H-M "P -1"
_symmetry_group_IT_number 2
_symmetry_cell_setting 'triclinic'
loop_
_space_group_symop_operation_xyz
x,y,z
-x,-y,-z
loop_
_atom_site_type_symbol
_atom_site_label
_atom_site_fract_x
_atom_site_fract_y
_atom_site_fract_z
Si Si1 0.655071 0.867153 0.880156
Si Si2 0.243171 0.141075 0.563218
Si Si3 0.539626 0.644693 0.005793
Si Si4 0.239344 0.116071 0.218575
Si Si5 0.198090 0.521596 0.586560
Si Si6 0.833472 0.282144 0.737361
Si Si7 0.232393 0.799498 0.953623
Si Si8 0.929249 0.922689 0.454811
O O1 0.427780 0.061470 0.821001
O O2 0.700897 0.662592 0.646214
O O3 0.720291 0.842944 0.792904
O O4 0.789539 0.888525 0.207578
O O5 0.263309 0.177348 0.498531
O O6 0.253840 0.954037 0.278309
O O7 0.030531 0.340807 0.575938
O O8 0.402341 0.646925 0.881228
O O9 0.641670 0.499392 0.815124
O O10 0.393546 0.875682 0.095919
O O11 0.712045 0.567310 0.262899
O O12 0.020921 0.212235 0.009375
O O13 0.237128 0.664531 0.849362
O O14 0.898387 0.249239 0.637961
O O15 0.820212 0.122948 0.509095
O O16 0.028446 0.926105 0.748215
#
# Coordination Sequence:
#
# PCOD9107061 Si02
#       8
#     2   2   2   2   2   2   2   2
#     4  11  25  40  61  93 133 162 196 262 318 371
#     4  11  22  41  65  94 120 162 210 261 309 357
#     4  11  21  38  69  98 115 161 213 263 306 352
#     4  10  20  40  62  95 128 152 203 264 310 364
#     4  12  24  40  66  93 125 167 211 252 308 368
#     4  10  20  41  67  93 123 161 210 256 311 368
#     4  11  23  44  66  89 126 165 217 256 291 372
#     4  10  22  44  61  91 134 163 198 261 309 367
#
# _framework density 25.246676999999998
#
# number of rings (size 3 to 8) (size 9 to 14) (size 15 to 20)
#    0.000    1.250    6.250    1.125    0.000    3.500 
#    2.250    0.625    0.000    0.000    0.000    0.000 
#    0.000    0.000    0.000    0.000    0.000    0.000 
#
# Total GULP energy -89544.618954 kJ/mol
# GULP energy per Si atom -5596.538685 kJ/mol
# Density = 2.518921 g / cm^3
# Si number density = 25.246677 Si / 1000 Ang^3
#
#
#
# Elastic Constant Matrix: (Units=GPa)
#
#
# Indices 1 2 3 4 5 6 
#
# 1 52.6384 15.0438 -5.8784 6.9429 11.0968 -10.4727
# 2 15.0438 110.4394 29.3998 -25.0982 2.3713 -20.8477
# 3 -5.8784 29.3998 76.9629 -26.0681 2.9441 -1.4603
# 4 6.9429 -25.0982 -26.0681 27.6357 3.5829 -1.0130
# 5 11.0968 2.3713 2.9441 3.5829 13.1552 -0.6359
# 6 -10.4727 -20.8477 -1.4603 -1.0130 -0.6359 37.5677
#
#
#
# Elastic Compliance Matrix: (Units=1/GPa)
#
#
# Indices 1 2 3 4 5 6 
#
# 1 0.026417 -0.004128 0.002819 -0.004882 -0.020613 0.004702
# 2 -0.004128 0.014396 -0.000911 0.013816 -0.002327 0.007136
# 3 0.002819 -0.000911 0.020685 0.019598 -0.012112 0.001408
# 4 -0.004882 0.013816 0.019598 0.071593 -0.021840 0.008628
# 5 -0.020613 -0.002327 -0.012112 -0.021840 0.102174 -0.006368
# 6 0.004702 0.007136 0.001408 0.008628 -0.006368 0.032069
#
#
# Mechanical properties :
#
#
# Convention : Reuss Voigt Hill
#
# Bulk Modulus (GPa) = 17.52606 35.24124 26.38365
# Shear Modulus (GPa) = 17.19436 29.10342 23.14889
#
# Velocity S-wave (km/s) = 2.61253 3.39892 3.03133
# Velocity P-wave (km/s) = 4.00717 5.42149 4.76708
#
# Compressibility (1/GPa) = 0.05705790
#
# Stress axis : x y z
#
# Youngs Moduli (GPa) = 37.85416 69.46260 48.34534
#
# Poissons Ratio (x) = 0.28675 -0.13628
# Poissons Ratio (y) = 0.15626 0.04403
# Poissons Ratio (z) = -0.10670 0.06327
#
# Static dielectric constant tensor:
#      x y z
#    x 2.027220 0.004980 0.007320 
#    y 0.004980 1.943840 0.010530 
#    z 0.007320 0.010530 2.043710 
# 
# From -- ./inp_files/472791.got.cif
#   From: 2010.05.17/outbox.cif.g08.bks.cpg/sg2_237_cif.got.tgz:472791.got - 2010.06.03 11:33:40.
