data_PCOD9107229
_publ_section_title
;
Structure prediction by ZEFSAII (Michael W. Deem and Ramdas Pophale) SiO2 
 PCOD9107229
Probable space group: P -1
;
_chemical_formula_sum "Si O2"
_cell_formula_units_Z 16
_cell_length_a 18.572091
_cell_length_b 9.298818
_cell_length_c 5.377139
_cell_angle_alpha 112.914415
_cell_angle_beta 130.332237
_cell_angle_gamma 56.989395
_cell_volume 592.636392
_symmetry_space_group_name_H-M "P -1"
_symmetry_group_IT_number 2
_symmetry_cell_setting 'triclinic'
loop_
_space_group_symop_operation_xyz
x,y,z
-x,-y,-z
loop_
_atom_site_type_symbol
_atom_site_label
_atom_site_fract_x
_atom_site_fract_y
_atom_site_fract_z
Si Si1 0.580894 0.572782 0.838171
Si Si2 0.013949 0.634127 0.434760
Si Si3 0.240765 0.638731 0.550178
Si Si4 0.827323 0.615847 0.715064
Si Si5 0.614282 0.200204 0.246391
Si Si6 0.761593 0.979733 0.755215
Si Si7 0.881452 0.995956 0.531159
Si Si8 0.436510 0.080324 0.165904
O O1 0.500000 0.500000 0.500000
O O2 0.506871 0.682979 0.974696
O O3 0.595205 0.717317 0.798236
O O4 0.690120 0.438748 0.098971
O O5 0.986480 0.823042 0.609180
O O6 0.000000 0.500000 0.500000
O O7 0.124275 0.527824 0.485513
O O8 0.923508 0.653344 0.048093
O O9 0.219795 0.483202 0.280999
O O10 0.318673 0.700133 0.621670
O O11 0.131127 0.809293 0.400089
O O12 0.746172 0.803691 0.590764
O O13 0.652749 0.141196 0.575177
O O14 0.642952 0.011935 0.066829
O O15 0.836547 0.977725 0.688996
O O16 0.812078 0.994469 0.136301
O O17 0.500000 0.000000 0.500000
O O18 0.500000 0.000000 0.000000
#
# Coordination Sequence:
#
# PCOD9107229 Si02
#       8
#     2   2   2   2   2   2   2   2
#     4  11  22  40  65  97 135 179 228 276 326 384
#     4  10  20  43  70  93 126 173 218 268 336 418
#     4  11  23  41  61 100 136 172 220 283 332 387
#     4  10  22  40  68  98 129 167 222 274 335 399
#     4  10  22  41  65  90 135 181 224 269 329 392
#     4  10  20  40  63  93 127 171 218 266 322 392
#     4  10  22  40  65  94 131 169 210 271 336 395
#     4  10  22  40  64  90 119 170 226 268 318 382
#
# _framework density 26.998006
#
# number of rings (size 3 to 8) (size 9 to 14) (size 15 to 20)
#    0.000    1.750    1.250    2.625    0.000    4.500 
#    6.750    5.625    0.000    0.000    0.000    0.000 
#    0.000    0.000    0.000    0.000    0.000    0.000 
#
# Total GULP energy -89302.704491 kJ/mol
# GULP energy per Si atom -5581.419031 kJ/mol
# Density = 2.693656 g / cm^3
# Si number density = 26.998006 Si / 1000 Ang^3
#
#
#
# Elastic Constant Matrix: (Units=GPa)
#
#
# Indices 1 2 3 4 5 6 
#
# 1 83.5659 38.6463 28.9137 1.9664 -8.7599 4.1621
# 2 38.6463 213.3593 29.3200 -6.1008 0.1271 26.5728
# 3 28.9137 29.3200 100.4351 -7.2721 1.2413 3.2265
# 4 1.9664 -6.1008 -7.2721 36.3798 11.1045 7.1789
# 5 -8.7599 0.1271 1.2413 11.1045 38.8885 -0.5999
# 6 4.1621 26.5728 3.2265 7.1789 -0.5999 50.6009
#
#
#
# Elastic Compliance Matrix: (Units=1/GPa)
#
#
# Indices 1 2 3 4 5 6 
#
# 1 0.014946 -0.002371 -0.003949 -0.003538 0.004523 0.000823
# 2 -0.002371 0.005643 -0.000720 0.001860 -0.001107 -0.002999
# 3 -0.003949 -0.000720 0.011576 0.003170 -0.002170 -0.000511
# 4 -0.003538 0.001860 0.003170 0.032918 -0.010391 -0.005681
# 5 0.004523 -0.001107 -0.002170 -0.010391 0.029807 0.002175
# 6 0.000823 -0.002999 -0.000511 -0.005681 0.002175 0.022134
#
#
# Mechanical properties :
#
#
# Convention : Reuss Voigt Hill
#
# Bulk Modulus (GPa) = 55.29396 65.68005 60.48700
# Shear Modulus (GPa) = 36.46113 45.20586 40.83350
#
# Velocity S-wave (km/s) = 3.67892 4.09640 3.89326
# Velocity P-wave (km/s) = 6.21057 6.83773 6.53168
#
# Compressibility (1/GPa) = 0.01808516
#
# Stress axis : x y z
#
# Youngs Moduli (GPa) = 66.90813 177.21943 86.38195
#
# Poissons Ratio (x) = 0.42016 0.34113
# Poissons Ratio (y) = 0.15863 0.06220
# Poissons Ratio (z) = 0.26423 0.12760
#
# Static dielectric constant tensor:
#      x y z
#    x 2.287890 -0.033350 0.041250 
#    y -0.033350 2.301520 0.017360 
#    z 0.041250 0.017360 2.285320 
# 
# From -- ./inp_files/117291.got.cif
#   From: 2010.05.17/outbox.cif.g08.bks.cpg/sg2_59_cif.got.tgz:117291.got - 2010.06.03 11:33:40.
