data_PCOD9107210
_publ_section_title
;
Structure prediction by ZEFSAII (Michael W. Deem and Ramdas Pophale) SiO2 
 PCOD9107210
Probable space group: P -1
;
_chemical_formula_sum "Si O2"
_cell_formula_units_Z 12
_cell_length_a 18.123015
_cell_length_b 7.325540
_cell_length_c 5.247783
_cell_angle_alpha 79.297266
_cell_angle_beta 118.938680
_cell_angle_gamma 130.993999
_cell_volume 450.955337
_symmetry_space_group_name_H-M "P -1"
_symmetry_group_IT_number 2
_symmetry_cell_setting 'triclinic'
loop_
_space_group_symop_operation_xyz
x,y,z
-x,-y,-z
loop_
_atom_site_type_symbol
_atom_site_label
_atom_site_fract_x
_atom_site_fract_y
_atom_site_fract_z
Si Si1 0.916056 0.202754 0.976494
Si Si2 0.549920 0.335688 0.585569
Si Si3 0.644451 0.635605 0.153832
Si Si4 0.308975 0.963507 0.496485
Si Si5 0.753963 0.470397 0.160285
Si Si6 0.993655 0.717293 0.392525
O O1 0.928181 0.117418 0.752482
O O2 0.789078 0.087793 0.825452
O O3 0.000000 0.500000 0.000000
O O4 0.963301 0.152681 0.297816
O O5 0.575566 0.422752 0.313060
O O6 0.425367 0.096160 0.514283
O O7 0.580592 0.541341 0.797469
O O8 0.644047 0.323275 0.836337
O O9 0.670019 0.864090 0.276666
O O10 0.749141 0.659052 0.249934
O O11 0.260473 0.709759 0.608742
O O12 0.866723 0.592342 0.167720
O O13 0.000000 0.500000 0.500000
#
# Coordination Sequence:
#
# PCOD9107210 Si02
#       6
#     2   2   2   2   2   2
#     4  10  22  38  63  98 123 173 222 265 317 393
#     4  10  25  46  66 102 139 167 218 284 323 396
#     4  10  26  45  63 105 136 170 219 277 327 397
#     4  12  22  46  73  96 133 185 215 267 345 387
#     4  10  24  43  71  96 137 168 228 269 334 386
#     4  10  20  40  63  91 132 167 214 280 313 378
#
# _framework density 26.610173
#
# number of rings (size 3 to 8) (size 9 to 14) (size 15 to 20)
#    1.000    0.667    3.333    1.500    2.333    3.333 
#    3.000    1.667    0.000    0.000    0.000    0.000 
#    0.000    0.000    0.000    0.000    0.000    0.000 
#
# Total GULP energy -67175.270651 kJ/mol
# GULP energy per Si atom -5597.939221 kJ/mol
# Density = 2.654961 g / cm^3
# Si number density = 26.610173 Si / 1000 Ang^3
#
#
#
# Elastic Constant Matrix: (Units=GPa)
#
#
# Indices 1 2 3 4 5 6 
#
# 1 148.1049 26.0964 41.7349 16.7931 26.2343 27.8087
# 2 26.0964 64.6234 22.8111 8.8849 3.2499 15.6926
# 3 41.7349 22.8111 146.8702 -0.4733 -10.0750 18.8293
# 4 16.7931 8.8849 -0.4733 42.5225 9.2492 1.2116
# 5 26.2343 3.2499 -10.0750 9.2492 59.5842 14.4820
# 6 27.8087 15.6926 18.8293 1.2116 14.4820 52.4497
#
#
#
# Elastic Compliance Matrix: (Units=1/GPa)
#
#
# Indices 1 2 3 4 5 6 
#
# 1 0.009002 -0.001754 -0.002195 -0.002434 -0.003252 -0.002506
# 2 -0.001754 0.018183 -0.001746 -0.003222 0.000977 -0.004079
# 3 -0.002195 -0.001746 0.008161 0.000768 0.002818 -0.002039
# 4 -0.002434 -0.003222 0.000768 0.025786 -0.003175 0.002260
# 5 -0.003252 0.000977 0.002818 -0.003175 0.020379 -0.005133
# 6 -0.002506 -0.004079 -0.002039 0.002260 -0.005133 0.023712
#
#
# Mechanical properties :
#
#
# Convention : Reuss Voigt Hill
#
# Bulk Modulus (GPa) = 41.74325 60.09813 50.92069
# Shear Modulus (GPa) = 40.12864 48.84170 44.48517
#
# Velocity S-wave (km/s) = 3.88753 4.28887 4.09312
# Velocity P-wave (km/s) = 5.98929 6.86728 6.44326
#
# Compressibility (1/GPa) = 0.02395597
#
# Stress axis : x y z
#
# Youngs Moduli (GPa) = 111.08355 54.99575 122.53348
#
# Poissons Ratio (x) = 0.09644 0.26901
# Poissons Ratio (y) = 0.19479 0.21398
# Poissons Ratio (z) = 0.24387 0.09604
#
# Static dielectric constant tensor:
#      x y z
#    x 2.295470 -0.098830 -0.211810 
#    y -0.098830 2.066740 0.069170 
#    z -0.211810 0.069170 2.332250 
# 
# From -- ./inp_files/103964.got.cif
#   From: 2010.05.17/outbox.cif.g08.bks.cpg/sg2_52_cif.got.tgz:103964.got - 2010.06.03 11:33:40.
