data_PCOD9107480
_publ_section_title
;
Structure prediction by ZEFSAII (Michael W. Deem and Ramdas Pophale) SiO2 
 PCOD9107480
Probable space group: P -1
;
_chemical_formula_sum "Si O2"
_cell_formula_units_Z 16
_cell_length_a 29.622965
_cell_length_b 16.398153
_cell_length_c 9.183564
_cell_angle_alpha 140.490910
_cell_angle_beta 148.445652
_cell_angle_gamma 19.546483
_cell_volume 768.298065
_symmetry_space_group_name_H-M "P -1"
_symmetry_group_IT_number 2
_symmetry_cell_setting 'triclinic'
loop_
_space_group_symop_operation_xyz
x,y,z
-x,-y,-z
loop_
_atom_site_type_symbol
_atom_site_label
_atom_site_fract_x
_atom_site_fract_y
_atom_site_fract_z
Si Si1 0.574267 0.203570 0.579205
Si Si2 0.415209 0.547896 0.189526
Si Si3 0.551283 0.123955 0.076308
Si Si4 0.815392 0.478805 0.315213
Si Si5 0.902273 0.653250 0.796908
Si Si6 0.954773 0.088453 0.330810
Si Si7 0.199590 0.614046 0.162509
Si Si8 0.884171 0.551615 0.159609
O O1 0.574082 0.357673 0.774022
O O2 0.591704 0.126745 0.354381
O O3 0.397650 0.382394 0.402091
O O4 0.730318 0.948993 0.744007
O O5 0.500000 0.500000 0.500000
O O6 0.513077 0.289498 0.089102
O O7 0.222385 0.756914 0.973171
O O8 0.703182 0.846052 0.058492
O O9 0.377174 0.271509 0.821051
O O10 0.863517 0.558261 0.503454
O O11 0.921366 0.279488 0.461192
O O12 0.829887 0.362248 0.058917
O O13 0.022141 0.575522 0.910436
O O14 0.000000 0.500000 0.000000
O O15 0.096595 0.854110 0.291526
O O16 0.000000 0.000000 0.500000
O O17 0.138711 0.558258 0.986477
O O18 0.000000 0.500000 0.500000
#
# Coordination Sequence:
#
# PCOD9107480 Si02
#       8
#     2   2   2   2   2   2   2   2
#     4  10  20  40  64  94 129 166 214 265 318 379
#     4   9  20  38  67  93 127 172 214 263 316 386
#     4   9  19  38  65  96 123 162 217 268 308 374
#     4  10  22  42  64  94 130 170 219 262 318 393
#     4  12  26  40  61  96 136 170 209 269 327 381
#     4  11  25  42  66  98 135 171 213 276 334 382
#     4  11  23  41  69  94 123 174 221 268 320 389
#     4  12  22  39  66  96 124 168 219 266 314 387
#
# _framework density 20.825248999999999
#
# number of rings (size 3 to 8) (size 9 to 14) (size 15 to 20)
#    0.000    1.500    2.500    2.625    5.250    3.000 
#    4.500    1.875    0.000    0.000    0.000    0.000 
#    0.000    0.000    0.000    0.000    0.000    0.000 
#
# Total GULP energy -89385.831722 kJ/mol
# GULP energy per Si atom -5586.614483 kJ/mol
# Density = 2.077785 g / cm^3
# Si number density = 20.825249 Si / 1000 Ang^3
#
#
#
# Elastic Constant Matrix: (Units=GPa)
#
#
# Indices 1 2 3 4 5 6 
#
# 1 104.2931 27.3789 34.7010 -17.9873 17.2359 18.9234
# 2 27.3789 95.5004 35.0624 -30.7069 1.4053 6.4609
# 3 34.7010 35.0624 48.9781 -19.4795 1.2696 1.1785
# 4 -17.9873 -30.7069 -19.4795 26.7466 10.0632 -2.2481
# 5 17.2359 1.4053 1.2696 10.0632 31.8232 0.5452
# 6 18.9234 6.4609 1.1785 -2.2481 0.5452 32.2838
#
#
#
# Elastic Compliance Matrix: (Units=1/GPa)
#
#
# Indices 1 2 3 4 5 6 
#
# 1 0.018261 0.003557 -0.009324 0.013986 -0.013929 -0.009866
# 2 0.003557 0.020106 -0.007142 0.023678 -0.009948 -0.004031
# 3 -0.009324 -0.007142 0.037345 0.013458 -0.000492 0.006477
# 4 0.013986 0.023678 0.013458 0.098397 -0.040171 -0.005897
# 5 -0.013929 -0.009948 -0.000492 -0.040171 0.052018 0.006498
# 6 -0.009866 -0.004031 0.006477 -0.005897 0.006498 0.036808
#
#
# Mechanical properties :
#
#
# Convention : Reuss Voigt Hill
#
# Bulk Modulus (GPa) = 20.04180 49.22845 34.63513
# Shear Modulus (GPa) = 16.37287 28.27936 22.32611
#
# Velocity S-wave (km/s) = 2.80697 3.68902 3.27780
# Velocity P-wave (km/s) = 4.48889 6.46802 5.56711
#
# Compressibility (1/GPa) = 0.04989571
#
# Stress axis : x y z
#
# Youngs Moduli (GPa) = 54.76170 49.73712 26.77728
#
# Poissons Ratio (x) = -0.17693 0.24966
# Poissons Ratio (y) = -0.19480 0.19123
# Poissons Ratio (z) = 0.51058 0.35520
#
# Static dielectric constant tensor:
#      x y z
#    x 1.438150 0.112800 0.061800 
#    y 0.112800 1.691750 0.005030 
#    z 0.061800 0.005030 1.771580 
# 
# From -- ./inp_files/226653.got.cif
#   From: 2010.05.17/outbox.cif.g08.bks.cpg/sg2_114_cif.got.tgz:226653.got - 2010.06.03 11:33:40.
