data_PCOD9107530
_publ_section_title
;
Structure prediction by ZEFSAII (Michael W. Deem and Ramdas Pophale) SiO2 
 PCOD9107530
Probable space group: P -1
;
_chemical_formula_sum "Si O2"
_cell_formula_units_Z 16
_cell_length_a 7.473263
_cell_length_b 18.568697
_cell_length_c 12.807824
_cell_angle_alpha 151.180149
_cell_angle_beta 132.537882
_cell_angle_gamma 50.592742
_cell_volume 626.763108
_symmetry_space_group_name_H-M "P -1"
_symmetry_group_IT_number 2
_symmetry_cell_setting 'triclinic'
loop_
_space_group_symop_operation_xyz
x,y,z
-x,-y,-z
loop_
_atom_site_type_symbol
_atom_site_label
_atom_site_fract_x
_atom_site_fract_y
_atom_site_fract_z
Si Si1 0.319784 0.141347 0.355112
Si Si2 0.488730 0.832110 0.944854
Si Si3 0.488319 0.691679 0.984171
Si Si4 0.824717 0.859860 0.471617
Si Si5 0.081573 0.610948 0.489603
Si Si6 0.155417 0.585436 0.249797
Si Si7 0.187262 0.879523 0.360502
Si Si8 0.965882 0.711490 0.890424
O O1 0.188028 0.106603 0.368181
O O2 0.583819 0.169112 0.537684
O O3 0.154375 0.285191 0.428667
O O4 0.349768 0.998348 0.110628
O O5 0.573201 0.785543 0.038053
O O6 0.309020 0.706913 0.695697
O O7 0.713827 0.822523 0.941060
O O8 0.581914 0.514782 0.779354
O O9 0.195463 0.721431 0.917685
O O10 0.628089 0.751523 0.215300
O O11 0.088029 0.763853 0.428626
O O12 0.762014 0.014072 0.581920
O O13 0.046064 0.572423 0.305430
O O14 0.117192 0.453008 0.360056
O O15 0.000000 0.500000 0.000000
O O16 0.000000 0.000000 0.500000
O O17 0.082974 0.740300 0.087620
#
# Coordination Sequence:
#
# PCOD9107530 Si02
#       8
#     2   2   2   2   2   2   2   2
#     4  11  22  42  70  94 129 178 216 272 337 379
#     4  12  24  46  69  92 139 178 223 266 322 400
#     4  11  21  40  69  98 129 177 216 271 331 383
#     4  10  20  40  64  97 131 168 217 271 334 388
#     4  11  26  45  64  97 136 179 218 270 326 396
#     4   9  21  40  66  93 133 172 211 275 335 377
#     4  12  22  37  65  99 132 167 216 281 330 384
#     4  12  25  40  68 102 131 173 226 269 325 398
#
# _framework density 25.527985000000001
#
# number of rings (size 3 to 8) (size 9 to 14) (size 15 to 20)
#    0.000    1.000    5.000    1.875    1.750    2.000 
#    0.000    0.000    0.000    3.000    0.000    0.000 
#    0.000    0.000    0.000    0.000    0.000    0.000 
#
# Total GULP energy -89483.347506 kJ/mol
# GULP energy per Si atom -5592.709219 kJ/mol
# Density = 2.546988 g / cm^3
# Si number density = 25.527985 Si / 1000 Ang^3
#
#
#
# Elastic Constant Matrix: (Units=GPa)
#
#
# Indices 1 2 3 4 5 6 
#
# 1 102.6937 39.2506 17.2131 24.7018 -12.4765 -33.9588
# 2 39.2506 76.3763 41.4056 22.5768 -17.2197 -28.6580
# 3 17.2131 41.4056 114.4604 20.9341 -4.5855 -19.9723
# 4 24.7018 22.5768 20.9341 37.3648 -15.3858 -18.4432
# 5 -12.4765 -17.2197 -4.5855 -15.3858 26.2499 7.5298
# 6 -33.9588 -28.6580 -19.9723 -18.4432 7.5298 40.6368
#
#
#
# Elastic Compliance Matrix: (Units=1/GPa)
#
#
# Indices 1 2 3 4 5 6 
#
# 1 0.014778 -0.004078 0.001449 -0.004056 -0.000178 0.008378
# 2 -0.004078 0.024110 -0.006207 0.000185 0.010406 0.008700
# 3 0.001449 -0.006207 0.011713 -0.005139 -0.004671 0.001124
# 4 -0.004056 0.000185 -0.005139 0.046648 0.021359 0.011430
# 5 -0.000178 0.010406 -0.004671 0.021359 0.055295 0.004342
# 6 0.008378 0.008700 0.001124 0.011430 0.004342 0.042680
#
#
# Mechanical properties :
#
#
# Convention : Reuss Voigt Hill
#
# Bulk Modulus (GPa) = 30.36865 54.36322 42.36593
# Shear Modulus (GPa) = 22.33426 33.89438 28.11432
#
# Velocity S-wave (km/s) = 2.96107 3.64776 3.32220
# Velocity P-wave (km/s) = 4.85928 6.25167 5.59893
#
# Compressibility (1/GPa) = 0.03292870
#
# Stress axis : x y z
#
# Youngs Moduli (GPa) = 67.66947 41.47707 85.37588
#
# Poissons Ratio (x) = 0.16914 -0.12374
# Poissons Ratio (y) = 0.27595 0.52995
# Poissons Ratio (z) = -0.09807 0.25746
#
# Static dielectric constant tensor:
#      x y z
#    x 2.052610 -0.026800 -0.012340 
#    y -0.026800 2.039910 -0.015730 
#    z -0.012340 -0.015730 2.020840 
# 
# From -- ./inp_files/502833.got.cif
#   From: 2010.05.17/outbox.cif.g08.bks.cpg/sg2_252_cif.got.tgz:502833.got - 2010.06.03 11:33:40.
