data_PCOD9107583
_publ_section_title
;
Structure prediction by ZEFSAII (Michael W. Deem and Ramdas Pophale) SiO2 
 PCOD9107583
Probable space group: P -1
;
_chemical_formula_sum "Si O2"
_cell_formula_units_Z 16
_cell_length_a 9.552390
_cell_length_b 17.870385
_cell_length_c 15.993522
_cell_angle_alpha 40.358530
_cell_angle_beta 28.481082
_cell_angle_gamma 39.986121
_cell_volume 800.944816
_symmetry_space_group_name_H-M "P -1"
_symmetry_group_IT_number 2
_symmetry_cell_setting 'triclinic'
loop_
_space_group_symop_operation_xyz
x,y,z
-x,-y,-z
loop_
_atom_site_type_symbol
_atom_site_label
_atom_site_fract_x
_atom_site_fract_y
_atom_site_fract_z
Si Si1 0.672978 0.549591 0.798334
Si Si2 0.375226 0.860588 0.540166
Si Si3 0.640859 0.057003 0.161788
Si Si4 0.659484 0.896766 0.884682
Si Si5 0.353021 0.176500 0.863084
Si Si6 0.358170 0.417762 0.391562
Si Si7 0.604310 0.580458 0.445501
Si Si8 0.643130 0.182704 0.228526
O O1 0.517041 0.547827 0.790898
O O2 0.617913 0.689679 0.729436
O O3 0.029166 0.474090 0.684301
O O4 0.500000 0.500000 0.000000
O O5 0.599702 0.725408 0.518128
O O6 0.374159 0.889530 0.615568
O O7 0.024544 0.863663 0.706957
O O8 0.478424 0.953894 0.350236
O O9 0.489546 0.133677 0.095121
O O10 0.602466 0.125856 0.210763
O O11 0.000000 0.000000 0.000000
O O12 0.519403 0.042340 0.852236
O O13 0.584770 0.833249 0.061458
O O14 0.453165 0.282350 0.675119
O O15 0.982914 0.200587 0.030937
O O16 0.511474 0.428822 0.390602
O O17 0.000000 0.500000 0.500000
O O18 0.500000 0.500000 0.500000
#
# Coordination Sequence:
#
# PCOD9107583 Si02
#       8
#     2   2   2   2   2   2   2   2
#     4  10  20  40  65  86 114 166 204 246 301 365
#     4  10  22  40  64  86 126 162 199 248 305 374
#     4  12  23  37  60  99 121 154 205 255 305 358
#     4  10  22  39  62  89 120 166 201 248 309 365
#     4  10  20  41  61  83 125 168 198 245 314 371
#     4   9  21  40  63  88 119 162 204 239 309 364
#     4  11  23  40  61  91 124 158 207 258 307 359
#     4  10  21  39  63  88 121 157 208 249 302 364
#
# _framework density 19.976406000000001
#
# number of rings (size 3 to 8) (size 9 to 14) (size 15 to 20)
#    0.000    1.750    2.500    1.500    0.000    2.000 
#    9.000    0.625    0.000    0.000    0.000    0.000 
#    0.000    0.000    0.000    0.000    0.000    0.000 
#
# Total GULP energy -89207.266117 kJ/mol
# GULP energy per Si atom -5575.454132 kJ/mol
# Density = 1.993094 g / cm^3
# Si number density = 19.976406 Si / 1000 Ang^3
#
#
#
# Elastic Constant Matrix: (Units=GPa)
#
#
# Indices 1 2 3 4 5 6 
#
# 1 172.4684 18.3485 30.6357 -9.5164 40.8451 6.0859
# 2 18.3485 68.3379 -4.4321 6.8400 6.7650 -8.5036
# 3 30.6357 -4.4321 54.3187 -4.8714 26.9000 -4.3334
# 4 -9.5164 6.8400 -4.8714 23.7232 -4.7594 6.1719
# 5 40.8451 6.7650 26.9000 -4.7594 29.7509 3.5470
# 6 6.0859 -8.5036 -4.3334 6.1719 3.5470 26.3794
#
#
#
# Elastic Compliance Matrix: (Units=1/GPa)
#
#
# Indices 1 2 3 4 5 6 
#
# 1 0.008824 -0.001412 0.001113 0.001987 -0.012350 -0.001112
# 2 -0.001412 0.019674 0.009598 -0.010438 -0.014388 0.012621
# 3 0.001113 0.009598 0.041136 -0.007200 -0.044109 0.017210
# 4 0.001987 -0.010438 -0.007200 0.053011 0.016983 -0.019692
# 5 -0.012350 -0.014388 -0.044109 0.016983 0.099586 -0.026399
# 6 -0.001112 0.012621 0.017210 -0.019692 -0.026399 0.053218
#
#
# Mechanical properties :
#
#
# Convention : Reuss Voigt Hill
#
# Bulk Modulus (GPa) = 11.33364 42.69213 27.01289
# Shear Modulus (GPa) = 17.46652 32.67556 25.07104
#
# Velocity S-wave (km/s) = 2.96016 4.04878 3.54649
# Velocity P-wave (km/s) = 4.16764 6.57833 5.50653
#
# Compressibility (1/GPa) = 0.08823290
#
# Stress axis : x y z
#
# Youngs Moduli (GPa) = 113.32307 50.82785 24.30962
#
# Poissons Ratio (x) = 0.07176 -0.02707
# Poissons Ratio (y) = 0.15999 -0.23331
# Poissons Ratio (z) = -0.12618 -0.48782
#
# Static dielectric constant tensor:
#      x y z
#    x 1.746390 -0.013390 0.056670 
#    y -0.013390 1.579090 0.128310 
#    z 0.056670 0.128310 1.616160 
# 
# From -- ./inp_files/188706.got.cif
#   From: 2010.05.17/outbox.cif.g08.bks.cpg/sg2_95_cif.got.tgz:188706.got - 2010.06.03 11:33:40.
