data_PCOD9107475
_publ_section_title
;
Structure prediction by ZEFSAII (Michael W. Deem and Ramdas Pophale) SiO2 
 PCOD9107475
Probable space group: P -1
;
_chemical_formula_sum "Si O2"
_cell_formula_units_Z 16
_cell_length_a 12.144943
_cell_length_b 8.970484
_cell_length_c 18.758150
_cell_angle_alpha 53.927469
_cell_angle_beta 145.539670
_cell_angle_gamma 141.301103
_cell_volume 714.297749
_symmetry_space_group_name_H-M "P -1"
_symmetry_group_IT_number 2
_symmetry_cell_setting 'triclinic'
loop_
_space_group_symop_operation_xyz
x,y,z
-x,-y,-z
loop_
_atom_site_type_symbol
_atom_site_label
_atom_site_fract_x
_atom_site_fract_y
_atom_site_fract_z
Si Si1 0.823495 0.818464 0.191353
Si Si2 0.645201 0.721609 0.358405
Si Si3 0.070285 0.322577 0.189564
Si Si4 0.797363 0.532725 0.368632
Si Si5 0.978498 0.742773 0.646735
Si Si6 0.284785 0.575152 0.024886
Si Si7 0.774862 0.864464 0.856476
Si Si8 0.940216 0.627188 0.194691
O O1 0.944188 0.765760 0.330746
O O2 0.756583 0.635698 0.144531
O O3 0.584725 0.767323 0.117160
O O4 0.011536 0.089752 0.189838
O O5 0.346628 0.567845 0.251124
O O6 0.712460 0.596682 0.374740
O O7 0.756750 0.717877 0.494280
O O8 0.777269 0.989374 0.324760
O O9 0.051668 0.276804 0.278327
O O10 0.850569 0.327510 0.046482
O O11 0.535619 0.310409 0.251065
O O12 0.000000 0.500000 0.500000
O O13 0.991169 0.532203 0.692578
O O14 0.179065 0.485749 0.913705
O O15 0.219192 0.351882 0.096569
O O16 0.837262 0.087546 0.782207
O O17 0.000000 0.000000 0.000000
#
# Coordination Sequence:
#
# PCOD9107475 Si02
#       8
#     2   2   2   2   2   2   2   2
#     4  11  21  39  63  94 136 165 218 279 330 388
#     4  11  23  44  66  94 133 174 220 276 329 399
#     4  11  22  42  67  93 125 175 222 269 334 396
#     4  11  23  41  66 100 136 170 219 280 335 386
#     4  10  23  44  64  94 132 170 222 267 338 392
#     4   9  21  40  61  94 130 171 218 273 330 392
#     4   9  20  42  64  94 132 171 221 269 325 399
#     4  10  20  40  64  94 124 176 220 265 333 397
#
# _framework density 22.399622000000001
#
# number of rings (size 3 to 8) (size 9 to 14) (size 15 to 20)
#    0.000    1.750    1.250    2.625    0.000    1.000 
#   33.750    5.625    0.000    0.000    0.000    0.000 
#    0.000    0.000    0.000    0.000    0.000    0.000 
#
# Total GULP energy -89174.815226 kJ/mol
# GULP energy per Si atom -5573.425952 kJ/mol
# Density = 2.234864 g / cm^3
# Si number density = 22.399622 Si / 1000 Ang^3
#
#
#
# Elastic Constant Matrix: (Units=GPa)
#
#
# Indices 1 2 3 4 5 6 
#
# 1 47.0095 24.0202 16.4845 -14.8076 0.6141 -0.7389
# 2 24.0202 133.2755 57.4201 -20.1494 11.5420 15.1101
# 3 16.4845 57.4201 101.7605 -28.2329 10.1375 8.7090
# 4 -14.8076 -20.1494 -28.2329 30.1613 -1.8278 -3.0034
# 5 0.6141 11.5420 10.1375 -1.8278 27.2969 -4.1587
# 6 -0.7389 15.1101 8.7090 -3.0034 -4.1587 34.5497
#
#
#
# Elastic Compliance Matrix: (Units=1/GPa)
#
#
# Indices 1 2 3 4 5 6 
#
# 1 0.026710 -0.003881 0.000554 0.011505 0.002120 0.003384
# 2 -0.003881 0.011105 -0.004847 0.000362 -0.003408 -0.004097
# 3 0.000554 -0.004847 0.016220 0.011878 -0.003394 -0.001333
# 4 0.011505 0.000362 0.011878 0.050218 -0.001262 0.001307
# 5 0.002120 -0.003408 -0.003394 -0.001262 0.040290 0.007132
# 6 0.003384 -0.004097 -0.001333 0.001307 0.007132 0.032116
#
#
# Mechanical properties :
#
#
# Convention : Reuss Voigt Hill
#
# Bulk Modulus (GPa) = 26.53343 53.09946 39.81645
# Shear Modulus (GPa) = 24.32258 30.67630 27.49944
#
# Velocity S-wave (km/s) = 3.29880 3.70469 3.50762
# Velocity P-wave (km/s) = 5.13620 6.48511 5.84967
#
# Compressibility (1/GPa) = 0.03768831
#
# Stress axis : x y z
#
# Youngs Moduli (GPa) = 37.43870 90.04662 61.65152
#
# Poissons Ratio (x) = 0.34943 -0.03415
# Poissons Ratio (y) = 0.14528 0.29884
# Poissons Ratio (z) = -0.02074 0.43647
#
# Static dielectric constant tensor:
#      x y z
#    x 1.922960 0.001350 -0.019820 
#    y 0.001350 1.832960 0.009920 
#    z -0.019820 0.009920 1.826040 
# 
# From -- ./inp_files/594068.got.cif
#   From: 2010.05.17/outbox.cif.g08.bks.cpg/sg2_298_cif.got.tgz:594068.got - 2010.06.03 11:33:40.
