data_PCOD9107236
_publ_section_title
;
Structure prediction by ZEFSAII (Michael W. Deem and Ramdas Pophale) SiO2 
 PCOD9107236
Probable space group: P -1
;
_chemical_formula_sum "Si O2"
_cell_formula_units_Z 14
_cell_length_a 5.065694
_cell_length_b 4.817688
_cell_length_c 22.900882
_cell_angle_alpha 102.855022
_cell_angle_beta 108.049408
_cell_angle_gamma 90.849340
_cell_volume 515.953207
_symmetry_space_group_name_H-M "P -1"
_symmetry_group_IT_number 2
_symmetry_cell_setting 'triclinic'
loop_
_space_group_symop_operation_xyz
x,y,z
-x,-y,-z
loop_
_atom_site_type_symbol
_atom_site_label
_atom_site_fract_x
_atom_site_fract_y
_atom_site_fract_z
Si Si1 0.973091 0.577154 0.901333
Si Si2 0.680438 0.258342 0.973651
Si Si3 0.601742 0.960233 0.439952
Si Si4 0.165477 0.623636 0.605833
Si Si5 0.048676 0.850988 0.339151
Si Si6 0.495659 0.104156 0.160810
Si Si7 0.027552 0.855091 0.204789
O O1 0.875442 0.382239 0.940044
O O2 0.130118 0.400381 0.856618
O O3 0.698437 0.643633 0.851353
O O4 0.144851 0.826111 0.961604
O O5 0.515360 0.018762 0.912126
O O6 0.500000 0.500000 0.000000
O O7 0.652696 0.632194 0.414902
O O8 0.337458 0.027743 0.385566
O O9 0.500000 0.000000 0.500000
O O10 0.853713 0.197727 0.449337
O O11 0.990210 0.415121 0.631130
O O12 0.186223 0.924269 0.658309
O O13 0.068247 0.766360 0.269537
O O14 0.814869 0.101688 0.200785
O O15 0.309075 0.946431 0.192716
#
# Coordination Sequence:
#
# PCOD9107236 Si02
#       7
#     2   2   2   2   2   2   2
#     4  10  23  41  64  94 132 174 227 296 363 442
#     4  10  20  40  63  93 132 165 229 293 363 439
#     4  11  24  45  75 112 149 192 245 305 369 438
#     4  10  25  44  74 106 147 193 242 301 367 437
#     4  11  26  46  69 105 147 195 247 305 367 440
#     4  11  25  42  66  97 127 183 234 290 374 431
#     4  11  27  43  65  97 137 183 241 297 358 443
#
# _framework density 27.134239000000001
#
# number of rings (size 3 to 8) (size 9 to 14) (size 15 to 20)
#    0.000    1.429    1.429    1.714    8.000    5.143 
#    0.000    0.000    0.000    0.000    0.000    0.000 
#    0.000    0.000    0.000    0.000    0.000    0.000 
#
# Total GULP energy -77942.675567 kJ/mol
# GULP energy per Si atom -5567.333969 kJ/mol
# Density = 2.707248 g / cm^3
# Si number density = 27.134239 Si / 1000 Ang^3
#
#
#
# Elastic Constant Matrix: (Units=GPa)
#
#
# Indices 1 2 3 4 5 6 
#
# 1 96.8120 33.0236 67.8723 -6.9011 -39.7926 -1.2405
# 2 33.0236 163.0061 40.7120 -10.6879 -23.1784 -2.3227
# 3 67.8723 40.7120 175.5538 8.8083 -36.0239 1.7660
# 4 -6.9011 -10.6879 8.8083 25.3085 -2.9386 -9.7367
# 5 -39.7926 -23.1784 -36.0239 -2.9386 50.9649 -8.0851
# 6 -1.2405 -2.3227 1.7660 -9.7367 -8.0851 33.8113
#
#
#
# Elastic Compliance Matrix: (Units=1/GPa)
#
#
# Indices 1 2 3 4 5 6 
#
# 1 0.021676 0.000224 -0.006142 0.013106 0.014779 0.008440
# 2 0.000224 0.007270 -0.001391 0.005074 0.003237 0.002816
# 3 -0.006142 -0.001391 0.008729 -0.006305 -0.000034 -0.002601
# 4 0.013106 0.005074 -0.006305 0.057285 0.014747 0.021181
# 5 0.014779 0.003237 -0.000034 0.014747 0.035605 0.013527
# 6 0.008440 0.002816 -0.002601 0.021181 0.013527 0.039549
#
#
# Mechanical properties :
#
#
# Convention : Reuss Voigt Hill
#
# Bulk Modulus (GPa) = 43.37265 79.84309 61.60787
# Shear Modulus (GPa) = 25.98518 41.60120 33.79319
#
# Velocity S-wave (km/s) = 3.09795 3.91981 3.53286
# Velocity P-wave (km/s) = 5.36802 7.06935 6.27659
#
# Compressibility (1/GPa) = 0.02305600
#
# Stress axis : x y z
#
# Youngs Moduli (GPa) = 46.13402 137.55214 114.56181
#
# Poissons Ratio (x) = -0.03077 0.70364
# Poissons Ratio (y) = -0.01032 0.15937
# Poissons Ratio (z) = 0.28335 0.19135
#
# Static dielectric constant tensor:
#      x y z
#    x 2.530720 -0.026920 0.148780 
#    y -0.026920 2.261750 -0.004280 
#    z 0.148780 -0.004280 2.108750 
# 
# From -- ./inp_files/580825.got.cif
#   From: 2010.05.17/outbox.cif.g08.bks.cpg/sg2_291_cif.got.tgz:580825.got - 2010.06.03 11:33:40.
