data_PCOD9107968
_publ_section_title
;
Structure prediction by ZEFSAII (Michael W. Deem and Ramdas Pophale) SiO2 
 PCOD9107968
Probable space group: P -1
;
_chemical_formula_sum "Si O2"
_cell_formula_units_Z 16
_cell_length_a 14.649492
_cell_length_b 8.104400
_cell_length_c 9.303291
_cell_angle_alpha 96.361634
_cell_angle_beta 99.548576
_cell_angle_gamma 136.444294
_cell_volume 705.838792
_symmetry_space_group_name_H-M "P -1"
_symmetry_group_IT_number 2
_symmetry_cell_setting 'triclinic'
loop_
_space_group_symop_operation_xyz
x,y,z
-x,-y,-z
loop_
_atom_site_type_symbol
_atom_site_label
_atom_site_fract_x
_atom_site_fract_y
_atom_site_fract_z
Si Si1 0.426729 0.064562 0.420189
Si Si2 0.928855 0.945739 0.818431
Si Si3 0.689077 0.210090 0.057824
Si Si4 0.956091 0.370632 0.208327
Si Si5 0.164891 0.103258 0.703326
Si Si6 0.206336 0.534289 0.159997
Si Si7 0.575530 0.323872 0.204006
Si Si8 0.824828 0.063664 0.597546
O O1 0.302721 0.811014 0.271239
O O2 0.333553 0.075469 0.480493
O O3 0.500000 0.000000 0.500000
O O4 0.530392 0.288254 0.352857
O O5 0.802725 0.638015 0.757882
O O6 0.857822 0.021345 0.756883
O O7 0.051221 0.070154 0.746681
O O8 0.000000 0.000000 0.000000
O O9 0.836057 0.317459 0.102861
O O10 0.661161 0.265694 0.204708
O O11 0.718484 0.394869 0.965286
O O12 0.561919 0.913738 0.951091
O O13 0.049623 0.398874 0.119404
O O14 0.061887 0.631709 0.351973
O O15 0.871579 0.121230 0.254941
O O16 0.322000 0.390752 0.792442
O O17 0.148284 0.040791 0.524612
#
# Coordination Sequence:
#
# PCOD9107968 Si02
#       8
#     2   2   2   2   2   2   2   2
#     4  10  24  43  65  86 128 177 223 263 322 395
#     4  11  23  41  68 100 132 169 214 275 334 390
#     4  10  20  40  66  92 131 173 217 269 329 393
#     4  10  21  38  65  94 128 171 218 272 330 390
#     4  11  24  40  64 101 137 166 217 275 330 395
#     4   9  20  39  63  94 121 163 218 272 326 382
#     4  10  23  40  60  92 131 173 216 266 327 391
#     4  11  24  43  67  96 132 174 224 275 331 386
#
# _framework density 22.668066
#
# number of rings (size 3 to 8) (size 9 to 14) (size 15 to 20)
#    0.000    1.750    0.000    3.375    3.500    6.000 
#    2.250    0.000    0.000    0.000    0.000    0.000 
#    0.000    0.000    0.000    0.000    0.000    0.000 
#
# Total GULP energy -89131.102497 kJ/mol
# GULP energy per Si atom -5570.693906 kJ/mol
# Density = 2.261647 g / cm^3
# Si number density = 22.668066 Si / 1000 Ang^3
#
#
#
# Elastic Constant Matrix: (Units=GPa)
#
#
# Indices 1 2 3 4 5 6 
#
# 1 92.1622 28.3320 30.3231 -7.1850 1.6194 13.2031
# 2 28.3320 142.7215 16.2026 1.7796 -2.5925 22.1149
# 3 30.3231 16.2026 59.9268 -0.4675 -12.7952 16.0856
# 4 -7.1850 1.7796 -0.4675 22.0928 -9.1062 -10.5458
# 5 1.6194 -2.5925 -12.7952 -9.1062 20.8901 -1.5758
# 6 13.2031 22.1149 16.0856 -10.5458 -1.5758 18.2507
#
#
#
# Elastic Compliance Matrix: (Units=1/GPa)
#
#
# Indices 1 2 3 4 5 6 
#
# 1 0.014325 -0.002115 -0.007756 0.002725 -0.004922 0.000185
# 2 -0.002115 0.010713 0.003279 -0.014292 -0.004462 -0.022985
# 3 -0.007756 0.003279 0.030616 -0.012055 0.012147 -0.031264
# 4 0.002725 -0.014292 -0.012055 0.110936 0.046084 0.094054
# 5 -0.004922 -0.004462 0.012147 0.046084 0.077609 0.031591
# 6 0.000185 -0.022985 -0.031264 0.094054 0.031591 0.167140
#
#
# Mechanical properties :
#
#
# Convention : Reuss Voigt Hill
#
# Bulk Modulus (GPa) = 23.54570 49.39175 36.46873
# Shear Modulus (GPa) = 11.39782 26.91025 19.15403
#
# Velocity S-wave (km/s) = 2.24478 3.44923 2.91001
# Velocity P-wave (km/s) = 4.13865 6.13998 5.23583
#
# Compressibility (1/GPa) = 0.04247061
#
# Stress axis : x y z
#
# Youngs Moduli (GPa) = 69.80872 93.34465 32.66220
#
# Poissons Ratio (x) = 0.19745 0.25332
# Poissons Ratio (y) = 0.14767 -0.10711
# Poissons Ratio (z) = 0.54143 -0.30610
#
# Static dielectric constant tensor:
#      x y z
#    x 1.914150 0.012270 -0.015150 
#    y 0.012270 1.904350 -0.017620 
#    z -0.015150 -0.017620 1.950770 
# 
# From -- ./inp_files/298839.got.cif
#   From: 2010.05.17/outbox.cif.g08.bks.cpg/sg2_150_cif.got.tgz:298839.got - 2010.06.03 11:33:40.
