data_PCOD9107418
_publ_section_title
;
Structure prediction by ZEFSAII (Michael W. Deem and Ramdas Pophale) SiO2 
 PCOD9107418
Probable space group: P -1
;
_chemical_formula_sum "Si O2"
_cell_formula_units_Z 15
_cell_length_a 17.230095
_cell_length_b 22.891192
_cell_length_c 6.892369
_cell_angle_alpha 77.555278
_cell_angle_beta 63.528855
_cell_angle_gamma 22.666502
_cell_volume 772.037672
_symmetry_space_group_name_H-M "P -1"
_symmetry_group_IT_number 2
_symmetry_cell_setting 'triclinic'
loop_
_space_group_symop_operation_xyz
x,y,z
-x,-y,-z
loop_
_atom_site_type_symbol
_atom_site_label
_atom_site_fract_x
_atom_site_fract_y
_atom_site_fract_z
Si Si1 0.502900 0.852459 0.264453
Si Si2 0.541794 0.699242 0.518337
Si Si3 0.865695 0.903107 0.840662
Si Si4 0.481925 0.080448 0.410863
Si Si5 0.935593 0.597809 0.639284
Si Si6 0.500000 0.500000 0.500000
Si Si7 0.212711 0.908817 0.104640
Si Si8 0.402998 0.699741 0.370348
O O1 0.475800 0.801633 0.396555
O O2 0.547042 0.862271 0.401303
O O3 0.243768 0.040056 0.293090
O O4 0.751755 0.697727 0.952744
O O5 0.579856 0.620071 0.385573
O O6 0.799882 0.545321 0.468921
O O7 0.303322 0.842453 0.830950
O O8 0.181609 0.698597 0.658305
O O9 0.750277 0.045367 0.913132
O O10 0.731368 0.945537 0.112170
O O11 0.235700 0.248136 0.418370
O O12 0.500000 0.000000 0.500000
O O13 0.000000 0.500000 0.500000
O O14 0.489043 0.574977 0.356163
O O15 0.381477 0.752671 0.160388
O O16 0.900895 0.100202 0.351432
#
# Coordination Sequence:
#
# PCOD9107418 Si02
#       8
#     2   2   2   2   2   1   2   2
#     4  11  22  40  66  91 126 167 212 264 314 374
#     4  12  21  36  68  94 118 164 216 258 308 376
#     4  10  21  43  64  90 125 169 212 258 318 380
#     4  11  25  42  63  91 133 174 207 262 326 378
#     4  11  24  39  63  99 126 161 217 268 311 372
#     4  10  24  44  62  92 136 158 202 272 322 370
#     4  10  20  40  64  91 120 161 214 255 311 372
#     4  10  23  39  63  92 122 164 204 264 316 375
#
# _framework density 19.429105
#
# number of rings (size 3 to 8) (size 9 to 14) (size 15 to 20)
#    0.000    1.333    4.000    1.600    0.000    5.333 
#    0.000    1.333    0.000    0.000    0.000    0.000 
#    0.000    0.000    0.000    0.000    0.000    0.000 
#
# Total GULP energy -83507.507066 kJ/mol
# GULP energy per Si atom -5567.167138 kJ/mol
# Density = 1.938488 g / cm^3
# Si number density = 19.429105 Si / 1000 Ang^3
#
#
#
# Elastic Constant Matrix: (Units=GPa)
#
#
# Indices 1 2 3 4 5 6 
#
# 1 81.4494 27.8020 24.2724 -20.5726 -17.6558 6.0657
# 2 27.8020 99.6555 45.4900 -14.7192 -17.7133 3.2292
# 3 24.2724 45.4900 87.8582 -27.1882 -10.3908 -0.3061
# 4 -20.5726 -14.7192 -27.1882 28.9094 -1.1881 -12.0403
# 5 -17.6558 -17.7133 -10.3908 -1.1881 23.2268 -11.0829
# 6 6.0657 3.2292 -0.3061 -12.0403 -11.0829 39.0841
#
#
#
# Elastic Compliance Matrix: (Units=1/GPa)
#
#
# Indices 1 2 3 4 5 6 
#
# 1 0.022592 -0.000498 0.005813 0.027702 0.026890 0.012739
# 2 -0.000498 0.014815 -0.005014 0.004157 0.010332 0.003025
# 3 0.005813 -0.005014 0.024896 0.032339 0.020817 0.015572
# 4 0.027702 0.004157 0.032339 0.109845 0.067499 0.048590
# 5 0.026890 0.010332 0.020817 0.067499 0.106097 0.046015
# 6 0.012739 0.003025 0.015572 0.048590 0.046015 0.051498
#
#
# Mechanical properties :
#
#
# Convention : Reuss Voigt Hill
#
# Bulk Modulus (GPa) = 15.89684 51.56576 33.73130
# Shear Modulus (GPa) = 14.28129 29.67064 21.97597
#
# Velocity S-wave (km/s) = 2.71412 3.91208 3.36681
# Velocity P-wave (km/s) = 4.24519 6.85594 5.70200
#
# Compressibility (1/GPa) = 0.06290559
#
# Stress axis : x y z
#
# Youngs Moduli (GPa) = 44.26268 67.49981 40.16773
#
# Poissons Ratio (x) = 0.03363 -0.23351
# Poissons Ratio (y) = 0.02205 0.20140
# Poissons Ratio (z) = -0.25732 0.33844
#
# Static dielectric constant tensor:
#      x y z
#    x 1.774050 0.094350 -0.034680 
#    y 0.094350 1.824200 -0.027730 
#    z -0.034680 -0.027730 1.680570 
# 
# From -- ./inp_files/80242.got.cif
#   From: 2010.05.17/outbox.cif.g08.bks.cpg/sg2_41_cif.got.tgz:80242.got - 2010.06.03 11:33:40.
