data_PCOD9107446
_publ_section_title
;
Structure prediction by ZEFSAII (Michael W. Deem and Ramdas Pophale) SiO2 
 PCOD9107446
Probable space group: P -1
;
_chemical_formula_sum "Si O2"
_cell_formula_units_Z 16
_cell_length_a 19.280974
_cell_length_b 13.788279
_cell_length_c 9.693473
_cell_angle_alpha 126.952745
_cell_angle_beta 42.644303
_cell_angle_gamma 152.511656
_cell_volume 794.851321
_symmetry_space_group_name_H-M "P -1"
_symmetry_group_IT_number 2
_symmetry_cell_setting 'triclinic'
loop_
_space_group_symop_operation_xyz
x,y,z
-x,-y,-z
loop_
_atom_site_type_symbol
_atom_site_label
_atom_site_fract_x
_atom_site_fract_y
_atom_site_fract_z
Si Si1 0.790472 0.762543 0.622086
Si Si2 0.059786 0.695324 0.563992
Si Si3 0.576589 0.939095 0.827908
Si Si4 0.250573 0.992964 0.790338
Si Si5 0.522058 0.340865 0.479864
Si Si6 0.208708 0.189917 0.890323
Si Si7 0.364735 0.118388 0.012304
Si Si8 0.749019 0.552895 0.771244
O O1 0.687227 0.583161 0.500424
O O2 0.777866 0.664143 0.690793
O O3 0.688539 0.792211 0.812254
O O4 0.000000 0.000000 0.500000
O O5 0.000000 0.500000 0.500000
O O6 0.914625 0.630521 0.636194
O O7 0.244841 0.882662 0.371803
O O8 0.102948 0.791781 0.734130
O O9 0.450772 0.718902 0.742576
O O10 0.631006 0.944249 0.902705
O O11 0.500000 0.000000 0.000000
O O12 0.440807 0.177722 0.584983
O O13 0.216022 0.103914 0.934320
O O14 0.247023 0.948507 0.914617
O O15 0.652403 0.739444 0.357468
O O16 0.279104 0.386191 0.004602
O O17 0.000000 0.000000 0.000000
O O18 0.564364 0.302644 0.815658
#
# Coordination Sequence:
#
# PCOD9107446 Si02
#       8
#     2   2   2   2   2   2   2   2
#     4  12  23  38  63 101 140 167 211 272 332 390
#     4  11  24  45  66  96 126 173 223 265 315 392
#     4  11  25  47  64  91 133 175 220 268 322 384
#     4   9  19  38  67  91 127 163 215 257 320 387
#     4   9  20  42  62  92 135 168 218 263 325 393
#     4  10  16  34  68  94 124 162 214 261 322 390
#     4  12  22  42  67  97 130 170 212 272 327 390
#     4  12  20  40  69  96 131 166 211 270 324 387
#
# _framework density 20.129549999999998
#
# number of rings (size 3 to 8) (size 9 to 14) (size 15 to 20)
#    0.750    0.500    5.000    1.875    0.000    0.500 
#    9.000    2.500    0.000    0.000    0.000    0.000 
#    0.000    0.000    0.000    0.000    0.000    0.000 
#
# Total GULP energy -89161.260674 kJ/mol
# GULP energy per Si atom -5572.578792 kJ/mol
# Density = 2.008373 g / cm^3
# Si number density = 20.129550 Si / 1000 Ang^3
#
#
#
# Elastic Constant Matrix: (Units=GPa)
#
#
# Indices 1 2 3 4 5 6 
#
# 1 147.6337 45.2512 65.2946 16.3967 8.4793 1.5539
# 2 45.2512 69.9314 23.8100 -9.5154 -4.3993 7.8949
# 3 65.2946 23.8100 75.5146 10.4203 -5.7453 5.9395
# 4 16.3967 -9.5154 10.4203 18.4663 -4.5008 -8.1013
# 5 8.4793 -4.3993 -5.7453 -4.5008 38.1566 -6.6337
# 6 1.5539 7.8949 5.9395 -8.1013 -6.6337 31.0839
#
#
#
# Elastic Compliance Matrix: (Units=1/GPa)
#
#
# Indices 1 2 3 4 5 6 
#
# 1 0.016475 -0.010382 -0.008829 -0.018607 -0.008949 -0.003259
# 2 -0.010382 0.025819 -0.002595 0.027680 0.008774 0.003544
# 3 -0.008829 -0.002595 0.023423 -0.007946 0.003433 -0.004714
# 4 -0.018607 0.027680 -0.007946 0.107767 0.023811 0.028587
# 5 -0.008949 0.008774 0.003433 0.023811 0.034468 0.011125
# 6 -0.003259 0.003544 -0.004714 0.028587 0.011125 0.042159
#
#
# Mechanical properties :
#
#
# Convention : Reuss Voigt Hill
#
# Bulk Modulus (GPa) = 45.23586 62.42126 53.82856
# Shear Modulus (GPa) = 16.60622 28.12295 22.36459
#
# Velocity S-wave (km/s) = 2.87534 3.74183 3.33683
# Velocity P-wave (km/s) = 5.79177 7.05305 6.45330
#
# Compressibility (1/GPa) = 0.02210635
#
# Stress axis : x y z
#
# Youngs Moduli (GPa) = 60.69655 38.73071 42.69234
#
# Poissons Ratio (x) = 0.40209 0.37694
# Poissons Ratio (y) = 0.63013 0.11079
# Poissons Ratio (z) = 0.53590 0.10051
#
# Static dielectric constant tensor:
#      x y z
#    x 1.703510 0.047460 0.006080 
#    y 0.047460 1.754290 0.012770 
#    z 0.006080 0.012770 1.737820 
# 
# From -- ./inp_files/186984.got.cif
#   From: 2010.05.17/outbox.cif.g08.bks.cpg/sg2_94_cif.got.tgz:186984.got - 2010.06.03 11:33:40.
