data_PCOD9107701
_publ_section_title
;
Structure prediction by ZEFSAII (Michael W. Deem and Ramdas Pophale) SiO2 
 PCOD9107701
Probable space group: P -1
;
_chemical_formula_sum "Si O2"
_cell_formula_units_Z 16
_cell_length_a 14.212415
_cell_length_b 13.754220
_cell_length_c 10.778514
_cell_angle_alpha 71.562908
_cell_angle_beta 51.820233
_cell_angle_gamma 30.249129
_cell_volume 696.951761
_symmetry_space_group_name_H-M "P -1"
_symmetry_group_IT_number 2
_symmetry_cell_setting 'triclinic'
loop_
_space_group_symop_operation_xyz
x,y,z
-x,-y,-z
loop_
_atom_site_type_symbol
_atom_site_label
_atom_site_fract_x
_atom_site_fract_y
_atom_site_fract_z
Si Si1 0.700855 0.612011 0.072916
Si Si2 0.611876 0.728748 0.823343
Si Si3 0.367411 0.674297 0.697770
Si Si4 0.438950 0.934951 0.523909
Si Si5 0.920707 0.857826 0.042229
Si Si6 0.250166 0.809004 0.467898
Si Si7 0.208735 0.493845 0.489528
Si Si8 0.629542 0.960592 0.739325
O O1 0.447710 0.745177 0.282183
O O2 0.631214 0.782621 0.095465
O O3 0.705381 0.605119 0.923063
O O4 0.951470 0.350224 0.017195
O O5 0.785714 0.560027 0.630895
O O6 0.612036 0.851360 0.789790
O O7 0.304013 0.937720 0.956444
O O8 0.231560 0.832601 0.623732
O O9 0.597086 0.416467 0.576592
O O10 0.542909 0.618078 0.657986
O O11 0.142884 0.775831 0.904122
O O12 0.342748 0.018090 0.430270
O O13 0.228488 0.046829 0.745075
O O14 0.500000 0.000000 0.500000
O O15 0.710719 0.659291 0.421558
O O16 0.000000 0.000000 0.500000
O O17 0.916613 0.763045 0.650279
#
# Coordination Sequence:
#
# PCOD9107701 Si02
#       8
#     2   2   2   2   2   2   2   2
#     4  11  24  39  63  96 128 170 215 268 325 376
#     4  11  24  41  61  93 129 176 214 270 323 373
#     4  10  22  40  65  99 126 171 213 263 327 375
#     4  11  23  43  65  94 126 172 213 263 329 374
#     4  10  23  43  66  92 133 162 216 272 319 387
#     4  10  20  40  65  92 134 169 211 264 319 387
#     4  11  24  41  68  93 132 172 217 268 316 392
#     4  12  24  41  65  96 128 175 222 261 325 385
#
# _framework density 22.957111000000001
#
# number of rings (size 3 to 8) (size 9 to 14) (size 15 to 20)
#    0.000    1.250    2.500    3.750    1.750    5.500 
#    0.000    6.875    0.000    0.000    0.000    0.000 
#    0.000    0.000    0.000    0.000    0.000    0.000 
#
# Total GULP energy -89428.001495 kJ/mol
# GULP energy per Si atom -5589.250093 kJ/mol
# Density = 2.290486 g / cm^3
# Si number density = 22.957111 Si / 1000 Ang^3
#
#
#
# Elastic Constant Matrix: (Units=GPa)
#
#
# Indices 1 2 3 4 5 6 
#
# 1 76.0952 7.8601 11.4963 -3.7583 -9.2046 8.5842
# 2 7.8601 102.0659 6.1940 2.1600 1.0462 -4.3644
# 3 11.4963 6.1940 43.8934 -8.7397 -5.4149 -6.2732
# 4 -3.7583 2.1600 -8.7397 40.1057 0.1350 3.3388
# 5 -9.2046 1.0462 -5.4149 0.1350 15.3700 4.6347
# 6 8.5842 -4.3644 -6.2732 3.3388 4.6347 38.5981
#
#
#
# Elastic Compliance Matrix: (Units=1/GPa)
#
#
# Indices 1 2 3 4 5 6 
#
# 1 0.015653 -0.001374 -0.003205 0.001264 0.009975 -0.005464
# 2 -0.001374 0.010103 -0.001357 -0.001095 -0.002467 0.001618
# 3 -0.003205 -0.001357 0.026124 0.005144 0.006243 0.003611
# 4 0.001264 -0.001095 0.005144 0.026407 0.003082 -0.002223
# 5 0.009975 -0.002467 0.006243 0.003082 0.076679 -0.010957
# 6 -0.005464 0.001618 0.003611 -0.002223 -0.010957 0.029401
#
#
# Mechanical properties :
#
#
# Convention : Reuss Voigt Hill
#
# Bulk Modulus (GPa) = 24.99410 30.35059 27.67234
# Shear Modulus (GPa) = 23.85784 31.91505 27.88645
#
# Velocity S-wave (km/s) = 3.22721 3.73259 3.48906
# Velocity P-wave (km/s) = 4.97971 5.64141 5.32086
#
# Compressibility (1/GPa) = 0.04000945
#
# Stress axis : x y z
#
# Youngs Moduli (GPa) = 63.88584 98.97675 38.27940
#
# Poissons Ratio (x) = 0.13596 0.12267
# Poissons Ratio (y) = 0.08775 0.05195
# Poissons Ratio (z) = 0.20473 0.13432
#
# Static dielectric constant tensor:
#      x y z
#    x 1.920470 0.036010 0.018520 
#    y 0.036010 1.872270 0.038860 
#    z 0.018520 0.038860 1.856050 
# 
# From -- ./inp_files/454733.got.cif
#   From: 2010.05.17/outbox.cif.g08.bks.cpg/sg2_228_cif.got.tgz:454733.got - 2010.06.03 11:33:40.
