data_PCOD9107900
_publ_section_title
;
Structure prediction by ZEFSAII (Michael W. Deem and Ramdas Pophale) SiO2 
 PCOD9107900
Probable space group: P -1
;
_chemical_formula_sum "Si O2"
_cell_formula_units_Z 14
_cell_length_a 27.109745
_cell_length_b 8.335890
_cell_length_c 26.721233
_cell_angle_alpha 36.592427
_cell_angle_beta 169.429214
_cell_angle_gamma 141.985954
_cell_volume 660.311142
_symmetry_space_group_name_H-M "P -1"
_symmetry_group_IT_number 2
_symmetry_cell_setting 'triclinic'
loop_
_space_group_symop_operation_xyz
x,y,z
-x,-y,-z
loop_
_atom_site_type_symbol
_atom_site_label
_atom_site_fract_x
_atom_site_fract_y
_atom_site_fract_z
Si Si1 0.572321 0.696024 0.249096
Si Si2 0.244806 0.626869 0.241595
Si Si3 0.669522 0.749448 0.814422
Si Si4 0.851740 0.280128 0.766349
Si Si5 0.717653 0.559561 0.135542
Si Si6 0.796193 0.177786 0.403202
Si Si7 0.908956 0.245599 0.312821
O O1 0.442518 0.428533 0.207970
O O2 0.832289 0.654470 0.484088
O O3 0.677895 0.884500 0.351700
O O4 0.331524 0.841100 0.941952
O O5 0.500000 0.500000 0.500000
O O6 0.214299 0.569921 0.285085
O O7 0.254423 0.951864 0.166807
O O8 0.000000 0.500000 0.000000
O O9 0.424484 0.773192 0.524610
O O10 0.926567 0.608282 0.079120
O O11 0.000000 0.000000 0.000000
O O12 0.786981 0.315342 0.304410
O O13 0.787909 0.471056 0.172312
O O14 0.910122 0.796188 0.287479
O O15 0.409422 0.642609 0.814268
O O16 0.000000 0.000000 0.500000
#
# Coordination Sequence:
#
# PCOD9107900 Si02
#       7
#     2   2   2   2   2   2   2
#     4  12  25  41  62  90 126 164 207 262 317 361
#     4  11  21  38  66  98 123 159 203 248 298 365
#     4  11  23  42  62  92 129 166 204 251 306 369
#     4  10  20  40  66  90 122 163 208 238 289 377
#     4  10  21  37  59  84 112 148 209 261 295 358
#     4  10  21  37  59  84 112 153 200 256 307 359
#     4  12  24  40  62  90 121 166 215 259 312 373
#
# _framework density 21.202127000000001
#
# number of rings (size 3 to 8) (size 9 to 14) (size 15 to 20)
#    0.000    1.143    1.429    7.286    4.000    0.000 
#    0.000    8.571    0.000    0.000    0.000    0.000 
#    0.000    0.000    0.000    0.000    0.000    0.000 
#
# Total GULP energy -78284.046093 kJ/mol
# GULP energy per Si atom -5591.717578 kJ/mol
# Density = 2.115387 g / cm^3
# Si number density = 21.202127 Si / 1000 Ang^3
#
#
#
# Elastic Constant Matrix: (Units=GPa)
#
#
# Indices 1 2 3 4 5 6 
#
# 1 109.9293 37.0032 43.2644 4.8437 35.6998 -16.7843
# 2 37.0032 78.1638 21.8403 22.8204 3.8555 -8.1052
# 3 43.2644 21.8403 127.2269 22.9930 10.8979 -10.6544
# 4 4.8437 22.8204 22.9930 33.2957 -2.8371 2.1470
# 5 35.6998 3.8555 10.8979 -2.8371 53.8358 5.5351
# 6 -16.7843 -8.1052 -10.6544 2.1470 5.5351 25.5837
#
#
#
# Elastic Compliance Matrix: (Units=1/GPa)
#
#
# Indices 1 2 3 4 5 6 
#
# 1 0.018045 -0.006675 -0.003608 0.002767 -0.011694 0.010519
# 2 -0.006675 0.019799 0.001482 -0.013695 0.001647 0.003304
# 3 -0.003608 0.001482 0.010632 -0.008103 -0.000637 0.003348
# 4 0.002767 -0.013695 -0.008103 0.045666 0.004289 -0.010658
# 5 -0.011694 0.001647 -0.000637 0.004289 0.027988 -0.013830
# 6 0.010519 0.003304 0.003348 -0.010658 -0.013830 0.052316
#
#
# Mechanical properties :
#
#
# Convention : Reuss Voigt Hill
#
# Bulk Modulus (GPa) = 32.38987 57.72620 45.05803
# Shear Modulus (GPa) = 24.71088 36.75718 30.73403
#
# Velocity S-wave (km/s) = 3.41763 4.16824 3.81146
# Velocity P-wave (km/s) = 5.55729 7.10291 6.37710
#
# Compressibility (1/GPa) = 0.03087385
#
# Stress axis : x y z
#
# Youngs Moduli (GPa) = 55.41623 50.50727 94.05710
#
# Poissons Ratio (x) = 0.33712 0.33936
# Poissons Ratio (y) = 0.36989 -0.13935
# Poissons Ratio (z) = 0.19994 -0.07483
#
# Static dielectric constant tensor:
#      x y z
#    x 1.791000 0.026030 0.006490 
#    y 0.026030 1.784930 -0.008240 
#    z 0.006490 -0.008240 1.739810 
# 
# From -- ./inp_files/357926.got.cif
#   From: 2010.05.17/outbox.cif.g08.bks.cpg/sg2_179_cif.got.tgz:357926.got - 2010.06.03 11:33:40.
