data_PCOD9107624
_publ_section_title
;
Structure prediction by ZEFSAII (Michael W. Deem and Ramdas Pophale) SiO2 
 PCOD9107624
Probable space group: P -1
;
_chemical_formula_sum "Si O2"
_cell_formula_units_Z 12
_cell_length_a 12.027455
_cell_length_b 6.641843
_cell_length_c 16.130864
_cell_angle_alpha 45.692594
_cell_angle_beta 138.213730
_cell_angle_gamma 101.137029
_cell_volume 446.402565
_symmetry_space_group_name_H-M "P -1"
_symmetry_group_IT_number 2
_symmetry_cell_setting 'triclinic'
loop_
_space_group_symop_operation_xyz
x,y,z
-x,-y,-z
loop_
_atom_site_type_symbol
_atom_site_label
_atom_site_fract_x
_atom_site_fract_y
_atom_site_fract_z
Si Si1 0.348397 0.519668 0.043204
Si Si2 0.134101 0.682330 0.468146
Si Si3 0.849645 0.890844 0.100689
Si Si4 0.299556 0.005483 0.376186
Si Si5 0.764825 0.433593 0.263491
Si Si6 0.180044 0.137047 0.092313
O O1 0.285035 0.703676 0.046865
O O2 0.562081 0.441105 0.150092
O O3 0.360640 0.173420 0.157678
O O4 0.109295 0.894957 0.760637
O O5 0.224420 0.444530 0.671765
O O6 0.069304 0.601698 0.369047
O O7 0.296574 0.746589 0.511017
O O8 0.728296 0.731927 0.094209
O O9 0.873784 0.941099 0.003797
O O10 0.277830 0.906017 0.299268
O O11 0.500000 0.000000 0.500000
O O12 0.059900 0.438362 0.138675
O O13 0.000000 0.000000 0.500000
#
# Coordination Sequence:
#
# PCOD9107624 Si02
#       6
#     2   2   2   2   2   2
#     4   9  22  42  60  90 126 160 208 249 305 367
#     4   9  22  40  59  90 128 157 208 252 302 366
#     4  10  23  42  61  92 128 163 205 252 309 364
#     4  10  20  40  65  89 122 159 206 257 303 365
#     4  12  22  39  67  91 126 167 204 253 308 364
#     4  10  21  41  64  88 122 163 204 253 308 363
#
# _framework density 26.881568999999999
#
# number of rings (size 3 to 8) (size 9 to 14) (size 15 to 20)
#    1.000    1.000    0.000    4.000    0.000    3.333 
#    6.000    0.833    0.000    0.000    0.000    0.000 
#    0.000    0.000    0.000    0.000    0.000    0.000 
#
# Total GULP energy -67075.813412 kJ/mol
# GULP energy per Si atom -5589.651118 kJ/mol
# Density = 2.682039 g / cm^3
# Si number density = 26.881569 Si / 1000 Ang^3
#
#
#
# Elastic Constant Matrix: (Units=GPa)
#
#
# Indices 1 2 3 4 5 6 
#
# 1 170.8953 46.9643 62.7146 30.7094 -25.1843 -5.0397
# 2 46.9643 65.2254 16.5406 16.4599 -4.6310 -11.1925
# 3 62.7146 16.5406 78.8129 30.4991 -9.5992 -12.5916
# 4 30.7094 16.4599 30.4991 35.3695 0.5490 -3.7325
# 5 -25.1843 -4.6310 -9.5992 0.5490 61.5525 22.8498
# 6 -5.0397 -11.1925 -12.5916 -3.7325 22.8498 59.0131
#
#
#
# Elastic Compliance Matrix: (Units=1/GPa)
#
#
# Indices 1 2 3 4 5 6 
#
# 1 0.010728 -0.006008 -0.006945 -0.000948 0.004109 -0.003356
# 2 -0.006008 0.021221 0.003644 -0.007289 -0.001926 0.004574
# 3 -0.006945 0.003644 0.024406 -0.016246 -0.000239 0.004370
# 4 -0.000948 -0.007289 -0.016246 0.046495 -0.003674 -0.000566
# 5 0.004109 -0.001926 -0.000239 -0.003674 0.020891 -0.008387
# 6 -0.003356 0.004574 0.004370 -0.000566 -0.008387 0.021670
#
#
# Mechanical properties :
#
#
# Convention : Reuss Voigt Hill
#
# Bulk Modulus (GPa) = 26.49912 63.04140 44.77026
# Shear Modulus (GPa) = 28.31125 43.76796 36.03960
#
# Velocity S-wave (km/s) = 3.24880 4.03945 3.66550
# Velocity P-wave (km/s) = 4.89409 6.72745 5.88263
#
# Compressibility (1/GPa) = 0.03773710
#
# Stress axis : x y z
#
# Youngs Moduli (GPa) = 93.21296 47.12312 40.97376
#
# Poissons Ratio (x) = 0.28313 0.28455
# Poissons Ratio (y) = 0.56006 -0.14931
# Poissons Ratio (z) = 0.64733 -0.17172
#
# Static dielectric constant tensor:
#      x y z
#    x 2.064560 -0.033910 -0.002970 
#    y -0.033910 2.195790 0.098160 
#    z -0.002970 0.098160 2.111330 
# 
# From -- ./inp_files/564661.got.cif
#   From: 2010.05.17/outbox.cif.g08.bks.cpg/sg2_283_cif.got.tgz:564661.got - 2010.06.03 11:33:40.
