data_PCOD9107847
_publ_section_title
;
Structure prediction by ZEFSAII (Michael W. Deem and Ramdas Pophale) SiO2 
 PCOD9107847
Probable space group: P -1
;
_chemical_formula_sum "Si O2"
_cell_formula_units_Z 13
_cell_length_a 7.183121
_cell_length_b 13.820419
_cell_length_c 9.175434
_cell_angle_alpha 52.614737
_cell_angle_beta 48.622423
_cell_angle_gamma 75.880656
_cell_volume 523.817614
_symmetry_space_group_name_H-M "P -1"
_symmetry_group_IT_number 2
_symmetry_cell_setting 'triclinic'
loop_
_space_group_symop_operation_xyz
x,y,z
-x,-y,-z
loop_
_atom_site_type_symbol
_atom_site_label
_atom_site_fract_x
_atom_site_fract_y
_atom_site_fract_z
Si Si1 0.500000 0.000000 0.000000
Si Si2 0.971932 0.803869 0.996839
Si Si3 0.545145 0.312639 0.795968
Si Si4 0.028477 0.846461 0.256068
Si Si5 0.213467 0.323124 0.229462
Si Si6 0.981678 0.520612 0.315880
Si Si7 0.823348 0.096149 0.483466
O O1 0.813536 0.036868 0.839008
O O2 0.565912 0.039605 0.757426
O O3 0.694035 0.774094 0.087942
O O4 0.013484 0.663779 0.127267
O O5 0.972476 0.858911 0.106703
O O6 0.187204 0.880152 0.705033
O O7 0.751837 0.232113 0.779329
O O8 0.691534 0.434762 0.518767
O O9 0.444435 0.342124 0.978608
O O10 0.786811 0.762214 0.548662
O O11 0.161462 0.452464 0.193894
O O12 0.970661 0.233990 0.348074
O O13 0.000000 0.500000 0.500000
O O14 0.000000 0.000000 0.500000
#
# Coordination Sequence:
#
# PCOD9107847 Si02
#       7
#     1   2   2   2   2   2   2
#     4  10  20  40  66  82 124 172 198 270 320 342
#     4  11  22  41  66  95 126 169 211 258 314 379
#     4  10  21  39  63  89 132 168 199 257 321 366
#     4  10  21  42  62  93 129 161 216 262 307 377
#     4   9  20  39  65  91 129 169 204 260 314 372
#     4  11  21  41  65  94 135 162 208 263 309 382
#     4  10  22  41  63  91 127 162 216 262 309 371
#
# _framework density 24.817799000000001
#
# number of rings (size 3 to 8) (size 9 to 14) (size 15 to 20)
#    0.000    1.846    3.077    2.308    0.000    3.692 
#    0.000   19.231    0.000    0.000    0.000    0.000 
#    0.000    0.000    0.000    0.000    0.000    0.000 
#
# Total GULP energy -72493.674353 kJ/mol
# GULP energy per Si atom -5576.436489 kJ/mol
# Density = 2.476131 g / cm^3
# Si number density = 24.817799 Si / 1000 Ang^3
#
#
#
# Elastic Constant Matrix: (Units=GPa)
#
#
# Indices 1 2 3 4 5 6 
#
# 1 65.7245 27.1814 22.4303 3.3531 11.3723 6.3265
# 2 27.1814 134.6428 33.0937 15.7624 10.9464 2.5469
# 3 22.4303 33.0937 177.8115 30.5707 20.7909 -10.8793
# 4 3.3531 15.7624 30.5707 52.1973 0.0523 5.2417
# 5 11.3723 10.9464 20.7909 0.0523 36.6965 10.7664
# 6 6.3265 2.5469 -10.8793 5.2417 10.7664 33.7678
#
#
#
# Elastic Compliance Matrix: (Units=1/GPa)
#
#
# Indices 1 2 3 4 5 6 
#
# 1 0.017752 -0.003006 -0.001720 0.001072 -0.002770 -0.002937
# 2 -0.003006 0.008540 -0.000673 -0.002036 -0.001365 0.000453
# 3 -0.001720 -0.000673 0.007700 -0.004716 -0.005156 0.005230
# 4 0.001072 -0.002036 -0.004716 0.023135 0.004884 -0.006715
# 5 -0.002770 -0.001365 -0.005156 0.004884 0.035256 -0.013038
# 6 -0.002937 0.000453 0.005230 -0.006715 -0.013038 0.037014
#
#
# Mechanical properties :
#
#
# Convention : Reuss Voigt Hill
#
# Bulk Modulus (GPa) = 43.11349 60.39885 51.75617
# Shear Modulus (GPa) = 33.80040 44.23055 39.01548
#
# Velocity S-wave (km/s) = 3.69445 4.22620 3.96924
# Velocity P-wave (km/s) = 5.96727 6.94292 6.47350
#
# Compressibility (1/GPa) = 0.02319460
#
# Stress axis : x y z
#
# Youngs Moduli (GPa) = 56.33022 117.09631 129.87262
#
# Poissons Ratio (x) = 0.35197 0.22340
# Poissons Ratio (y) = 0.16932 0.08739
# Poissons Ratio (z) = 0.09689 0.07880
#
# Static dielectric constant tensor:
#      x y z
#    x 2.033070 0.138770 -0.045760 
#    y 0.138770 2.237790 -0.223880 
#    z -0.045760 -0.223880 2.076690 
# 
# From -- ./inp_files/191797.got.cif
#   From: 2010.05.17/outbox.cif.g08.bks.cpg/sg2_96_cif.got.tgz:191797.got - 2010.06.03 11:33:40.
