data_PCOD9107138
_publ_section_title
;
Structure prediction by ZEFSAII (Michael W. Deem and Ramdas Pophale) SiO2 
 PCOD9107138
Probable space group: P -1
;
_chemical_formula_sum "Si O2"
_cell_formula_units_Z 16
_cell_length_a 8.698615
_cell_length_b 13.694694
_cell_length_c 7.426251
_cell_angle_alpha 89.235857
_cell_angle_beta 83.663056
_cell_angle_gamma 130.962612
_cell_volume 659.609442
_symmetry_space_group_name_H-M "P -1"
_symmetry_group_IT_number 2
_symmetry_cell_setting 'triclinic'
loop_
_space_group_symop_operation_xyz
x,y,z
-x,-y,-z
loop_
_atom_site_type_symbol
_atom_site_label
_atom_site_fract_x
_atom_site_fract_y
_atom_site_fract_z
Si Si1 0.704116 0.599225 0.586531
Si Si2 0.154981 0.855491 0.504372
Si Si3 0.644363 0.201012 0.784389
Si Si4 0.820963 0.242261 0.113604
Si Si5 0.541345 0.628916 0.935179
Si Si6 0.046205 0.158243 0.931202
Si Si7 0.839645 0.473928 0.816411
Si Si8 0.197422 0.056208 0.721226
O O1 0.500000 0.500000 0.500000
O O2 0.637762 0.659329 0.726504
O O3 0.753053 0.518038 0.685082
O O4 0.925806 0.724111 0.482930
O O5 0.302673 0.874471 0.331244
O O6 0.210927 0.824030 0.688983
O O7 0.167448 0.973530 0.556566
O O8 0.824456 0.358825 0.742702
O O9 0.441212 0.162681 0.724356
O O10 0.631625 0.174947 0.001663
O O11 0.947431 0.392281 0.145306
O O12 0.974307 0.239394 0.969546
O O13 0.500000 0.500000 0.000000
O O14 0.721437 0.747378 0.028580
O O15 0.329061 0.593008 0.000178
O O16 0.072666 0.105842 0.748738
O O17 0.895346 0.039904 0.091158
#
# Coordination Sequence:
#
# PCOD9107138 Si02
#       8
#     2   2   2   2   2   2   2   2
#     4  10  21  37  63  91 124 159 198 260 321 358
#     4  10  23  43  59  87 130 162 203 258 301 367
#     4  12  24  38  65  90 124 172 203 243 313 375
#     4  10  22  41  63  91 124 160 203 258 310 362
#     4  10  16  34  63  86 117 152 199 251 307 356
#     4  10  18  37  65  86 118 163 203 260 305 353
#     4  10  21  38  59  93 124 157 204 252 309 373
#     4  10  21  39  62  87 122 165 209 253 306 355
#
# _framework density 24.256779999999999
#
# number of rings (size 3 to 8) (size 9 to 14) (size 15 to 20)
#    0.000    1.750    6.250    0.750    1.750    4.000 
#    2.250    0.625    2.750    0.000    0.000    0.000 
#    0.000    0.000    0.000    0.000    0.000    0.000 
#
# Total GULP energy -89303.185584 kJ/mol
# GULP energy per Si atom -5581.449099 kJ/mol
# Density = 2.420157 g / cm^3
# Si number density = 24.256780 Si / 1000 Ang^3
#
#
#
# Elastic Constant Matrix: (Units=GPa)
#
#
# Indices 1 2 3 4 5 6 
#
# 1 64.6350 17.9551 35.8751 14.3111 11.2111 -6.0521
# 2 17.9551 82.3214 29.6627 23.0095 1.0489 -7.4863
# 3 35.8751 29.6627 95.7920 28.3329 3.1583 -9.8377
# 4 14.3111 23.0095 28.3329 37.7243 -6.4132 -7.4458
# 5 11.2111 1.0489 3.1583 -6.4132 41.3896 10.0799
# 6 -6.0521 -7.4863 -9.8377 -7.4458 10.0799 30.5413
#
#
#
# Elastic Compliance Matrix: (Units=1/GPa)
#
#
# Indices 1 2 3 4 5 6 
#
# 1 0.021375 -0.001153 -0.006116 -0.003273 -0.006622 0.003371
# 2 -0.001153 0.015321 -0.001910 -0.007409 -0.001465 0.001589
# 3 -0.006116 -0.001910 0.016042 -0.008414 -0.001275 0.001857
# 4 -0.003273 -0.007409 -0.008414 0.040283 0.007423 0.002196
# 5 -0.006622 -0.001465 -0.001275 0.007423 0.029692 -0.010072
# 6 0.003371 0.001589 0.001857 0.002196 -0.010072 0.038258
#
#
# Mechanical properties :
#
#
# Convention : Reuss Voigt Hill
#
# Bulk Modulus (GPa) = 29.08462 45.52601 37.30532
# Shear Modulus (GPa) = 26.20702 32.54809 29.37755
#
# Velocity S-wave (km/s) = 3.29051 3.66705 3.48387
# Velocity P-wave (km/s) = 5.14324 6.06125 5.62102
#
# Compressibility (1/GPa) = 0.03438243
#
# Stress axis : x y z
#
# Youngs Moduli (GPa) = 46.78347 65.26962 62.33464
#
# Poissons Ratio (x) = 0.07524 0.38122
# Poissons Ratio (y) = 0.05393 0.11904
# Poissons Ratio (z) = 0.28611 0.12465
#
# Static dielectric constant tensor:
#      x y z
#    x 1.981090 -0.045360 0.036450 
#    y -0.045360 1.958710 0.020500 
#    z 0.036450 0.020500 2.013200 
# 
# From -- ./inp_files/208294.got.cif
#   From: 2010.05.17/outbox.cif.g08.bks.cpg/sg2_105_cif.got.tgz:208294.got - 2010.06.03 11:33:40.
