data_PCOD9107087
_publ_section_title
;
Structure prediction by ZEFSAII (Michael W. Deem and Ramdas Pophale) SiO2 
 PCOD9107087
Probable space group: P -1
;
_chemical_formula_sum "Si O2"
_cell_formula_units_Z 16
_cell_length_a 4.976781
_cell_length_b 5.104920
_cell_length_c 24.517100
_cell_angle_alpha 81.966316
_cell_angle_beta 68.035179
_cell_angle_gamma 91.631820
_cell_volume 569.785391
_symmetry_space_group_name_H-M "P -1"
_symmetry_group_IT_number 2
_symmetry_cell_setting 'triclinic'
loop_
_space_group_symop_operation_xyz
x,y,z
-x,-y,-z
loop_
_atom_site_type_symbol
_atom_site_label
_atom_site_fract_x
_atom_site_fract_y
_atom_site_fract_z
Si Si1 0.572248 0.690215 0.900997
Si Si2 0.239663 0.755330 0.019459
Si Si3 0.712951 0.746522 0.591799
Si Si4 0.760531 0.813816 0.473674
Si Si5 0.641686 0.016202 0.310760
Si Si6 0.901428 0.390594 0.187461
Si Si7 0.736794 0.911512 0.129492
Si Si8 0.033400 0.685757 0.349102
O O1 0.706482 0.503221 0.941530
O O2 0.745660 0.581709 0.839657
O O3 0.565634 0.002223 0.875536
O O4 0.259741 0.673795 0.956794
O O5 0.951337 0.853886 0.065034
O O6 0.500000 0.000000 0.000000
O O7 0.733668 0.619781 0.533900
O O8 0.407728 0.843605 0.631101
O O9 0.818630 0.578672 0.638949
O O10 0.938170 0.000827 0.557720
O O11 0.796125 0.681994 0.416359
O O12 0.500000 0.000000 0.500000
O O13 0.773871 0.239835 0.253944
O O14 0.320173 0.895978 0.321949
O O15 0.850361 0.779662 0.309321
O O16 0.764105 0.660609 0.174194
O O17 0.834289 0.173776 0.150022
#
# Coordination Sequence:
#
# PCOD9107087 Si02
#       8
#     2   2   2   2   2   2   2   2
#     4  10  23  41  66  97 136 178 222 287 347 418
#     4  10  20  40  63 101 137 170 225 282 347 424
#     4  10  23  41  64  98 135 178 221 287 346 422
#     4  10  20  40  65  99 137 169 227 280 345 425
#     4  11  27  45  65  99 134 176 240 284 346 419
#     4  11  27  45  66  99 133 178 241 284 342 422
#     4  11  25  44  69  98 132 184 227 285 354 411
#     4  11  25  44  70  99 132 184 223 287 356 411
#
# _framework density 28.080746000000001
#
# number of rings (size 3 to 8) (size 9 to 14) (size 15 to 20)
#    0.000    1.500    2.500    0.750    7.000    1.000 
#    0.000    0.000    0.000    0.000    0.000    0.000 
#    0.000    0.000    0.000    0.000    0.000    0.000 
#
# Total GULP energy -89242.091748 kJ/mol
# GULP energy per Si atom -5577.630734 kJ/mol
# Density = 2.801683 g / cm^3
# Si number density = 28.080746 Si / 1000 Ang^3
#
#
#
# Elastic Constant Matrix: (Units=GPa)
#
#
# Indices 1 2 3 4 5 6 
#
# 1 91.1194 41.3237 30.2319 -28.6046 -1.3110 -24.8458
# 2 41.3237 174.5813 39.7308 -48.2373 9.0106 -37.3608
# 3 30.2319 39.7308 166.7780 -38.7655 -18.4065 -8.3031
# 4 -28.6046 -48.2373 -38.7655 43.9124 2.0007 0.6511
# 5 -1.3110 9.0106 -18.4065 2.0007 24.3159 -4.6417
# 6 -24.8458 -37.3608 -8.3031 0.6511 -4.6417 52.6576
#
#
#
# Elastic Compliance Matrix: (Units=1/GPa)
#
#
# Indices 1 2 3 4 5 6 
#
# 1 0.016522 0.001128 0.000049 0.011865 0.001168 0.008560
# 2 0.001128 0.010786 0.000223 0.012817 -0.003339 0.007767
# 3 0.000049 0.000223 0.008421 0.007407 0.006058 0.001952
# 4 0.011865 0.012817 0.007407 0.050884 0.000221 0.015251
# 5 0.001168 -0.003339 0.006058 0.000221 0.047629 0.003333
# 6 0.008560 0.007767 0.001952 0.015251 0.003333 0.028954
#
#
# Mechanical properties :
#
#
# Convention : Reuss Voigt Hill
#
# Bulk Modulus (GPa) = 25.95321 72.78349 49.36835
# Shear Modulus (GPa) = 28.86188 45.59001 37.22594
#
# Velocity S-wave (km/s) = 3.20944 4.03368 3.64493
# Velocity P-wave (km/s) = 4.79546 6.90433 5.94416
#
# Compressibility (1/GPa) = 0.03853088
#
# Stress axis : x y z
#
# Youngs Moduli (GPa) = 60.52390 92.71042 118.74815
#
# Poissons Ratio (x) = -0.10456 -0.00585
# Poissons Ratio (y) = -0.06826 -0.02654
# Poissons Ratio (z) = -0.00298 -0.02072
#
# Static dielectric constant tensor:
#      x y z
#    x 2.803920 0.159230 0.187650 
#    y 0.159230 2.318060 0.031850 
#    z 0.187650 0.031850 2.243330 
# 
# From -- ./inp_files/13030.got.cif
#   From: 2010.05.17/outbox.cif.g08.bks.cpg/sg2_7_cif.got.tgz:13030.got - 2010.06.03 11:33:40.
