data_PCOD9107416
_publ_section_title
;
Structure prediction by ZEFSAII (Michael W. Deem and Ramdas Pophale) SiO2 
 PCOD9107416
Probable space group: P -1
;
_chemical_formula_sum "Si O2"
_cell_formula_units_Z 16
_cell_length_a 18.819429
_cell_length_b 5.125103
_cell_length_c 9.782258
_cell_angle_alpha 94.216932
_cell_angle_beta 55.437489
_cell_angle_gamma 119.066464
_cell_volume 651.821036
_symmetry_space_group_name_H-M "P -1"
_symmetry_group_IT_number 2
_symmetry_cell_setting 'triclinic'
loop_
_space_group_symop_operation_xyz
x,y,z
-x,-y,-z
loop_
_atom_site_type_symbol
_atom_site_label
_atom_site_fract_x
_atom_site_fract_y
_atom_site_fract_z
Si Si1 0.587404 0.109824 0.796097
Si Si2 0.916893 0.395498 0.264103
Si Si3 0.293564 0.188061 0.240731
Si Si4 0.875311 0.697941 0.531791
Si Si5 0.443016 0.822564 0.693108
Si Si6 0.072382 0.287971 0.238197
Si Si7 0.114833 0.960242 0.964858
Si Si8 0.313167 0.128449 0.896643
O O1 0.638798 0.477266 0.747221
O O2 0.665774 0.020687 0.760072
O O3 0.531627 0.932963 0.712843
O O4 0.500000 0.000000 0.000000
O O5 0.842357 0.458083 0.433391
O O6 0.998217 0.394310 0.276176
O O7 0.992658 0.698402 0.100333
O O8 0.865525 0.086281 0.215555
O O9 0.180800 0.115618 0.392557
O O10 0.309137 0.219690 0.061142
O O11 0.862479 0.548844 0.690702
O O12 0.993968 0.940235 0.370348
O O13 0.375259 0.447285 0.753257
O O14 0.500000 0.000000 0.500000
O O15 0.369921 0.944511 0.820527
O O16 0.125282 0.250487 0.045662
O O17 0.197331 0.924549 0.957862
#
# Coordination Sequence:
#
# PCOD9107416 Si02
#       8
#     2   2   2   2   2   2   2   2
#     4  12  24  46  76 101 137 179 231 297 364 417
#     4  10  22  41  63  93 145 183 226 283 345 412
#     4  12  24  42  75 107 137 180 243 292 338 433
#     4  10  23  38  60 103 133 177 231 281 344 395
#     4  12  28  50  72 103 142 182 228 297 374 427
#     4  10  20  40  64  90 140 181 221 284 341 406
#     4  10  23  40  66  99 131 188 235 276 346 412
#     4  12  24  46  75 104 137 183 243 287 345 441
#
# _framework density 24.546616
#
# number of rings (size 3 to 8) (size 9 to 14) (size 15 to 20)
#    0.000    1.000    3.750    2.250    3.500    2.000 
#    2.250    0.000    0.000    0.000    0.000    0.000 
#    0.000    0.000    0.000    0.000    0.000    0.000 
#
# Total GULP energy -89466.749086 kJ/mol
# GULP energy per Si atom -5591.671818 kJ/mol
# Density = 2.449075 g / cm^3
# Si number density = 24.546616 Si / 1000 Ang^3
#
#
#
# Elastic Constant Matrix: (Units=GPa)
#
#
# Indices 1 2 3 4 5 6 
#
# 1 111.0862 11.6713 40.4018 16.8379 -5.8308 -0.8013
# 2 11.6713 81.7351 33.8417 7.7558 -1.9971 -4.0464
# 3 40.4018 33.8417 115.0164 29.6872 1.1074 -1.2216
# 4 16.8379 7.7558 29.6872 39.1614 -6.7535 -10.7492
# 5 -5.8308 -1.9971 1.1074 -6.7535 32.3322 5.0836
# 6 -0.8013 -4.0464 -1.2216 -10.7492 5.0836 39.6216
#
#
#
# Elastic Compliance Matrix: (Units=1/GPa)
#
#
# Indices 1 2 3 4 5 6 
#
# 1 0.010558 0.000027 -0.003229 -0.001978 0.001704 -0.000639
# 2 0.000027 0.014057 -0.004437 0.001152 0.001033 0.001479
# 3 -0.003229 -0.004437 0.013472 -0.009040 -0.002862 -0.002188
# 4 -0.001978 0.001152 -0.009040 0.036534 0.006255 0.008908
# 5 0.001704 0.001033 -0.002862 0.006255 0.033097 -0.002498
# 6 -0.000639 0.001479 -0.002188 0.008908 -0.002498 0.028047
#
#
# Mechanical properties :
#
#
# Convention : Reuss Voigt Hill
#
# Bulk Modulus (GPa) = 43.84338 53.29638 48.56988
# Shear Modulus (GPa) = 31.51639 37.01788 34.26713
#
# Velocity S-wave (km/s) = 3.58710 3.88759 3.74036
# Velocity P-wave (km/s) = 5.92085 6.47384 6.20351
#
# Compressibility (1/GPa) = 0.02280846
#
# Stress axis : x y z
#
# Youngs Moduli (GPa) = 94.71155 71.13823 74.22823
#
# Poissons Ratio (x) = -0.00193 0.23971
# Poissons Ratio (y) = -0.00257 0.32937
# Poissons Ratio (z) = 0.30586 0.31566
#
# Static dielectric constant tensor:
#      x y z
#    x 1.889410 0.022780 0.010040 
#    y 0.022780 2.028980 -0.043210 
#    z 0.010040 -0.043210 1.994010 
# 
# From -- ./inp_files/323849.got.cif
#   From: 2010.05.17/outbox.cif.g08.bks.cpg/sg2_162_cif.got.tgz:323849.got - 2010.06.03 11:33:40.
