data_PCOD9107605
_publ_section_title
;
Structure prediction by ZEFSAII (Michael W. Deem and Ramdas Pophale) SiO2 
 PCOD9107605
Probable space group: P -1
;
_chemical_formula_sum "Si O2"
_cell_formula_units_Z 16
_cell_length_a 21.030381
_cell_length_b 9.999966
_cell_length_c 21.040790
_cell_angle_alpha 130.749417
_cell_angle_beta 19.589517
_cell_angle_gamma 141.327313
_cell_volume 851.604958
_symmetry_space_group_name_H-M "P -1"
_symmetry_group_IT_number 2
_symmetry_cell_setting 'triclinic'
loop_
_space_group_symop_operation_xyz
x,y,z
-x,-y,-z
loop_
_atom_site_type_symbol
_atom_site_label
_atom_site_fract_x
_atom_site_fract_y
_atom_site_fract_z
Si Si1 0.247546 0.040308 0.896870
Si Si2 0.836061 0.553129 0.638090
Si Si3 0.079432 0.315307 0.677333
Si Si4 0.643798 0.187974 0.366230
Si Si5 0.608060 0.962783 0.098718
Si Si6 0.149347 0.931295 0.675925
Si Si7 0.826154 0.469236 0.475433
Si Si8 0.806861 0.983993 0.487277
O O1 0.523867 0.281549 0.694449
O O2 0.192632 0.854871 0.839955
O O3 0.277950 0.974247 0.918032
O O4 0.045619 0.071800 0.101664
O O5 0.879829 0.572732 0.527371
O O6 0.000000 0.500000 0.500000
O O7 0.552548 0.315830 0.842799
O O8 0.945862 0.795139 0.640727
O O9 0.201152 0.557981 0.672241
O O10 0.056380 0.348862 0.635554
O O11 0.248469 0.244555 0.506598
O O12 0.819361 0.114500 0.894581
O O13 0.500000 0.000000 0.500000
O O14 0.426962 0.121093 0.501752
O O15 0.413666 0.007861 0.292254
O O16 0.094030 0.687952 0.652952
O O17 0.142091 0.987488 0.627168
#
# Coordination Sequence:
#
# PCOD9107605 Si02
#       8
#     2   2   2   2   2   2   2   2
#     4  10  20  40  65  88 116 169 213 239 307 380
#     4   9  18  40  71  85 122 173 202 246 312 379
#     4  12  25  39  62  94 130 157 204 270 310 348
#     4  11  23  43  61  88 131 166 202 258 311 363
#     4  10  21  41  62  94 124 160 204 262 302 368
#     4  11  20  40  68  88 118 169 213 244 302 384
#     4  10  21  42  61  91 133 157 202 262 305 367
#     4  11  22  41  65  95 123 160 213 257 305 366
#
# _framework density 18.788056000000001
#
# number of rings (size 3 to 8) (size 9 to 14) (size 15 to 20)
#    0.000    1.500    8.750    0.000    0.000    4.500 
#    0.000    2.500    0.000    0.000    0.000    0.000 
#    0.000    0.000    0.000    0.000    0.000    0.000 
#
# Total GULP energy -89298.204699 kJ/mol
# GULP energy per Si atom -5581.137794 kJ/mol
# Density = 1.874529 g / cm^3
# Si number density = 18.788056 Si / 1000 Ang^3
#
#
#
# Elastic Constant Matrix: (Units=GPa)
#
#
# Indices 1 2 3 4 5 6 
#
# 1 102.0274 40.1583 26.4573 -10.6343 25.0911 3.4066
# 2 40.1583 77.9222 33.9775 1.6668 7.7268 4.5704
# 3 26.4573 33.9775 93.5894 13.5407 15.2279 -1.9531
# 4 -10.6343 1.6668 13.5407 26.4973 -11.8716 4.2294
# 5 25.0911 7.7268 15.2279 -11.8716 21.7442 -5.0143
# 6 3.4066 4.5704 -1.9531 4.2294 -5.0143 34.5258
#
#
#
# Elastic Compliance Matrix: (Units=1/GPa)
#
#
# Indices 1 2 3 4 5 6 
#
# 1 0.017073 -0.007103 0.001057 -0.001431 -0.019468 -0.003337
# 2 -0.007103 0.018559 -0.006293 0.002605 0.007108 -0.001399
# 3 0.001057 -0.006293 0.019192 -0.019332 -0.022777 0.000874
# 4 -0.001431 0.002605 -0.019332 0.070697 0.052318 -0.002359
# 5 -0.019468 0.007108 -0.022777 0.052318 0.112668 0.009646
# 6 -0.003337 -0.001399 0.000874 -0.002359 0.009646 0.031218
#
#
# Mechanical properties :
#
#
# Convention : Reuss Voigt Hill
#
# Bulk Modulus (GPa) = 33.17023 52.74725 42.95874
# Shear Modulus (GPa) = 16.44025 28.08319 22.26172
#
# Velocity S-wave (km/s) = 2.96131 3.87038 3.44595
# Velocity P-wave (km/s) = 5.42086 6.93606 6.22474
#
# Compressibility (1/GPa) = 0.03014752
#
# Stress axis : x y z
#
# Youngs Moduli (GPa) = 58.57297 53.88144 52.10554
#
# Poissons Ratio (x) = 0.38272 -0.05510
# Poissons Ratio (y) = 0.41604 0.32788
# Poissons Ratio (z) = -0.06194 0.33905
#
# Static dielectric constant tensor:
#      x y z
#    x 1.649280 0.012410 -0.011510 
#    y 0.012410 1.655120 0.010050 
#    z -0.011510 0.010050 1.662590 
# 
# From -- ./inp_files/313695.got.cif
#   From: 2010.05.17/outbox.cif.g08.bks.cpg/sg2_157_cif.got.tgz:313695.got - 2010.06.03 11:33:40.
