data_PCOD9107788
_publ_section_title
;
Structure prediction by ZEFSAII (Michael W. Deem and Ramdas Pophale) SiO2 
 PCOD9107788
Probable space group: P -1
;
_chemical_formula_sum "Si O2"
_cell_formula_units_Z 15
_cell_length_a 15.078126
_cell_length_b 9.829996
_cell_length_c 6.594042
_cell_angle_alpha 105.285328
_cell_angle_beta 68.990399
_cell_angle_gamma 55.420011
_cell_volume 596.550898
_symmetry_space_group_name_H-M "P -1"
_symmetry_group_IT_number 2
_symmetry_cell_setting 'triclinic'
loop_
_space_group_symop_operation_xyz
x,y,z
-x,-y,-z
loop_
_atom_site_type_symbol
_atom_site_label
_atom_site_fract_x
_atom_site_fract_y
_atom_site_fract_z
Si Si1 0.559468 0.604065 0.578062
Si Si2 0.500000 0.500000 0.000000
Si Si3 0.364932 0.205460 0.582183
Si Si4 0.743011 0.039498 0.166759
Si Si5 0.886754 0.554089 0.340857
Si Si6 0.005856 0.131215 0.900999
Si Si7 0.226557 0.755390 0.059219
Si Si8 0.169708 0.377609 0.122929
O O1 0.591990 0.733628 0.603196
O O2 0.421903 0.747241 0.600926
O O3 0.688466 0.397887 0.268349
O O4 0.522406 0.576835 0.810385
O O5 0.661902 0.365228 0.899314
O O6 0.248691 0.236945 0.580516
O O7 0.500000 0.000000 0.500000
O O8 0.272360 0.366019 0.908783
O O9 0.801290 0.054715 0.923586
O O10 0.763145 0.852179 0.039557
O O11 0.831438 0.999042 0.270265
O O12 0.931590 0.352339 0.138854
O O13 0.849699 0.566435 0.607824
O O14 0.014966 0.523503 0.216041
O O15 0.918693 0.174131 0.793530
O O16 0.000000 0.000000 0.000000
#
# Coordination Sequence:
#
# PCOD9107788 Si02
#       8
#     2   1   2   2   2   2   2   2
#     4  11  22  42  65  97 133 174 232 278 347 398
#     4  10  22  38  66  92 130 172 216 282 334 396
#     4  12  24  42  66 102 138 184 225 282 341 405
#     4   9  18  37  64  94 130 173 217 279 332 401
#     4  10  22  43  66  99 135 181 231 276 338 410
#     4   9  18  37  69  96 129 170 222 286 336 400
#     4  10  20  40  65  97 125 172 224 280 344 396
#     4  10  22  42  67  96 139 181 227 278 337 408
#
# _framework density 25.144545999999998
#
# number of rings (size 3 to 8) (size 9 to 14) (size 15 to 20)
#    0.000    1.867    2.667    2.000    0.000    1.600 
#    4.800    0.000    0.000   35.200    0.000    0.000 
#    0.000    0.000    0.000    0.000    0.000    0.000 
#
# Total GULP energy -83514.709720 kJ/mol
# GULP energy per Si atom -5567.647315 kJ/mol
# Density = 2.508732 g / cm^3
# Si number density = 25.144546 Si / 1000 Ang^3
#
#
#
# Elastic Constant Matrix: (Units=GPa)
#
#
# Indices 1 2 3 4 5 6 
#
# 1 121.1125 66.4540 37.5496 -3.1951 -17.3546 -32.3383
# 2 66.4540 155.8345 47.1710 -12.2976 -4.6877 -34.6118
# 3 37.5496 47.1710 95.4208 -12.1279 -16.1893 -4.0217
# 4 -3.1951 -12.2976 -12.1279 24.5202 0.2472 -11.6763
# 5 -17.3546 -4.6877 -16.1893 0.2472 29.6438 2.5969
# 6 -32.3383 -34.6118 -4.0217 -11.6763 2.5969 64.8988
#
#
#
# Elastic Compliance Matrix: (Units=1/GPa)
#
#
# Indices 1 2 3 4 5 6 
#
# 1 0.012844 -0.003703 -0.002023 0.000771 0.005453 0.004221
# 2 -0.003703 0.010314 -0.003250 0.005258 -0.002750 0.004510
# 3 -0.002023 -0.003250 0.014480 0.004602 0.006282 -0.001267
# 4 0.000771 0.005258 0.004602 0.051825 0.002251 0.012708
# 5 0.005453 -0.002750 0.006282 0.002251 0.039864 0.000449
# 6 0.004221 0.004510 -0.001267 0.012708 0.000449 0.022107
#
#
# Mechanical properties :
#
#
# Convention : Reuss Voigt Hill
#
# Bulk Modulus (GPa) = 50.79492 74.96856 62.88174
# Shear Modulus (GPa) = 28.41771 38.55879 33.48825
#
# Velocity S-wave (km/s) = 3.36545 3.92022 3.65338
# Velocity P-wave (km/s) = 5.94531 7.09723 6.54665
#
# Compressibility (1/GPa) = 0.01968701
#
# Stress axis : x y z
#
# Youngs Moduli (GPa) = 77.85564 96.95877 69.06195
#
# Poissons Ratio (x) = 0.35901 0.13971
# Poissons Ratio (y) = 0.28827 0.22443
# Poissons Ratio (z) = 0.15750 0.31509
#
# Static dielectric constant tensor:
#      x y z
#    x 2.088120 0.033100 -0.018650 
#    y 0.033100 2.073390 0.021580 
#    z -0.018650 0.021580 2.006930 
# 
# From -- ./inp_files/109110.got.cif
#   From: 2010.05.17/outbox.cif.g08.bks.cpg/sg2_55_cif.got.tgz:109110.got - 2010.06.03 11:33:40.
