data_PCOD9107124
_publ_section_title
;
Structure prediction by ZEFSAII (Michael W. Deem and Ramdas Pophale) SiO2 
 PCOD9107124
Probable space group: P -1
;
_chemical_formula_sum "Si O2"
_cell_formula_units_Z 15
_cell_length_a 16.951514
_cell_length_b 7.944505
_cell_length_c 14.154196
_cell_angle_alpha 49.901866
_cell_angle_beta 153.436661
_cell_angle_gamma 127.241555
_cell_volume 649.687534
_symmetry_space_group_name_H-M "P -1"
_symmetry_group_IT_number 2
_symmetry_cell_setting 'triclinic'
loop_
_space_group_symop_operation_xyz
x,y,z
-x,-y,-z
loop_
_atom_site_type_symbol
_atom_site_label
_atom_site_fract_x
_atom_site_fract_y
_atom_site_fract_z
Si Si1 0.574275 0.366040 0.909971
Si Si2 0.127072 0.725380 0.478325
Si Si3 0.195975 0.328240 0.473984
Si Si4 0.500000 0.500000 0.000000
Si Si5 0.890944 0.799936 0.780151
Si Si6 0.756028 0.205294 0.720299
Si Si7 0.061540 0.720486 0.619854
Si Si8 0.369702 0.270623 0.321362
O O1 0.392443 0.247939 0.717093
O O2 0.529775 0.454711 0.934153
O O3 0.632927 0.557668 0.828892
O O4 0.741987 0.226372 0.150060
O O5 0.307797 0.608701 0.731541
O O6 0.053243 0.798766 0.475067
O O7 0.980718 0.545709 0.343690
O O8 0.153105 0.946273 0.366463
O O9 0.106660 0.282507 0.294224
O O10 0.222414 0.597043 0.405106
O O11 0.082408 0.229014 0.475374
O O12 0.737041 0.667636 0.723435
O O13 0.074312 0.785296 0.035062
O O14 0.575382 0.240727 0.569956
O O15 0.723722 0.963124 0.728989
#
# Coordination Sequence:
#
# PCOD9107124 Si02
#       8
#     2   2   2   1   2   2   2   2
#     4  10  21  38  66  90 119 159 207 255 300 361
#     4  10  22  39  65  92 115 157 215 251 304 355
#     4  11  23  39  61  90 132 164 197 242 313 369
#     4  10  20  40  66  86 118 150 204 262 300 346
#     4  12  24  39  60  94 130 163 196 251 303 376
#     4  10  22  39  61  90 122 167 203 248 297 358
#     4  10  20  40  63  87 115 162 206 258 298 352
#     4  10  22  38  63  92 121 157 212 254 294 353
#
# _framework density 23.088021999999999
#
# number of rings (size 3 to 8) (size 9 to 14) (size 15 to 20)
#    0.000    1.600    1.333    3.200    3.733    3.733 
#    0.000    2.667    0.000    0.000    0.000    0.000 
#    0.000    0.000    0.000    0.000    0.000    0.000 
#
# Total GULP energy -83643.228286 kJ/mol
# GULP energy per Si atom -5576.215219 kJ/mol
# Density = 2.303547 g / cm^3
# Si number density = 23.088022 Si / 1000 Ang^3
#
#
#
# Elastic Constant Matrix: (Units=GPa)
#
#
# Indices 1 2 3 4 5 6 
#
# 1 146.8249 19.5050 44.8664 7.9130 4.1165 22.2631
# 2 19.5050 60.2020 12.4325 -8.7603 1.4642 11.8027
# 3 44.8664 12.4325 135.9306 4.8312 7.5726 11.1871
# 4 7.9130 -8.7603 4.8312 13.4345 4.5310 0.7608
# 5 4.1165 1.4642 7.5726 4.5310 21.5748 -3.2512
# 6 22.2631 11.8027 11.1871 0.7608 -3.2512 29.4303
#
#
#
# Elastic Compliance Matrix: (Units=1/GPa)
#
#
# Indices 1 2 3 4 5 6 
#
# 1 0.008789 -0.002259 -0.002079 -0.005503 -0.000369 -0.004851
# 2 -0.002259 0.021874 -0.000943 0.018313 -0.005746 -0.007813
# 3 -0.002079 -0.000943 0.008439 -0.001531 -0.002404 -0.001483
# 4 -0.005503 0.018313 -0.001531 0.097782 -0.021319 -0.007483
# 5 -0.000369 -0.005746 -0.002404 -0.021319 0.053635 0.009974
# 6 -0.004851 -0.007813 -0.001483 -0.007483 0.009974 0.042640
#
#
# Mechanical properties :
#
#
# Convention : Reuss Voigt Hill
#
# Bulk Modulus (GPa) = 35.03764 55.17390 45.10577
# Shear Modulus (GPa) = 19.74463 30.63150 25.18806
#
# Velocity S-wave (km/s) = 2.92753 3.64638 3.30655
# Velocity P-wave (km/s) = 5.16100 6.45579 5.84436
#
# Compressibility (1/GPa) = 0.02854074
#
# Stress axis : x y z
#
# Youngs Moduli (GPa) = 113.78379 45.71699 118.49076
#
# Poissons Ratio (x) = 0.10327 0.24633
# Poissons Ratio (y) = 0.25702 0.11171
# Poissons Ratio (z) = 0.23654 0.04310
#
# Static dielectric constant tensor:
#      x y z
#    x 1.861960 -0.037730 0.021460 
#    y -0.037730 1.928040 0.002130 
#    z 0.021460 0.002130 1.840570 
# 
# From -- ./inp_files/296605.got.cif
#   From: 2010.05.17/outbox.cif.g08.bks.cpg/sg2_149_cif.got.tgz:296605.got - 2010.06.03 11:33:40.
