data_PCOD9107516
_publ_section_title
;
Structure prediction by ZEFSAII (Michael W. Deem and Ramdas Pophale) SiO2 
 PCOD9107516
Probable space group: P -1
;
_chemical_formula_sum "Si O2"
_cell_formula_units_Z 13
_cell_length_a 14.694412
_cell_length_b 9.930133
_cell_length_c 7.828993
_cell_angle_alpha 82.330131
_cell_angle_beta 66.771235
_cell_angle_gamma 136.831678
_cell_volume 533.265657
_symmetry_space_group_name_H-M "P -1"
_symmetry_group_IT_number 2
_symmetry_cell_setting 'triclinic'
loop_
_space_group_symop_operation_xyz
x,y,z
-x,-y,-z
loop_
_atom_site_type_symbol
_atom_site_label
_atom_site_fract_x
_atom_site_fract_y
_atom_site_fract_z
Si Si1 0.000000 0.500000 0.500000
Si Si2 0.506539 0.914294 0.343037
Si Si3 0.630880 0.564593 0.112377
Si Si4 0.920728 0.291307 0.965228
Si Si5 0.855897 0.705176 0.225522
Si Si6 0.554233 0.898087 0.850377
Si Si7 0.681267 0.586907 0.690872
O O1 0.000253 0.575069 0.301597
O O2 0.220294 0.825440 0.322912
O O3 0.319104 0.603657 0.554308
O O4 0.500000 0.000000 0.500000
O O5 0.520697 0.043603 0.161764
O O6 0.693058 0.040793 0.179952
O O7 0.782465 0.714604 0.124854
O O8 0.498373 0.273436 0.230636
O O9 0.482676 0.512750 0.257351
O O10 0.722323 0.695618 0.832019
O O11 0.981124 0.207821 0.970081
O O12 0.000000 0.500000 0.000000
O O13 0.857089 0.779416 0.397236
O O14 0.422393 0.677021 0.134522
#
# Coordination Sequence:
#
# PCOD9107516 Si02
#       7
#     1   2   2   2   2   2   2
#     4  12  24  38  62  98 134 164 216 262 328 398
#     4  12  21  41  63  98 133 171 210 270 342 388
#     4   9  20  41  67  95 128 175 223 266 321 385
#     4  12  26  38  60 100 136 170 212 263 336 398
#     4  12  22  39  68  98 129 170 218 270 329 395
#     4  10  20  40  64  96 132 169 211 270 327 385
#     4   9  21  39  67  97 126 180 220 264 324 385
#
# _framework density 24.378091999999999
#
# number of rings (size 3 to 8) (size 9 to 14) (size 15 to 20)
#    0.923    0.308    4.615    1.385    2.154    1.231 
#    0.000    0.000    0.000    9.231    0.000    0.000 
#    0.000    0.000    0.000    0.000    0.000    0.000 
#
# Total GULP energy -72396.530453 kJ/mol
# GULP energy per Si atom -5568.963881 kJ/mol
# Density = 2.432261 g / cm^3
# Si number density = 24.378092 Si / 1000 Ang^3
#
#
#
# Elastic Constant Matrix: (Units=GPa)
#
#
# Indices 1 2 3 4 5 6 
#
# 1 179.1216 29.9753 55.6658 13.2785 -12.7861 10.0157
# 2 29.9753 57.8871 26.1692 3.3432 -6.4066 5.9676
# 3 55.6658 26.1692 99.5178 -2.4039 -5.8274 -0.6815
# 4 13.2785 3.3432 -2.4039 37.3197 -0.7125 8.0597
# 5 -12.7861 -6.4066 -5.8274 -0.7125 33.0576 0.9175
# 6 10.0157 5.9676 -0.6815 8.0597 0.9175 40.6725
#
#
#
# Elastic Compliance Matrix: (Units=1/GPa)
#
#
# Indices 1 2 3 4 5 6 
#
# 1 0.007377 -0.001709 -0.003634 -0.002413 0.001862 -0.001191
# 2 -0.001709 0.020754 -0.004387 -0.000928 0.002639 -0.002574
# 3 -0.003634 -0.004387 0.013304 0.002262 0.000102 0.001311
# 4 -0.002413 -0.000928 0.002262 0.028957 0.000048 -0.004971
# 5 0.001862 0.002639 0.000102 0.000048 0.031545 -0.001565
# 6 -0.001191 -0.002574 0.001311 -0.004971 -0.001565 0.026300
#
#
# Mechanical properties :
#
#
# Convention : Reuss Voigt Hill
#
# Bulk Modulus (GPa) = 45.50619 62.23857 53.87238
# Shear Modulus (GPa) = 32.25353 37.19104 34.72229
#
# Velocity S-wave (km/s) = 3.64133 3.91012 3.77812
# Velocity P-wave (km/s) = 6.03211 6.78022 6.41708
#
# Compressibility (1/GPa) = 0.02197503
#
# Stress axis : x y z
#
# Youngs Moduli (GPa) = 135.56544 48.18316 75.16258
#
# Poissons Ratio (x) = 0.08233 0.27315
# Poissons Ratio (y) = 0.23163 0.32976
# Poissons Ratio (z) = 0.49267 0.21139
#
# Static dielectric constant tensor:
#      x y z
#    x 1.916270 -0.021280 -0.023400 
#    y -0.021280 2.108040 0.094060 
#    z -0.023400 0.094060 2.023100 
# 
# From -- ./inp_files/303035.got.cif
#   From: 2010.05.17/outbox.cif.g08.bks.cpg/sg2_152_cif.got.tgz:303035.got - 2010.06.03 11:33:40.
