data_PCOD9107750
_publ_section_title
;
Structure prediction by ZEFSAII (Michael W. Deem and Ramdas Pophale) SiO2 
 PCOD9107750
Probable space group: P -1
;
_chemical_formula_sum "Si O2"
_cell_formula_units_Z 12
_cell_length_a 5.108884
_cell_length_b 20.155455
_cell_length_c 5.555075
_cell_angle_alpha 99.873683
_cell_angle_beta 92.499340
_cell_angle_gamma 54.762170
_cell_volume 459.193064
_symmetry_space_group_name_H-M "P -1"
_symmetry_group_IT_number 2
_symmetry_cell_setting 'triclinic'
loop_
_space_group_symop_operation_xyz
x,y,z
-x,-y,-z
loop_
_atom_site_type_symbol
_atom_site_label
_atom_site_fract_x
_atom_site_fract_y
_atom_site_fract_z
Si Si1 0.754452 0.515468 0.288559
Si Si2 0.187459 0.247122 0.651769
Si Si3 0.112792 0.059915 0.028259
Si Si4 0.500963 0.671390 0.077464
Si Si5 0.206578 0.096109 0.551921
Si Si6 0.814434 0.365955 0.334296
O O1 0.730049 0.577271 0.127585
O O2 0.830229 0.425822 0.186181
O O3 0.395287 0.571413 0.419766
O O4 0.000000 0.500000 0.500000
O O5 0.345284 0.278989 0.847681
O O6 0.345935 0.150684 0.588867
O O7 0.829265 0.282240 0.753112
O O8 0.136531 0.289893 0.417397
O O9 0.023713 0.108445 0.802710
O O10 0.018711 0.112071 0.303541
O O11 0.500000 0.000000 0.000000
O O12 0.000000 0.000000 0.000000
O O13 0.385568 0.665005 0.807552
O O14 0.500000 0.000000 0.500000
#
# Coordination Sequence:
#
# PCOD9107750 Si02
#       6
#     2   2   2   2   2   2
#     4  10  20  40  65  94 132 173 234 276 341 418
#     4  11  26  43  64  99 138 175 233 285 349 422
#     4  10  22  42  71 101 133 174 230 289 348 417
#     4  11  25  42  66  98 134 182 225 283 356 408
#     4  10  24  47  72 106 141 188 239 295 356 427
#     4  10  23  41  63  96 134 179 223 288 341 418
#
# _framework density 26.132797
#
# number of rings (size 3 to 8) (size 9 to 14) (size 15 to 20)
#    0.000    1.667    1.667    1.000    4.667    6.000 
#    0.000    0.000    0.000    0.000    0.000    0.000 
#    0.000    0.000    0.000    0.000    0.000    0.000 
#
# Total GULP energy -67182.647734 kJ/mol
# GULP energy per Si atom -5598.553978 kJ/mol
# Density = 2.607332 g / cm^3
# Si number density = 26.132797 Si / 1000 Ang^3
#
#
#
# Elastic Constant Matrix: (Units=GPa)
#
#
# Indices 1 2 3 4 5 6 
#
# 1 116.9914 48.1802 35.7070 7.6670 17.6764 35.0842
# 2 48.1802 181.1705 48.7658 21.6742 13.4530 31.1727
# 3 35.7070 48.7658 163.8610 -11.7984 23.2022 32.8981
# 4 7.6670 21.6742 -11.7984 33.9755 20.5514 7.3296
# 5 17.6764 13.4530 23.2022 20.5514 48.7749 7.8319
# 6 35.0842 31.1727 32.8981 7.3296 7.8319 53.8003
#
#
#
# Elastic Compliance Matrix: (Units=1/GPa)
#
#
# Indices 1 2 3 4 5 6 
#
# 1 0.011636 -0.002011 -0.000045 0.002114 -0.003541 -0.006168
# 2 -0.002011 0.007478 -0.002456 -0.006641 0.002797 -0.001022
# 3 -0.000045 -0.002456 0.009627 0.010517 -0.007552 -0.004768
# 4 0.002114 -0.006641 0.010517 0.053853 -0.025408 -0.007599
# 5 -0.003541 0.002797 -0.007552 -0.025408 0.034716 0.003714
# 6 -0.006168 -0.001022 -0.004768 -0.007599 0.003714 0.026611
#
#
# Mechanical properties :
#
#
# Convention : Reuss Voigt Hill
#
# Bulk Modulus (GPa) = 50.72001 80.81432 65.76717
# Shear Modulus (GPa) = 31.34427 49.26813 40.30620
#
# Velocity S-wave (km/s) = 3.46703 4.34671 3.93155
# Velocity P-wave (km/s) = 5.95632 7.49557 6.76983
#
# Compressibility (1/GPa) = 0.01971608
#
# Stress axis : x y z
#
# Youngs Moduli (GPa) = 85.94281 133.71965 103.87087
#
# Poissons Ratio (x) = 0.26890 0.00470
# Poissons Ratio (y) = 0.17283 0.25515
# Poissons Ratio (z) = 0.00389 0.32848
#
# Static dielectric constant tensor:
#      x y z
#    x 1.639870 -0.429060 0.574120 
#    y -0.429060 1.647510 0.580280 
#    z 0.574120 0.580280 1.150110 
# 
# From -- ./inp_files/4695.got.cif
#   From: 2010.05.17/outbox.cif.g08.bks.cpg/sg2_3_cif.got.tgz:4695.got - 2010.06.03 11:33:40.
