data_PCOD9107114
_publ_section_title
;
Structure prediction by ZEFSAII (Michael W. Deem and Ramdas Pophale) SiO2 
 PCOD9107114
Probable space group: P -1
;
_chemical_formula_sum "Si O2"
_cell_formula_units_Z 16
_cell_length_a 13.281204
_cell_length_b 7.226575
_cell_length_c 14.099488
_cell_angle_alpha 39.864257
_cell_angle_beta 124.975879
_cell_angle_gamma 103.973905
_cell_volume 658.005731
_symmetry_space_group_name_H-M "P -1"
_symmetry_group_IT_number 2
_symmetry_cell_setting 'triclinic'
loop_
_space_group_symop_operation_xyz
x,y,z
-x,-y,-z
loop_
_atom_site_type_symbol
_atom_site_label
_atom_site_fract_x
_atom_site_fract_y
_atom_site_fract_z
Si Si1 0.478874 0.587643 0.342940
Si Si2 0.748339 0.969579 0.233320
Si Si3 0.826061 0.343031 0.295578
Si Si4 0.464834 0.261497 0.004703
Si Si5 0.238841 0.680715 0.424422
Si Si6 0.980086 0.695392 0.723964
Si Si7 0.796609 0.350928 0.797297
Si Si8 0.050122 0.939610 0.828114
O O1 0.500000 0.500000 0.500000
O O2 0.611810 0.359241 0.452520
O O3 0.341739 0.552879 0.259616
O O4 0.465613 0.945756 0.180055
O O5 0.760085 0.661884 0.417656
O O6 0.922246 0.061806 0.521136
O O7 0.593373 0.142046 0.051525
O O8 0.857562 0.905563 0.235206
O O9 0.687244 0.560772 0.181849
O O10 0.924335 0.480909 0.242094
O O11 0.892263 0.103182 0.680234
O O12 0.780817 0.184947 0.244166
O O13 0.500000 0.500000 0.000000
O O14 0.220149 0.770116 0.267873
O O15 0.852105 0.615915 0.700132
O O16 0.066913 0.642194 0.887263
O O17 0.096294 0.870000 0.987110
#
# Coordination Sequence:
#
# PCOD9107114 Si02
#       8
#     2   2   2   2   2   2   2   2
#     4   9  21  39  61  90 126 162 207 255 309 373
#     4   9  18  38  60  89 121 158 203 259 308 363
#     4   9  18  36  63  91 118 158 216 248 307 368
#     4   9  18  35  64  92 119 161 211 255 300 371
#     4  10  20  40  63  86 122 167 204 249 315 382
#     4  10  21  38  61  90 125 162 206 264 306 364
#     4  11  22  41  63  85 129 165 206 253 319 374
#     4  11  23  37  59  95 124 159 207 264 310 365
#
# _framework density 24.315898000000001
#
# number of rings (size 3 to 8) (size 9 to 14) (size 15 to 20)
#    0.000    2.250    1.250    1.125    1.750    3.000 
#    4.500    4.375    0.000    0.000    0.000    0.000 
#    0.000    0.000    0.000    0.000    0.000    0.000 
#
# Total GULP energy -89282.549176 kJ/mol
# GULP energy per Si atom -5580.159324 kJ/mol
# Density = 2.426055 g / cm^3
# Si number density = 24.315898 Si / 1000 Ang^3
#
#
#
# Elastic Constant Matrix: (Units=GPa)
#
#
# Indices 1 2 3 4 5 6 
#
# 1 196.1323 30.3508 39.2037 -0.6595 30.1524 4.4642
# 2 30.3508 40.5696 15.4717 6.0755 1.6202 7.1887
# 3 39.2037 15.4717 61.6238 3.7009 15.0155 -9.7373
# 4 -0.6595 6.0755 3.7009 14.9715 4.0623 2.8479
# 5 30.1524 1.6202 15.0155 4.0623 46.8497 1.5495
# 6 4.4642 7.1887 -9.7373 2.8479 1.5495 40.1613
#
#
#
# Elastic Compliance Matrix: (Units=1/GPa)
#
#
# Indices 1 2 3 4 5 6 
#
# 1 0.006945 -0.004453 -0.002746 0.003958 -0.003753 -0.000776
# 2 -0.004453 0.033497 -0.007170 -0.012198 0.005281 -0.006578
# 3 -0.002746 -0.007170 0.022367 -0.002749 -0.005160 0.007406
# 4 0.003958 -0.012198 -0.002749 0.075430 -0.007653 -0.003977
# 5 -0.003753 0.005281 -0.005160 -0.007653 0.025969 -0.002239
# 6 -0.000776 -0.006578 0.007406 -0.003977 -0.002239 0.028327
#
#
# Mechanical properties :
#
#
# Convention : Reuss Voigt Hill
#
# Bulk Modulus (GPa) = 29.35205 52.04203 40.69704
# Shear Modulus (GPa) = 21.49330 34.61647 28.05488
#
# Velocity S-wave (km/s) = 2.97630 3.77718 3.40040
# Velocity P-wave (km/s) = 4.88963 6.36174 5.67363
#
# Compressibility (1/GPa) = 0.03406917
#
# Stress axis : x y z
#
# Youngs Moduli (GPa) = 143.99827 29.85376 44.70844
#
# Poissons Ratio (x) = 0.13295 0.12276
# Poissons Ratio (y) = 0.64129 0.32058
# Poissons Ratio (z) = 0.39538 0.21406
#
# Static dielectric constant tensor:
#      x y z
#    x 2.032270 0.003870 0.055840 
#    y 0.003870 1.976320 -0.008370 
#    z 0.055840 -0.008370 1.944410 
# 
# From -- ./inp_files/513969.got.cif
#   From: 2010.05.17/outbox.cif.g08.bks.cpg/sg2_257_cif.got.tgz:513969.got - 2010.06.03 11:33:40.
