data_PCOD9107757
_publ_section_title
;
Structure prediction by ZEFSAII (Michael W. Deem and Ramdas Pophale) SiO2 
 PCOD9107757
Probable space group: P -1
;
_chemical_formula_sum "Si O2"
_cell_formula_units_Z 16
_cell_length_a 10.735119
_cell_length_b 9.934568
_cell_length_c 15.785808
_cell_angle_alpha 153.022522
_cell_angle_beta 95.833060
_cell_angle_gamma 77.719301
_cell_volume 731.415393
_symmetry_space_group_name_H-M "P -1"
_symmetry_group_IT_number 2
_symmetry_cell_setting 'triclinic'
loop_
_space_group_symop_operation_xyz
x,y,z
-x,-y,-z
loop_
_atom_site_type_symbol
_atom_site_label
_atom_site_fract_x
_atom_site_fract_y
_atom_site_fract_z
Si Si1 0.844030 0.114769 0.043548
Si Si2 0.367923 0.236192 0.902541
Si Si3 0.354751 0.912498 0.238773
Si Si4 0.359216 0.233379 0.102848
Si Si5 0.742118 0.806355 0.450495
Si Si6 0.726301 0.116121 0.449518
Si Si7 0.108197 0.130416 0.257202
Si Si8 0.007499 0.801678 0.547416
O O1 0.777906 0.442663 0.262768
O O2 0.761671 0.887387 0.940943
O O3 0.833558 0.137427 0.954415
O O4 0.000000 0.000000 0.000000
O O5 0.522240 0.129796 0.835585
O O6 0.314385 0.004185 0.710166
O O7 0.321835 0.585497 0.060304
O O8 0.343524 0.258136 0.013664
O O9 0.370849 0.016001 0.394132
O O10 0.232752 0.172239 0.339714
O O11 0.349830 0.547953 0.330630
O O12 0.500000 0.000000 0.000000
O O13 0.874491 0.894378 0.536992
O O14 0.714630 0.890016 0.398235
O O15 0.874698 0.126919 0.453018
O O16 0.042940 0.439418 0.373776
O O17 0.016827 0.049320 0.276827
#
# Coordination Sequence:
#
# PCOD9107757 Si02
#       8
#     2   2   2   2   2   2   2   2
#     4  12  24  43  69 104 137 188 231 287 349 422
#     4  11  26  45  71 101 138 183 233 285 352 417
#     4  10  23  46  67  99 140 180 231 290 342 423
#     4  12  28  48  69 106 149 176 235 300 349 414
#     4  11  23  44  72  97 138 189 229 282 355 414
#     4  12  25  45  71 104 136 186 230 289 351 414
#     4  10  20  40  65  94 136 178 221 282 350 402
#     4  10  22  40  66  98 138 175 230 292 339 411
#
# _framework density 21.875395000000001
#
# number of rings (size 3 to 8) (size 9 to 14) (size 15 to 20)
#    0.000    1.000    3.750    1.875    3.500    2.000 
#    0.000    3.125    0.000    0.000    0.000    0.000 
#    0.000    0.000    0.000    0.000    0.000    0.000 
#
# Total GULP energy -89309.203060 kJ/mol
# GULP energy per Si atom -5581.825191 kJ/mol
# Density = 2.182561 g / cm^3
# Si number density = 21.875395 Si / 1000 Ang^3
#
#
#
# Elastic Constant Matrix: (Units=GPa)
#
#
# Indices 1 2 3 4 5 6 
#
# 1 60.5146 18.9954 23.6745 0.7740 -10.9646 0.4813
# 2 18.9954 66.3001 21.7780 -23.2981 -2.7694 0.6721
# 3 23.6745 21.7780 129.9099 -21.8148 -0.0099 12.0773
# 4 0.7740 -23.2981 -21.8148 41.4806 0.5834 -7.5613
# 5 -10.9646 -2.7694 -0.0099 0.5834 32.1159 -9.3981
# 6 0.4813 0.6721 12.0773 -7.5613 -9.3981 21.6223
#
#
#
# Elastic Compliance Matrix: (Units=1/GPa)
#
#
# Indices 1 2 3 4 5 6 
#
# 1 0.021700 -0.006583 -0.004141 -0.005757 0.007963 0.003483
# 2 -0.006583 0.021674 -0.000726 0.012754 0.000755 0.004667
# 3 -0.004141 -0.000726 0.009715 0.003854 -0.003097 -0.005310
# 4 -0.005757 0.012754 0.003854 0.035320 0.001604 0.010627
# 5 0.007963 0.000755 -0.003097 0.001604 0.039531 0.019272
# 6 0.003483 0.004667 -0.005310 0.010627 0.019272 0.061085
#
#
# Mechanical properties :
#
#
# Convention : Reuss Voigt Hill
#
# Bulk Modulus (GPa) = 33.12437 42.84671 37.98554
# Shear Modulus (GPa) = 22.52398 31.86221 27.19310
#
# Velocity S-wave (km/s) = 3.21230 3.82059 3.52957
# Velocity P-wave (km/s) = 5.37900 6.25235 5.83204
#
# Compressibility (1/GPa) = 0.03018925
#
# Stress axis : x y z
#
# Youngs Moduli (GPa) = 46.08280 46.13920 102.93848
#
# Poissons Ratio (x) = 0.30372 0.42626
# Poissons Ratio (y) = 0.30335 0.07471
# Poissons Ratio (z) = 0.19083 0.03348
#
# Static dielectric constant tensor:
#      x y z
#    x 1.940820 -0.137270 0.121510 
#    y -0.137270 1.900020 -0.128390 
#    z 0.121510 -0.128390 1.955280 
# 
# From -- ./inp_files/516467.got.cif
#   From: 2010.05.17/outbox.cif.g08.bks.cpg/sg2_259_cif.got.tgz:516467.got - 2010.06.03 11:33:40.
