data_PCOD9107323
_publ_section_title
;
Structure prediction by ZEFSAII (Michael W. Deem and Ramdas Pophale) SiO2 
 PCOD9107323
Probable space group: P -1
;
_chemical_formula_sum "Si O2"
_cell_formula_units_Z 10
_cell_length_a 9.915240
_cell_length_b 10.652113
_cell_length_c 8.845810
_cell_angle_alpha 41.866910
_cell_angle_beta 43.164280
_cell_angle_gamma 62.411925
_cell_volume 419.948791
_symmetry_space_group_name_H-M "P -1"
_symmetry_group_IT_number 2
_symmetry_cell_setting 'triclinic'
loop_
_space_group_symop_operation_xyz
x,y,z
-x,-y,-z
loop_
_atom_site_type_symbol
_atom_site_label
_atom_site_fract_x
_atom_site_fract_y
_atom_site_fract_z
Si Si1 0.962623 0.562506 0.644261
Si Si2 0.698656 0.835654 0.120926
Si Si3 0.651185 0.240203 0.342793
Si Si4 0.342615 0.745705 0.326010
Si Si5 0.094495 0.016327 0.741560
O O1 0.905536 0.772331 0.505070
O O2 0.000000 0.500000 0.500000
O O3 0.178118 0.584686 0.532094
O O4 0.781767 0.418456 0.994838
O O5 0.583090 0.757339 0.438915
O O6 0.574687 0.723413 0.183680
O O7 0.934281 0.864574 0.912977
O O8 0.659413 0.055383 0.937616
O O9 0.719463 0.229800 0.471378
O O10 0.698610 0.055875 0.382484
O O11 0.000000 0.000000 0.000000
#
# Coordination Sequence:
#
# PCOD9107323 Si02
#       5
#     2   2   2   2   2
#     4  11  21  37  61  89 122 152 191 247 289 346
#     4   8  19  38  61  89 113 153 201 239 284 349
#     4  10  20  40  64  84 116 160 193 239 296 335
#     4   8  18  40  61  85 120 151 195 244 288 341
#     4  11  22  39  61  86 121 155 196 238 296 346
#
# _framework density 23.812428000000001
#
# number of rings (size 3 to 8) (size 9 to 14) (size 15 to 20)
#    1.200    1.200    2.000    0.600    0.000    4.000 
#    0.000    6.000    0.000    0.000    0.000    0.000 
#    0.000    0.000    0.000    0.000    0.000    0.000 
#
# Total GULP energy -55805.712676 kJ/mol
# GULP energy per Si atom -5580.571268 kJ/mol
# Density = 2.375823 g / cm^3
# Si number density = 23.812428 Si / 1000 Ang^3
#
#
#
# Elastic Constant Matrix: (Units=GPa)
#
#
# Indices 1 2 3 4 5 6 
#
# 1 50.4450 11.6609 29.1325 2.3017 -6.1665 9.4924
# 2 11.6609 82.2563 40.9235 -5.9238 -0.8707 -4.9631
# 3 29.1325 40.9235 146.9449 -12.5232 18.0591 -6.0264
# 4 2.3017 -5.9238 -12.5232 34.4785 -1.8558 5.1343
# 5 -6.1665 -0.8707 18.0591 -1.8558 44.5238 -0.8430
# 6 9.4924 -4.9631 -6.0264 5.1343 -0.8430 30.1164
#
#
#
# Elastic Compliance Matrix: (Units=1/GPa)
#
#
# Indices 1 2 3 4 5 6 
#
# 1 0.026213 -0.001338 -0.006128 -0.002536 0.005812 -0.009114
# 2 -0.001338 0.014446 -0.003805 0.000996 0.001719 0.001919
# 3 -0.006128 -0.003805 0.010016 0.002731 -0.004821 0.002708
# 4 -0.002536 0.000996 0.002731 0.030884 -0.000223 -0.003762
# 5 0.005812 0.001719 -0.004821 -0.000223 0.025211 -0.001769
# 6 -0.009114 0.001919 0.002708 -0.003762 -0.001769 0.037527
#
#
# Mechanical properties :
#
#
# Convention : Reuss Voigt Hill
#
# Bulk Modulus (GPa) = 35.54743 49.23111 42.38927
# Shear Modulus (GPa) = 28.37392 35.01903 31.69648
#
# Velocity S-wave (km/s) = 3.45564 3.83903 3.65237
# Velocity P-wave (km/s) = 5.55720 6.35376 5.96878
#
# Compressibility (1/GPa) = 0.02813143
#
# Stress axis : x y z
#
# Youngs Moduli (GPa) = 38.14873 69.22440 99.83751
#
# Poissons Ratio (x) = 0.09263 0.61184
# Poissons Ratio (y) = 0.05105 0.37992
# Poissons Ratio (z) = 0.23379 0.26343
#
# Static dielectric constant tensor:
#      x y z
#    x 1.973870 -0.020800 -0.069140 
#    y -0.020800 1.881940 -0.035880 
#    z -0.069140 -0.035880 1.898760 
# 
# From -- ./inp_files/58275.got.cif
#   From: 2010.05.17/outbox.cif.g08.bks.cpg/sg2_30_cif.got.tgz:58275.got - 2010.06.03 11:33:40.
