data_PCOD9107543
_publ_section_title
;
Structure prediction by ZEFSAII (Michael W. Deem and Ramdas Pophale) SiO2 
 PCOD9107543
Probable space group: P -1
;
_chemical_formula_sum "Si O2"
_cell_formula_units_Z 16
_cell_length_a 18.169779
_cell_length_b 8.516151
_cell_length_c 9.722159
_cell_angle_alpha 93.739934
_cell_angle_beta 63.997138
_cell_angle_gamma 142.429236
_cell_volume 706.659324
_symmetry_space_group_name_H-M "P -1"
_symmetry_group_IT_number 2
_symmetry_cell_setting 'triclinic'
loop_
_space_group_symop_operation_xyz
x,y,z
-x,-y,-z
loop_
_atom_site_type_symbol
_atom_site_label
_atom_site_fract_x
_atom_site_fract_y
_atom_site_fract_z
Si Si1 0.906074 0.855705 0.710218
Si Si2 0.567660 0.357665 0.854869
Si Si3 0.741308 0.148575 0.443648
Si Si4 0.172578 0.858694 0.880548
Si Si5 0.617182 0.275176 0.526935
Si Si6 0.898980 0.929005 0.193001
Si Si7 0.092689 0.773521 0.230028
Si Si8 0.351099 0.144475 0.234103
O O1 0.723908 0.539115 0.805504
O O2 0.925163 0.067254 0.757528
O O3 0.000000 0.000000 0.500000
O O4 0.983833 0.869224 0.760333
O O5 0.543788 0.236802 0.719824
O O6 0.597607 0.591889 0.813708
O O7 0.439790 0.161656 0.068734
O O8 0.714540 0.059115 0.302293
O O9 0.714169 0.285265 0.504021
O O10 0.924932 0.420016 0.332318
O O11 0.639393 0.882488 0.616405
O O12 0.154409 0.997732 0.831285
O O13 0.208346 0.924069 0.016244
O O14 0.000000 0.500000 0.000000
O O15 0.743059 0.588831 0.360290
O O16 0.500000 0.000000 0.500000
O O17 0.000000 0.000000 0.000000
O O18 0.174397 0.857632 0.307430
#
# Coordination Sequence:
#
# PCOD9107543 Si02
#       8
#     2   2   2   2   2   2   2   2
#     4  11  20  39  72  96 130 174 229 286 331 408
#     4  10  23  46  66  96 138 179 232 276 358 405
#     4  11  22  42  63 100 134 173 233 274 341 407
#     4  10  22  40  64 101 139 170 231 288 339 407
#     4  12  27  46  67 101 148 184 228 286 349 423
#     4  12  22  44  71 102 134 184 235 285 346 405
#     4  10  20  40  64  98 133 173 222 284 337 402
#     4  10  23  41  71  97 132 177 227 285 344 410
#
# _framework density 22.641745
#
# number of rings (size 3 to 8) (size 9 to 14) (size 15 to 20)
#    0.000    1.250    3.750    1.875    3.500    1.500 
#    6.750    1.250    0.000    0.000    0.000    0.000 
#    0.000    0.000    0.000    0.000    0.000    0.000 
#
# Total GULP energy -89370.077280 kJ/mol
# GULP energy per Si atom -5585.629830 kJ/mol
# Density = 2.259021 g / cm^3
# Si number density = 22.641745 Si / 1000 Ang^3
#
#
#
# Elastic Constant Matrix: (Units=GPa)
#
#
# Indices 1 2 3 4 5 6 
#
# 1 52.9482 5.3289 21.5921 -3.0586 5.2542 1.0915
# 2 5.3289 54.9555 12.4034 11.2118 -1.9271 12.7172
# 3 21.5921 12.4034 138.8646 34.9151 0.9291 -5.5296
# 4 -3.0586 11.2118 34.9151 38.2488 -4.9671 1.9625
# 5 5.2542 -1.9271 0.9291 -4.9671 38.9163 2.7687
# 6 1.0915 12.7172 -5.5296 1.9625 2.7687 31.6840
#
#
#
# Elastic Compliance Matrix: (Units=1/GPa)
#
#
# Indices 1 2 3 4 5 6 
#
# 1 0.021691 -0.002206 -0.004861 0.006605 -0.002012 -0.000943
# 2 -0.002206 0.021653 -0.000584 -0.005385 0.001301 -0.008497
# 3 -0.004861 -0.000584 0.010732 -0.010319 -0.001160 0.003015
# 4 0.006605 -0.005385 -0.010319 0.038346 0.004168 -0.002606
# 5 -0.002012 0.001301 -0.001160 0.004168 0.026824 -0.003258
# 6 -0.000943 -0.008497 0.003015 -0.002606 -0.003258 0.035977
#
#
# Mechanical properties :
#
#
# Convention : Reuss Voigt Hill
#
# Bulk Modulus (GPa) = 25.79032 36.15746 30.97389
# Shear Modulus (GPa) = 27.25561 35.59943 31.42752
#
# Velocity S-wave (km/s) = 3.47331 3.96952 3.72968
# Velocity P-wave (km/s) = 5.24410 6.08387 5.67952
#
# Compressibility (1/GPa) = 0.03877423
#
# Stress axis : x y z
#
# Youngs Moduli (GPa) = 46.10171 46.18318 93.18277
#
# Poissons Ratio (x) = 0.10189 0.45293
# Poissons Ratio (y) = 0.10171 0.05442
# Poissons Ratio (z) = 0.22408 0.02697
#
# Static dielectric constant tensor:
#      x y z
#    x 1.831100 0.021830 -0.025790 
#    y 0.021830 1.854200 0.006460 
#    z -0.025790 0.006460 1.874380 
# 
# From -- ./inp_files/329157.got.cif
#   From: 2010.05.17/outbox.cif.g08.bks.cpg/sg2_165_cif.got.tgz:329157.got - 2010.06.03 11:33:40.
