data_PCOD9107145
_publ_section_title
;
Structure prediction by ZEFSAII (Michael W. Deem and Ramdas Pophale) SiO2 
 PCOD9107145
Probable space group: P -1
;
_chemical_formula_sum "Si O2"
_cell_formula_units_Z 12
_cell_length_a 13.582536
_cell_length_b 20.823560
_cell_length_c 25.692350
_cell_angle_alpha 12.816195
_cell_angle_beta 20.099131
_cell_angle_gamma 22.421076
_cell_volume 550.313780
_symmetry_space_group_name_H-M "P -1"
_symmetry_group_IT_number 2
_symmetry_cell_setting 'triclinic'
loop_
_space_group_symop_operation_xyz
x,y,z
-x,-y,-z
loop_
_atom_site_type_symbol
_atom_site_label
_atom_site_fract_x
_atom_site_fract_y
_atom_site_fract_z
Si Si1 0.219285 0.156279 0.046292
Si Si2 0.726066 0.346705 0.063736
Si Si3 0.306352 0.819341 0.498680
Si Si4 0.157157 0.118791 0.878057
Si Si5 0.625394 0.065063 0.237191
Si Si6 0.177570 0.612026 0.553704
O O1 0.282539 0.480589 0.770956
O O2 0.924044 0.188720 0.134157
O O3 0.500000 0.000000 0.000000
O O4 0.166021 0.954358 0.281089
O O5 0.485651 0.612983 0.986751
O O6 0.953435 0.506703 0.789248
O O7 0.587814 0.121397 0.272599
O O8 0.512704 0.934033 0.261122
O O9 0.446809 0.863237 0.450901
O O10 0.000000 0.000000 0.500000
O O11 0.130323 0.453538 0.647115
O O12 0.970076 0.982227 0.123623
O O13 0.000000 0.000000 0.000000
O O14 0.500000 0.500000 0.500000
#
# Coordination Sequence:
#
# PCOD9107145 Si02
#       6
#     2   2   2   2   2   2
#     4  12  22  38  65  95 124 166 210 254 316 367
#     4  10  20  40  63  88 128 162 209 254 310 370
#     4  11  20  37  65  95 126 161 210 260 306 369
#     4   9  19  36  60  88 119 165 205 240 316 364
#     4   9  20  38  63  88 125 170 197 259 313 365
#     4  11  21  37  63  93 121 163 208 256 306 369
#
# _framework density 21.805743
#
# number of rings (size 3 to 8) (size 9 to 14) (size 15 to 20)
#    0.000    1.667    5.000    0.000    0.000    0.000 
#    0.000   10.833    0.000    0.000    0.000    0.000 
#    0.000    0.000    0.000    0.000    0.000    0.000 
#
# Total GULP energy -66859.491359 kJ/mol
# GULP energy per Si atom -5571.624280 kJ/mol
# Density = 2.175611 g / cm^3
# Si number density = 21.805743 Si / 1000 Ang^3
#
#
#
# Elastic Constant Matrix: (Units=GPa)
#
#
# Indices 1 2 3 4 5 6 
#
# 1 76.1917 21.3359 44.3218 -14.7350 -22.5696 -17.4876
# 2 21.3359 130.0494 48.4844 11.8133 -6.2674 -13.9558
# 3 44.3218 48.4844 86.9928 -7.6108 -20.2761 -8.9112
# 4 -14.7350 11.8133 -7.6108 33.7463 6.0246 -3.4149
# 5 -22.5696 -6.2674 -20.2761 6.0246 44.2647 -3.3144
# 6 -17.4876 -13.9558 -8.9112 -3.4149 -3.3144 35.6138
#
#
#
# Elastic Compliance Matrix: (Units=1/GPa)
#
#
# Indices 1 2 3 4 5 6 
#
# 1 0.025182 0.000093 -0.008948 0.008626 0.008462 0.011777
# 2 0.000093 0.010671 -0.006318 -0.004811 -0.000521 0.002136
# 3 -0.008948 -0.006318 0.020464 0.002167 0.003531 -0.001213
# 4 0.008626 -0.004811 0.002167 0.036171 0.000265 0.006386
# 5 0.008462 -0.000521 0.003531 0.000265 0.028979 0.007557
# 6 0.011777 0.002136 -0.001213 0.006386 0.007557 0.035711
#
#
# Mechanical properties :
#
#
# Convention : Reuss Voigt Hill
#
# Bulk Modulus (GPa) = 38.50662 57.94645 48.22654
# Shear Modulus (GPa) = 25.48660 34.66442 30.07551
#
# Velocity S-wave (km/s) = 3.42248 3.99142 3.71785
# Velocity P-wave (km/s) = 5.77193 6.91907 6.37137
#
# Compressibility (1/GPa) = 0.02596956
#
# Stress axis : x y z
#
# Youngs Moduli (GPa) = 39.71077 93.71448 48.86685
#
# Poissons Ratio (x) = -0.00869 0.43728
# Poissons Ratio (y) = -0.00368 0.30874
# Poissons Ratio (z) = 0.35534 0.59208
#
# Static dielectric constant tensor:
#      x y z
#    x 1.838850 0.033190 -0.018740 
#    y 0.033190 1.879050 0.035470 
#    z -0.018740 0.035470 1.820380 
# 
# From -- ./inp_files/301574.got.cif
#   From: 2010.05.17/outbox.cif.g08.bks.cpg/sg2_151_cif.got.tgz:301574.got - 2010.06.03 11:33:40.
