data_PCOD9107025
_publ_section_title
;
Structure prediction by ZEFSAII (Michael W. Deem and Ramdas Pophale) SiO2 
 PCOD9107025
Probable space group: P -1
;
_chemical_formula_sum "Si O2"
_cell_formula_units_Z 13
_cell_length_a 15.187517
_cell_length_b 6.777313
_cell_length_c 15.775675
_cell_angle_alpha 127.216802
_cell_angle_beta 153.698061
_cell_angle_gamma 65.864253
_cell_volume 530.514717
_symmetry_space_group_name_H-M "P -1"
_symmetry_group_IT_number 2
_symmetry_cell_setting 'triclinic'
loop_
_space_group_symop_operation_xyz
x,y,z
-x,-y,-z
loop_
_atom_site_type_symbol
_atom_site_label
_atom_site_fract_x
_atom_site_fract_y
_atom_site_fract_z
Si Si1 0.978735 0.275576 0.581263
Si Si2 0.548423 0.463103 0.404546
Si Si3 0.772516 0.377694 0.728956
Si Si4 0.130645 0.978194 0.404774
Si Si5 0.719243 0.116360 0.038928
Si Si6 0.500000 0.000000 0.000000
Si Si7 0.618300 0.476787 0.273545
O O1 0.160383 0.573152 0.805125
O O2 0.911994 0.227799 0.609499
O O3 0.768465 0.292350 0.351163
O O4 0.000000 0.000000 0.500000
O O5 0.730915 0.532928 0.651648
O O6 0.396257 0.611015 0.344367
O O7 0.616508 0.539737 0.386747
O O8 0.421782 0.135614 0.208577
O O9 0.773123 0.110408 0.617087
O O10 0.000000 0.500000 0.000000
O O11 0.298754 0.271606 0.648445
O O12 0.918962 0.030591 0.212181
O O13 0.574037 0.108493 0.992117
O O14 0.406513 0.245876 0.001222
#
# Coordination Sequence:
#
# PCOD9107025 Si02
#       7
#     2   2   2   2   2   1   2
#     4  11  22  40  66  97 134 181 226 265 330 400
#     4  10  22  44  67 101 137 167 225 283 329 397
#     4  11  22  43  73  97 132 175 223 276 342 403
#     4  11  22  42  66  97 130 179 223 267 339 395
#     4  10  22  42  66  97 139 175 217 280 325 392
#     4  10  20  40  62  92 136 176 212 268 330 380
#     4  10  22  41  64  96 138 173 219 280 324 396
#
# _framework density 24.504501000000001
#
# number of rings (size 3 to 8) (size 9 to 14) (size 15 to 20)
#    0.000    1.538    3.077    1.846    0.000    3.077 
#    8.308    9.231    0.000    0.000    0.000    0.000 
#    0.000    0.000    0.000    0.000    0.000    0.000 
#
# Total GULP energy -72441.249384 kJ/mol
# GULP energy per Si atom -5572.403799 kJ/mol
# Density = 2.444873 g / cm^3
# Si number density = 24.504501 Si / 1000 Ang^3
#
#
#
# Elastic Constant Matrix: (Units=GPa)
#
#
# Indices 1 2 3 4 5 6 
#
# 1 131.0531 60.0175 19.9192 5.4385 -5.1107 -10.8471
# 2 60.0175 143.9869 50.1275 17.1539 12.3478 3.8732
# 3 19.9192 50.1275 115.2033 4.0076 -3.1356 17.6568
# 4 5.4385 17.1539 4.0076 46.7919 6.0553 13.5159
# 5 -5.1107 12.3478 -3.1356 6.0553 29.9869 5.0515
# 6 -10.8471 3.8732 17.6568 13.5159 5.0515 44.4398
#
#
#
# Elastic Compliance Matrix: (Units=1/GPa)
#
#
# Indices 1 2 3 4 5 6 
#
# 1 0.010051 -0.004403 -0.000131 -0.000753 0.003200 0.002754
# 2 -0.004403 0.011024 -0.004255 -0.002794 -0.005358 0.001114
# 3 -0.000131 -0.004255 0.011368 0.001618 0.003444 -0.005061
# 4 -0.000753 -0.002794 0.001618 0.024948 -0.002518 -0.007884
# 5 0.003200 -0.005358 0.003444 -0.002518 0.037579 -0.003626
# 6 0.002754 0.001114 -0.005061 -0.007884 -0.003626 0.027898
#
#
# Mechanical properties :
#
#
# Convention : Reuss Voigt Hill
#
# Bulk Modulus (GPa) = 67.27158 72.26353 69.76756
# Shear Modulus (GPa) = 34.38814 41.58899 37.98857
#
# Velocity S-wave (km/s) = 3.75018 4.12418 3.94162
# Velocity P-wave (km/s) = 6.80178 7.22720 7.01771
#
# Compressibility (1/GPa) = 0.01486512
#
# Stress axis : x y z
#
# Youngs Moduli (GPa) = 99.49636 90.71262 87.97008
#
# Poissons Ratio (x) = 0.39937 0.01152
# Poissons Ratio (y) = 0.43805 0.37430
# Poissons Ratio (z) = 0.01303 0.38597
#
# Static dielectric constant tensor:
#      x y z
#    x 2.057140 -0.178130 -0.182690 
#    y -0.178130 2.289880 0.841690 
#    z -0.182690 0.841690 5.014380 
# 
# From -- ./inp_files/525479.got.cif
#   From: 2010.05.17/outbox.cif.g08.bks.cpg/sg2_263_cif.got.tgz:525479.got - 2010.06.03 11:33:40.
