data_PCOD9107162
_publ_section_title
;
Structure prediction by ZEFSAII (Michael W. Deem and Ramdas Pophale) SiO2 
 PCOD9107162
Probable space group: P -1
;
_chemical_formula_sum "Si O2"
_cell_formula_units_Z 16
_cell_length_a 12.243226
_cell_length_b 11.424365
_cell_length_c 8.661332
_cell_angle_alpha 58.232869
_cell_angle_beta 61.404535
_cell_angle_gamma 37.729153
_cell_volume 625.753152
_symmetry_space_group_name_H-M "P -1"
_symmetry_group_IT_number 2
_symmetry_cell_setting 'triclinic'
loop_
_space_group_symop_operation_xyz
x,y,z
-x,-y,-z
loop_
_atom_site_type_symbol
_atom_site_label
_atom_site_fract_x
_atom_site_fract_y
_atom_site_fract_z
Si Si1 0.329019 0.782025 0.069077
Si Si2 0.154768 0.436282 0.049205
Si Si3 0.705147 0.507057 0.330678
Si Si4 0.739693 0.904581 0.295514
Si Si5 0.785188 0.146964 0.546805
Si Si6 0.263873 0.571041 0.085226
Si Si7 0.402015 0.274152 0.469330
Si Si8 0.098606 0.220310 0.420561
O O1 0.539563 0.587492 0.022150
O O2 0.270977 0.979890 0.915934
O O3 0.284676 0.798293 0.267427
O O4 0.227603 0.751596 0.049291
O O5 0.123329 0.604329 0.046193
O O6 0.188893 0.290200 0.251608
O O7 0.308557 0.363635 0.878344
O O8 0.000000 0.500000 0.000000
O O9 0.704267 0.350669 0.384256
O O10 0.567393 0.650446 0.459144
O O11 0.900475 0.368573 0.377818
O O12 0.707460 0.772048 0.366099
O O13 0.902348 0.784290 0.390484
O O14 0.574071 0.082145 0.395116
O O15 0.785703 0.997366 0.573028
O O16 0.000000 0.000000 0.500000
O O17 0.296528 0.447846 0.295388
#
# Coordination Sequence:
#
# PCOD9107162 Si02
#       8
#     2   2   2   2   2   2   2   2
#     4  10  22  39  66  97 124 170 211 268 325 376
#     4  10  22  41  62  91 125 170 214 260 315 387
#     4  10  22  40  62  86 123 174 216 255 317 384
#     4  10  22  38  62  95 126 159 211 269 322 377
#     4  10  22  42  61  87 132 167 212 264 314 385
#     4  10  20  41  66  92 130 164 220 265 314 387
#     4  10  20  40  63  89 126 166 212 263 318 383
#     4  10  22  41  59  89 128 167 211 266 318 378
#
# _framework density 25.569185999999998
#
# number of rings (size 3 to 8) (size 9 to 14) (size 15 to 20)
#    0.000    2.000    2.500    0.000    3.500    1.500 
#    0.000    5.000    0.000    0.000    0.000    0.000 
#    0.000    0.000    0.000    0.000    0.000    0.000 
#
# Total GULP energy -89500.320995 kJ/mol
# GULP energy per Si atom -5593.770062 kJ/mol
# Density = 2.551099 g / cm^3
# Si number density = 25.569186 Si / 1000 Ang^3
#
#
#
# Elastic Constant Matrix: (Units=GPa)
#
#
# Indices 1 2 3 4 5 6 
#
# 1 89.9614 15.1211 9.0204 -5.4333 -13.8367 17.8679
# 2 15.1211 103.7811 20.7911 7.9844 -23.5156 1.6943
# 3 9.0204 20.7911 136.8897 -9.2365 -18.7296 4.4022
# 4 -5.4333 7.9844 -9.2365 30.3648 11.8687 2.6845
# 5 -13.8367 -23.5156 -18.7296 11.8687 33.4469 -6.8589
# 6 17.8679 1.6943 4.4022 2.6845 -6.8589 42.5240
#
#
#
# Elastic Compliance Matrix: (Units=1/GPa)
#
#
# Indices 1 2 3 4 5 6 
#
# 1 0.012878 -0.001375 0.000019 0.002111 0.002582 -0.005075
# 2 -0.001375 0.013417 -0.000992 -0.009024 0.012057 0.002660
# 3 0.000019 -0.000992 0.008003 0.001486 0.003187 -0.000377
# 4 0.002111 -0.009024 0.001486 0.045457 -0.022233 -0.007137
# 5 0.002582 0.012057 0.003187 -0.022233 0.050693 0.007685
# 6 -0.005075 0.002660 -0.000377 -0.007137 0.007685 0.027272
#
#
# Mechanical properties :
#
#
# Convention : Reuss Voigt Hill
#
# Bulk Modulus (GPa) = 33.78061 46.72192 40.25126
# Shear Modulus (GPa) = 29.02214 40.31379 34.66797
#
# Velocity S-wave (km/s) = 3.37270 3.97502 3.68618
# Velocity P-wave (km/s) = 5.32981 6.27536 5.82181
#
# Compressibility (1/GPa) = 0.02960279
#
# Stress axis : x y z
#
# Youngs Moduli (GPa) = 77.65429 74.52985 124.95223
#
# Poissons Ratio (x) = 0.10246 -0.00239
# Poissons Ratio (y) = 0.10675 0.12396
# Poissons Ratio (z) = -0.00148 0.07394
#
# Static dielectric constant tensor:
#      x y z
#    x 2.142180 -0.067110 -0.017600 
#    y -0.067110 1.975590 0.033350 
#    z -0.017600 0.033350 1.983920 
# 
# From -- ./inp_files/306710.got.cif
#   From: 2010.05.17/outbox.cif.g08.bks.cpg/sg2_154_cif.got.tgz:306710.got - 2010.06.03 11:33:40.
