data_PCOD9107404
_publ_section_title
;
Structure prediction by ZEFSAII (Michael W. Deem and Ramdas Pophale) SiO2 
 PCOD9107404
Probable space group: P -1
;
_chemical_formula_sum "Si O2"
_cell_formula_units_Z 16
_cell_length_a 9.610593
_cell_length_b 20.289808
_cell_length_c 10.958852
_cell_angle_alpha 147.414686
_cell_angle_beta 85.363322
_cell_angle_gamma 70.588554
_cell_volume 763.867599
_symmetry_space_group_name_H-M "P -1"
_symmetry_group_IT_number 2
_symmetry_cell_setting 'triclinic'
loop_
_space_group_symop_operation_xyz
x,y,z
-x,-y,-z
loop_
_atom_site_type_symbol
_atom_site_label
_atom_site_fract_x
_atom_site_fract_y
_atom_site_fract_z
Si Si1 0.062067 0.315979 0.687910
Si Si2 0.161138 0.515753 0.265071
Si Si3 0.557739 0.233610 0.616621
Si Si4 0.811922 0.584564 0.486014
Si Si5 0.399342 0.449429 0.359160
Si Si6 0.764972 0.177966 0.751435
Si Si7 0.468178 0.006379 0.867587
Si Si8 0.312044 0.511895 0.863561
O O1 0.020592 0.317264 0.550547
O O2 0.298154 0.135632 0.424748
O O3 0.000000 0.500000 0.000000
O O4 0.900889 0.342184 0.816541
O O5 0.250644 0.555835 0.416073
O O6 0.051912 0.470056 0.267182
O O7 0.349840 0.359761 0.914966
O O8 0.732454 0.147240 0.569729
O O9 0.496911 0.371103 0.729387
O O10 0.605230 0.078653 0.300881
O O11 0.750505 0.525186 0.497754
O O12 0.716375 0.589859 0.376426
O O13 0.686870 0.788332 0.846080
O O14 0.500000 0.500000 0.500000
O O15 0.597194 0.243656 0.967977
O O16 0.690792 0.367365 0.031848
O O17 0.000000 0.000000 0.500000
O O18 0.500000 0.000000 0.000000
#
# Coordination Sequence:
#
# PCOD9107404 Si02
#       8
#     2   2   2   2   2   2   2   2
#     4  11  18  37  63  95 120 156 206 265 320 377
#     4  10  20  40  64  90 123 163 213 254 319 380
#     4  10  21  42  67  95 123 166 215 260 322 384
#     4  12  22  38  65  98 125 163 208 267 323 368
#     4  11  25  44  61  85 129 175 214 250 311 391
#     4  11  26  45  61  89 130 176 216 260 309 381
#     4  12  20  35  62  99 131 146 204 277 325 361
#     4  11  20  40  70  88 123 169 213 257 324 381
#
# _framework density 20.946038000000001
#
# number of rings (size 3 to 8) (size 9 to 14) (size 15 to 20)
#    0.000    1.000    7.500    0.750    1.750    1.000 
#    2.250    1.250    0.000    2.250    0.000    0.000 
#    0.000    0.000    0.000    0.000    0.000    0.000 
#
# Total GULP energy -89194.324118 kJ/mol
# GULP energy per Si atom -5574.645257 kJ/mol
# Density = 2.089836 g / cm^3
# Si number density = 20.946038 Si / 1000 Ang^3
#
#
#
# Elastic Constant Matrix: (Units=GPa)
#
#
# Indices 1 2 3 4 5 6 
#
# 1 71.5479 42.6120 15.5164 4.7618 7.7247 -16.2518
# 2 42.6120 99.9048 29.8826 -8.3032 2.4259 -22.9580
# 3 15.5164 29.8826 59.8513 1.7792 11.4203 -12.1445
# 4 4.7618 -8.3032 1.7792 26.8636 -6.2817 -2.2383
# 5 7.7247 2.4259 11.4203 -6.2817 39.7062 -9.3289
# 6 -16.2518 -22.9580 -12.1445 -2.2383 -9.3289 52.7501
#
#
#
# Elastic Compliance Matrix: (Units=1/GPa)
#
#
# Indices 1 2 3 4 5 6 
#
# 1 0.020592 -0.009149 0.000585 -0.007445 -0.004466 0.001391
# 2 -0.009149 0.017617 -0.006748 0.009104 0.005164 0.004595
# 3 0.000585 -0.006748 0.021481 -0.005060 -0.006486 0.000827
# 4 -0.007445 0.009104 -0.005060 0.044472 0.010376 0.004226
# 5 -0.004466 0.005164 -0.006486 0.010376 0.030469 0.005207
# 6 0.001391 0.004595 0.000827 0.004226 0.005207 0.022676
#
#
# Mechanical properties :
#
#
# Convention : Reuss Voigt Hill
#
# Bulk Modulus (GPa) = 34.40204 45.25845 39.83024
# Shear Modulus (GPa) = 25.30098 33.41683 29.35891
#
# Velocity S-wave (km/s) = 3.47927 3.99855 3.74792
# Velocity P-wave (km/s) = 5.70966 6.55530 6.14704
#
# Compressibility (1/GPa) = 0.02906804
#
# Stress axis : x y z
#
# Youngs Moduli (GPa) = 48.56195 56.76258 46.55196
#
# Poissons Ratio (x) = 0.51931 -0.02724
# Poissons Ratio (y) = 0.44428 0.31413
# Poissons Ratio (z) = -0.02842 0.38303
#
# Static dielectric constant tensor:
#      x y z
#    x 1.841110 0.025330 -0.012930 
#    y 0.025330 1.824050 -0.032320 
#    z -0.012930 -0.032320 1.748920 
# 
# From -- ./inp_files/405097.got.cif
#   From: 2010.05.17/outbox.cif.g08.bks.cpg/sg2_203_cif.got.tgz:405097.got - 2010.06.03 11:33:40.
