data_PCOD9107552
_publ_section_title
;
Structure prediction by ZEFSAII (Michael W. Deem and Ramdas Pophale) SiO2 
 PCOD9107552
Probable space group: P -1
;
_chemical_formula_sum "Si O2"
_cell_formula_units_Z 16
_cell_length_a 5.487680
_cell_length_b 5.069016
_cell_length_c 26.149737
_cell_angle_alpha 101.473842
_cell_angle_beta 62.921642
_cell_angle_gamma 93.904022
_cell_volume 634.521777
_symmetry_space_group_name_H-M "P -1"
_symmetry_group_IT_number 2
_symmetry_cell_setting 'triclinic'
loop_
_space_group_symop_operation_xyz
x,y,z
-x,-y,-z
loop_
_atom_site_type_symbol
_atom_site_label
_atom_site_fract_x
_atom_site_fract_y
_atom_site_fract_z
Si Si1 0.199957 0.441052 0.317779
Si Si2 0.379654 0.525032 0.595048
Si Si3 0.093937 0.068415 0.123922
Si Si4 0.785011 0.646103 0.092114
Si Si5 0.526076 0.677405 0.820497
Si Si6 0.263921 0.995630 0.377473
Si Si7 0.182556 0.739596 0.512473
Si Si8 0.266564 0.276162 0.009439
O O1 0.342622 0.402845 0.248739
O O2 0.193210 0.155079 0.337117
O O3 0.883779 0.539533 0.349139
O O4 0.336493 0.685956 0.345706
O O5 0.526450 0.785455 0.613385
O O6 0.283829 0.629350 0.552877
O O7 0.568082 0.263697 0.551412
O O8 0.784816 0.206190 0.155798
O O9 0.262051 0.146512 0.160542
O O10 0.267794 0.117612 0.056885
O O11 0.006026 0.762913 0.114460
O O12 0.524128 0.571743 0.146352
O O13 0.949628 0.386545 0.045296
O O14 0.717126 0.820622 0.054909
O O15 0.009155 0.008931 0.442680
O O16 0.000000 0.500000 0.500000
O O17 0.500000 0.500000 0.000000
#
# Coordination Sequence:
#
# PCOD9107552 Si02
#       8
#     2   2   2   2   2   2   2   2
#     4  11  26  43  66  96 133 179 236 286 341 412
#     4   9  19  39  67  97 133 180 217 286 346 415
#     4  11  25  44  68  97 130 182 222 280 353 405
#     4  10  23  41  65  97 135 175 216 285 342 420
#     4  11  27  44  64  97 132 176 238 282 339 416
#     4  10  23  43  65  99 131 177 228 285 348 413
#     4   8  16  37  65  99 136 168 223 276 349 417
#     4  10  20  40  65 100 135 165 223 276 343 421
#
# _framework density 25.215841000000001
#
# number of rings (size 3 to 8) (size 9 to 14) (size 15 to 20)
#    0.000    2.000    1.250    0.375    5.250    3.000 
#    0.000   21.250    0.000    0.000    0.000    0.000 
#    0.000    0.000    0.000    0.000    0.000    0.000 
#
# Total GULP energy -89363.015158 kJ/mol
# GULP energy per Si atom -5585.188447 kJ/mol
# Density = 2.515845 g / cm^3
# Si number density = 25.215841 Si / 1000 Ang^3
#
#
#
# Elastic Constant Matrix: (Units=GPa)
#
#
# Indices 1 2 3 4 5 6 
#
# 1 113.6364 18.6891 47.4724 3.7941 -0.9910 12.2935
# 2 18.6891 94.2679 31.6121 -1.7941 0.4003 12.4768
# 3 47.4724 31.6121 207.8450 -13.6189 -12.2184 21.2589
# 4 3.7941 -1.7941 -13.6189 26.8471 12.6649 0.6199
# 5 -0.9910 0.4003 -12.2184 12.6649 35.0691 5.3840
# 6 12.2935 12.4768 21.2589 0.6199 5.3840 44.6137
#
#
#
# Elastic Compliance Matrix: (Units=1/GPa)
#
#
# Indices 1 2 3 4 5 6 
#
# 1 0.010151 -0.001157 -0.002131 -0.002964 0.000862 -0.001521
# 2 -0.001157 0.011571 -0.001253 0.000570 -0.000458 -0.002273
# 3 -0.002131 -0.001253 0.005959 0.002626 0.001406 -0.002108
# 4 -0.002964 0.000570 0.002626 0.046626 -0.016122 0.000704
# 5 0.000862 -0.000458 0.001406 -0.016122 0.035602 -0.004852
# 6 -0.001521 -0.002273 -0.002108 0.000704 -0.004852 0.025050
#
#
# Mechanical properties :
#
#
# Convention : Reuss Voigt Hill
#
# Bulk Modulus (GPa) = 53.76103 67.92185 60.84144
# Shear Modulus (GPa) = 33.28019 42.50436 37.89228
#
# Velocity S-wave (km/s) = 3.63686 4.11009 3.88070
# Velocity P-wave (km/s) = 6.24518 7.03693 6.65285
#
# Compressibility (1/GPa) = 0.01860083
#
# Stress axis : x y z
#
# Youngs Moduli (GPa) = 98.50861 86.42188 167.82021
#
# Poissons Ratio (x) = 0.09997 0.35756
# Poissons Ratio (y) = 0.11395 0.21025
# Poissons Ratio (z) = 0.20989 0.10827
#
# Static dielectric constant tensor:
#      x y z
#    x 2.193000 -0.116690 -0.041330 
#    y -0.116690 2.080340 0.038450 
#    z -0.041330 0.038450 1.946500 
# 
# From -- ./inp_files/11310.got.cif
#   From: 2010.05.17/outbox.cif.g08.bks.cpg/sg2_6_cif.got.tgz:11310.got - 2010.06.03 11:33:40.
