data_PCOD9107706
_publ_section_title
;
Structure prediction by ZEFSAII (Michael W. Deem and Ramdas Pophale) SiO2 
 PCOD9107706
Probable space group: P -1
;
_chemical_formula_sum "Si O2"
_cell_formula_units_Z 16
_cell_length_a 8.626441
_cell_length_b 12.101904
_cell_length_c 11.732557
_cell_angle_alpha 72.556715
_cell_angle_beta 36.684732
_cell_angle_gamma 78.239355
_cell_volume 696.643758
_symmetry_space_group_name_H-M "P -1"
_symmetry_group_IT_number 2
_symmetry_cell_setting 'triclinic'
loop_
_space_group_symop_operation_xyz
x,y,z
-x,-y,-z
loop_
_atom_site_type_symbol
_atom_site_label
_atom_site_fract_x
_atom_site_fract_y
_atom_site_fract_z
Si Si1 0.199519 0.745040 0.970507
Si Si2 0.282712 0.577103 0.557457
Si Si3 0.709681 0.639871 0.689987
Si Si4 0.300318 0.965149 0.985867
Si Si5 0.891223 0.961937 0.699403
Si Si6 0.131112 0.286593 0.173286
Si Si7 0.111847 0.591920 0.292980
Si Si8 0.341666 0.239415 0.837104
O O1 0.187186 0.671930 0.117749
O O2 0.932608 0.726348 0.064787
O O3 0.458235 0.700370 0.772960
O O4 0.222707 0.878878 0.955808
O O5 0.500000 0.500000 0.500000
O O6 0.120073 0.498332 0.587657
O O7 0.423371 0.693367 0.386888
O O8 0.072189 0.617165 0.759161
O O9 0.767613 0.690331 0.766066
O O10 0.966757 0.661020 0.454286
O O11 0.677263 0.499368 0.767181
O O12 0.583931 0.932140 0.869946
O O13 0.336885 0.099851 0.885024
O O14 0.109987 0.957806 0.211475
O O15 0.007969 0.842498 0.705029
O O16 0.000000 0.000000 0.500000
O O17 0.346663 0.282850 0.950968
#
# Coordination Sequence:
#
# PCOD9107706 Si02
#       8
#     2   2   2   2   2   2   2   2
#     4  12  23  40  68  94 132 165 209 262 322 376
#     4  11  23  43  63  91 127 168 214 255 316 377
#     4  10  23  43  63  94 127 166 216 260 317 370
#     4  10  23  40  62  97 127 163 211 257 322 375
#     4  10  20  40  65  93 123 167 212 259 310 375
#     4  10  23  41  65  94 122 168 213 260 319 372
#     4  10  24  42  65  94 126 170 216 264 309 374
#     4  11  25  42  64  94 132 167 207 266 315 385
#
# _framework density 22.967262000000002
#
# number of rings (size 3 to 8) (size 9 to 14) (size 15 to 20)
#    0.000    1.500    2.500    1.500    3.500    5.500 
#    0.000    0.000    0.000    6.000    0.000    0.000 
#    0.000    0.000    0.000    0.000    0.000    0.000 
#
# Total GULP energy -89379.722698 kJ/mol
# GULP energy per Si atom -5586.232669 kJ/mol
# Density = 2.291499 g / cm^3
# Si number density = 22.967262 Si / 1000 Ang^3
#
#
#
# Elastic Constant Matrix: (Units=GPa)
#
#
# Indices 1 2 3 4 5 6 
#
# 1 38.2679 14.7154 -2.0621 15.5374 -14.6134 2.8674
# 2 14.7154 112.6608 36.1779 10.9368 -1.3874 -5.3201
# 3 -2.0621 36.1779 82.5373 13.6809 8.9829 1.0163
# 4 15.5374 10.9368 13.6809 35.7861 -6.7580 -1.8078
# 5 -14.6134 -1.3874 8.9829 -6.7580 31.3502 1.8579
# 6 2.8674 -5.3201 1.0163 -1.8078 1.8579 36.0998
#
#
#
# Elastic Compliance Matrix: (Units=1/GPa)
#
#
# Indices 1 2 3 4 5 6 
#
# 1 0.040516 -0.005302 0.004348 -0.015185 0.014465 -0.005627
# 2 -0.005302 0.011253 -0.005193 0.000882 -0.000431 0.002292
# 3 0.004348 -0.005193 0.016223 -0.007410 -0.004347 -0.001715
# 4 -0.015185 0.000882 -0.007410 0.037842 0.003047 0.003283
# 5 0.014465 -0.000431 -0.004347 0.003047 0.040703 -0.003032
# 6 -0.005627 0.002292 -0.001715 0.003283 -0.003032 0.028854
#
#
# Mechanical properties :
#
#
# Convention : Reuss Voigt Hill
#
# Bulk Modulus (GPa) = 17.95347 36.79204 27.37275
# Shear Modulus (GPa) = 24.24238 32.95621 28.59929
#
# Velocity S-wave (km/s) = 3.25240 3.79214 3.53260
# Velocity P-wave (km/s) = 4.68381 5.93531 5.34631
#
# Compressibility (1/GPa) = 0.05569955
#
# Stress axis : x y z
#
# Youngs Moduli (GPa) = 24.68187 88.86163 61.64097
#
# Poissons Ratio (x) = 0.47112 -0.26802
# Poissons Ratio (y) = 0.13086 0.32008
# Poissons Ratio (z) = -0.10732 0.46142
#
# Static dielectric constant tensor:
#      x y z
#    x 1.894330 -0.011420 0.017170 
#    y -0.011420 1.893040 0.011190 
#    z 0.017170 0.011190 1.900070 
# 
# From -- ./inp_files/389909.got.cif
#   From: 2010.05.17/outbox.cif.g08.bks.cpg/sg2_195_cif.got.tgz:389909.got - 2010.06.03 11:33:40.
