data_PCOD9107783
_publ_section_title
;
Structure prediction by ZEFSAII (Michael W. Deem and Ramdas Pophale) SiO2 
 PCOD9107783
Probable space group: P -1
;
_chemical_formula_sum "Si O2"
_cell_formula_units_Z 14
_cell_length_a 8.053965
_cell_length_b 4.922527
_cell_length_c 18.186026
_cell_angle_alpha 122.926566
_cell_angle_beta 116.857957
_cell_angle_gamma 95.224191
_cell_volume 482.274779
_symmetry_space_group_name_H-M "P -1"
_symmetry_group_IT_number 2
_symmetry_cell_setting 'triclinic'
loop_
_space_group_symop_operation_xyz
x,y,z
-x,-y,-z
loop_
_atom_site_type_symbol
_atom_site_label
_atom_site_fract_x
_atom_site_fract_y
_atom_site_fract_z
Si Si1 0.389011 0.414227 0.826913
Si Si2 0.143288 0.811880 0.984516
Si Si3 0.164545 0.629461 0.376798
Si Si4 0.277303 0.819767 0.176968
Si Si5 0.476225 0.896647 0.595027
Si Si6 0.232011 0.974387 0.860964
Si Si7 0.105676 0.935800 0.591145
O O1 0.593353 0.413263 0.835056
O O2 0.347523 0.727864 0.830236
O O3 0.342970 0.350898 0.895263
O O4 0.196240 0.037508 0.706171
O O5 0.250125 0.982339 0.953977
O O6 0.963025 0.394821 0.876473
O O7 0.257697 0.858080 0.091514
O O8 0.000000 0.000000 0.000000
O O9 0.303947 0.575977 0.462465
O O10 0.004515 0.282135 0.248731
O O11 0.335686 0.871743 0.387056
O O12 0.035928 0.851160 0.413641
O O13 0.418850 0.126899 0.309733
O O14 0.324809 0.083975 0.612430
O O15 0.000000 0.500000 0.500000
#
# Coordination Sequence:
#
# PCOD9107783 Si02
#       7
#     2   2   2   2   2   2   2
#     4  10  25  43  72 101 139 181 234 285 351 409
#     4  11  26  44  71  94 139 183 229 293 353 409
#     4  10  21  39  67 100 140 180 230 282 350 413
#     4  10  24  46  65 101 134 181 236 286 349 420
#     4  10  20  40  65  96 135 184 230 284 345 422
#     4  11  24  46  71 103 140 183 228 292 342 419
#     4  10  21  38  61  99 145 183 226 281 345 417
#
# _framework density 29.029095999999999
#
# number of rings (size 3 to 8) (size 9 to 14) (size 15 to 20)
#    0.000    1.714    1.429    1.286    6.000    4.000 
#    2.571    1.429    0.000    0.000    0.000    0.000 
#    0.000    0.000    0.000    0.000    0.000    0.000 
#
# Total GULP energy -78256.459014 kJ/mol
# GULP energy per Si atom -5589.747072 kJ/mol
# Density = 2.896302 g / cm^3
# Si number density = 29.029096 Si / 1000 Ang^3
#
#
#
# Elastic Constant Matrix: (Units=GPa)
#
#
# Indices 1 2 3 4 5 6 
#
# 1 149.0615 49.2411 18.0298 12.3838 17.9903 11.9055
# 2 49.2411 124.5250 33.4403 1.7862 18.9462 9.6502
# 3 18.0298 33.4403 240.7793 -19.0398 31.5513 -7.7012
# 4 12.3838 1.7862 -19.0398 36.3817 -11.8305 -3.6526
# 5 17.9903 18.9462 31.5513 -11.8305 36.0956 6.0275
# 6 11.9055 9.6502 -7.7012 -3.6526 6.0275 51.3642
#
#
#
# Elastic Compliance Matrix: (Units=1/GPa)
#
#
# Indices 1 2 3 4 5 6 
#
# 1 0.008510 -0.002560 -0.000146 -0.004265 -0.003942 -0.001354
# 2 -0.002560 0.009897 -0.000875 -0.001285 -0.003393 -0.001090
# 3 -0.000146 -0.000875 0.004919 0.001689 -0.003459 0.001462
# 4 -0.004265 -0.001285 0.001689 0.034061 0.012072 0.002489
# 5 -0.003942 -0.003393 -0.003459 0.012072 0.038876 -0.002671
# 6 -0.001354 -0.001090 0.001462 0.002489 -0.002671 0.020697
#
#
# Mechanical properties :
#
#
# Convention : Reuss Voigt Hill
#
# Bulk Modulus (GPa) = 61.86086 79.53201 70.69643
# Shear Modulus (GPa) = 38.60721 52.34527 45.47624
#
# Velocity S-wave (km/s) = 3.65080 4.25102 3.96229
# Velocity P-wave (km/s) = 6.25519 7.17995 6.73346
#
# Compressibility (1/GPa) = 0.01616531
#
# Stress axis : x y z
#
# Youngs Moduli (GPa) = 117.50491 101.04068 203.29032
#
# Poissons Ratio (x) = 0.25868 0.02962
# Poissons Ratio (y) = 0.30083 0.17781
# Poissons Ratio (z) = 0.01712 0.08838
#
# Static dielectric constant tensor:
#      x y z
#    x 2.241100 0.073310 -0.140110 
#    y 0.073310 2.059280 0.282800 
#    z -0.140110 0.282800 2.043180 
# 
# From -- ./inp_files/45934.got.cif
#   From: 2010.05.17/outbox.cif.g08.bks.cpg/sg2_23_cif.got.tgz:45934.got - 2010.06.03 11:33:40.
