data_PCOD9107414
_publ_section_title
;
Structure prediction by ZEFSAII (Michael W. Deem and Ramdas Pophale) SiO2 
 PCOD9107414
Probable space group: P -1
;
_chemical_formula_sum "Si O2"
_cell_formula_units_Z 15
_cell_length_a 23.724331
_cell_length_b 6.777935
_cell_length_c 6.626091
_cell_angle_alpha 136.134404
_cell_angle_beta 109.771694
_cell_angle_gamma 66.661774
_cell_volume 675.614890
_symmetry_space_group_name_H-M "P -1"
_symmetry_group_IT_number 2
_symmetry_cell_setting 'triclinic'
loop_
_space_group_symop_operation_xyz
x,y,z
-x,-y,-z
loop_
_atom_site_type_symbol
_atom_site_label
_atom_site_fract_x
_atom_site_fract_y
_atom_site_fract_z
Si Si1 0.425801 0.323335 0.114047
Si Si2 0.254108 0.240226 0.377719
Si Si3 0.149230 0.645985 0.279624
Si Si4 0.842513 0.728657 0.372309
Si Si5 0.000000 0.000000 0.000000
Si Si6 0.663955 0.363327 0.078660
Si Si7 0.050500 0.529646 0.377155
Si Si8 0.559897 0.320503 0.226018
O O1 0.488353 0.364537 0.113169
O O2 0.432727 0.422251 0.424697
O O3 0.365507 0.516163 0.080921
O O4 0.425456 0.983669 0.856359
O O5 0.206407 0.438304 0.312079
O O6 0.219183 0.232372 0.541885
O O7 0.310750 0.387610 0.594374
O O8 0.280117 0.916287 0.087022
O O9 0.088534 0.610621 0.295947
O O10 0.155330 0.979095 0.530767
O O11 0.149545 0.539491 0.970602
O O12 0.897022 0.664607 0.554251
O O13 0.980905 0.185439 0.324363
O O14 0.007002 0.309729 0.126575
O O15 0.608686 0.290249 0.085834
#
# Coordination Sequence:
#
# PCOD9107414 Si02
#       8
#     2   2   2   2   1   2   2   2
#     4  10  22  39  59  84 115 152 192 236 293 359
#     4  11  26  39  59  91 117 150 201 246 294 344
#     4  11  23  42  64  85 119 162 200 239 289 347
#     4  11  23  42  64  85 119 162 200 239 289 347
#     4  10  20  40  64  90 134 152 184 258 286 322
#     4  12  23  39  60  86 117 151 192 246 298 350
#     4  10  22  41  62  92 123 160 196 236 292 344
#     4  10  22  39  59  84 115 152 192 236 293 359
#
# _framework density 22.201996999999999
#
# number of rings (size 3 to 8) (size 9 to 14) (size 15 to 20)
#    0.000    1.333    0.000    5.200    0.000   10.667 
#    0.000   18.667    0.000    0.000    0.000    0.000 
#    0.000    0.000    0.000    0.000    0.000    0.000 
#
# Total GULP energy -83696.136363 kJ/mol
# GULP energy per Si atom -5579.742424 kJ/mol
# Density = 2.215146 g / cm^3
# Si number density = 22.201997 Si / 1000 Ang^3
#
#
#
# Elastic Constant Matrix: (Units=GPa)
#
#
# Indices 1 2 3 4 5 6 
#
# 1 65.7699 18.1184 -3.1173 -7.6033 -16.1404 6.8951
# 2 18.1184 48.0853 15.7361 3.5975 19.1528 -2.4355
# 3 -3.1173 15.7361 53.0407 22.0725 -22.2463 -3.4491
# 4 -7.6033 3.5975 22.0725 33.0574 -5.3517 0.2868
# 5 -16.1404 19.1528 -22.2463 -5.3517 19.9373 -10.4367
# 6 6.8951 -2.4355 -3.4491 0.2868 -10.4367 25.9114
#
#
#
# Elastic Compliance Matrix: (Units=1/GPa)
#
#
# Indices 1 2 3 4 5 6 
#
# 1 0.009427 0.008102 -0.014388 0.007694 -0.020405 -0.011966
# 2 0.008102 -0.001758 0.019173 -0.005041 0.036038 0.014802
# 3 -0.014388 0.019173 0.002300 -0.012541 -0.035084 -0.008056
# 4 0.007694 -0.005041 -0.012541 0.042180 0.007555 -0.001615
# 5 -0.020405 0.036038 -0.035084 0.007555 -0.045586 -0.014298
# 6 -0.011966 0.014802 -0.008056 -0.001615 -0.014298 0.036355
#
#
# Mechanical properties :
#
#
# Convention : Reuss Voigt Hill
#
# Bulk Modulus (GPa) = 27.97708 25.37450 26.67579
# Shear Modulus (GPa) = 172.07896 24.85846 98.46871
#
# Velocity S-wave (km/s) = 8.81330 3.34975 6.66690
# Velocity P-wave (km/s) = 10.77935 5.13953 8.44420
#
# Compressibility (1/GPa) = 0.03574354
#
# Stress axis : x y z
#
# Youngs Moduli (GPa) = 106.08043 -568.69092 434.82547
#
# Poissons Ratio (x) = 4.60781 6.25630
# Poissons Ratio (y) = -0.85951 -8.33703
# Poissons Ratio (z) = 1.52629 10.90367
#
# Static dielectric constant tensor:
#      x y z
#    x 1.837160 -0.008340 0.009930 
#    y -0.008340 1.803570 -0.026540 
#    z 0.009930 -0.026540 1.745160 
# 
# From -- ./inp_files/121918.got.cif
#   From: 2010.05.17/outbox.cif.g08.bks.cpg/sg2_61_cif.got.tgz:121918.got - 2010.06.03 11:33:40.
