data_PCOD9107510
_publ_section_title
;
Structure prediction by ZEFSAII (Michael W. Deem and Ramdas Pophale) SiO2 
 PCOD9107510
Probable space group: P -1
;
_chemical_formula_sum "Si O2"
_cell_formula_units_Z 16
_cell_length_a 13.631907
_cell_length_b 17.868551
_cell_length_c 9.496516
_cell_angle_alpha 38.666401
_cell_angle_beta 145.248383
_cell_angle_gamma 151.579232
_cell_volume 612.953444
_symmetry_space_group_name_H-M "P -1"
_symmetry_group_IT_number 2
_symmetry_cell_setting 'triclinic'
loop_
_space_group_symop_operation_xyz
x,y,z
-x,-y,-z
loop_
_atom_site_type_symbol
_atom_site_label
_atom_site_fract_x
_atom_site_fract_y
_atom_site_fract_z
Si Si1 0.624882 0.907913 0.186603
Si Si2 0.671032 0.750407 0.240714
Si Si3 0.852534 0.417976 0.803582
Si Si4 0.551723 0.258942 0.262314
Si Si5 0.726459 0.591739 0.035330
Si Si6 0.087297 0.744538 0.450770
Si Si7 0.797060 0.605056 0.795679
Si Si8 0.330576 0.997277 0.608694
O O1 0.736502 0.886521 0.223517
O O2 0.409798 0.729090 0.252939
O O3 0.764433 0.004946 0.349093
O O4 0.508064 0.972794 0.890156
O O5 0.786012 0.682930 0.531596
O O6 0.397851 0.587590 0.173468
O O7 0.662195 0.789551 0.011987
O O8 0.913926 0.562441 0.573651
O O9 0.000000 0.500000 0.000000
O O10 0.960961 0.348444 0.965640
O O11 0.728776 0.449536 0.218083
O O12 0.684524 0.216905 0.394820
O O13 0.461424 0.165530 0.438596
O O14 0.948666 0.737844 0.168209
O O15 0.500000 0.500000 0.000000
O O16 0.725101 0.640303 0.802571
O O17 0.158583 0.864969 0.483233
#
# Coordination Sequence:
#
# PCOD9107510 Si02
#       8
#     2   2   2   2   2   2   2   2
#     4  11  23  40  67 101 134 175 221 279 333 397
#     4  10  20  40  64  95 135 168 221 268 340 396
#     4  12  20  39  68 100 127 166 228 284 319 389
#     4  11  22  44  68 101 130 180 219 281 332 398
#     4  11  26  43  68 101 134 173 223 284 341 390
#     4  12  23  42  67 103 130 172 232 273 331 398
#     4  10  22  38  64 100 132 170 216 281 342 384
#     4  11  24  40  67  98 138 177 224 272 337 392
#
# _framework density 26.103126
#
# number of rings (size 3 to 8) (size 9 to 14) (size 15 to 20)
#    0.000    1.000    6.250    1.500    5.250    1.000 
#    0.000    0.625    0.000    3.750    0.000    0.000 
#    0.000    0.000    0.000    0.000    0.000    0.000 
#
# Total GULP energy -89645.477305 kJ/mol
# GULP energy per Si atom -5602.842332 kJ/mol
# Density = 2.604371 g / cm^3
# Si number density = 26.103126 Si / 1000 Ang^3
#
#
#
# Elastic Constant Matrix: (Units=GPa)
#
#
# Indices 1 2 3 4 5 6 
#
# 1 75.3728 12.7364 26.0090 26.2670 -13.8288 -21.2049
# 2 12.7364 87.2063 23.4198 23.0215 -10.3325 -18.5023
# 3 26.0090 23.4198 104.2128 7.6440 -27.6484 -5.2691
# 4 26.2670 23.0215 7.6440 36.7024 -4.1431 -15.2231
# 5 -13.8288 -10.3325 -27.6484 -4.1431 39.2174 10.6896
# 6 -21.2049 -18.5023 -5.2691 -15.2231 10.6896 44.6049
#
#
#
# Elastic Compliance Matrix: (Units=1/GPa)
#
#
# Indices 1 2 3 4 5 6 
#
# 1 0.020784 0.003018 -0.003966 -0.013380 0.002410 0.005520
# 2 0.003018 0.015268 -0.003074 -0.009336 0.000838 0.004018
# 3 -0.003966 -0.003074 0.013133 0.001715 0.008036 -0.002950
# 4 -0.013380 -0.009336 0.001715 0.044408 -0.002861 0.005811
# 5 0.002410 0.000838 0.008036 -0.002861 0.033737 -0.006619
# 6 0.005520 0.004018 -0.002950 0.005811 -0.006619 0.029931
#
#
# Mechanical properties :
#
#
# Convention : Reuss Voigt Hill
#
# Bulk Modulus (GPa) = 24.30557 43.45804 33.88181
# Shear Modulus (GPa) = 27.93018 37.74674 32.83846
#
# Velocity S-wave (km/s) = 3.27462 3.80684 3.55072
# Velocity P-wave (km/s) = 4.86098 6.00062 5.46061
#
# Compressibility (1/GPa) = 0.04114283
#
# Stress axis : x y z
#
# Youngs Moduli (GPa) = 48.11427 65.49583 76.14172
#
# Poissons Ratio (x) = -0.19770 0.30194
# Poissons Ratio (y) = -0.14523 0.23408
# Poissons Ratio (z) = 0.19080 0.20135
#
# Static dielectric constant tensor:
#      x y z
#    x 2.094000 -0.019560 0.002640 
#    y -0.019560 2.032200 0.007060 
#    z 0.002640 0.007060 2.026400 
# 
# From -- ./inp_files/317991.got.cif
#   From: 2010.05.17/outbox.cif.g08.bks.cpg/sg2_159_cif.got.tgz:317991.got - 2010.06.03 11:33:40.
