data_PCOD9107491
_publ_section_title
;
Structure prediction by ZEFSAII (Michael W. Deem and Ramdas Pophale) SiO2 
 PCOD9107491
Probable space group: P -1
;
_chemical_formula_sum "Si O2"
_cell_formula_units_Z 16
_cell_length_a 5.113689
_cell_length_b 20.533532
_cell_length_c 11.111145
_cell_angle_alpha 143.335003
_cell_angle_beta 69.778501
_cell_angle_gamma 105.646870
_cell_volume 653.673793
_symmetry_space_group_name_H-M "P -1"
_symmetry_group_IT_number 2
_symmetry_cell_setting 'triclinic'
loop_
_space_group_symop_operation_xyz
x,y,z
-x,-y,-z
loop_
_atom_site_type_symbol
_atom_site_label
_atom_site_fract_x
_atom_site_fract_y
_atom_site_fract_z
Si Si1 0.458968 0.614184 0.742289
Si Si2 0.558792 0.912148 0.254089
Si Si3 0.168957 0.809921 0.325259
Si Si4 0.001399 0.251868 0.121330
Si Si5 0.586726 0.897851 0.588562
Si Si6 0.105783 0.634639 0.241072
Si Si7 0.406202 0.501801 0.833933
Si Si8 0.322582 0.741964 0.578140
O O1 0.500000 0.500000 0.500000
O O2 0.173780 0.667425 0.816690
O O3 0.469418 0.580115 0.829646
O O4 0.726126 0.687438 0.780563
O O5 0.328124 0.822814 0.193625
O O6 0.500000 0.000000 0.500000
O O7 0.516571 0.978181 0.234942
O O8 0.856838 0.852970 0.119822
O O9 0.411404 0.830662 0.416218
O O10 0.023305 0.699134 0.227680
O O11 0.913721 0.894482 0.502107
O O12 0.804342 0.226004 0.227071
O O13 0.520567 0.834994 0.629621
O O14 0.099429 0.723755 0.479975
O O15 0.911064 0.540224 0.179952
O O16 0.397054 0.580374 0.069383
O O17 0.563336 0.384541 0.623963
#
# Coordination Sequence:
#
# PCOD9107491 Si02
#       8
#     2   2   2   2   2   2   2   2
#     4  12  26  47  70 104 141 189 233 284 347 422
#     4  10  24  46  71 102 138 179 237 295 345 409
#     4  10  20  40  64  94 132 170 218 278 338 401
#     4  12  28  45  73 102 140 192 233 286 353 413
#     4  10  22  39  69  93 128 174 216 281 342 391
#     4  10  22  38  62  99 131 181 226 279 350 402
#     4  11  22  38  65  93 137 178 229 286 336 414
#     4  11  23  42  65  94 143 175 233 278 346 419
#
# _framework density 24.477039000000001
#
# number of rings (size 3 to 8) (size 9 to 14) (size 15 to 20)
#    0.000    1.250    2.500    2.625    1.750    6.500 
#    2.250    0.000    0.000    6.000    0.000    0.000 
#    0.000    0.000    0.000    0.000    0.000    0.000 
#
# Total GULP energy -89263.849253 kJ/mol
# GULP energy per Si atom -5578.990578 kJ/mol
# Density = 2.442133 g / cm^3
# Si number density = 24.477039 Si / 1000 Ang^3
#
#
#
# Elastic Constant Matrix: (Units=GPa)
#
#
# Indices 1 2 3 4 5 6 
#
# 1 82.4978 18.0975 35.4461 4.6182 -30.0467 -5.3146
# 2 18.0975 166.2734 31.7007 7.1017 -29.6661 0.8732
# 3 35.4461 31.7007 117.3650 -3.0262 -29.1681 -9.8753
# 4 4.6182 7.1017 -3.0262 42.2058 -2.9994 -13.1564
# 5 -30.0467 -29.6661 -29.1681 -2.9994 44.9875 13.7678
# 6 -5.3146 0.8732 -9.8753 -13.1564 13.7678 31.6388
#
#
#
# Elastic Compliance Matrix: (Units=1/GPa)
#
#
# Indices 1 2 3 4 5 6 
#
# 1 0.017191 0.000832 -0.003069 -0.002715 0.011099 -0.004052
# 2 0.000832 0.007259 -0.001200 -0.002176 0.005571 -0.003764
# 3 -0.003069 -0.001200 0.010944 0.002295 0.003712 0.002272
# 4 -0.002715 -0.002176 0.002295 0.028595 -0.004143 0.014014
# 5 0.011099 0.005571 0.003712 -0.004143 0.040487 -0.016472
# 6 -0.004052 -0.003764 0.002272 0.014014 -0.016472 0.044734
#
#
# Mechanical properties :
#
#
# Convention : Reuss Voigt Hill
#
# Bulk Modulus (GPa) = 35.06365 59.62498 47.34432
# Shear Modulus (GPa) = 30.19444 42.49255 36.34349
#
# Velocity S-wave (km/s) = 3.51605 4.17107 3.85749
# Velocity P-wave (km/s) = 5.55335 6.89997 6.26296
#
# Compressibility (1/GPa) = 0.02851956
#
# Stress axis : x y z
#
# Youngs Moduli (GPa) = 58.16890 137.75619 91.37015
#
# Poissons Ratio (x) = -0.11456 0.28043
# Poissons Ratio (y) = -0.04837 0.10966
# Poissons Ratio (z) = 0.17853 0.16533
#
# Static dielectric constant tensor:
#      x y z
#    x 1.990960 -0.031490 0.034820 
#    y -0.031490 2.037620 0.081080 
#    z 0.034820 0.081080 2.059380 
# 
# From -- ./inp_files/370090.got.cif
#   From: 2010.05.17/outbox.cif.g08.bks.cpg/sg2_186_cif.got.tgz:370090.got - 2010.06.03 11:33:40.
