data_PCOD9107535
_publ_section_title
;
Structure prediction by ZEFSAII (Michael W. Deem and Ramdas Pophale) SiO2 
 PCOD9107535
Probable space group: P -1
;
_chemical_formula_sum "Si O2"
_cell_formula_units_Z 14
_cell_length_a 14.597809
_cell_length_b 8.592740
_cell_length_c 5.488476
_cell_angle_alpha 114.897019
_cell_angle_beta 84.631538
_cell_angle_gamma 71.643251
_cell_volume 571.877540
_symmetry_space_group_name_H-M "P -1"
_symmetry_group_IT_number 2
_symmetry_cell_setting 'triclinic'
loop_
_space_group_symop_operation_xyz
x,y,z
-x,-y,-z
loop_
_atom_site_type_symbol
_atom_site_label
_atom_site_fract_x
_atom_site_fract_y
_atom_site_fract_z
Si Si1 0.460571 0.116155 0.835330
Si Si2 0.946835 0.656108 0.820267
Si Si3 0.421738 0.446585 0.337577
Si Si4 0.047075 0.707507 0.237331
Si Si5 0.703457 0.652434 0.295011
Si Si6 0.175768 0.123128 0.374920
Si Si7 0.244393 0.719375 0.251575
O O1 0.344356 0.222567 0.851948
O O2 0.500000 0.000000 0.500000
O O3 0.480311 0.302769 0.012009
O O4 0.500000 0.000000 0.000000
O O5 0.915866 0.517942 0.902922
O O6 0.851525 0.829096 0.868135
O O7 0.000000 0.500000 0.500000
O O8 0.024207 0.731303 0.970921
O O9 0.500000 0.500000 0.500000
O O10 0.375121 0.343096 0.470405
O O11 0.329627 0.620687 0.362541
O O12 0.129163 0.763838 0.381470
O O13 0.936067 0.816532 0.445214
O O14 0.775711 0.737502 0.453342
O O15 0.741716 0.438432 0.059531
O O16 0.243939 0.911768 0.278159
#
# Coordination Sequence:
#
# PCOD9107535 Si02
#       7
#     2   2   2   2   2   2   2
#     4  11  24  48  80 112 146 198 255 317 387 464
#     4   9  18  34  61  90 128 183 234 293 360 428
#     4  11  27  49  76 107 151 197 255 325 390 458
#     4  10  20  40  64  97 145 190 244 303 368 446
#     4  11  25  45  70 107 148 194 249 312 383 453
#     4  11  24  40  69 103 142 196 248 302 375 450
#     4  11  25  42  67 105 147 191 251 313 377 455
#
# _framework density 24.480768000000001
#
# number of rings (size 3 to 8) (size 9 to 14) (size 15 to 20)
#    0.000    1.429    1.429    3.857    2.000    7.429 
#    0.000    0.000    0.000    0.000    0.000    0.000 
#    0.000    0.000    0.000    0.000    0.000    0.000 
#
# Total GULP energy -78044.539189 kJ/mol
# GULP energy per Si atom -5574.609942 kJ/mol
# Density = 2.442505 g / cm^3
# Si number density = 24.480768 Si / 1000 Ang^3
#
#
#
# Elastic Constant Matrix: (Units=GPa)
#
#
# Indices 1 2 3 4 5 6 
#
# 1 133.8687 57.4851 53.4881 3.7004 32.7559 -13.9305
# 2 57.4851 183.7464 45.4698 -1.5247 16.4647 -36.8257
# 3 53.4881 45.4698 99.2848 5.0740 10.8226 -7.4648
# 4 3.7004 -1.5247 5.0740 34.3321 -10.1116 8.8589
# 5 32.7559 16.4647 10.8226 -10.1116 38.6289 -14.0043
# 6 -13.9305 -36.8257 -7.4648 8.8589 -14.0043 31.7512
#
#
#
# Elastic Compliance Matrix: (Units=1/GPa)
#
#
# Indices 1 2 3 4 5 6 
#
# 1 0.012647 -0.002274 -0.004648 -0.003271 -0.009902 -0.001637
# 2 -0.002274 0.008351 -0.002081 -0.000871 0.002124 0.009378
# 3 -0.004648 -0.002081 0.013490 -0.001263 0.000454 -0.000729
# 4 -0.003271 -0.000871 -0.001263 0.034556 0.009588 -0.008154
# 5 -0.009902 0.002124 0.000454 0.009588 0.040648 0.013479
# 6 -0.001637 0.009378 -0.000729 -0.008154 0.013479 0.049703
#
#
# Mechanical properties :
#
#
# Convention : Reuss Voigt Hill
#
# Bulk Modulus (GPa) = 60.68001 81.08733 70.88367
# Shear Modulus (GPa) = 27.33825 38.30625 32.82225
#
# Velocity S-wave (km/s) = 3.34537 3.95998 3.66558
# Velocity P-wave (km/s) = 6.30576 7.35550 6.85077
#
# Compressibility (1/GPa) = 0.01647989
#
# Stress axis : x y z
#
# Youngs Moduli (GPa) = 79.07125 119.75006 74.13140
#
# Poissons Ratio (x) = 0.27233 0.34458
# Poissons Ratio (y) = 0.17982 0.15428
# Poissons Ratio (z) = 0.36754 0.24922
#
# Static dielectric constant tensor:
#      x y z
#    x 2.045860 -0.000480 -0.081900 
#    y -0.000480 2.071590 -0.091090 
#    z -0.081900 -0.091090 2.090980 
# 
# From -- ./inp_files/91143.got.cif
#   From: 2010.05.17/outbox.cif.g08.bks.cpg/sg2_46_cif.got.tgz:91143.got - 2010.06.03 11:33:40.
