data_PCOD9107648
_publ_section_title
;
Structure prediction by ZEFSAII (Michael W. Deem and Ramdas Pophale) SiO2 
 PCOD9107648
Probable space group: P -1
;
_chemical_formula_sum "Si O2"
_cell_formula_units_Z 16
_cell_length_a 21.047392
_cell_length_b 7.754929
_cell_length_c 8.343723
_cell_angle_alpha 74.889062
_cell_angle_beta 35.711339
_cell_angle_gamma 96.003234
_cell_volume 635.187349
_symmetry_space_group_name_H-M "P -1"
_symmetry_group_IT_number 2
_symmetry_cell_setting 'triclinic'
loop_
_space_group_symop_operation_xyz
x,y,z
-x,-y,-z
loop_
_atom_site_type_symbol
_atom_site_label
_atom_site_fract_x
_atom_site_fract_y
_atom_site_fract_z
Si Si1 0.391626 0.463551 0.605512
Si Si2 0.566117 0.250604 0.838752
Si Si3 0.660700 0.829061 0.490951
Si Si4 0.816888 0.502543 0.773583
Si Si5 0.922787 0.099343 0.318993
Si Si6 0.823654 0.290500 0.231251
Si Si7 0.202236 0.307036 0.532950
Si Si8 0.957925 0.284291 0.519319
O O1 0.500000 0.500000 0.500000
O O2 0.460543 0.642748 0.280927
O O3 0.326554 0.235944 0.698698
O O4 0.288918 0.501268 0.894472
O O5 0.719727 0.341845 0.494323
O O6 0.488242 0.245089 0.155622
O O7 0.500000 0.000000 0.000000
O O8 0.690894 0.682282 0.573767
O O9 0.752673 0.070625 0.320503
O O10 0.784012 0.510883 0.654446
O O11 0.960873 0.702975 0.494455
O O12 0.838623 0.309747 0.790300
O O13 0.882410 0.243429 0.275589
O O14 0.918341 0.101931 0.517342
O O15 0.823760 0.863153 0.511222
O O16 0.069006 0.192106 0.936362
O O17 0.935270 0.498632 0.854164
#
# Coordination Sequence:
#
# PCOD9107648 Si02
#       8
#     2   2   2   2   2   2   2   2
#     4  12  25  44  66  94 129 163 208 265 326 375
#     4  10  22  43  69  91 118 164 219 261 307 375
#     4  10  23  42  67  90 120 168 209 264 309 371
#     4  11  24  39  59  94 130 164 202 257 316 379
#     4  10  21  37  63  91 122 170 208 257 295 370
#     4  10  20  40  65  90 124 157 214 258 301 370
#     4  10  21  39  61  92 126 160 217 247 309 372
#     4  11  22  40  60  91 132 166 204 251 314 366
#
# _framework density 25.189416999999999
#
# number of rings (size 3 to 8) (size 9 to 14) (size 15 to 20)
#    0.000    1.500    2.500    2.250    0.000    1.500 
#    4.500    2.500    2.750    0.000    0.000    0.000 
#    0.000    0.000    0.000    0.000    0.000    0.000 
#
# Total GULP energy -89524.601164 kJ/mol
# GULP energy per Si atom -5595.287573 kJ/mol
# Density = 2.513208 g / cm^3
# Si number density = 25.189417 Si / 1000 Ang^3
#
#
#
# Elastic Constant Matrix: (Units=GPa)
#
#
# Indices 1 2 3 4 5 6 
#
# 1 136.0762 37.2914 15.4547 11.2467 -9.4978 15.7332
# 2 37.2914 105.6131 30.2867 27.1614 -6.5198 18.8779
# 3 15.4547 30.2867 101.7209 26.2780 -2.4310 -3.4016
# 4 11.2467 27.1614 26.2780 53.4446 -8.1910 3.2200
# 5 -9.4978 -6.5198 -2.4310 -8.1910 38.1744 5.5533
# 6 15.7332 18.8779 -3.4016 3.2200 5.5533 52.0953
#
#
#
# Elastic Compliance Matrix: (Units=1/GPa)
#
#
# Indices 1 2 3 4 5 6 
#
# 1 0.008417 -0.002362 -0.000635 0.000160 0.001968 -0.001948
# 2 -0.002362 0.012929 -0.002444 -0.004467 0.001084 -0.003971
# 3 -0.000635 -0.002444 0.011947 -0.004817 -0.001180 0.002281
# 4 0.000160 -0.004467 -0.004817 0.024003 0.004219 -0.000678
# 5 0.001968 0.001084 -0.001180 0.004219 0.028333 -0.004345
# 6 -0.001948 -0.003971 0.002281 -0.000678 -0.004345 0.021877
#
#
# Mechanical properties :
#
#
# Convention : Reuss Voigt Hill
#
# Bulk Modulus (GPa) = 44.61756 56.60842 50.61299
# Shear Modulus (GPa) = 39.72744 46.10134 42.91439
#
# Velocity S-wave (km/s) = 3.97564 4.28271 4.13203
# Velocity P-wave (km/s) = 6.23102 6.85400 6.54992
#
# Compressibility (1/GPa) = 0.02241270
#
# Stress axis : x y z
#
# Youngs Moduli (GPa) = 118.80070 77.34821 83.70036
#
# Poissons Ratio (x) = 0.18266 0.05317
# Poissons Ratio (y) = 0.28056 0.20453
# Poissons Ratio (z) = 0.07546 0.18901
#
# Static dielectric constant tensor:
#      x y z
#    x 1.972900 0.046710 -0.000540 
#    y 0.046710 2.110860 -0.033550 
#    z -0.000540 -0.033550 1.975900 
# 
# From -- ./inp_files/341803.got.cif
#   From: 2010.05.17/outbox.cif.g08.bks.cpg/sg2_171_cif.got.tgz:341803.got - 2010.06.03 11:33:40.
