data_PCOD9107626
_publ_section_title
;
Structure prediction by ZEFSAII (Michael W. Deem and Ramdas Pophale) SiO2 
 PCOD9107626
Probable space group: P -1
;
_chemical_formula_sum "Si O2"
_cell_formula_units_Z 12
_cell_length_a 8.298452
_cell_length_b 14.974069
_cell_length_c 7.624240
_cell_angle_alpha 109.556940
_cell_angle_beta 134.412065
_cell_angle_gamma 48.296044
_cell_volume 489.818568
_symmetry_space_group_name_H-M "P -1"
_symmetry_group_IT_number 2
_symmetry_cell_setting 'triclinic'
loop_
_space_group_symop_operation_xyz
x,y,z
-x,-y,-z
loop_
_atom_site_type_symbol
_atom_site_label
_atom_site_fract_x
_atom_site_fract_y
_atom_site_fract_z
Si Si1 0.607983 0.895509 0.657355
Si Si2 0.806649 0.882592 0.289299
Si Si3 0.205467 0.509503 0.540719
Si Si4 0.299718 0.305860 0.963473
Si Si5 0.187439 0.723636 0.812934
Si Si6 0.603159 0.249493 0.533566
O O1 0.547601 0.024747 0.232777
O O2 0.490608 0.821171 0.485096
O O3 0.959528 0.794946 0.845543
O O4 0.500000 0.000000 0.500000
O O5 0.685939 0.810317 0.120603
O O6 0.003301 0.816962 0.571889
O O7 0.054252 0.847408 0.317325
O O8 0.249627 0.597912 0.728281
O O9 0.498834 0.372889 0.630962
O O10 0.000000 0.500000 0.500000
O O11 0.027198 0.577460 0.268828
O O12 0.514487 0.298133 0.982114
O O13 0.411904 0.300391 0.239575
#
# Coordination Sequence:
#
# PCOD9107626 Si02
#       6
#     2   2   2   2   2   2
#     4  10  20  40  65  89 123 162 204 251 302 357
#     4   9  21  39  63  88 124 164 199 247 306 357
#     4  11  22  40  64  92 124 161 200 248 312 362
#     4  10  23  40  61  94 126 156 204 250 300 366
#     4   9  20  40  62  92 124 160 200 249 302 362
#     4  11  22  40  64  92 122 161 204 251 303 359
#
# _framework density 24.498867000000001
#
# number of rings (size 3 to 8) (size 9 to 14) (size 15 to 20)
#    0.000    2.000    1.667    1.000    0.000    9.333 
#    3.000    1.667    0.000    0.000    0.000    0.000 
#    0.000    0.000    0.000    0.000    0.000    0.000 
#
# Total GULP energy -67163.257973 kJ/mol
# GULP energy per Si atom -5596.938164 kJ/mol
# Density = 2.444311 g / cm^3
# Si number density = 24.498867 Si / 1000 Ang^3
#
#
#
# Elastic Constant Matrix: (Units=GPa)
#
#
# Indices 1 2 3 4 5 6 
#
# 1 101.8178 57.6170 30.6322 -8.7055 17.5293 1.2004
# 2 57.6170 175.1557 46.7250 -9.0714 17.8065 -16.7504
# 3 30.6322 46.7250 76.6709 -17.3063 1.9608 -0.6065
# 4 -8.7055 -9.0714 -17.3063 24.1760 -0.8489 0.4824
# 5 17.5293 17.8065 1.9608 -0.8489 41.0660 3.1286
# 6 1.2004 -16.7504 -0.6065 0.4824 3.1286 46.7529
#
#
#
# Elastic Compliance Matrix: (Units=1/GPa)
#
#
# Indices 1 2 3 4 5 6 
#
# 1 0.013380 -0.003254 -0.002963 0.001360 -0.004032 -0.001292
# 2 -0.003254 0.008305 -0.003901 -0.000992 -0.002288 0.003172
# 3 -0.002963 -0.003901 0.019067 0.011229 0.002381 -0.001350
# 4 0.001360 -0.000992 0.011229 0.049549 0.000397 -0.000782
# 5 -0.004032 -0.002288 0.002381 0.000397 0.027150 -0.002506
# 6 -0.001292 0.003172 -0.001350 -0.000782 -0.002506 0.022717
#
#
# Mechanical properties :
#
#
# Convention : Reuss Voigt Hill
#
# Bulk Modulus (GPa) = 48.74311 69.28809 59.01560
# Shear Modulus (GPa) = 29.89678 36.97700 33.43689
#
# Velocity S-wave (km/s) = 3.49712 3.88923 3.69837
# Velocity P-wave (km/s) = 6.02044 6.96504 6.50989
#
# Compressibility (1/GPa) = 0.02051572
#
# Stress axis : x y z
#
# Youngs Moduli (GPa) = 74.73834 120.41019 52.44656
#
# Poissons Ratio (x) = 0.39184 0.15537
# Poissons Ratio (y) = 0.24321 0.20462
# Poissons Ratio (z) = 0.22141 0.46977
#
# Static dielectric constant tensor:
#      x y z
#    x 1.973110 -0.035530 -0.085860 
#    y -0.035530 1.883540 -0.023520 
#    z -0.085860 -0.023520 1.998250 
# 
# From -- ./inp_files/136375.got.cif
#   From: 2010.05.17/outbox.cif.g08.bks.cpg/sg2_69_cif.got.tgz:136375.got - 2010.06.03 11:33:40.
