data_PCOD9107866
_publ_section_title
;
Structure prediction by ZEFSAII (Michael W. Deem and Ramdas Pophale) SiO2 
 PCOD9107866
Probable space group: P -1
;
_chemical_formula_sum "Si O2"
_cell_formula_units_Z 11
_cell_length_a 13.460980
_cell_length_b 10.126685
_cell_length_c 11.992214
_cell_angle_alpha 145.496852
_cell_angle_beta 33.343373
_cell_angle_gamma 121.602650
_cell_volume 432.221623
_symmetry_space_group_name_H-M "P -1"
_symmetry_group_IT_number 2
_symmetry_cell_setting 'triclinic'
loop_
_space_group_symop_operation_xyz
x,y,z
-x,-y,-z
loop_
_atom_site_type_symbol
_atom_site_label
_atom_site_fract_x
_atom_site_fract_y
_atom_site_fract_z
Si Si1 0.889729 0.043585 0.513937
Si Si2 0.594006 0.553420 0.691995
Si Si3 0.998572 0.558025 0.372150
Si Si4 0.641749 0.984654 0.252705
Si Si5 0.228648 0.335057 0.759414
Si Si6 0.500000 0.500000 0.500000
O O1 0.998822 0.165824 0.418870
O O2 0.877438 0.790240 0.303234
O O3 0.639205 0.285467 0.923166
O O4 0.000000 0.000000 0.500000
O O5 0.689075 0.226973 0.386918
O O6 0.561134 0.615000 0.634220
O O7 0.764266 0.614707 0.623790
O O8 0.105159 0.443796 0.068728
O O9 0.150424 0.314279 0.144313
O O10 0.473232 0.082440 0.378881
O O11 0.500000 0.000000 0.500000
O O12 0.292436 0.535502 0.784019
#
# Coordination Sequence:
#
# PCOD9107866 Si02
#       6
#     2   2   2   2   2   1
#     4  12  26  42  63  99 131 170 215 262 322 380
#     4  11  23  41  68  95 129 170 214 266 318 382
#     4  11  23  45  67  94 131 168 215 267 321 376
#     4   9  18  44  70  90 126 173 212 260 324 379
#     4  10  23  42  68  95 128 173 212 265 319 383
#     4  10  20  40  66  86 130 170 212 248 322 372
#
# _framework density 25.449908000000001
#
# number of rings (size 3 to 8) (size 9 to 14) (size 15 to 20)
#    0.000    1.455    5.455    1.636    2.545    5.091 
#    3.273    0.909    0.000    0.000    0.000    0.000 
#    0.000    0.000    0.000    0.000    0.000    0.000 
#
# Total GULP energy -61337.005294 kJ/mol
# GULP energy per Si atom -5576.091390 kJ/mol
# Density = 2.539198 g / cm^3
# Si number density = 25.449908 Si / 1000 Ang^3
#
#
#
# Elastic Constant Matrix: (Units=GPa)
#
#
# Indices 1 2 3 4 5 6 
#
# 1 -18.3742 17.0798 29.3481 -17.9979 11.8067 61.0084
# 2 17.0798 133.7310 59.9368 -8.6485 -5.5660 50.6048
# 3 29.3481 59.9368 91.7245 1.2059 -9.7721 25.0707
# 4 -17.9979 -8.6485 1.2059 45.0719 13.8340 -3.5400
# 5 11.8067 -5.5660 -9.7721 13.8340 42.0751 -16.8930
# 6 61.0084 50.6048 25.0707 -3.5400 -16.8930 39.6006
#
#
#
# Elastic Compliance Matrix: (Units=1/GPa)
#
#
# Indices 1 2 3 4 5 6 
#
# 1 -0.003258 -0.005440 0.001675 -0.003537 0.007240 0.013682
# 2 -0.005440 0.011416 -0.004859 -0.000348 0.000908 -0.002775
# 3 0.001675 -0.004859 0.015228 -0.001279 0.000464 -0.005928
# 4 -0.003537 -0.000348 -0.001279 0.022498 -0.003920 0.007043
# 5 0.007240 0.000908 0.000464 -0.003920 0.021779 -0.003668
# 6 0.013682 -0.002775 -0.005928 0.007043 -0.003668 0.010537
#
#
# Mechanical properties :
#
#
# Convention : Reuss Voigt Hill
#
# Bulk Modulus (GPa) = 162.91620 46.64565 104.78092
# Shear Modulus (GPa) = 51.28535 32.06396 41.67465
#
# Velocity S-wave (km/s) = 4.49391 3.55334 4.05101
# Velocity P-wave (km/s) = 9.54361 5.93322 7.94618
#
# Compressibility (1/GPa) = 0.00613813
#
# Stress axis : x y z
#
# Youngs Moduli (GPa) = -306.92679 87.59868 65.66821
#
# Poissons Ratio (x) = 0.47649 -0.10999
# Poissons Ratio (y) = -1.66953 0.31910
# Poissons Ratio (z) = 0.51409 0.42566
#
# Static dielectric constant tensor:
#      x y z
#    x 2.011250 -0.076670 -0.010160 
#    y -0.076670 2.004420 0.091950 
#    z -0.010160 0.091950 2.220050 
# 
# From -- ./inp_files/453263.got.cif
#   From: 2010.05.17/outbox.cif.g08.bks.cpg/sg2_227_cif.got.tgz:453263.got - 2010.06.03 11:33:40.
