data_PCOD9107013
_publ_section_title
;
Structure prediction by ZEFSAII (Michael W. Deem and Ramdas Pophale) SiO2 
 PCOD9107013
Probable space group: P -1
;
_chemical_formula_sum "Si O2"
_cell_formula_units_Z 16
_cell_length_a 8.724454
_cell_length_b 5.570787
_cell_length_c 19.592252
_cell_angle_alpha 57.236714
_cell_angle_beta 54.606426
_cell_angle_gamma 70.032082
_cell_volume 652.209083
_symmetry_space_group_name_H-M "P -1"
_symmetry_group_IT_number 2
_symmetry_cell_setting 'triclinic'
loop_
_space_group_symop_operation_xyz
x,y,z
-x,-y,-z
loop_
_atom_site_type_symbol
_atom_site_label
_atom_site_fract_x
_atom_site_fract_y
_atom_site_fract_z
Si Si1 0.117063 0.197560 0.213896
Si Si2 0.301578 0.613421 0.003763
Si Si3 0.022586 0.626284 0.642676
Si Si4 0.422012 0.828250 0.480435
Si Si5 0.501620 0.938708 0.724153
Si Si6 0.092803 0.058441 0.793996
Si Si7 0.706220 0.892856 0.994530
Si Si8 0.319950 0.652359 0.274718
O O1 0.171342 0.476642 0.116550
O O2 0.108709 0.199567 0.296837
O O3 0.266344 0.935022 0.199883
O O4 0.919023 0.120304 0.245916
O O5 0.276478 0.444631 0.967074
O O6 0.286461 0.951366 0.958949
O O7 0.500000 0.500000 0.000000
O O8 0.196261 0.800946 0.547090
O O9 0.095175 0.377223 0.714542
O O10 0.886145 0.489787 0.642949
O O11 0.500000 0.500000 0.500000
O O12 0.500000 0.000000 0.500000
O O13 0.471016 0.986539 0.373955
O O14 0.565044 0.597631 0.757970
O O15 0.283243 0.973343 0.794403
O O16 0.590338 0.199427 0.705334
O O17 0.900565 0.986170 0.893427
O O18 0.500000 0.000000 0.000000
#
# Coordination Sequence:
#
# PCOD9107013 Si02
#       8
#     2   2   2   2   2   2   2   2
#     4  10  20  40  62  92 124 159 209 256 313 366
#     4   9  17  29  54  89 120 145 191 253 304 350
#     4  11  22  42  65  90 122 167 213 256 317 365
#     4  12  26  42  65  94 124 161 208 275 319 356
#     4  12  25  43  60  93 125 165 215 254 317 377
#     4  10  21  35  66  90 122 159 208 262 307 369
#     4   9  17  30  51  91 122 142 188 255 309 348
#     4  11  26  42  61  89 129 169 208 255 311 379
#
# _framework density 24.53201
#
# number of rings (size 3 to 8) (size 9 to 14) (size 15 to 20)
#    0.000    1.500    3.750    1.500    3.500    1.000 
#    0.000    0.000    0.000    0.000    0.000   64.750 
#    0.000    0.000    0.000    0.000    0.000    0.000 
#
# Total GULP energy -89092.721607 kJ/mol
# GULP energy per Si atom -5568.295100 kJ/mol
# Density = 2.447617 g / cm^3
# Si number density = 24.532010 Si / 1000 Ang^3
#
#
#
# Elastic Constant Matrix: (Units=GPa)
#
#
# Indices 1 2 3 4 5 6 
#
# 1 120.3801 69.3421 51.0527 7.1253 -24.9784 34.6007
# 2 69.3421 180.5771 22.6548 3.5403 -17.6136 43.0279
# 3 51.0527 22.6548 111.1857 11.2356 -14.7209 6.1289
# 4 7.1253 3.5403 11.2356 20.9814 0.7376 0.7751
# 5 -24.9784 -17.6136 -14.7209 0.7376 26.3640 2.1389
# 6 34.6007 43.0279 6.1289 0.7751 2.1389 50.7297
#
#
#
# Elastic Compliance Matrix: (Units=1/GPa)
#
#
# Indices 1 2 3 4 5 6 
#
# 1 0.017526 -0.002440 -0.004980 -0.002971 0.013072 -0.009789
# 2 -0.002440 0.008094 0.000328 -0.000645 0.003735 -0.005389
# 3 -0.004980 0.000328 0.011898 -0.004873 0.002146 0.001665
# 4 -0.002971 -0.000645 -0.004873 0.051557 -0.007628 0.002696
# 5 0.013072 0.003735 0.002146 -0.007628 0.055403 -0.014562
# 6 -0.009789 -0.005389 0.001665 0.002696 -0.014562 0.031331
#
#
# Mechanical properties :
#
#
# Convention : Reuss Voigt Hill
#
# Bulk Modulus (GPa) = 42.85327 77.58247 60.21787
# Shear Modulus (GPa) = 25.28162 37.55456 31.41809
#
# Velocity S-wave (km/s) = 3.21371 3.91684 3.58257
# Velocity P-wave (km/s) = 5.59257 7.22144 6.45856
#
# Compressibility (1/GPa) = 0.02333544
#
# Stress axis : x y z
#
# Youngs Moduli (GPa) = 57.05860 123.54092 84.04445
#
# Poissons Ratio (x) = 0.30138 0.41852
# Poissons Ratio (y) = 0.13920 -0.02753
# Poissons Ratio (z) = 0.28413 -0.04046
#
# Static dielectric constant tensor:
#      x y z
#    x 2.011910 -0.006680 -0.010860 
#    y -0.006680 2.122180 0.028430 
#    z -0.010860 0.028430 1.966120 
# 
# From -- ./inp_files/52199.got.cif
#   From: 2010.05.17/outbox.cif.g08.bks.cpg/sg2_27_cif.got.tgz:52199.got - 2010.06.03 11:33:40.
