data_PCOD9107059
_publ_section_title
;
Structure prediction by ZEFSAII (Michael W. Deem and Ramdas Pophale) SiO2 
 PCOD9107059
Probable space group: P -1
;
_chemical_formula_sum "Si O2"
_cell_formula_units_Z 14
_cell_length_a 7.115196
_cell_length_b 7.271436
_cell_length_c 16.251399
_cell_angle_alpha 116.720239
_cell_angle_beta 127.745223
_cell_angle_gamma 84.253564
_cell_volume 575.320794
_symmetry_space_group_name_H-M "P -1"
_symmetry_group_IT_number 2
_symmetry_cell_setting 'triclinic'
loop_
_space_group_symop_operation_xyz
x,y,z
-x,-y,-z
loop_
_atom_site_type_symbol
_atom_site_label
_atom_site_fract_x
_atom_site_fract_y
_atom_site_fract_z
Si Si1 0.366928 0.054477 0.287130
Si Si2 0.522736 0.246519 0.530775
Si Si3 0.007650 0.430051 0.080975
Si Si4 0.362002 0.013359 0.095203
Si Si5 0.184091 0.017314 0.873737
Si Si6 0.437552 0.347504 0.697633
Si Si7 0.918637 0.495168 0.242815
O O1 0.434390 0.234695 0.410828
O O2 0.079890 0.938658 0.200571
O O3 0.397336 0.127607 0.215546
O O4 0.524040 0.881130 0.308574
O O5 0.371746 0.327635 0.578956
O O6 0.804367 0.375201 0.638286
O O7 0.500000 0.000000 0.500000
O O8 0.874021 0.521668 0.138603
O O9 0.292315 0.497697 0.193135
O O10 0.873187 0.182441 0.996561
O O11 0.000000 0.500000 0.000000
O O12 0.604846 0.928174 0.126765
O O13 0.310871 0.109732 0.012816
O O14 0.117381 0.758262 0.807827
O O15 0.256963 0.425688 0.725505
#
# Coordination Sequence:
#
# PCOD9107059 Si02
#       7
#     2   2   2   2   2   2   2
#     4  11  22  40  65  90 125 167 211 254 311 369
#     4   9  22  41  64  93 124 161 209 263 310 362
#     4  10  20  40  62  95 122 161 209 258 307 366
#     4  10  22  40  63  90 129 166 206 253 310 374
#     4  10  24  42  60  93 128 168 204 250 313 382
#     4  10  22  41  64  95 124 161 209 264 309 359
#     4  10  23  42  65  90 130 161 205 261 313 364
#
# _framework density 24.334250999999998
#
# number of rings (size 3 to 8) (size 9 to 14) (size 15 to 20)
#    0.000    2.000    1.429    0.429    0.000   14.857 
#    0.000    1.429    0.000    0.000    0.000    0.000 
#    0.000    0.000    0.000    0.000    0.000    0.000 
#
# Total GULP energy -78300.991986 kJ/mol
# GULP energy per Si atom -5592.927999 kJ/mol
# Density = 2.427887 g / cm^3
# Si number density = 24.334251 Si / 1000 Ang^3
#
#
#
# Elastic Constant Matrix: (Units=GPa)
#
#
# Indices 1 2 3 4 5 6 
#
# 1 167.5890 15.0660 68.6994 -2.9288 -49.1052 -1.7238
# 2 15.0660 66.7732 19.2253 9.0697 -20.2822 1.3046
# 3 68.6994 19.2253 197.0554 -10.7957 -54.5207 5.6046
# 4 -2.9288 9.0697 -10.7957 30.1712 10.5226 -0.9343
# 5 -49.1052 -20.2822 -54.5207 10.5226 56.9108 3.6923
# 6 -1.7238 1.3046 5.6046 -0.9343 3.6923 33.9549
#
#
#
# Elastic Compliance Matrix: (Units=1/GPa)
#
#
# Indices 1 2 3 4 5 6 
#
# 1 0.008329 0.000826 -0.001243 -0.002233 0.006716 -0.000195
# 2 0.000826 0.018814 -0.000019 -0.008835 0.009157 -0.001917
# 3 -0.001243 -0.000019 0.007211 0.000354 0.005886 -0.001883
# 4 -0.002233 -0.008835 0.000354 0.040087 -0.012317 0.002610
# 5 0.006716 0.009157 0.005886 -0.012317 0.034877 -0.005114
# 6 -0.000195 -0.001917 -0.001883 0.002610 -0.005114 0.030453
#
#
# Mechanical properties :
#
#
# Convention : Reuss Voigt Hill
#
# Bulk Modulus (GPa) = 29.86786 70.82212 50.34499
# Shear Modulus (GPa) = 32.93683 46.10249 39.51966
#
# Velocity S-wave (km/s) = 3.68301 4.35737 4.03430
# Velocity P-wave (km/s) = 5.51241 7.38123 6.51419
#
# Compressibility (1/GPa) = 0.03348081
#
# Stress axis : x y z
#
# Youngs Moduli (GPa) = 120.06250 53.15103 138.66996
#
# Poissons Ratio (x) = -0.04388 0.17237
# Poissons Ratio (y) = -0.09911 0.00270
# Poissons Ratio (z) = 0.14924 0.00103
#
# Static dielectric constant tensor:
#      x y z
#    x 1.909220 -0.047590 -0.045600 
#    y -0.047590 2.080330 0.000190 
#    z -0.045600 0.000190 1.948150 
# 
# From -- ./inp_files/433161.got.cif
#   From: 2010.05.17/outbox.cif.g08.bks.cpg/sg2_217_cif.got.tgz:433161.got - 2010.06.03 11:33:40.
