data_PCOD9107039
_publ_section_title
;
Structure prediction by ZEFSAII (Michael W. Deem and Ramdas Pophale) SiO2 
 PCOD9107039
Probable space group: P -1
;
_chemical_formula_sum "Si O2"
_cell_formula_units_Z 14
_cell_length_a 11.816913
_cell_length_b 9.287317
_cell_length_c 21.702516
_cell_angle_alpha 37.411099
_cell_angle_beta 152.617301
_cell_angle_gamma 139.815078
_cell_volume 650.692252
_symmetry_space_group_name_H-M "P -1"
_symmetry_group_IT_number 2
_symmetry_cell_setting 'triclinic'
loop_
_space_group_symop_operation_xyz
x,y,z
-x,-y,-z
loop_
_atom_site_type_symbol
_atom_site_label
_atom_site_fract_x
_atom_site_fract_y
_atom_site_fract_z
Si Si1 0.558088 0.779946 0.141289
Si Si2 0.584180 0.053649 0.591873
Si Si3 0.898830 0.643259 0.270061
Si Si4 0.150351 0.342222 0.083720
Si Si5 0.710484 0.752794 0.513093
Si Si6 0.689641 0.988640 0.954096
Si Si7 0.739884 0.162708 0.291006
O O1 0.832213 0.737885 0.272574
O O2 0.377989 0.547784 0.101849
O O3 0.480863 0.845073 0.149938
O O4 0.500000 0.000000 0.000000
O O5 0.369840 0.093380 0.521592
O O6 0.804192 0.294607 0.617080
O O7 0.500000 0.000000 0.500000
O O8 0.721133 0.841915 0.753013
O O9 0.789390 0.364633 0.299137
O O10 0.779497 0.802907 0.108170
O O11 0.000000 0.500000 0.000000
O O12 0.946834 0.178935 0.996289
O O13 0.500000 0.500000 0.500000
O O14 0.010699 0.757863 0.658529
O O15 0.702272 0.901590 0.394782
O O16 0.515963 0.844585 0.867092
#
# Coordination Sequence:
#
# PCOD9107039 Si02
#       7
#     2   2   2   2   2   2   2
#     4   9  18  35  59  92 128 162 203 270 320 367
#     4  11  24  42  68  95 128 172 217 266 325 385
#     4  10  20  40  62  93 131 159 213 272 317 378
#     4   9  19  40  62  94 131 158 215 271 317 383
#     4  11  25  46  62  91 135 175 215 264 316 387
#     4   9  20  37  65  93 124 166 214 261 325 383
#     4  11  23  43  66  90 132 173 212 262 322 387
#
# _framework density 21.515547000000002
#
# number of rings (size 3 to 8) (size 9 to 14) (size 15 to 20)
#    0.000    2.000    1.429    2.143    2.000    2.286 
#    5.143    5.000    0.000    0.000    0.000    0.000 
#    0.000    0.000    0.000    0.000    0.000    0.000 
#
# Total GULP energy -78002.378642 kJ/mol
# GULP energy per Si atom -5571.598474 kJ/mol
# Density = 2.146658 g / cm^3
# Si number density = 21.515547 Si / 1000 Ang^3
#
#
#
# Elastic Constant Matrix: (Units=GPa)
#
#
# Indices 1 2 3 4 5 6 
#
# 1 82.5494 15.4288 15.7009 0.1204 22.0054 0.8594
# 2 15.4288 134.8971 30.9604 -0.9949 -11.4532 20.5581
# 3 15.7009 30.9604 51.7000 11.6688 3.9154 -2.9120
# 4 0.1204 -0.9949 11.6688 28.4049 -7.6917 1.5890
# 5 22.0054 -11.4532 3.9154 -7.6917 26.0757 -3.5697
# 6 0.8594 20.5581 -2.9120 1.5890 -3.5697 34.1106
#
#
#
# Elastic Compliance Matrix: (Units=1/GPa)
#
#
# Indices 1 2 3 4 5 6 
#
# 1 0.017586 -0.003248 -0.001079 -0.004459 -0.017447 -0.000196
# 2 -0.003248 0.011870 -0.008977 0.007358 0.010504 -0.007082
# 3 -0.001079 -0.008977 0.029953 -0.016081 -0.011238 0.007568
# 4 -0.004459 0.007358 -0.016081 0.048624 0.022992 -0.005554
# 5 -0.017447 0.010504 -0.011238 0.022992 0.066018 -0.001013
# 6 -0.000196 -0.007082 0.007568 -0.005554 -0.001013 0.034388
#
#
# Mechanical properties :
#
#
# Convention : Reuss Voigt Hill
#
# Bulk Modulus (GPa) = 30.48727 43.70298 37.09513
# Shear Modulus (GPa) = 20.32670 31.52201 25.92435
#
# Velocity S-wave (km/s) = 3.07700 3.83179 3.47495
# Velocity P-wave (km/s) = 5.17925 6.31927 5.77745
#
# Compressibility (1/GPa) = 0.03280057
#
# Stress axis : x y z
#
# Youngs Moduli (GPa) = 56.86407 84.24378 33.38587
#
# Poissons Ratio (x) = 0.27364 0.03602
# Poissons Ratio (y) = 0.18470 0.29971
# Poissons Ratio (z) = 0.06135 0.75627
#
# Static dielectric constant tensor:
#      x y z
#    x 0.228030 0.915010 -1.424130 
#    y 0.915010 1.336010 0.822430 
#    z -1.424130 0.822430 0.401510 
# 
# From -- ./inp_files/593428.got.cif
#   From: 2010.05.17/outbox.cif.g08.bks.cpg/sg2_297_cif.got.tgz:593428.got - 2010.06.03 11:33:40.
