data_PCOD9107120
_publ_section_title
;
Structure prediction by ZEFSAII (Michael W. Deem and Ramdas Pophale) SiO2 
 PCOD9107120
Probable space group: P -1
;
_chemical_formula_sum "Si O2"
_cell_formula_units_Z 16
_cell_length_a 14.701910
_cell_length_b 12.644953
_cell_length_c 12.357366
_cell_angle_alpha 92.419427
_cell_angle_beta 62.261888
_cell_angle_gamma 38.477415
_cell_volume 853.313492
_symmetry_space_group_name_H-M "P -1"
_symmetry_group_IT_number 2
_symmetry_cell_setting 'triclinic'
loop_
_space_group_symop_operation_xyz
x,y,z
-x,-y,-z
loop_
_atom_site_type_symbol
_atom_site_label
_atom_site_fract_x
_atom_site_fract_y
_atom_site_fract_z
Si Si1 0.056403 0.177241 0.812783
Si Si2 0.674496 0.253543 0.446269
Si Si3 0.786513 0.964199 0.690455
Si Si4 0.393044 0.990187 0.011537
Si Si5 0.376345 0.396895 0.786482
Si Si6 0.061391 0.327347 0.000745
Si Si7 0.802545 0.424399 0.736314
Si Si8 0.143383 0.864760 0.301161
O O1 0.975225 0.281073 0.740249
O O2 0.257579 0.899914 0.682978
O O3 0.149268 0.183662 0.838051
O O4 0.809035 0.371170 0.018999
O O5 0.500000 0.500000 0.500000
O O6 0.540352 0.322550 0.623906
O O7 0.932658 0.057833 0.335415
O O8 0.782170 0.893639 0.793191
O O9 0.027361 0.730529 0.472068
O O10 0.554596 0.158035 0.749704
O O11 0.737354 0.131179 0.764856
O O12 0.246878 0.148790 0.989121
O O13 0.500000 0.000000 0.000000
O O14 0.597121 0.707319 0.865558
O O15 0.191866 0.497757 0.822847
O O16 0.000000 0.500000 0.000000
O O17 0.719656 0.377198 0.789456
O O18 0.000000 0.000000 0.500000
#
# Coordination Sequence:
#
# PCOD9107120 Si02
#       8
#     2   2   2   2   2   2   2   2
#     4   9  20  39  61  89 122 161 208 242 306 367
#     4  11  22  37  59  90 133 167 202 249 299 367
#     4  11  21  40  67  93 126 162 208 254 308 364
#     4  12  25  43  65  91 122 160 209 264 301 370
#     4  10  20  40  63  86 127 163 203 246 312 358
#     4  10  23  44  63  88 122 161 204 255 314 362
#     4  10  20  40  65  94 123 163 206 253 306 366
#     4   9  19  36  58  93 123 161 201 247 301 361
#
# _framework density 18.750436000000001
#
# number of rings (size 3 to 8) (size 9 to 14) (size 15 to 20)
#    0.750    1.000    5.000    1.500    1.750    3.500 
#    0.000    0.625    0.000    0.000    0.000    0.000 
#    0.000    0.000    0.000    0.000    0.000    0.000 
#
# Total GULP energy -89094.414680 kJ/mol
# GULP energy per Si atom -5568.400917 kJ/mol
# Density = 1.870776 g / cm^3
# Si number density = 18.750436 Si / 1000 Ang^3
#
#
#
# Elastic Constant Matrix: (Units=GPa)
#
#
# Indices 1 2 3 4 5 6 
#
# 1 127.3100 75.3837 29.6091 0.3320 21.6071 2.6667
# 2 75.3837 245.6845 83.9782 -7.8765 43.8685 23.9432
# 3 29.6091 83.9782 116.7857 -7.2205 29.4660 23.3011
# 4 0.3320 -7.8765 -7.2205 35.1868 -2.2244 -2.0443
# 5 21.6071 43.8685 29.4660 -2.2244 36.1737 6.8242
# 6 2.6667 23.9432 23.3011 -2.0443 6.8242 28.3213
#
#
#
# Elastic Compliance Matrix: (Units=1/GPa)
#
#
# Indices 1 2 3 4 5 6 
#
# 1 0.009963 -0.002654 -0.000390 -0.000819 -0.002892 0.002264
# 2 -0.002654 0.006749 -0.002702 0.000602 -0.003939 -0.002240
# 3 -0.000390 -0.002702 0.013726 0.001395 -0.006192 -0.007378
# 4 -0.000819 0.000602 0.001395 0.028894 0.000318 0.000429
# 5 -0.002892 -0.003939 -0.006192 0.000318 0.039356 -0.000763
# 6 0.002264 -0.002240 -0.007378 0.000429 -0.000763 0.043275
#
#
# Mechanical properties :
#
#
# Convention : Reuss Voigt Hill
#
# Bulk Modulus (GPa) = 52.78639 96.41357 74.59998
# Shear Modulus (GPa) = 31.29491 39.99031 35.64261
#
# Velocity S-wave (km/s) = 4.08980 4.62320 4.36466
# Velocity P-wave (km/s) = 7.10740 8.94593 8.07913
#
# Compressibility (1/GPa) = 0.01894428
#
# Stress axis : x y z
#
# Youngs Moduli (GPa) = 100.37484 148.16553 72.85613
#
# Poissons Ratio (x) = 0.39324 0.02843
# Poissons Ratio (y) = 0.26640 0.19689
# Poissons Ratio (z) = 0.03916 0.40040
#
# Static dielectric constant tensor:
#      x y z
#    x 1.184940 -0.044090 -0.152680 
#    y -0.044090 1.623700 -0.018060 
#    z -0.152680 -0.018060 1.626970 
# 
# From -- ./inp_files/452359.got.cif
#   From: 2010.05.17/outbox.cif.g08.bks.cpg/sg2_227_cif.got.tgz:452359.got - 2010.06.03 11:33:40.
