data_PCOD9107146
_publ_section_title
;
Structure prediction by ZEFSAII (Michael W. Deem and Ramdas Pophale) SiO2 
 PCOD9107146
Probable space group: P -1
;
_chemical_formula_sum "Si O2"
_cell_formula_units_Z 14
_cell_length_a 19.234743
_cell_length_b 12.374612
_cell_length_c 16.794339
_cell_angle_alpha 149.357441
_cell_angle_beta 152.650893
_cell_angle_gamma 18.690292
_cell_volume 583.587638
_symmetry_space_group_name_H-M "P -1"
_symmetry_group_IT_number 2
_symmetry_cell_setting 'triclinic'
loop_
_space_group_symop_operation_xyz
x,y,z
-x,-y,-z
loop_
_atom_site_type_symbol
_atom_site_label
_atom_site_fract_x
_atom_site_fract_y
_atom_site_fract_z
Si Si1 0.032913 0.725663 0.331546
Si Si2 0.353259 0.602797 0.995268
Si Si3 0.511870 0.668471 0.862078
Si Si4 0.761418 0.735235 0.314387
Si Si5 0.214110 0.438118 0.169672
Si Si6 0.330875 0.704514 0.376841
Si Si7 0.009299 0.362276 0.177231
O O1 0.119292 0.448240 0.301944
O O2 0.202147 0.547531 0.315072
O O3 0.758709 0.948040 0.176593
O O4 0.000000 0.000000 0.500000
O O5 0.477575 0.442256 0.108180
O O6 0.500000 0.500000 0.000000
O O7 0.255650 0.474097 0.794793
O O8 0.158411 0.995084 0.068575
O O9 0.552656 0.468214 0.700543
O O10 0.730357 0.594888 0.027029
O O11 0.982503 0.460380 0.304006
O O12 0.490403 0.054297 0.199576
O O13 0.782745 0.936849 0.507732
O O14 0.159996 0.685868 0.209671
O O15 0.000000 0.500000 0.000000
O O16 0.500000 0.500000 0.500000
#
# Coordination Sequence:
#
# PCOD9107146 Si02
#       7
#     2   2   2   2   2   2   2
#     4  12  23  38  63 101 136 167 212 274 327 380
#     4  11  25  46  68  95 129 173 227 282 327 386
#     4  11  23  42  69  98 129 177 222 261 329 402
#     4  10  20  40  63  88 128 174 212 262 324 389
#     4  11  20  33  59  96 129 164 209 265 319 374
#     4  10  21  39  62  96 135 168 208 265 326 390
#     4  11  23  44  68  94 130 177 224 271 324 399
#
# _framework density 23.989543000000001
#
# number of rings (size 3 to 8) (size 9 to 14) (size 15 to 20)
#    0.000    1.143    0.000    9.857    0.000    2.286 
#    0.000    5.714    0.000    1.714    0.000    1.000 
#    0.000    0.000    0.000    0.000    0.000    0.000 
#
# Total GULP energy -78075.342399 kJ/mol
# GULP energy per Si atom -5576.810171 kJ/mol
# Density = 2.393494 g / cm^3
# Si number density = 23.989543 Si / 1000 Ang^3
#
#
#
# Elastic Constant Matrix: (Units=GPa)
#
#
# Indices 1 2 3 4 5 6 
#
# 1 204.7820 49.6170 54.5314 38.7989 3.6345 -27.1110
# 2 49.6170 92.9659 39.0690 42.1838 8.6538 -25.0792
# 3 54.5314 39.0690 99.0061 39.9354 4.4176 0.7015
# 4 38.7989 42.1838 39.9354 46.0902 13.1056 -10.1184
# 5 3.6345 8.6538 4.4176 13.1056 42.3867 8.9933
# 6 -27.1110 -25.0792 0.7015 -10.1184 8.9933 38.2192
#
#
#
# Elastic Compliance Matrix: (Units=1/GPa)
#
#
# Indices 1 2 3 4 5 6 
#
# 1 0.006608 -0.000412 -0.002799 -0.001695 -0.000547 0.004149
# 2 -0.000412 0.021568 -0.002463 -0.014408 -0.001892 0.010536
# 3 -0.002799 -0.002463 0.018457 -0.014921 0.005375 -0.009155
# 4 -0.001695 -0.014408 -0.014921 0.054806 -0.013871 0.007391
# 5 -0.000547 -0.001892 0.005375 -0.013871 0.030419 -0.012559
# 6 0.004149 0.010536 -0.009155 0.007391 -0.012559 0.041102
#
#
# Mechanical properties :
#
#
# Convention : Reuss Voigt Hill
#
# Bulk Modulus (GPa) = 28.33880 75.90984 52.12432
# Shear Modulus (GPa) = 25.50144 42.24167 33.87156
#
# Velocity S-wave (km/s) = 3.26394 4.20079 3.76164
# Velocity P-wave (km/s) = 5.10324 7.43239 6.37508
#
# Compressibility (1/GPa) = 0.03528731
#
# Stress axis : x y z
#
# Youngs Moduli (GPa) = 151.32395 46.36599 54.17931
#
# Poissons Ratio (x) = 0.01908 0.15164
# Poissons Ratio (y) = 0.06227 0.13342
# Poissons Ratio (z) = 0.42352 0.11418
#
# Static dielectric constant tensor:
#      x y z
#    x 1.909720 0.057150 -0.080130 
#    y 0.057150 1.930640 -0.066290 
#    z -0.080130 -0.066290 2.000400 
# 
# From -- ./inp_files/576003.got.cif
#   From: 2010.05.17/outbox.cif.g08.bks.cpg/sg2_289_cif.got.tgz:576003.got - 2010.06.03 11:33:40.
