data_PCOD9107401
_publ_section_title
;
Structure prediction by ZEFSAII (Michael W. Deem and Ramdas Pophale) SiO2 
 PCOD9107401
Probable space group: P -1
;
_chemical_formula_sum "Si O2"
_cell_formula_units_Z 16
_cell_length_a 11.767167
_cell_length_b 12.372158
_cell_length_c 11.683366
_cell_angle_alpha 35.094329
_cell_angle_beta 68.798626
_cell_angle_gamma 95.007755
_cell_volume 637.497519
_symmetry_space_group_name_H-M "P -1"
_symmetry_group_IT_number 2
_symmetry_cell_setting 'triclinic'
loop_
_space_group_symop_operation_xyz
x,y,z
-x,-y,-z
loop_
_atom_site_type_symbol
_atom_site_label
_atom_site_fract_x
_atom_site_fract_y
_atom_site_fract_z
Si Si1 0.382660 0.999212 0.670181
Si Si2 0.690456 0.798079 0.670949
Si Si3 0.238742 0.347799 0.772189
Si Si4 0.166725 0.401033 0.326181
Si Si5 0.149257 0.522219 0.469632
Si Si6 0.642968 0.904454 0.147791
Si Si7 0.098317 0.792967 0.576890
Si Si8 0.790121 0.485729 0.136993
O O1 0.304380 0.012471 0.575472
O O2 0.330511 0.042846 0.770556
O O3 0.591767 0.247026 0.373495
O O4 0.310644 0.709405 0.961631
O O5 0.805788 0.769437 0.591912
O O6 0.752680 0.914272 0.675233
O O7 0.500000 0.500000 0.000000
O O8 0.122857 0.362385 0.726818
O O9 0.439920 0.636536 0.434782
O O10 0.242867 0.141322 0.902485
O O11 0.197594 0.333198 0.932848
O O12 0.184817 0.422814 0.436434
O O13 0.979479 0.268514 0.466586
O O14 0.000000 0.500000 0.500000
O O15 0.307935 0.843476 0.145453
O O16 0.162689 0.652639 0.692647
O O17 0.931827 0.652783 0.840907
#
# Coordination Sequence:
#
# PCOD9107401 Si02
#       8
#     2   2   2   2   2   2   2   2
#     4  10  21  41  63  89 124 159 202 250 303 360
#     4  12  25  40  64  91 118 159 206 252 302 360
#     4  10  20  40  64  90 121 158 204 247 298 355
#     4  11  24  42  62  88 125 164 201 249 302 357
#     4  11  23  38  61  92 124 158 199 248 301 357
#     4   9  21  39  63  90 120 159 200 248 300 357
#     4  11  23  40  60  89 124 160 204 247 300 362
#     4  10  21  38  65  90 122 166 199 249 305 353
#
# _framework density 25.098137000000001
#
# number of rings (size 3 to 8) (size 9 to 14) (size 15 to 20)
#    0.000    1.500    0.000    5.250    0.000    4.000 
#    0.000    8.750    0.000    0.000    0.000    0.000 
#    0.000    0.000    0.000    0.000    0.000    0.000 
#
# Total GULP energy -89712.579214 kJ/mol
# GULP energy per Si atom -5607.036201 kJ/mol
# Density = 2.504101 g / cm^3
# Si number density = 25.098137 Si / 1000 Ang^3
#
#
#
# Elastic Constant Matrix: (Units=GPa)
#
#
# Indices 1 2 3 4 5 6 
#
# 1 103.1839 33.1509 10.5621 4.5488 2.5464 5.8906
# 2 33.1509 129.2271 16.3552 -12.4294 9.8997 -10.4107
# 3 10.5621 16.3552 90.0537 -15.2757 -8.9818 11.1509
# 4 4.5488 -12.4294 -15.2757 28.4108 8.8077 -0.8853
# 5 2.5464 9.8997 -8.9818 8.8077 30.3015 0.7067
# 6 5.8906 -10.4107 11.1509 -0.8853 0.7067 40.9291
#
#
#
# Elastic Compliance Matrix: (Units=1/GPa)
#
#
# Indices 1 2 3 4 5 6 
#
# 1 0.011189 -0.003431 -0.001009 -0.004272 0.001177 -0.002321
# 2 -0.003431 0.010059 -0.001390 0.005934 -0.005220 0.003650
# 3 -0.001009 -0.001390 0.013180 0.005625 0.002898 -0.003728
# 4 -0.004272 0.005934 0.005625 0.045659 -0.013226 0.001808
# 5 0.001177 -0.005220 0.002898 -0.013226 0.039387 -0.003253
# 6 -0.002321 0.003650 -0.003728 0.001808 -0.003253 0.026806
#
#
# Mechanical properties :
#
#
# Convention : Reuss Voigt Hill
#
# Bulk Modulus (GPa) = 43.92202 49.17787 46.54995
# Shear Modulus (GPa) = 30.20599 37.42138 33.81369
#
# Velocity S-wave (km/s) = 3.47294 3.86554 3.67448
# Velocity P-wave (km/s) = 5.79826 6.28967 6.04896
#
# Compressibility (1/GPa) = 0.02276762
#
# Stress axis : x y z
#
# Youngs Moduli (GPa) = 89.37607 99.41266 75.87138
#
# Poissons Ratio (x) = 0.34104 0.07656
# Poissons Ratio (y) = 0.30661 0.10550
# Poissons Ratio (z) = 0.09019 0.13823
#
# Static dielectric constant tensor:
#      x y z
#    x 1.960560 -0.002660 -0.028940 
#    y -0.002660 1.958090 -0.000730 
#    z -0.028940 -0.000730 1.995930 
# 
# From -- ./inp_files/427378.got.cif
#   From: 2010.05.17/outbox.cif.g08.bks.cpg/sg2_214_cif.got.tgz:427378.got - 2010.06.03 11:33:40.
