data_PCOD9107464
_publ_section_title
;
Structure prediction by ZEFSAII (Michael W. Deem and Ramdas Pophale) SiO2 
 PCOD9107464
Probable space group: P -1
;
_chemical_formula_sum "Si O2"
_cell_formula_units_Z 16
_cell_length_a 13.811601
_cell_length_b 9.267089
_cell_length_c 14.577428
_cell_angle_alpha 84.753289
_cell_angle_beta 146.302837
_cell_angle_gamma 72.462343
_cell_volume 752.809921
_symmetry_space_group_name_H-M "P -1"
_symmetry_group_IT_number 2
_symmetry_cell_setting 'triclinic'
loop_
_space_group_symop_operation_xyz
x,y,z
-x,-y,-z
loop_
_atom_site_type_symbol
_atom_site_label
_atom_site_fract_x
_atom_site_fract_y
_atom_site_fract_z
Si Si1 0.906392 0.684704 0.194660
Si Si2 0.961880 0.934559 0.339349
Si Si3 0.117362 0.090628 0.101504
Si Si4 0.167720 0.992484 0.347166
Si Si5 0.047224 0.374991 0.454013
Si Si6 0.250456 0.630181 0.344245
Si Si7 0.280998 0.703529 0.761855
Si Si8 0.494414 0.021758 0.717505
O O1 0.888683 0.822992 0.247085
O O2 0.900282 0.535385 0.247532
O O3 0.163970 0.565104 0.355795
O O4 0.697657 0.832309 0.950204
O O5 0.966069 0.054184 0.255508
O O6 0.223828 0.764248 0.604376
O O7 0.769552 0.110471 0.246582
O O8 0.120245 0.112557 0.211064
O O9 0.367666 0.960492 0.252049
O O10 0.936447 0.291350 0.890090
O O11 0.000000 0.000000 0.000000
O O12 0.233907 0.796699 0.370585
O O13 0.352167 0.979343 0.552800
O O14 0.314791 0.207520 0.634157
O O15 0.000000 0.500000 0.500000
O O16 0.941344 0.277502 0.393916
O O17 0.500000 0.500000 0.500000
O O18 0.500000 0.500000 0.000000
#
# Coordination Sequence:
#
# PCOD9107464 Si02
#       8
#     2   2   2   2   2   2   2   2
#     4  10  24  41  66  93 130 172 216 258 340 379
#     4  10  22  45  62  93 131 171 211 274 324 391
#     4   9  20  40  66  93 124 173 209 249 335 387
#     4  10  20  40  64  93 128 169 214 258 330 383
#     4  12  26  44  65 100 127 171 228 269 322 387
#     4   9  20  41  63  94 130 168 213 267 317 394
#     4  11  25  43  67  92 128 169 226 269 330 383
#     4  11  24  43  66  94 137 169 213 278 318 387
#
# _framework density 21.253706000000001
#
# number of rings (size 3 to 8) (size 9 to 14) (size 15 to 20)
#    0.000    1.750    2.500    1.125    7.000    0.500 
#    6.750    1.250    0.000    0.000    0.000    0.000 
#    0.000    0.000    0.000    0.000    0.000    0.000 
#
# Total GULP energy -89071.110932 kJ/mol
# GULP energy per Si atom -5566.944433 kJ/mol
# Density = 2.120533 g / cm^3
# Si number density = 21.253706 Si / 1000 Ang^3
#
#
#
# Elastic Constant Matrix: (Units=GPa)
#
#
# Indices 1 2 3 4 5 6 
#
# 1 93.7131 26.4797 17.5820 -5.1294 -10.3422 4.1428
# 2 26.4797 33.2894 21.5970 6.4881 -7.6854 -3.2267
# 3 17.5820 21.5970 78.6573 -4.6301 -13.2298 -15.8307
# 4 -5.1294 6.4881 -4.6301 27.6253 0.6254 -4.8312
# 5 -10.3422 -7.6854 -13.2298 0.6254 34.7483 4.5642
# 6 4.1428 -3.2267 -15.8307 -4.8312 4.5642 33.0157
#
#
#
# Elastic Compliance Matrix: (Units=1/GPa)
#
#
# Indices 1 2 3 4 5 6 
#
# 1 0.014862 -0.012903 0.000375 0.005385 0.001934 -0.002426
# 2 -0.012903 0.052267 -0.012310 -0.017201 0.003631 -0.002194
# 3 0.000375 -0.012310 0.018680 0.007478 0.003270 0.008349
# 4 0.005385 -0.017201 0.007478 0.043884 -0.001171 0.007812
# 5 0.001934 0.003631 0.003270 -0.001171 0.031802 -0.002888
# 6 -0.002426 -0.002194 0.008349 0.007812 -0.002888 0.035924
#
#
# Mechanical properties :
#
#
# Convention : Reuss Voigt Hill
#
# Bulk Modulus (GPa) = 27.67599 37.44190 32.55895
# Shear Modulus (GPa) = 19.29449 28.41126 23.85287
#
# Velocity S-wave (km/s) = 3.01627 3.66015 3.35370
# Velocity P-wave (km/s) = 5.01802 5.95963 5.50898
#
# Compressibility (1/GPa) = 0.03613240
#
# Stress axis : x y z
#
# Youngs Moduli (GPa) = 67.28656 19.13235 53.53285
#
# Poissons Ratio (x) = 0.24686 -0.02006
# Poissons Ratio (y) = 0.86819 0.65901
# Poissons Ratio (z) = -0.02522 0.23553
#
# Static dielectric constant tensor:
#      x y z
#    x 1.963360 -0.069740 -0.040250 
#    y -0.069740 1.766650 -0.024180 
#    z -0.040250 -0.024180 1.815100 
# 
# From -- ./inp_files/350222.got.cif
#   From: 2010.05.17/outbox.cif.g08.bks.cpg/sg2_176_cif.got.tgz:350222.got - 2010.06.03 11:33:40.
