data_PCOD9107266
_publ_section_title
;
Structure prediction by ZEFSAII (Michael W. Deem and Ramdas Pophale) SiO2 
 PCOD9107266
Probable space group: P -1
;
_chemical_formula_sum "Si O2"
_cell_formula_units_Z 14
_cell_length_a 5.694609
_cell_length_b 6.245733
_cell_length_c 21.053090
_cell_angle_alpha 124.819590
_cell_angle_beta 65.585068
_cell_angle_gamma 104.088421
_cell_volume 559.727825
_symmetry_space_group_name_H-M "P -1"
_symmetry_group_IT_number 2
_symmetry_cell_setting 'triclinic'
loop_
_space_group_symop_operation_xyz
x,y,z
-x,-y,-z
loop_
_atom_site_type_symbol
_atom_site_label
_atom_site_fract_x
_atom_site_fract_y
_atom_site_fract_z
Si Si1 0.692110 0.728695 0.807178
Si Si2 0.698324 0.779743 0.459998
Si Si3 0.878854 0.257514 0.343634
Si Si4 0.155309 0.084461 0.395712
Si Si5 0.653708 0.771819 0.091215
Si Si6 0.317353 0.246523 0.049719
Si Si7 0.379390 0.210818 0.761848
O O1 0.821859 0.716325 0.860990
O O2 0.468306 0.506270 0.790255
O O3 0.901256 0.693962 0.724263
O O4 0.554068 0.003450 0.858902
O O5 0.666742 0.479158 0.392263
O O6 0.711199 0.795819 0.537149
O O7 0.500000 0.000000 0.500000
O O8 0.964906 0.872437 0.413348
O O9 0.993505 0.283702 0.405428
O O10 0.792156 0.955710 0.295649
O O11 0.352123 0.946029 0.301788
O O12 0.504811 0.497000 0.065439
O O13 0.756073 0.812882 0.157958
O O14 0.819447 0.772982 0.007474
O O15 0.500000 0.000000 0.000000
#
# Coordination Sequence:
#
# PCOD9107266 Si02
#       7
#     2   2   2   2   2   2   2
#     4  10  20  40  63  95 136 174 221 276 325 394
#     4  11  26  46  70  97 131 176 226 276 338 405
#     4  12  25  43  71  98 133 180 220 276 341 396
#     4  11  24  45  67  97 134 172 222 281 334 400
#     4   9  17  35  63  94 133 177 217 272 330 382
#     4   8  16  32  63  95 129 179 218 264 333 384
#     4  11  23  39  66  99 130 174 225 270 333 398
#
# _framework density 25.012157999999999
#
# number of rings (size 3 to 8) (size 9 to 14) (size 15 to 20)
#    0.000    1.714    2.857    1.286    0.000    6.857 
#    0.000    0.714    0.000   29.143    0.000    0.000 
#    0.000    0.000    0.000    0.000    0.000    0.000 
#
# Total GULP energy -78225.772900 kJ/mol
# GULP energy per Si atom -5587.555207 kJ/mol
# Density = 2.495523 g / cm^3
# Si number density = 25.012158 Si / 1000 Ang^3
#
#
#
# Elastic Constant Matrix: (Units=GPa)
#
#
# Indices 1 2 3 4 5 6 
#
# 1 47.5661 27.2708 30.8189 -0.8780 9.7492 -4.6153
# 2 27.2708 146.5334 74.8958 5.8101 -5.4188 1.3732
# 3 30.8189 74.8958 121.6720 -8.3962 28.7890 -8.7481
# 4 -0.8780 5.8101 -8.3962 55.5707 -6.2209 -8.9928
# 5 9.7492 -5.4188 28.7890 -6.2209 20.3523 -6.2438
# 6 -4.6153 1.3732 -8.7481 -8.9928 -6.2438 31.3967
#
#
#
# Elastic Compliance Matrix: (Units=1/GPa)
#
#
# Indices 1 2 3 4 5 6 
#
# 1 0.027281 -0.005570 -0.000058 -0.000371 -0.014180 0.001312
# 2 -0.005570 0.017633 -0.016807 -0.001122 0.030640 -0.000501
# 3 -0.000058 -0.016807 0.029501 0.001114 -0.045788 0.000160
# 4 -0.000371 -0.001122 0.001114 0.020239 0.006775 0.007449
# 5 -0.014180 0.030640 -0.045788 0.006775 0.134778 0.012561
# 6 0.001312 -0.000501 0.000160 0.007449 0.012561 0.036741
#
#
# Mechanical properties :
#
#
# Convention : Reuss Voigt Hill
#
# Bulk Modulus (GPa) = 33.84412 64.63805 49.24109
# Shear Modulus (GPa) = 15.58166 33.64967 24.61567
#
# Velocity S-wave (km/s) = 2.49863 3.67186 3.14052
# Velocity P-wave (km/s) = 4.67810 6.62386 5.73411
#
# Compressibility (1/GPa) = 0.02954723
#
# Stress axis : x y z
#
# Youngs Moduli (GPa) = 36.65577 56.71073 33.89699
#
# Poissons Ratio (x) = 0.31586 0.00196
# Poissons Ratio (y) = 0.20416 0.56970
# Poissons Ratio (z) = 0.00212 0.95312
#
# Static dielectric constant tensor:
#      x y z
#    x 1.999740 0.004900 0.035030 
#    y 0.004900 1.938610 -0.010720 
#    z 0.035030 -0.010720 2.009290 
# 
# From -- ./inp_files/8049.got.cif
#   From: 2010.05.17/outbox.cif.g08.bks.cpg/sg2_5_cif.got.tgz:8049.got - 2010.06.03 11:33:40.
