data_PCOD9107752
_publ_section_title
;
Structure prediction by ZEFSAII (Michael W. Deem and Ramdas Pophale) SiO2 
 PCOD9107752
Probable space group: P -1
;
_chemical_formula_sum "Si O2"
_cell_formula_units_Z 12
_cell_length_a 8.512881
_cell_length_b 6.999766
_cell_length_c 15.286247
_cell_angle_alpha 76.017079
_cell_angle_beta 112.694188
_cell_angle_gamma 56.111069
_cell_volume 559.950275
_symmetry_space_group_name_H-M "P -1"
_symmetry_group_IT_number 2
_symmetry_cell_setting 'triclinic'
loop_
_space_group_symop_operation_xyz
x,y,z
-x,-y,-z
loop_
_atom_site_type_symbol
_atom_site_label
_atom_site_fract_x
_atom_site_fract_y
_atom_site_fract_z
Si Si1 0.197943 0.546385 0.288685
Si Si2 0.095650 0.774442 0.622819
Si Si3 0.235252 0.026322 0.723303
Si Si4 0.319807 0.129901 0.537164
Si Si5 0.212317 0.344341 0.133601
Si Si6 0.447106 0.756250 0.324189
O O1 0.429522 0.203109 0.390590
O O2 0.141544 0.553435 0.173494
O O3 0.303664 0.674988 0.315564
O O4 0.953840 0.728831 0.274368
O O5 0.349141 0.462156 0.681488
O O6 0.153962 0.869850 0.704441
O O7 0.000000 0.000000 0.500000
O O8 0.884246 0.787943 0.580519
O O9 0.224918 0.145116 0.613158
O O10 0.524889 0.802949 0.833359
O O11 0.396260 0.291536 0.554111
O O12 0.272959 0.080890 0.219601
O O13 0.000000 0.500000 0.000000
#
# Coordination Sequence:
#
# PCOD9107752 Si02
#       6
#     2   2   2   2   2   2
#     4  10  19  38  55  86 115 139 185 233 270 329
#     4  10  16  35  58  81 116 154 180 214 271 327
#     4   9  19  36  58  80 116 147 176 237 271 317
#     4   9  20  35  55  83 119 152 183 214 265 329
#     4  10  23  42  60  78 106 146 188 235 284 326
#     4  10  18  37  59  80 112 149 182 228 271 324
#
# _framework density 21.430474
#
# number of rings (size 3 to 8) (size 9 to 14) (size 15 to 20)
#    0.000    2.667    5.000    0.500    0.000    2.000 
#   12.000    1.667    0.000    0.000    0.000    0.000 
#    0.000    0.000    0.000    0.000    0.000    0.000 
#
# Total GULP energy -67023.487679 kJ/mol
# GULP energy per Si atom -5585.290640 kJ/mol
# Density = 2.138170 g / cm^3
# Si number density = 21.430474 Si / 1000 Ang^3
#
#
#
# Elastic Constant Matrix: (Units=GPa)
#
#
# Indices 1 2 3 4 5 6 
#
# 1 133.9392 76.2959 54.2526 14.1250 34.3267 -22.9469
# 2 76.2959 143.3059 47.4803 22.7353 19.7694 -5.4485
# 3 54.2526 47.4803 121.5224 15.3700 39.2942 5.7162
# 4 14.1250 22.7353 15.3700 26.4394 7.0414 7.3399
# 5 34.3267 19.7694 39.2942 7.0414 26.5168 0.7902
# 6 -22.9469 -5.4485 5.7162 7.3399 0.7902 55.5873
#
#
#
# Elastic Compliance Matrix: (Units=1/GPa)
#
#
# Indices 1 2 3 4 5 6 
#
# 1 0.016406 -0.006099 0.000485 -0.000989 -0.017341 0.006502
# 2 -0.006099 0.011355 -0.002421 -0.006235 0.004685 -0.000399
# 3 0.000485 -0.002421 0.016665 -0.001363 -0.023118 -0.001242
# 4 -0.000989 -0.006235 -0.001363 0.047677 -0.004500 -0.007111
# 5 -0.017341 0.004685 -0.023118 -0.004500 0.092271 -0.005040
# 6 0.006502 -0.000399 -0.001242 -0.007111 -0.005040 0.021773
#
#
# Mechanical properties :
#
#
# Convention : Reuss Voigt Hill
#
# Bulk Modulus (GPa) = 35.26674 83.86948 59.56811
# Shear Modulus (GPa) = 21.58247 36.42461 29.00354
#
# Velocity S-wave (km/s) = 3.17691 4.12717 3.68282
# Velocity P-wave (km/s) = 5.47258 7.86969 6.77795
#
# Compressibility (1/GPa) = 0.02835533
#
# Stress axis : x y z
#
# Youngs Moduli (GPa) = 60.95168 88.06569 60.00779
#
# Poissons Ratio (x) = 0.53712 -0.02910
# Poissons Ratio (y) = 0.37175 0.14530
# Poissons Ratio (z) = -0.02956 0.21324
#
# Static dielectric constant tensor:
#      x y z
#    x 1.926460 0.010740 -0.067860 
#    y 0.010740 1.797360 0.010660 
#    z -0.067860 0.010660 1.807440 
# 
# From -- ./inp_files/584665.got.cif
#   From: 2010.05.17/outbox.cif.g08.bks.cpg/sg2_293_cif.got.tgz:584665.got - 2010.06.03 11:33:40.
