data_PCOD9107099
_publ_section_title
;
Structure prediction by ZEFSAII (Michael W. Deem and Ramdas Pophale) SiO2 
 PCOD9107099
Probable space group: P -1
;
_chemical_formula_sum "Si O2"
_cell_formula_units_Z 16
_cell_length_a 15.717123
_cell_length_b 15.709231
_cell_length_c 8.806854
_cell_angle_alpha 55.586917
_cell_angle_beta 40.521878
_cell_angle_gamma 34.613925
_cell_volume 791.705637
_symmetry_space_group_name_H-M "P -1"
_symmetry_group_IT_number 2
_symmetry_cell_setting 'triclinic'
loop_
_space_group_symop_operation_xyz
x,y,z
-x,-y,-z
loop_
_atom_site_type_symbol
_atom_site_label
_atom_site_fract_x
_atom_site_fract_y
_atom_site_fract_z
Si Si1 0.923248 0.142457 0.369329
Si Si2 0.681942 0.547231 0.719353
Si Si3 0.046406 0.283367 0.653097
Si Si4 0.764963 0.890394 0.141213
Si Si5 0.410678 0.574710 0.260918
Si Si6 0.432027 0.008476 0.250173
Si Si7 0.199363 0.774669 0.883067
Si Si8 0.607166 0.146130 0.340545
O O1 0.735165 0.298824 0.545656
O O2 0.874711 0.144308 0.259613
O O3 0.000000 0.000000 0.500000
O O4 0.084818 0.137610 0.141544
O O5 0.699098 0.437974 0.694697
O O6 0.599681 0.688781 0.591747
O O7 0.875093 0.451910 0.649220
O O8 0.509174 0.612631 0.000116
O O9 0.123062 0.252310 0.752830
O O10 0.230945 0.177824 0.400085
O O11 0.946857 0.226424 0.852583
O O12 0.596229 0.943400 0.214524
O O13 0.674193 0.026240 0.244137
O O14 0.595264 0.402465 0.240847
O O15 0.399464 0.906626 0.434690
O O16 0.500000 0.000000 0.000000
O O17 0.246001 0.843244 0.858445
#
# Coordination Sequence:
#
# PCOD9107099 Si02
#       8
#     2   2   2   2   2   2   2   2
#     4  11  22  31  57  90 124 149 191 245 283 345
#     4   9  18  34  62  89 108 160 191 238 290 343
#     4   9  19  38  63  84 115 151 197 228 294 351
#     4  10  23  40  56  85 114 161 195 233 297 342
#     4   9  18  34  54  85 129 149 184 232 301 353
#     4  11  25  41  59  79 120 162 192 242 293 342
#     4   9  20  36  60  90 113 158 186 240 299 337
#     4  10  20  40  63  84 122 147 203 238 281 361
#
# _framework density 20.209531999999999
#
# number of rings (size 3 to 8) (size 9 to 14) (size 15 to 20)
#    0.000    2.250    0.000    3.375    3.500    5.500 
#    0.000    3.125    0.000    0.000    0.000    0.000 
#    0.000    0.000    0.000    0.000    0.000    0.000 
#
# Total GULP energy -89324.533431 kJ/mol
# GULP energy per Si atom -5582.783339 kJ/mol
# Density = 2.016353 g / cm^3
# Si number density = 20.209532 Si / 1000 Ang^3
#
#
#
# Elastic Constant Matrix: (Units=GPa)
#
#
# Indices 1 2 3 4 5 6 
#
# 1 81.6030 12.0725 16.3946 13.9469 -9.7469 -20.1578
# 2 12.0725 54.2784 20.2475 8.3505 7.0146 -23.2647
# 3 16.3946 20.2475 91.3524 13.5569 13.1839 -4.9868
# 4 13.9469 8.3505 13.5569 23.4139 -6.2934 1.3146
# 5 -9.7469 7.0146 13.1839 -6.2934 27.8018 -1.6602
# 6 -20.1578 -23.2647 -4.9868 1.3146 -1.6602 29.5277
#
#
#
# Elastic Compliance Matrix: (Units=1/GPa)
#
#
# Indices 1 2 3 4 5 6 
#
# 1 0.018802 0.005327 -0.002674 -0.011177 0.005022 0.017362
# 2 0.005327 0.035802 -0.003412 -0.017809 -0.007690 0.031629
# 3 -0.002674 -0.003412 0.014506 -0.007848 -0.008864 -0.002213
# 4 -0.011177 -0.017809 -0.007848 0.066462 0.017852 -0.024943
# 5 0.005022 -0.007690 -0.008864 0.017852 0.047781 -0.002236
# 6 0.017362 0.031629 -0.002213 -0.024943 -0.002236 0.071251
#
#
# Mechanical properties :
#
#
# Convention : Reuss Voigt Hill
#
# Bulk Modulus (GPa) = 14.79424 36.07367 25.43396
# Shear Modulus (GPa) = 17.94362 28.04995 22.99678
#
# Velocity S-wave (km/s) = 2.98296 3.72957 3.37696
# Velocity P-wave (km/s) = 4.38183 6.03613 5.27424
#
# Compressibility (1/GPa) = 0.06759388
#
# Stress axis : x y z
#
# Youngs Moduli (GPa) = 53.18506 27.93133 68.93837
#
# Poissons Ratio (x) = -0.14880 0.18431
# Poissons Ratio (y) = -0.28333 0.23521
# Poissons Ratio (z) = 0.14219 0.09530
#
# Static dielectric constant tensor:
#      x y z
#    x 1.746810 -0.021740 -0.028710 
#    y -0.021740 1.750650 -0.027080 
#    z -0.028710 -0.027080 1.722200 
# 
# From -- ./inp_files/312607.got.cif
#   From: 2010.05.17/outbox.cif.g08.bks.cpg/sg2_157_cif.got.tgz:312607.got - 2010.06.03 11:33:40.
