data_PCOD9107409
_publ_section_title
;
Structure prediction by ZEFSAII (Michael W. Deem and Ramdas Pophale) SiO2 
 PCOD9107409
Probable space group: P -1
;
_chemical_formula_sum "Si O2"
_cell_formula_units_Z 16
_cell_length_a 11.081738
_cell_length_b 8.050949
_cell_length_c 15.940317
_cell_angle_alpha 58.321408
_cell_angle_beta 130.630522
_cell_angle_gamma 141.847467
_cell_volume 666.498225
_symmetry_space_group_name_H-M "P -1"
_symmetry_group_IT_number 2
_symmetry_cell_setting 'triclinic'
loop_
_space_group_symop_operation_xyz
x,y,z
-x,-y,-z
loop_
_atom_site_type_symbol
_atom_site_label
_atom_site_fract_x
_atom_site_fract_y
_atom_site_fract_z
Si Si1 0.402743 0.214292 0.568077
Si Si2 0.573630 0.289791 0.812789
Si Si3 0.467884 0.289399 0.118512
Si Si4 0.226584 0.746876 0.339079
Si Si5 0.426142 0.701529 0.009498
Si Si6 0.079594 0.720726 0.095683
Si Si7 0.953840 0.647249 0.498457
Si Si8 0.476296 0.309575 0.306672
O O1 0.500000 0.500000 0.500000
O O2 0.441955 0.198417 0.689194
O O3 0.549547 0.178693 0.596845
O O4 0.147430 0.967060 0.498353
O O5 0.466683 0.134922 0.896706
O O6 0.783280 0.331597 0.876076
O O7 0.628276 0.565188 0.779154
O O8 0.522711 0.563850 0.075410
O O9 0.517154 0.265529 0.241924
O O10 0.209406 0.031286 0.055089
O O11 0.572521 0.247923 0.103235
O O12 0.112314 0.706906 0.211949
O O13 0.069085 0.470746 0.390307
O O14 0.306950 0.013984 0.349100
O O15 0.174639 0.487301 0.980050
O O16 0.712651 0.522140 0.399882
O O17 0.000000 0.500000 0.500000
#
# Coordination Sequence:
#
# PCOD9107409 Si02
#       8
#     2   2   2   2   2   2   2   2
#     4  11  25  45  65  96 139 169 215 278 333 387
#     4  10  23  40  63  93 132 174 211 274 336 378
#     4   9  21  39  63  95 130 167 217 279 324 377
#     4  10  23  41  63  96 131 170 217 280 319 384
#     4  10  20  40  64  90 125 172 221 268 325 395
#     4  10  21  38  64  91 130 173 215 265 331 393
#     4  12  25  40  72  98 121 180 229 259 331 402
#     4  10  21  42  66  95 136 171 223 275 324 394
#
# _framework density 24.006063999999999
#
# number of rings (size 3 to 8) (size 9 to 14) (size 15 to 20)
#    0.000    1.750    1.250    1.875    3.500    2.500 
#    0.000    7.500    0.000    0.000    0.000    0.000 
#    0.000    0.000    0.000    0.000    0.000    0.000 
#
# Total GULP energy -89242.203968 kJ/mol
# GULP energy per Si atom -5577.637748 kJ/mol
# Density = 2.395143 g / cm^3
# Si number density = 24.006064 Si / 1000 Ang^3
#
#
#
# Elastic Constant Matrix: (Units=GPa)
#
#
# Indices 1 2 3 4 5 6 
#
# 1 95.0330 13.6311 21.3040 5.3855 -22.3624 -7.4939
# 2 13.6311 97.5622 27.5062 12.1399 -7.6945 15.9240
# 3 21.3040 27.5062 91.1392 3.9674 -20.0263 5.9977
# 4 5.3855 12.1399 3.9674 28.0259 -0.6731 -2.6876
# 5 -22.3624 -7.6945 -20.0263 -0.6731 48.7442 -4.1089
# 6 -7.4939 15.9240 5.9977 -2.6876 -4.1089 26.9909
#
#
#
# Elastic Compliance Matrix: (Units=1/GPa)
#
#
# Indices 1 2 3 4 5 6 
#
# 1 0.012921 -0.001748 -0.001637 -0.000813 0.005451 0.005731
# 2 -0.001748 0.013379 -0.002975 -0.005862 -0.000702 -0.008408
# 3 -0.001637 -0.002975 0.013240 -0.000272 0.004128 -0.001040
# 4 -0.000813 -0.005862 -0.000272 0.039094 -0.000268 0.007145
# 5 0.005451 -0.000702 0.004128 -0.000268 0.025001 0.004790
# 6 0.005731 -0.008408 -0.001040 0.007145 0.004790 0.045273
#
#
# Mechanical properties :
#
#
# Convention : Reuss Voigt Hill
#
# Bulk Modulus (GPa) = 37.28484 45.40188 41.34336
# Shear Modulus (GPa) = 29.31370 35.50509 32.40940
#
# Velocity S-wave (km/s) = 3.49821 3.84996 3.67829
# Velocity P-wave (km/s) = 5.64639 6.22227 5.94131
#
# Compressibility (1/GPa) = 0.02682055
#
# Stress axis : x y z
#
# Youngs Moduli (GPa) = 77.39259 74.74228 75.52913
#
# Poissons Ratio (x) = 0.13067 0.12361
# Poissons Ratio (y) = 0.13530 0.22470
# Poissons Ratio (z) = 0.12666 0.22236
#
# Static dielectric constant tensor:
#      x y z
#    x 1.955100 -0.006230 -0.084130 
#    y -0.006230 2.032410 -0.064350 
#    z -0.084130 -0.064350 1.965380 
# 
# From -- ./inp_files/566653.got.cif
#   From: 2010.05.17/outbox.cif.g08.bks.cpg/sg2_284_cif.got.tgz:566653.got - 2010.06.03 11:33:40.
