data_PCOD9107585
_publ_section_title
;
Structure prediction by ZEFSAII (Michael W. Deem and Ramdas Pophale) SiO2 
 PCOD9107585
Probable space group: P -1
;
_chemical_formula_sum "Si O2"
_cell_formula_units_Z 16
_cell_length_a 19.045037
_cell_length_b 8.118826
_cell_length_c 11.565526
_cell_angle_alpha 142.557451
_cell_angle_beta 40.414094
_cell_angle_gamma 120.850380
_cell_volume 685.510577
_symmetry_space_group_name_H-M "P -1"
_symmetry_group_IT_number 2
_symmetry_cell_setting 'triclinic'
loop_
_space_group_symop_operation_xyz
x,y,z
-x,-y,-z
loop_
_atom_site_type_symbol
_atom_site_label
_atom_site_fract_x
_atom_site_fract_y
_atom_site_fract_z
Si Si1 0.565582 0.746072 0.199300
Si Si2 0.104710 0.964216 0.261193
Si Si3 0.080210 0.731055 0.924462
Si Si4 0.239670 0.154543 0.374446
Si Si5 0.206824 0.800605 0.582116
Si Si6 0.580141 0.674872 0.880865
Si Si7 0.859116 0.607659 0.028262
Si Si8 0.193649 0.603547 0.247724
O O1 0.516552 0.469603 0.118719
O O2 0.500000 0.000000 0.500000
O O3 0.553549 0.824218 0.121399
O O4 0.694351 0.640673 0.014787
O O5 0.178836 0.653473 0.017619
O O6 0.178768 0.160932 0.327818
O O7 0.068522 0.946022 0.164950
O O8 0.000000 0.000000 0.500000
O O9 0.171023 0.442129 0.676210
O O10 0.124355 0.849355 0.820437
O O11 0.967166 0.645377 0.983099
O O12 0.365960 0.160688 0.190508
O O13 0.221686 0.884847 0.314716
O O14 0.319062 0.589740 0.360746
O O15 0.154675 0.686356 0.472210
O O16 0.227834 0.100595 0.692435
O O17 0.882508 0.512354 0.812241
#
# Coordination Sequence:
#
# PCOD9107585 Si02
#       8
#     2   2   2   2   2   2   2   2
#     4  10  20  40  65  86 120 152 193 244 304 360
#     4  11  23  38  58  82 119 163 204 243 289 346
#     4  11  23  37  60  84 118 166 200 245 293 345
#     4  10  22  40  59  89 122 155 204 242 290 356
#     4  10  22  38  56  87 120 151 204 246 293 351
#     4   9  21  39  62  89 116 158 192 244 302 353
#     4  11  22  36  58  83 119 159 202 243 289 346
#     4  10  23  38  60  88 118 157 195 250 298 346
#
# _framework density 23.340267000000001
#
# number of rings (size 3 to 8) (size 9 to 14) (size 15 to 20)
#    0.000    1.750    1.250    2.250    3.500    6.000 
#    0.000    0.625    0.000    0.000    0.000    0.000 
#    0.000    0.000    0.000    0.000    0.000    0.000 
#
# Total GULP energy -89405.217130 kJ/mol
# GULP energy per Si atom -5587.826071 kJ/mol
# Density = 2.328714 g / cm^3
# Si number density = 23.340267 Si / 1000 Ang^3
#
#
#
# Elastic Constant Matrix: (Units=GPa)
#
#
# Indices 1 2 3 4 5 6 
#
# 1 77.5447 -2.3594 37.7023 -13.1366 37.0908 -0.2669
# 2 -2.3594 51.5615 16.8276 -11.8679 4.4564 -5.7583
# 3 37.7023 16.8276 135.6782 -4.7622 37.2450 -12.8242
# 4 -13.1366 -11.8679 -4.7622 32.9147 -10.9522 -4.7278
# 5 37.0908 4.4564 37.2450 -10.9522 48.5481 3.6721
# 6 -0.2669 -5.7583 -12.8242 -4.7278 3.6721 29.7449
#
#
#
# Elastic Compliance Matrix: (Units=1/GPa)
#
#
# Indices 1 2 3 4 5 6 
#
# 1 0.022021 0.004627 -0.002265 0.005731 -0.014430 0.002809
# 2 0.004627 0.023615 -0.002950 0.010163 -0.001536 0.005146
# 3 -0.002265 -0.002950 0.010633 -0.002100 -0.006972 0.004520
# 4 0.005731 0.010163 -0.002100 0.038478 0.004475 0.006677
# 5 -0.014430 -0.001536 -0.006972 0.004475 0.038689 -0.007498
# 6 0.002809 0.005146 0.004520 0.006677 -0.007498 0.038576
#
#
# Mechanical properties :
#
#
# Convention : Reuss Voigt Hill
#
# Bulk Modulus (GPa) = 18.15100 41.01393 29.58246
# Shear Modulus (GPa) = 26.10256 36.41581 31.25918
#
# Velocity S-wave (km/s) = 3.34780 3.95424 3.66359
# Velocity P-wave (km/s) = 4.76836 6.20148 5.53153
#
# Compressibility (1/GPa) = 0.05509340
#
# Stress axis : x y z
#
# Youngs Moduli (GPa) = 45.41184 42.34515 94.04756
#
# Poissons Ratio (x) = -0.19593 0.21302
# Poissons Ratio (y) = -0.21012 0.27742
# Poissons Ratio (z) = 0.10286 0.12491
#
# Static dielectric constant tensor:
#      x y z
#    x 1.923160 -0.042820 0.008130 
#    y -0.042820 1.953240 -0.004610 
#    z 0.008130 -0.004610 1.889720 
# 
# From -- ./inp_files/138973.got.cif
#   From: 2010.05.17/outbox.cif.g08.bks.cpg/sg2_70_cif.got.tgz:138973.got - 2010.06.03 11:33:40.
