data_PCOD9107393
_publ_section_title
;
Structure prediction by ZEFSAII (Michael W. Deem and Ramdas Pophale) SiO2 
 PCOD9107393
Probable space group: P -1
;
_chemical_formula_sum "Si O2"
_cell_formula_units_Z 16
_cell_length_a 7.762642
_cell_length_b 13.353956
_cell_length_c 10.133243
_cell_angle_alpha 98.791789
_cell_angle_beta 46.752146
_cell_angle_gamma 77.018633
_cell_volume 672.351563
_symmetry_space_group_name_H-M "P -1"
_symmetry_group_IT_number 2
_symmetry_cell_setting 'triclinic'
loop_
_space_group_symop_operation_xyz
x,y,z
-x,-y,-z
loop_
_atom_site_type_symbol
_atom_site_label
_atom_site_fract_x
_atom_site_fract_y
_atom_site_fract_z
Si Si1 0.919659 0.088769 0.680894
Si Si2 0.996591 0.278424 0.433699
Si Si3 0.009521 0.236984 0.998829
Si Si4 0.227632 0.516592 0.210791
Si Si5 0.487033 0.739943 0.904209
Si Si6 0.182474 0.552277 0.686619
Si Si7 0.905829 0.120588 0.271214
Si Si8 0.630901 0.869020 0.448744
O O1 0.130681 0.140265 0.584501
O O2 0.630741 0.196156 0.880874
O O3 0.000000 0.000000 0.500000
O O4 0.960206 0.008930 0.773797
O O5 0.880603 0.366036 0.630479
O O6 0.912342 0.362921 0.369681
O O7 0.885362 0.192614 0.429092
O O8 0.315945 0.215725 0.250372
O O9 0.765181 0.237037 0.046614
O O10 0.921537 0.364859 0.117630
O O11 0.054749 0.154288 0.084982
O O12 0.246809 0.198734 0.763471
O O13 0.337962 0.397576 0.209890
O O14 0.978384 0.521549 0.257833
O O15 0.500000 0.500000 0.000000
O O16 0.500000 0.500000 0.500000
O O17 0.609273 0.153750 0.382279
O O18 0.500000 0.000000 0.500000
#
# Coordination Sequence:
#
# PCOD9107393 Si02
#       8
#     2   2   2   2   2   2   2   2
#     4  10  23  40  65  93 130 165 210 267 316 386
#     4  10  22  39  63  91 125 164 213 261 313 390
#     4  10  21  40  66  90 128 167 213 266 315 387
#     4  11  24  39  63  94 130 170 212 268 326 385
#     4  10  22  43  63  91 127 170 210 264 327 373
#     4  10  20  40  64  89 125 169 212 265 320 376
#     4  10  23  40  65  95 124 172 214 256 327 375
#     4   9  21  39  60  88 125 164 205 266 309 367
#
# _framework density 23.797076000000001
#
# number of rings (size 3 to 8) (size 9 to 14) (size 15 to 20)
#    0.000    2.000    0.000    3.000    3.500   11.000 
#   11.250    1.250    0.000    0.000    0.000    0.000 
#    0.000    0.000    0.000    0.000    0.000    0.000 
#
# Total GULP energy -89314.510010 kJ/mol
# GULP energy per Si atom -5582.156876 kJ/mol
# Density = 2.374291 g / cm^3
# Si number density = 23.797076 Si / 1000 Ang^3
#
#
#
# Elastic Constant Matrix: (Units=GPa)
#
#
# Indices 1 2 3 4 5 6 
#
# 1 73.2238 17.8563 19.3055 11.7116 3.2142 29.5820
# 2 17.8563 69.9879 7.8143 8.8532 6.4429 15.9507
# 3 19.3055 7.8143 87.7163 23.0890 6.3689 19.1324
# 4 11.7116 8.8532 23.0890 43.4200 12.3485 3.6797
# 5 3.2142 6.4429 6.3689 12.3485 37.5078 4.2824
# 6 29.5820 15.9507 19.1324 3.6797 4.2824 43.7286
#
#
#
# Elastic Compliance Matrix: (Units=1/GPa)
#
#
# Indices 1 2 3 4 5 6 
#
# 1 0.019792 -0.001809 -0.000555 -0.004043 0.001443 -0.012287
# 2 -0.001809 0.016161 0.000700 -0.002381 -0.001427 -0.004638
# 3 -0.000555 0.000700 0.014624 -0.007441 0.000545 -0.005705
# 4 -0.004043 -0.002381 -0.007441 0.030585 -0.008636 0.005131
# 5 0.001443 -0.001427 0.000545 -0.008636 0.029863 -0.002892
# 6 -0.012287 -0.004638 -0.005705 0.005131 -0.002892 0.035220
#
#
# Mechanical properties :
#
#
# Convention : Reuss Voigt Hill
#
# Bulk Modulus (GPa) = 21.16447 35.65335 28.40891
# Shear Modulus (GPa) = 30.24421 37.32808 33.78615
#
# Velocity S-wave (km/s) = 3.56887 3.96485 3.77206
# Velocity P-wave (km/s) = 5.08876 5.99790 5.56194
#
# Compressibility (1/GPa) = 0.04724901
#
# Stress axis : x y z
#
# Youngs Moduli (GPa) = 50.52673 61.87770 68.38239
#
# Poissons Ratio (x) = 0.11191 0.03797
# Poissons Ratio (y) = 0.09138 -0.04788
# Poissons Ratio (z) = 0.02805 -0.04333
#
# Static dielectric constant tensor:
#      x y z
#    x 2.025650 0.069010 0.005500 
#    y 0.069010 2.119840 0.050530 
#    z 0.005500 0.050530 2.100640 
# 
# From -- ./inp_files/399237.got.cif
#   From: 2010.05.17/outbox.cif.g08.bks.cpg/sg2_200_cif.got.tgz:399237.got - 2010.06.03 11:33:40.
