data_PCOD9107017
_publ_section_title
;
Structure prediction by ZEFSAII (Michael W. Deem and Ramdas Pophale) SiO2 
 PCOD9107017
Probable space group: P -1
;
_chemical_formula_sum "Si O2"
_cell_formula_units_Z 15
_cell_length_a 16.063599
_cell_length_b 11.162871
_cell_length_c 8.442905
_cell_angle_alpha 84.771660
_cell_angle_beta 125.427113
_cell_angle_gamma 136.392017
_cell_volume 690.285848
_symmetry_space_group_name_H-M "P -1"
_symmetry_group_IT_number 2
_symmetry_cell_setting 'triclinic'
loop_
_space_group_symop_operation_xyz
x,y,z
-x,-y,-z
loop_
_atom_site_type_symbol
_atom_site_label
_atom_site_fract_x
_atom_site_fract_y
_atom_site_fract_z
Si Si1 0.616992 0.334014 0.592464
Si Si2 0.007847 0.803474 0.978498
Si Si3 0.367656 0.260655 0.847211
Si Si4 0.874200 0.915686 0.672902
Si Si5 0.499038 0.838133 0.171949
Si Si6 0.788903 0.269825 0.267146
Si Si7 0.315087 0.014256 0.083208
Si Si8 0.500000 0.500000 0.500000
O O1 0.833267 0.550434 0.793630
O O2 0.556123 0.212286 0.701307
O O3 0.551803 0.409519 0.523842
O O4 0.515097 0.180166 0.347992
O O5 0.981805 0.898049 0.830033
O O6 0.186685 0.911600 0.103665
O O7 0.018349 0.866647 0.160482
O O8 0.189618 0.130100 0.571509
O O9 0.467376 0.264441 0.838897
O O10 0.500000 0.500000 0.000000
O O11 0.326271 0.145939 0.973439
O O12 0.691390 0.729105 0.599052
O O13 0.683629 0.090680 0.306988
O O14 0.335713 0.735176 0.900836
O O15 0.000000 0.500000 0.500000
O O16 0.764151 0.164329 0.095867
#
# Coordination Sequence:
#
# PCOD9107017 Si02
#       8
#     2   2   2   2   2   2   2   1
#     4  11  22  39  67  93 129 172 210 261 320 384
#     4  10  22  36  59  90 128 168 212 258 312 382
#     4  11  22  36  64  96 130 170 205 262 327 386
#     4  10  20  35  56  89 126 178 212 243 315 385
#     4  10  23  44  69  93 123 172 220 258 327 384
#     4  10  25  47  69  90 126 170 218 277 318 372
#     4  11  24  41  61  94 131 163 218 270 313 383
#     4  10  16  34  62  82 136 166 194 256 298 380
#
# _framework density 21.730129000000002
#
# number of rings (size 3 to 8) (size 9 to 14) (size 15 to 20)
#    0.000    1.600    2.667    1.600    0.000    8.533 
#    0.000    1.333    0.000    0.000    0.000    0.000 
#    0.000    0.000    0.000    0.000    0.000    0.000 
#
# Total GULP energy -83605.606961 kJ/mol
# GULP energy per Si atom -5573.707131 kJ/mol
# Density = 2.168067 g / cm^3
# Si number density = 21.730129 Si / 1000 Ang^3
#
#
#
# Elastic Constant Matrix: (Units=GPa)
#
#
# Indices 1 2 3 4 5 6 
#
# 1 28.9850 26.4441 9.2973 8.0002 2.1535 -3.7303
# 2 26.4441 46.2603 66.5472 21.5268 -18.6951 -6.6153
# 3 9.2973 66.5472 142.5645 24.1997 -19.5837 1.3565
# 4 8.0002 21.5268 24.1997 36.7082 5.2321 3.0723
# 5 2.1535 -18.6951 -19.5837 5.2321 28.6743 -0.6872
# 6 -3.7303 -6.6153 1.3565 3.0723 -0.6872 29.8426
#
#
#
# Elastic Compliance Matrix: (Units=1/GPa)
#
#
# Indices 1 2 3 4 5 6 
#
# 1 -0.009949 0.064033 -0.019763 -0.028770 0.034670 0.017609
# 2 0.064033 -0.085633 0.024248 0.028716 -0.049707 -0.016182
# 3 -0.019763 0.024248 0.002504 -0.015087 0.021872 0.004848
# 4 -0.028770 0.028716 -0.015087 0.025696 0.005914 0.000946
# 5 0.034670 -0.049707 0.021872 0.005914 0.013530 -0.007976
# 6 0.017609 -0.016182 0.004848 0.000946 -0.007976 0.031622
#
#
# Mechanical properties :
#
#
# Convention : Reuss Voigt Hill
#
# Bulk Modulus (GPa) = 22.74864 46.93189 34.84026
# Shear Modulus (GPa) = -34.57453 26.74644 -3.91404
#
# Velocity S-wave (km/s) = -3.99317 3.51215 -1.34355
# Velocity P-wave (km/s) = 3.28163 6.17182 3.69610
#
# Compressibility (1/GPa) = 0.04395868
#
# Stress axis : x y z
#
# Youngs Moduli (GPa) = -100.51120 -11.67770 399.38010
#
# Poissons Ratio (x) = 0.74776 7.89278
# Poissons Ratio (y) = 6.43606 -9.68413
# Poissons Ratio (z) = -1.98636 0.28316
#
# Static dielectric constant tensor:
#      x y z
#    x 1.780600 -0.014490 -0.015570 
#    y -0.014490 1.773740 -0.021340 
#    z -0.015570 -0.021340 1.823990 
# 
# From -- ./inp_files/333291.got.cif
#   From: 2010.05.17/outbox.cif.g08.bks.cpg/sg2_167_cif.got.tgz:333291.got - 2010.06.03 11:33:40.
