data_PCOD9107618
_publ_section_title
;
Structure prediction by ZEFSAII (Michael W. Deem and Ramdas Pophale) SiO2 
 PCOD9107618
Probable space group: P -1
;
_chemical_formula_sum "Si O2"
_cell_formula_units_Z 16
_cell_length_a 9.134180
_cell_length_b 8.130342
_cell_length_c 20.193296
_cell_angle_alpha 33.856281
_cell_angle_beta 75.520387
_cell_angle_gamma 55.887125
_cell_volume 611.419150
_symmetry_space_group_name_H-M "P -1"
_symmetry_group_IT_number 2
_symmetry_cell_setting 'triclinic'
loop_
_space_group_symop_operation_xyz
x,y,z
-x,-y,-z
loop_
_atom_site_type_symbol
_atom_site_label
_atom_site_fract_x
_atom_site_fract_y
_atom_site_fract_z
Si Si1 0.729748 0.467969 0.050118
Si Si2 0.026978 0.597783 0.298307
Si Si3 0.895173 0.333412 0.589209
Si Si4 0.465637 0.761489 0.242856
Si Si5 0.024811 0.356345 0.147810
Si Si6 0.756729 0.563109 0.801141
Si Si7 0.322801 0.378593 0.615213
Si Si8 0.517036 0.333860 0.874667
O O1 0.637756 0.377973 0.147148
O O2 0.856735 0.564335 0.040804
O O3 0.891447 0.052717 0.136969
O O4 0.558183 0.850564 0.899780
O O5 0.865633 0.558371 0.352299
O O6 0.144158 0.541000 0.370882
O O7 0.172477 0.365800 0.297785
O O8 0.738574 0.460497 0.506379
O O9 0.000000 0.500000 0.500000
O O10 0.030805 0.864258 0.730092
O O11 0.617736 0.485533 0.375573
O O12 0.522927 0.553074 0.235376
O O13 0.239658 0.991944 0.214338
O O14 0.084024 0.547503 0.124272
O O15 0.711827 0.276062 0.889092
O O16 0.541910 0.956428 0.718619
O O17 0.500000 0.000000 0.000000
#
# Coordination Sequence:
#
# PCOD9107618 Si02
#       8
#     2   2   2   2   2   2   2   2
#     4  10  20  40  65  88 132 175 205 265 323 381
#     4  10  21  41  68  92 133 168 214 261 328 377
#     4   9  20  42  69  92 127 175 206 266 329 375
#     4  10  22  38  63  92 127 172 214 260 326 378
#     4  10  22  40  65  96 130 161 224 263 312 390
#     4  11  23  40  65 100 126 168 219 263 318 380
#     4  10  22  42  64  94 132 164 213 273 313 380
#     4  10  21  40  61  90 132 172 215 255 319 384
#
# _framework density 26.168627999999998
#
# number of rings (size 3 to 8) (size 9 to 14) (size 15 to 20)
#    0.000    2.000    1.250    1.875    1.750    4.000 
#    2.250    8.750    0.000    0.000    0.000    0.000 
#    0.000    0.000    0.000    0.000    0.000    0.000 
#
# Total GULP energy -89187.012156 kJ/mol
# GULP energy per Si atom -5574.188260 kJ/mol
# Density = 2.610907 g / cm^3
# Si number density = 26.168628 Si / 1000 Ang^3
#
#
#
# Elastic Constant Matrix: (Units=GPa)
#
#
# Indices 1 2 3 4 5 6 
#
# 1 100.3675 47.4016 44.0294 19.1568 6.3312 -14.8418
# 2 47.4016 88.1995 17.5525 42.1662 -3.3646 -20.2758
# 3 44.0294 17.5525 98.0215 20.8064 28.0285 -2.9147
# 4 19.1568 42.1662 20.8064 35.9478 2.1016 -8.8986
# 5 6.3312 -3.3646 28.0285 2.1016 38.9958 1.3018
# 6 -14.8418 -20.2758 -2.9147 -8.8986 1.3018 30.1167
#
#
#
# Elastic Compliance Matrix: (Units=1/GPa)
#
#
# Indices 1 2 3 4 5 6 
#
# 1 0.017592 -0.011864 -0.008188 0.009880 0.001381 0.002749
# 2 -0.011864 0.036999 0.006595 -0.039024 0.002212 0.008075
# 3 -0.008188 0.006595 0.018676 -0.013909 -0.010728 -0.001434
# 4 0.009880 -0.039024 -0.013909 0.076260 0.000925 -0.000257
# 5 0.001381 0.002212 -0.010728 0.000925 0.033272 -0.000033
# 6 0.002749 0.008075 -0.001434 -0.000257 -0.000033 0.039782
#
#
# Mechanical properties :
#
#
# Convention : Reuss Voigt Hill
#
# Bulk Modulus (GPa) = 21.57377 56.06174 38.81775
# Shear Modulus (GPa) = 18.87176 32.85241 25.86209
#
# Velocity S-wave (km/s) = 2.68835 3.54702 3.14711
# Velocity P-wave (km/s) = 4.23065 6.18425 5.29827
#
# Compressibility (1/GPa) = 0.04635258
#
# Stress axis : x y z
#
# Youngs Moduli (GPa) = 56.84409 27.02804 53.54432
#
# Poissons Ratio (x) = 0.32066 0.43841
# Poissons Ratio (y) = 0.67439 -0.35311
# Poissons Ratio (z) = 0.46543 -0.17824
#
# Static dielectric constant tensor:
#      x y z
#    x 2.096070 0.017180 -0.066330 
#    y 0.017180 2.163070 -0.004440 
#    z -0.066330 -0.004440 2.131630 
# 
# From -- ./inp_files/556775.got.cif
#   From: 2010.05.17/outbox.cif.g08.bks.cpg/sg2_279_cif.got.tgz:556775.got - 2010.06.03 11:33:40.
