data_PCOD9107433
_publ_section_title
;
Structure prediction by ZEFSAII (Michael W. Deem and Ramdas Pophale) SiO2 
 PCOD9107433
Probable space group: P -1
;
_chemical_formula_sum "Si O2"
_cell_formula_units_Z 16
_cell_length_a 10.991630
_cell_length_b 9.617849
_cell_length_c 15.713196
_cell_angle_alpha 36.239203
_cell_angle_beta 105.665805
_cell_angle_gamma 122.823839
_cell_volume 777.079152
_symmetry_space_group_name_H-M "P -1"
_symmetry_group_IT_number 2
_symmetry_cell_setting 'triclinic'
loop_
_space_group_symop_operation_xyz
x,y,z
-x,-y,-z
loop_
_atom_site_type_symbol
_atom_site_label
_atom_site_fract_x
_atom_site_fract_y
_atom_site_fract_z
Si Si1 0.796096 0.329369 0.457431
Si Si2 0.726969 0.859558 0.917639
Si Si3 0.144514 0.319041 0.347086
Si Si4 0.238541 0.233881 0.838371
Si Si5 0.385904 0.618166 0.993309
Si Si6 0.138401 0.661363 0.013987
Si Si7 0.596218 0.697782 0.686197
Si Si8 0.870881 0.449280 0.594283
O O1 0.827998 0.577443 0.278068
O O2 0.786145 0.428516 0.501460
O O3 0.946057 0.320728 0.492265
O O4 0.652433 0.022759 0.551908
O O5 0.696892 0.577122 0.008053
O O6 0.842837 0.140513 0.748509
O O7 0.777446 0.875191 0.015259
O O8 0.565403 0.832669 0.900080
O O9 0.114715 0.468056 0.188624
O O10 0.286993 0.307958 0.352039
O O11 0.181347 0.495463 0.354189
O O12 0.000000 0.000000 0.500000
O O13 0.420826 0.467108 0.740523
O O14 0.165401 0.956850 0.902591
O O15 0.292850 0.731152 0.961688
O O16 0.384506 0.409707 0.166127
O O17 0.000000 0.500000 0.000000
#
# Coordination Sequence:
#
# PCOD9107433 Si02
#       8
#     2   2   2   2   2   2   2   2
#     4  11  24  40  61  90 127 160 199 248 306 356
#     4  10  20  40  64  92 113 156 209 251 288 359
#     4  11  23  42  65  89 119 160 208 245 295 366
#     4  11  25  40  62  91 124 160 198 252 306 354
#     4   9  21  39  65  88 120 157 202 247 303 353
#     4  11  26  41  61  90 128 159 194 252 311 355
#     4  10  21  42  64  87 122 163 201 248 301 357
#     4  11  23  39  65  88 119 162 207 242 300 360
#
# _framework density 20.589922999999999
#
# number of rings (size 3 to 8) (size 9 to 14) (size 15 to 20)
#    0.000    1.500    3.750    0.375    5.250    3.000 
#    0.000    0.625    0.000    0.000    0.000    0.000 
#    0.000    0.000    0.000    0.000    0.000    0.000 
#
# Total GULP energy -89326.348176 kJ/mol
# GULP energy per Si atom -5582.896761 kJ/mol
# Density = 2.054306 g / cm^3
# Si number density = 20.589923 Si / 1000 Ang^3
#
#
#
# Elastic Constant Matrix: (Units=GPa)
#
#
# Indices 1 2 3 4 5 6 
#
# 1 41.2109 8.9167 2.2615 7.4414 -11.8084 -5.0068
# 2 8.9167 121.5767 13.8236 -7.3671 0.0898 -10.6006
# 3 2.2615 13.8236 50.7735 -16.5269 -7.6011 8.3098
# 4 7.4414 -7.3671 -16.5269 26.5468 -5.0487 -4.3854
# 5 -11.8084 0.0898 -7.6011 -5.0487 29.6646 0.0833
# 6 -5.0068 -10.6006 8.3098 -4.3854 0.0833 25.6980
#
#
#
# Elastic Compliance Matrix: (Units=1/GPa)
#
#
# Indices 1 2 3 4 5 6 
#
# 1 0.029593 -0.001973 -0.002607 -0.007879 0.009765 0.004418
# 2 -0.001973 0.009202 -0.002717 0.001953 -0.001190 0.004627
# 3 -0.002607 -0.002717 0.029449 0.018848 0.009747 -0.007967
# 4 -0.007879 0.001953 0.018848 0.054650 0.010982 0.002466
# 5 0.009765 -0.001190 0.009747 0.010982 0.041967 -0.000002
# 6 0.004418 0.004627 -0.007967 0.002466 -0.000002 0.044680
#
#
# Mechanical properties :
#
#
# Convention : Reuss Voigt Hill
#
# Bulk Modulus (GPa) = 18.63947 29.28495 23.96221
# Shear Modulus (GPa) = 20.65960 28.95249 24.80605
#
# Velocity S-wave (km/s) = 3.17106 3.75393 3.47474
# Velocity P-wave (km/s) = 4.74129 5.74832 5.26892
#
# Compressibility (1/GPa) = 0.05364960
#
# Stress axis : x y z
#
# Youngs Moduli (GPa) = 33.79200 108.67674 33.95666
#
# Poissons Ratio (x) = 0.21447 0.08851
# Poissons Ratio (y) = 0.06669 0.09226
# Poissons Ratio (z) = 0.08808 0.29527
#
# Static dielectric constant tensor:
#      x y z
#    x 1.764530 0.024380 -0.001580 
#    y 0.024380 1.766960 -0.000540 
#    z -0.001580 -0.000540 1.708520 
# 
# From -- ./inp_files/205339.got.cif
#   From: 2010.05.17/outbox.cif.g08.bks.cpg/sg2_103_cif.got.tgz:205339.got - 2010.06.03 11:33:40.
