data_PCOD9107399
_publ_section_title
;
Structure prediction by ZEFSAII (Michael W. Deem and Ramdas Pophale) SiO2 
 PCOD9107399
Probable space group: P -1
;
_chemical_formula_sum "Si O2"
_cell_formula_units_Z 16
_cell_length_a 16.997288
_cell_length_b 9.217273
_cell_length_c 14.296845
_cell_angle_alpha 65.241956
_cell_angle_beta 152.283367
_cell_angle_gamma 131.460448
_cell_volume 684.841437
_symmetry_space_group_name_H-M "P -1"
_symmetry_group_IT_number 2
_symmetry_cell_setting 'triclinic'
loop_
_space_group_symop_operation_xyz
x,y,z
-x,-y,-z
loop_
_atom_site_type_symbol
_atom_site_label
_atom_site_fract_x
_atom_site_fract_y
_atom_site_fract_z
Si Si1 0.090241 0.379273 0.241732
Si Si2 0.019667 0.845561 0.514607
Si Si3 0.963577 0.477368 0.581154
Si Si4 0.487046 0.801160 0.111604
Si Si5 0.207282 0.520826 0.120762
Si Si6 0.442194 0.441880 0.235999
Si Si7 0.068585 0.066837 0.800882
Si Si8 0.364717 0.020924 0.580704
O O1 0.096673 0.375337 0.136402
O O2 0.353207 0.531084 0.513624
O O3 0.945275 0.128045 0.188393
O O4 0.974889 0.473920 0.118590
O O5 0.889704 0.611586 0.485999
O O6 0.935240 0.822559 0.325302
O O7 0.297720 0.984952 0.776418
O O8 0.000000 0.000000 0.500000
O O9 0.000000 0.500000 0.500000
O O10 0.784684 0.238077 0.504849
O O11 0.223946 0.614663 0.853320
O O12 0.561510 0.666206 0.245310
O O13 0.507816 0.900928 0.205603
O O14 0.300523 0.445655 0.168149
O O15 0.423195 0.776604 0.313055
O O16 0.273564 0.240677 0.041538
O O17 0.826524 0.962033 0.623941
#
# Coordination Sequence:
#
# PCOD9107399 Si02
#       8
#     2   2   2   2   2   2   2   2
#     4  11  23  47  69 101 144 171 224 288 337 408
#     4  11  24  42  65  97 136 178 222 280 345 389
#     4  12  21  40  66  93 126 177 227 274 322 403
#     4  10  20  40  64  89 130 173 218 271 329 397
#     4  10  24  45  71 102 135 183 224 274 349 409
#     4  11  21  43  72  95 138 181 217 282 340 397
#     4  11  22  44  66  98 136 175 231 283 332 407
#     4  10  21  41  66  94 130 173 229 270 332 402
#
# _framework density 23.363074000000001
#
# number of rings (size 3 to 8) (size 9 to 14) (size 15 to 20)
#    0.000    1.250    7.500    0.750    0.000    2.500 
#    4.500    2.500    0.000    0.000    0.000    0.000 
#    0.000    0.000    0.000    0.000    0.000    0.000 
#
# Total GULP energy -89356.306318 kJ/mol
# GULP energy per Si atom -5584.769145 kJ/mol
# Density = 2.330990 g / cm^3
# Si number density = 23.363074 Si / 1000 Ang^3
#
#
#
# Elastic Constant Matrix: (Units=GPa)
#
#
# Indices 1 2 3 4 5 6 
#
# 1 43.0982 6.2857 26.0476 4.1807 4.2327 -11.5396
# 2 6.2857 85.8182 40.5584 -2.0682 -7.6787 -2.3456
# 3 26.0476 40.5584 169.3468 0.5991 -15.4991 -20.4578
# 4 4.1807 -2.0682 0.5991 38.6810 -9.7784 -1.1890
# 5 4.2327 -7.6787 -15.4991 -9.7784 23.2661 1.5676
# 6 -11.5396 -2.3456 -20.4578 -1.1890 1.5676 28.2907
#
#
#
# Elastic Compliance Matrix: (Units=1/GPa)
#
#
# Indices 1 2 3 4 5 6 
#
# 1 0.030274 -0.001134 -0.004299 -0.005982 -0.011903 0.009554
# 2 -0.001134 0.013428 -0.002916 0.001729 0.003529 -0.001580
# 3 -0.004299 -0.002916 0.008238 0.001761 0.005797 0.003714
# 4 -0.005982 0.001729 0.001761 0.030514 0.015697 -0.000610
# 5 -0.011903 0.003529 0.005797 0.015697 0.056964 -0.002867
# 6 0.009554 -0.001580 0.003714 -0.000610 -0.002867 0.041932
#
#
# Mechanical properties :
#
#
# Convention : Reuss Voigt Hill
#
# Bulk Modulus (GPa) = 28.37490 49.33853 38.85672
# Shear Modulus (GPa) = 23.83300 33.07232 28.45266
#
# Velocity S-wave (km/s) = 3.19739 3.76650 3.49355
# Velocity P-wave (km/s) = 5.07963 6.33083 5.73943
#
# Compressibility (1/GPa) = 0.03524241
#
# Stress axis : x y z
#
# Youngs Moduli (GPa) = 33.03187 74.47260 121.39400
#
# Poissons Ratio (x) = 0.08443 0.52188
# Poissons Ratio (y) = 0.03745 0.35394
# Poissons Ratio (z) = 0.14201 0.21713
#
# Static dielectric constant tensor:
#      x y z
#    x 1.957970 0.011490 0.003510 
#    y 0.011490 1.944100 -0.003840 
#    z 0.003510 -0.003840 1.914330 
# 
# From -- ./inp_files/577328.got.cif
#   From: 2010.05.17/outbox.cif.g08.bks.cpg/sg2_289_cif.got.tgz:577328.got - 2010.06.03 11:33:40.
