data_PCOD9107072
_publ_section_title
;
Structure prediction by ZEFSAII (Michael W. Deem and Ramdas Pophale) SiO2 
 PCOD9107072
Probable space group: P -1
;
_chemical_formula_sum "Si O2"
_cell_formula_units_Z 11
_cell_length_a 11.239840
_cell_length_b 8.112925
_cell_length_c 14.379684
_cell_angle_alpha 133.782596
_cell_angle_beta 30.239103
_cell_angle_gamma 140.331181
_cell_volume 420.060366
_symmetry_space_group_name_H-M "P -1"
_symmetry_group_IT_number 2
_symmetry_cell_setting 'triclinic'
loop_
_space_group_symop_operation_xyz
x,y,z
-x,-y,-z
loop_
_atom_site_type_symbol
_atom_site_label
_atom_site_fract_x
_atom_site_fract_y
_atom_site_fract_z
Si Si1 0.142801 0.847434 0.025696
Si Si2 0.500000 0.000000 0.500000
Si Si3 0.695190 0.089715 0.669686
Si Si4 0.100534 0.356344 0.199864
Si Si5 0.853545 0.987451 0.722167
Si Si6 0.370942 0.417869 0.840815
O O1 0.139492 0.122155 0.123532
O O2 0.197267 0.855773 0.101259
O O3 0.386998 0.883699 0.810115
O O4 0.852829 0.632516 0.107008
O O5 0.434490 0.180366 0.688606
O O6 0.784041 0.255771 0.377858
O O7 0.749607 0.383237 0.738316
O O8 0.856559 0.002257 0.456491
O O9 0.830886 0.100924 0.683074
O O10 0.227184 0.401017 0.029328
O O11 0.632885 0.689212 0.757118
#
# Coordination Sequence:
#
# PCOD9107072 Si02
#       6
#     2   1   2   2   2   2
#     4  11  24  41  68  99 124 173 220 262 324 383
#     4  10  20  40  62  96 128 166 208 262 320 376
#     4  11  24  45  65  96 132 174 213 269 320 387
#     4  11  23  42  69  96 134 165 217 270 322 376
#     4  11  25  45  66  93 136 173 213 263 329 380
#     4  11  24  42  68  98 131 170 213 270 321 383
#
# _framework density 26.186713000000001
#
# number of rings (size 3 to 8) (size 9 to 14) (size 15 to 20)
#    0.000    1.091    3.636    3.273    0.000    7.273 
#    0.000    1.818    0.000    0.000    0.000    0.000 
#    0.000    0.000    0.000    0.000    0.000    0.000 
#
# Total GULP energy -61461.634003 kJ/mol
# GULP energy per Si atom -5587.421273 kJ/mol
# Density = 2.612711 g / cm^3
# Si number density = 26.186713 Si / 1000 Ang^3
#
#
#
# Elastic Constant Matrix: (Units=GPa)
#
#
# Indices 1 2 3 4 5 6 
#
# 1 47.0876 5.5310 3.6210 1.5793 9.3545 7.0455
# 2 5.5310 128.3501 40.7045 -2.6381 2.5206 22.7482
# 3 3.6210 40.7045 172.7107 -20.2265 -0.2521 13.7263
# 4 1.5793 -2.6381 -20.2265 47.4361 6.3571 -3.6667
# 5 9.3545 2.5206 -0.2521 6.3571 25.2073 -6.8816
# 6 7.0455 22.7482 13.7263 -3.6667 -6.8816 37.7246
#
#
#
# Elastic Compliance Matrix: (Units=1/GPa)
#
#
# Indices 1 2 3 4 5 6 
#
# 1 0.024380 0.000384 -0.000066 0.000129 -0.010961 -0.006748
# 2 0.000384 0.009380 -0.001823 -0.000360 -0.002526 -0.005561
# 3 -0.000066 -0.001823 0.006634 0.002738 -0.000737 -0.001170
# 4 0.000129 -0.000360 0.002738 0.023016 -0.005680 0.000398
# 5 -0.010961 -0.002526 -0.000737 -0.005680 0.048741 0.012178
# 6 -0.006748 -0.005561 -0.001170 0.000398 0.012178 0.033807
#
#
# Mechanical properties :
#
#
# Convention : Reuss Voigt Hill
#
# Bulk Modulus (GPa) = 26.74908 49.76236 38.25572
# Shear Modulus (GPa) = 30.97330 41.95972 36.46651
#
# Velocity S-wave (km/s) = 3.44290 4.00725 3.73575
# Velocity P-wave (km/s) = 5.10310 6.36042 5.76613
#
# Compressibility (1/GPa) = 0.03738446
#
# Stress axis : x y z
#
# Youngs Moduli (GPa) = 41.01740 106.60434 150.74890
#
# Poissons Ratio (x) = -0.04097 0.01000
# Poissons Ratio (y) = -0.01576 0.27477
# Poissons Ratio (z) = 0.00272 0.19431
#
# Static dielectric constant tensor:
#      x y z
#    x 1.982930 0.176770 -0.069880 
#    y 0.176770 1.677650 0.001050 
#    z -0.069880 0.001050 2.006440 
# 
# From -- ./inp_files/230931.got.cif
#   From: 2010.05.17/outbox.cif.g08.bks.cpg/sg2_116_cif.got.tgz:230931.got - 2010.06.03 11:33:40.
