data_PCOD9107635
_publ_section_title
;
Structure prediction by ZEFSAII (Michael W. Deem and Ramdas Pophale) SiO2 
 PCOD9107635
Probable space group: P -1
;
_chemical_formula_sum "Si O2"
_cell_formula_units_Z 12
_cell_length_a 8.948538
_cell_length_b 5.770724
_cell_length_c 11.788231
_cell_angle_alpha 99.698235
_cell_angle_beta 127.460656
_cell_angle_gamma 92.291342
_cell_volume 468.334639
_symmetry_space_group_name_H-M "P -1"
_symmetry_group_IT_number 2
_symmetry_cell_setting 'triclinic'
loop_
_space_group_symop_operation_xyz
x,y,z
-x,-y,-z
loop_
_atom_site_type_symbol
_atom_site_label
_atom_site_fract_x
_atom_site_fract_y
_atom_site_fract_z
Si Si1 0.021677 0.019506 0.376069
Si Si2 0.782065 0.881574 0.038208
Si Si3 0.608977 0.392843 0.141236
Si Si4 0.069956 0.594800 0.887621
Si Si5 0.308734 0.692674 0.390854
Si Si6 0.639019 0.610317 0.414443
O O1 0.171108 0.866191 0.382296
O O2 0.842873 0.941616 0.203875
O O3 0.144652 0.282924 0.442762
O O4 0.000000 0.000000 0.500000
O O5 0.858891 0.628744 0.031512
O O6 0.870823 0.123189 0.029729
O O7 0.552061 0.834746 0.915949
O O8 0.811482 0.395061 0.175746
O O9 0.635646 0.552481 0.277599
O O10 0.500000 0.500000 0.000000
O O11 0.843642 0.515983 0.758180
O O12 0.480802 0.767413 0.388163
O O13 0.407630 0.618821 0.544952
#
# Coordination Sequence:
#
# PCOD9107635 Si02
#       6
#     2   2   2   2   2   2
#     4  11  22  38  67  93 126 169 222 276 322 390
#     4  10  21  39  61  94 128 164 215 278 325 383
#     4  10  22  40  63  94 126 170 219 274 324 387
#     4  10  20  40  65  89 130 167 221 272 320 392
#     4  10  23  39  63  97 124 177 210 271 333 391
#     4  11  22  42  64  89 136 164 222 266 332 397
#
# _framework density 25.622703000000001
#
# number of rings (size 3 to 8) (size 9 to 14) (size 15 to 20)
#    0.000    1.667    1.667    4.000    2.333    1.333 
#    6.000    8.333    0.000    0.000    0.000    0.000 
#    0.000    0.000    0.000    0.000    0.000    0.000 
#
# Total GULP energy -66917.965922 kJ/mol
# GULP energy per Si atom -5576.497160 kJ/mol
# Density = 2.556439 g / cm^3
# Si number density = 25.622703 Si / 1000 Ang^3
#
#
#
# Elastic Constant Matrix: (Units=GPa)
#
#
# Indices 1 2 3 4 5 6 
#
# 1 107.3978 14.9351 48.6505 0.1336 13.4746 0.3088
# 2 14.9351 121.5144 17.1887 9.9327 -3.2721 6.6428
# 3 48.6505 17.1887 112.4107 10.7746 0.7217 -2.0690
# 4 0.1336 9.9327 10.7746 28.0821 7.9298 12.8256
# 5 13.4746 -3.2721 0.7217 7.9298 52.8531 8.7080
# 6 0.3088 6.6428 -2.0690 12.8256 8.7080 35.6269
#
#
#
# Elastic Compliance Matrix: (Units=1/GPa)
#
#
# Indices 1 2 3 4 5 6 
#
# 1 0.012441 -0.001112 -0.005570 0.003820 -0.003620 -0.000714
# 2 -0.001112 0.008776 -0.000619 -0.002806 0.001421 -0.001000
# 3 -0.005570 -0.000619 0.012018 -0.006041 0.001692 0.002623
# 4 0.003820 -0.002806 -0.006041 0.047632 -0.005636 -0.015631
# 5 -0.003620 0.001421 0.001692 -0.005636 0.021299 -0.003312
# 6 -0.000714 -0.001000 0.002623 -0.015631 -0.003312 0.034850
#
#
# Mechanical properties :
#
#
# Convention : Reuss Voigt Hill
#
# Bulk Modulus (GPa) = 53.67187 55.87463 54.77325
# Shear Modulus (GPa) = 31.67973 40.68232 36.18103
#
# Velocity S-wave (km/s) = 3.52005 3.98897 3.76183
# Velocity P-wave (km/s) = 6.12483 6.56277 6.34758
#
# Compressibility (1/GPa) = 0.01863173
#
# Stress axis : x y z
#
# Youngs Moduli (GPa) = 80.38259 113.94711 83.20949
#
# Poissons Ratio (x) = 0.12668 0.46349
# Poissons Ratio (y) = 0.08937 0.05154
# Poissons Ratio (z) = 0.44775 0.07058
#
# Static dielectric constant tensor:
#      x y z
#    x 2.130070 -0.044940 0.015980 
#    y -0.044940 2.236810 0.032530 
#    z 0.015980 0.032530 1.992220 
# 
# From -- ./inp_files/23417.got.cif
#   From: 2010.05.17/outbox.cif.g08.bks.cpg/sg2_12_cif.got.tgz:23417.got - 2010.06.03 11:33:40.
