data_PCOD9107129
_publ_section_title
;
Structure prediction by ZEFSAII (Michael W. Deem and Ramdas Pophale) SiO2 
 PCOD9107129
Probable space group: P -1
;
_chemical_formula_sum "Si O2"
_cell_formula_units_Z 14
_cell_length_a 5.471540
_cell_length_b 8.424225
_cell_length_c 23.564570
_cell_angle_alpha 123.245682
_cell_angle_beta 90.969351
_cell_angle_gamma 48.309728
_cell_volume 563.484143
_symmetry_space_group_name_H-M "P -1"
_symmetry_group_IT_number 2
_symmetry_cell_setting 'triclinic'
loop_
_space_group_symop_operation_xyz
x,y,z
-x,-y,-z
loop_
_atom_site_type_symbol
_atom_site_label
_atom_site_fract_x
_atom_site_fract_y
_atom_site_fract_z
Si Si1 0.563208 0.330854 0.699806
Si Si2 0.562270 0.178569 0.553268
Si Si3 0.379287 0.655104 0.590812
Si Si4 0.415961 0.616266 0.164731
Si Si5 0.491385 0.098948 0.866904
Si Si6 0.448957 0.359238 0.016841
Si Si7 0.505373 0.230151 0.276532
O O1 0.483605 0.227069 0.629932
O O2 0.415855 0.423371 0.781840
O O3 0.472390 0.589524 0.723494
O O4 0.028973 0.010579 0.645438
O O5 0.278039 0.518629 0.595314
O O6 0.500000 0.000000 0.500000
O O7 0.000000 0.000000 0.500000
O O8 0.500000 0.500000 0.500000
O O9 0.636998 0.613446 0.630838
O O10 0.449120 0.765728 0.149633
O O11 0.586224 0.331937 0.075391
O O12 0.943168 0.881156 0.221750
O O13 0.021861 0.366645 0.924550
O O14 0.672748 0.811310 0.777075
O O15 0.617101 0.077945 0.927464
O O16 0.500000 0.500000 0.000000
#
# Coordination Sequence:
#
# PCOD9107129 Si02
#       7
#     2   2   2   2   2   2   2
#     4  10  21  41  57  87 123 161 202 259 312 368
#     4  11  24  44  66  93 124 163 211 263 319 374
#     4  10  20  40  63  87 119 163 209 261 316 374
#     4   9  18  35  55  83 117 156 202 248 304 366
#     4   9  16  32  58  84 112 157 196 244 303 363
#     4   8  15  30  58  86 114 149 195 243 299 364
#     4   9  20  35  53  82 120 154 203 251 307 365
#
# _framework density 24.845416
#
# number of rings (size 3 to 8) (size 9 to 14) (size 15 to 20)
#    0.000    2.571    1.429    0.000    0.000    1.714 
#   18.000    0.714    0.000   29.143    0.000    0.000 
#    0.000    0.000    0.000    0.000    0.000    0.000 
#
# Total GULP energy -77939.669038 kJ/mol
# GULP energy per Si atom -5567.119217 kJ/mol
# Density = 2.478887 g / cm^3
# Si number density = 24.845416 Si / 1000 Ang^3
#
#
#
# Elastic Constant Matrix: (Units=GPa)
#
#
# Indices 1 2 3 4 5 6 
#
# 1 66.1432 -2.3779 63.7285 -7.9970 17.8338 -5.8083
# 2 -2.3779 64.0509 62.9450 -24.1301 14.0098 -11.2333
# 3 63.7285 62.9450 291.0577 -58.1153 49.3987 -15.9427
# 4 -7.9970 -24.1301 -58.1153 65.7336 -17.1479 -0.3119
# 5 17.8338 14.0098 49.3987 -17.1479 62.0294 3.6148
# 6 -5.8083 -11.2333 -15.9427 -0.3119 3.6148 12.2568
#
#
#
# Elastic Compliance Matrix: (Units=1/GPa)
#
#
# Indices 1 2 3 4 5 6 
#
# 1 0.023750 0.010389 -0.005614 0.000383 -0.005478 0.015100
# 2 0.010389 0.029140 -0.004901 0.006323 -0.005493 0.027036
# 3 -0.005614 -0.004901 0.006794 0.003016 -0.001993 0.002349
# 4 0.000383 0.006323 0.003016 0.020599 0.001167 0.010079
# 5 -0.005478 -0.005493 -0.001993 0.001167 0.021816 -0.016627
# 6 0.015100 0.027036 0.002349 0.010079 -0.016627 0.121738
#
#
# Mechanical properties :
#
#
# Convention : Reuss Voigt Hill
#
# Bulk Modulus (GPa) = 16.82557 74.42701 45.62629
# Shear Modulus (GPa) = 20.50028 47.80103 34.15065
#
# Velocity S-wave (km/s) = 2.87559 4.39103 3.71148
# Velocity P-wave (km/s) = 4.22045 7.46520 6.06389
#
# Compressibility (1/GPa) = 0.05943334
#
# Stress axis : x y z
#
# Youngs Moduli (GPa) = 42.10445 34.31728 147.19193
#
# Poissons Ratio (x) = -0.35653 0.82631
# Poissons Ratio (y) = -0.43744 0.72138
# Poissons Ratio (z) = 0.23637 0.16819
#
# Static dielectric constant tensor:
#      x y z
#    x 2.068070 -0.115380 0.014880 
#    y -0.115380 1.968470 -0.040570 
#    z 0.014880 -0.040570 2.094120 
# 
# From -- ./inp_files/105926.got.cif
#   From: 2010.05.17/outbox.cif.g08.bks.cpg/sg2_53_cif.got.tgz:105926.got - 2010.06.03 11:33:40.
