data_PCOD9107317
_publ_section_title
;
Structure prediction by ZEFSAII (Michael W. Deem and Ramdas Pophale) SiO2 
 PCOD9107317
Probable space group: P -1
;
_chemical_formula_sum "Si O2"
_cell_formula_units_Z 15
_cell_length_a 12.516903
_cell_length_b 6.952619
_cell_length_c 15.771738
_cell_angle_alpha 108.444977
_cell_angle_beta 27.778720
_cell_angle_gamma 102.286298
_cell_volume 599.784590
_symmetry_space_group_name_H-M "P -1"
_symmetry_group_IT_number 2
_symmetry_cell_setting 'triclinic'
loop_
_space_group_symop_operation_xyz
x,y,z
-x,-y,-z
loop_
_atom_site_type_symbol
_atom_site_label
_atom_site_fract_x
_atom_site_fract_y
_atom_site_fract_z
Si Si1 0.425748 0.683034 0.012177
Si Si2 0.225145 0.519012 0.716138
Si Si3 0.601522 0.804624 0.333220
Si Si4 0.085380 0.837979 0.736538
Si Si5 0.264121 0.885666 0.857042
Si Si6 0.882539 0.906812 0.702954
Si Si7 0.464148 0.430961 0.265430
Si Si8 0.000000 0.500000 0.500000
O O1 0.656316 0.791258 0.857536
O O2 0.397036 0.601277 0.925832
O O3 0.500000 0.500000 0.000000
O O4 0.216335 0.856634 0.210373
O O5 0.500000 0.500000 0.500000
O O6 0.214509 0.307136 0.742164
O O7 0.094885 0.605147 0.734100
O O8 0.165127 0.703926 0.851127
O O9 0.350198 0.877741 0.562371
O O10 0.544580 0.613499 0.287779
O O11 0.663474 0.965577 0.244274
O O12 0.008198 0.882523 0.701511
O O13 0.911368 0.983211 0.938289
O O14 0.475026 0.772118 0.748964
O O15 0.022694 0.752104 0.516695
O O16 0.197479 0.470097 0.431360
#
# Coordination Sequence:
#
# PCOD9107317 Si02
#       8
#     2   2   2   2   2   2   2   1
#     4  10  22  39  62  90 129 171 220 268 325 390
#     4   9  22  43  65  95 133 163 212 273 319 391
#     4  10  23  42  65  94 129 171 212 263 330 387
#     4  11  21  42  67  94 130 165 216 269 319 388
#     4  11  23  42  68  93 129 171 212 268 326 387
#     4  10  21  40  61  93 129 169 215 274 322 383
#     4  10  21  40  59  92 132 166 217 273 318 387
#     4  10  20  40  64  82 134 174 208 272 332 368
#
# _framework density 25.008977000000002
#
# number of rings (size 3 to 8) (size 9 to 14) (size 15 to 20)
#    0.000    1.867    2.667    0.400    1.867    2.667 
#    4.800   12.667    0.000    0.000    0.000    0.000 
#    0.000    0.000    0.000    0.000    0.000    0.000 
#
# Total GULP energy -83644.207575 kJ/mol
# GULP energy per Si atom -5576.280505 kJ/mol
# Density = 2.495206 g / cm^3
# Si number density = 25.008977 Si / 1000 Ang^3
#
#
#
# Elastic Constant Matrix: (Units=GPa)
#
#
# Indices 1 2 3 4 5 6 
#
# 1 91.3722 41.2738 15.2996 7.6132 -12.6778 -37.5704
# 2 41.2738 163.9086 44.7339 20.9498 2.4673 -57.5217
# 3 15.2996 44.7339 69.1590 4.4561 13.6043 -10.9594
# 4 7.6132 20.9498 4.4561 38.0962 -7.1356 -6.9499
# 5 -12.6778 2.4673 13.6043 -7.1356 44.8786 12.3275
# 6 -37.5704 -57.5217 -10.9594 -6.9499 12.3275 42.7753
#
#
#
# Elastic Compliance Matrix: (Units=1/GPa)
#
#
# Indices 1 2 3 4 5 6 
#
# 1 0.017950 0.003039 -0.002960 -0.001413 0.000428 0.018741
# 2 0.003039 0.015824 -0.005812 -0.005431 -0.005473 0.023155
# 3 -0.002960 -0.005812 0.019300 -0.000188 -0.005306 -0.003972
# 4 -0.001413 -0.005431 -0.000188 0.029688 0.006203 -0.005556
# 5 0.000428 -0.005473 -0.005306 0.006203 0.029662 -0.015884
# 6 0.018741 0.023155 -0.003972 -0.005556 -0.015884 0.073633
#
#
# Mechanical properties :
#
#
# Convention : Reuss Voigt Hill
#
# Bulk Modulus (GPa) = 24.03354 58.56159 41.29757
# Shear Modulus (GPa) = 23.65248 40.02551 31.83900
#
# Velocity S-wave (km/s) = 3.07866 4.00490 3.57193
# Velocity P-wave (km/s) = 4.71893 6.69721 5.79314
#
# Compressibility (1/GPa) = 0.04160851
#
# Stress axis : x y z
#
# Youngs Moduli (GPa) = 55.70894 63.19405 51.81317
#
# Poissons Ratio (x) = -0.19205 0.15337
# Poissons Ratio (y) = -0.16930 0.30114
# Poissons Ratio (z) = 0.16490 0.36729
#
# Static dielectric constant tensor:
#      x y z
#    x 1.995790 0.067170 0.058740 
#    y 0.067170 2.039280 0.077540 
#    z 0.058740 0.077540 2.200470 
# 
# From -- ./inp_files/137905.got.cif
#   From: 2010.05.17/outbox.cif.g08.bks.cpg/sg2_69_cif.got.tgz:137905.got - 2010.06.03 11:33:40.
