data_PCOD9107470
_publ_section_title
;
Structure prediction by ZEFSAII (Michael W. Deem and Ramdas Pophale) SiO2 
 PCOD9107470
Probable space group: P -1
;
_chemical_formula_sum "Si O2"
_cell_formula_units_Z 16
_cell_length_a 8.783401
_cell_length_b 16.116376
_cell_length_c 12.937137
_cell_angle_alpha 46.464087
_cell_angle_beta 112.228612
_cell_angle_gamma 74.561779
_cell_volume 761.349920
_symmetry_space_group_name_H-M "P -1"
_symmetry_group_IT_number 2
_symmetry_cell_setting 'triclinic'
loop_
_space_group_symop_operation_xyz
x,y,z
-x,-y,-z
loop_
_atom_site_type_symbol
_atom_site_label
_atom_site_fract_x
_atom_site_fract_y
_atom_site_fract_z
Si Si1 0.697666 0.710795 0.738829
Si Si2 0.393427 0.467681 0.230654
Si Si3 0.323613 0.116751 0.011907
Si Si4 0.011198 0.240493 0.302094
Si Si5 0.735861 0.454032 0.633083
Si Si6 0.249038 0.536094 0.743065
Si Si7 0.445449 0.845468 0.784767
Si Si8 0.714978 0.729235 0.344606
O O1 0.544847 0.695501 0.650266
O O2 0.738887 0.810863 0.611339
O O3 0.587112 0.778672 0.767288
O O4 0.000000 0.500000 0.000000
O O5 0.266822 0.533507 0.254277
O O6 0.645079 0.413861 0.336696
O O7 0.186511 0.634025 0.951997
O O8 0.329086 0.194586 0.845251
O O9 0.019388 0.253514 0.840089
O O10 0.434954 0.130805 0.122463
O O11 0.505149 0.908146 0.211675
O O12 0.859357 0.361545 0.262186
O O13 0.140339 0.046661 0.517751
O O14 0.500000 0.500000 0.500000
O O15 0.692819 0.605113 0.448104
O O16 0.007896 0.604060 0.566383
O O17 0.482687 0.318368 0.012650
#
# Coordination Sequence:
#
# PCOD9107470 Si02
#       8
#     2   2   2   2   2   2   2   2
#     4  10  20  40  64  93 133 176 214 268 330 387
#     4  11  25  43  65  99 141 176 217 277 335 382
#     4  11  24  44  73 100 129 177 224 272 332 398
#     4  11  23  42  65  99 133 177 225 271 326 397
#     4  12  26  46  72 102 131 173 221 275 336 396
#     4  12  23  44  67  95 138 177 224 275 324 395
#     4  12  23  38  73  97 129 179 229 261 331 394
#     4  11  25  46  72  97 133 174 224 277 334 389
#
# _framework density 21.015304
#
# number of rings (size 3 to 8) (size 9 to 14) (size 15 to 20)
#    0.000    0.750    5.000    4.125    1.750    1.000 
#    0.000    0.000    0.000    0.000    0.000    0.000 
#    0.000    0.000    0.000    0.000    0.000    0.000 
#
# Total GULP energy -89516.307916 kJ/mol
# GULP energy per Si atom -5594.769245 kJ/mol
# Density = 2.096747 g / cm^3
# Si number density = 21.015304 Si / 1000 Ang^3
#
#
#
# Elastic Constant Matrix: (Units=GPa)
#
#
# Indices 1 2 3 4 5 6 
#
# 1 105.3019 22.1888 13.5734 -2.6481 1.5491 22.1815
# 2 22.1888 98.6994 23.5514 -6.9048 9.6648 1.8238
# 3 13.5734 23.5514 70.5509 -2.2772 -8.5737 15.5998
# 4 -2.6481 -6.9048 -2.2772 21.2731 3.8940 -7.0680
# 5 1.5491 9.6648 -8.5737 3.8940 17.2153 1.9032
# 6 22.1815 1.8238 15.5998 -7.0680 1.9032 24.6060
#
#
#
# Elastic Compliance Matrix: (Units=1/GPa)
#
#
# Indices 1 2 3 4 5 6 
#
# 1 0.013006 -0.004221 0.002748 -0.005497 0.005487 -0.015157
# 2 -0.004221 0.015262 -0.008683 0.010633 -0.016299 0.012494
# 3 0.002748 -0.008683 0.023534 -0.011003 0.021219 -0.021555
# 4 -0.005497 0.010633 -0.011003 0.064528 -0.029080 0.031928
# 5 0.005487 -0.016299 0.021219 -0.029080 0.087462 -0.032309
# 6 -0.015157 0.012494 -0.021555 0.031928 -0.032309 0.078713
#
#
# Mechanical properties :
#
#
# Convention : Reuss Voigt Hill
#
# Bulk Modulus (GPa) = 31.75752 43.68660 37.72206
# Shear Modulus (GPa) = 15.95851 26.96814 21.46333
#
# Velocity S-wave (km/s) = 2.75867 3.58615 3.19927
# Velocity P-wave (km/s) = 5.02906 6.16283 5.62458
#
# Compressibility (1/GPa) = 0.03148861
#
# Stress axis : x y z
#
# Youngs Moduli (GPa) = 76.89032 65.52402 42.49239
#
# Poissons Ratio (x) = 0.27659 -0.11676
# Poissons Ratio (y) = 0.32457 0.36894
# Poissons Ratio (z) = -0.21127 0.56891
#
# Static dielectric constant tensor:
#      x y z
#    x 1.766210 0.030590 -0.001610 
#    y 0.030590 1.745970 0.000470 
#    z -0.001610 0.000470 1.768580 
# 
# From -- ./inp_files/398620.got.cif
#   From: 2010.05.17/outbox.cif.g08.bks.cpg/sg2_200_cif.got.tgz:398620.got - 2010.06.03 11:33:40.
