data_PCOD9107569
_publ_section_title
;
Structure prediction by ZEFSAII (Michael W. Deem and Ramdas Pophale) SiO2 
 PCOD9107569
Probable space group: P -1
;
_chemical_formula_sum "Si O2"
_cell_formula_units_Z 12
_cell_length_a 7.348223
_cell_length_b 15.108534
_cell_length_c 11.401962
_cell_angle_alpha 31.241352
_cell_angle_beta 76.733178
_cell_angle_gamma 56.060340
_cell_volume 445.216481
_symmetry_space_group_name_H-M "P -1"
_symmetry_group_IT_number 2
_symmetry_cell_setting 'triclinic'
loop_
_space_group_symop_operation_xyz
x,y,z
-x,-y,-z
loop_
_atom_site_type_symbol
_atom_site_label
_atom_site_fract_x
_atom_site_fract_y
_atom_site_fract_z
Si Si1 0.880594 0.821086 0.177791
Si Si2 0.696095 0.942553 0.810989
Si Si3 0.936394 0.463114 0.299476
Si Si4 0.337781 0.737251 0.127100
Si Si5 0.280394 0.013848 0.630471
Si Si6 0.676703 0.218939 0.322911
O O1 0.906789 0.667476 0.452190
O O2 0.184398 0.666456 0.264727
O O3 0.710939 0.906282 0.988422
O O4 0.755159 0.068641 0.979458
O O5 0.474341 0.978748 0.733716
O O6 0.654056 0.159668 0.524454
O O7 0.944640 0.660468 0.051509
O O8 0.653943 0.551868 0.270453
O O9 0.031032 0.303093 0.349607
O O10 0.209320 0.885627 0.855227
O O11 0.410797 0.874038 0.649036
O O12 0.500000 0.500000 0.000000
O O13 0.000000 0.000000 0.500000
#
# Coordination Sequence:
#
# PCOD9107569 Si02
#       6
#     2   2   2   2   2   2
#     4  10  20  40  65 109 143 192 235 290 359 425
#     4  11  25  44  72 103 145 189 239 302 362 439
#     4  10  22  39  71 103 148 188 233 296 360 437
#     4   9  20  39  66 101 146 189 236 295 349 433
#     4  10  24  46  70 103 141 189 240 298 366 429
#     4  12  30  52  78 108 140 192 251 310 364 435
#
# _framework density 26.95318
#
# number of rings (size 3 to 8) (size 9 to 14) (size 15 to 20)
#    0.000    1.667    0.000    2.500    7.000    8.000 
#    3.000    0.000    0.000    0.000    0.000    0.000 
#    0.000    0.000    0.000    0.000    0.000    0.000 
#
# Total GULP energy -66955.078716 kJ/mol
# GULP energy per Si atom -5579.589893 kJ/mol
# Density = 2.689183 g / cm^3
# Si number density = 26.953180 Si / 1000 Ang^3
#
#
#
# Elastic Constant Matrix: (Units=GPa)
#
#
# Indices 1 2 3 4 5 6 
#
# 1 74.2636 19.8352 46.2880 5.6076 11.5589 10.6343
# 2 19.8352 121.7681 48.9990 2.2172 -0.4222 7.0319
# 3 46.2880 48.9990 159.6985 4.4188 -19.1678 -0.5560
# 4 5.6076 2.2172 4.4188 36.5332 -2.4209 -0.2977
# 5 11.5589 -0.4222 -19.1678 -2.4209 45.8002 7.0705
# 6 10.6343 7.0319 -0.5560 -0.2977 7.0705 28.7923
#
#
#
# Elastic Compliance Matrix: (Units=1/GPa)
#
#
# Indices 1 2 3 4 5 6 
#
# 1 0.019589 -0.000280 -0.006362 -0.002722 -0.006884 -0.005627
# 2 -0.000280 0.009567 -0.002946 -0.000249 -0.000762 -0.002105
# 3 -0.006362 -0.002946 0.009647 0.000358 0.005334 0.001950
# 4 -0.002722 -0.000249 0.000358 0.027913 0.002182 0.000826
# 5 -0.006884 -0.000762 0.005334 0.002182 0.026475 -0.003647
# 6 -0.005627 -0.002105 0.001950 0.000826 -0.003647 0.038266
#
#
# Mechanical properties :
#
#
# Convention : Reuss Voigt Hill
#
# Bulk Modulus (GPa) = 50.95378 65.10828 58.03103
# Shear Modulus (GPa) = 31.81150 38.26566 35.03858
#
# Velocity S-wave (km/s) = 3.43920 3.77199 3.60943
# Velocity P-wave (km/s) = 5.89206 6.57108 6.24081
#
# Compressibility (1/GPa) = 0.01962563
#
# Stress axis : x y z
#
# Youngs Moduli (GPa) = 51.04952 104.52678 103.66002
#
# Poissons Ratio (x) = 0.02927 0.65952
# Poissons Ratio (y) = 0.01430 0.30539
# Poissons Ratio (z) = 0.32480 0.30795
#
# Static dielectric constant tensor:
#      x y z
#    x 2.238160 -0.038150 0.057850 
#    y -0.038150 2.185880 -0.141260 
#    z 0.057850 -0.141260 2.507270 
# 
# From -- ./inp_files/395255.got.cif
#   From: 2010.05.17/outbox.cif.g08.bks.cpg/sg2_198_cif.got.tgz:395255.got - 2010.06.03 11:33:40.
