data_PCOD9107722
_publ_section_title
;
Structure prediction by ZEFSAII (Michael W. Deem and Ramdas Pophale) SiO2 
 PCOD9107722
Probable space group: P -1
;
_chemical_formula_sum "Si O2"
_cell_formula_units_Z 16
_cell_length_a 12.002137
_cell_length_b 10.041575
_cell_length_c 9.840696
_cell_angle_alpha 106.768229
_cell_angle_beta 129.786950
_cell_angle_gamma 75.735261
_cell_volume 869.527239
_symmetry_space_group_name_H-M "P -1"
_symmetry_group_IT_number 2
_symmetry_cell_setting 'triclinic'
loop_
_space_group_symop_operation_xyz
x,y,z
-x,-y,-z
loop_
_atom_site_type_symbol
_atom_site_label
_atom_site_fract_x
_atom_site_fract_y
_atom_site_fract_z
Si Si1 0.133790 0.847669 0.927640
Si Si2 0.449524 0.393821 0.315542
Si Si3 0.051476 0.866621 0.187993
Si Si4 0.378499 0.881689 0.521831
Si Si5 0.112544 0.402587 0.966225
Si Si6 0.882388 0.459434 0.289516
Si Si7 0.460447 0.855536 0.259735
Si Si8 0.578916 0.541154 0.207348
O O1 0.108461 0.704397 0.789796
O O2 0.090199 0.834677 0.049447
O O3 0.305890 0.869625 0.065502
O O4 0.036832 0.981545 0.834360
O O5 0.500000 0.500000 0.500000
O O6 0.523131 0.242226 0.366337
O O7 0.521723 0.447745 0.253140
O O8 0.275090 0.398162 0.157208
O O9 0.205466 0.867088 0.387261
O O10 0.951394 0.748505 0.126674
O O11 0.418235 0.872574 0.390263
O O12 0.431475 0.027680 0.657516
O O13 0.117659 0.462373 0.834102
O O14 0.000000 0.500000 0.000000
O O15 0.742065 0.505011 0.282109
O O16 0.000000 0.500000 0.500000
O O17 0.537990 0.702276 0.256253
O O18 0.500000 0.500000 0.000000
#
# Coordination Sequence:
#
# PCOD9107722 Si02
#       8
#     2   2   2   2   2   2   2   2
#     4  10  20  42  62  94 129 174 211 267 328 380
#     4  12  24  41  69  99 128 171 225 270 316 383
#     4  10  22  38  67  94 133 165 218 273 320 378
#     4  10  22  38  65 101 124 166 224 272 314 381
#     4  12  24  43  66  98 133 170 221 271 321 384
#     4  12  28  43  67  98 135 175 215 264 337 392
#     4  10  20  40  65  93 131 168 217 266 323 381
#     4  12  24  45  67  94 135 176 214 266 326 395
#
# _framework density 18.400804000000001
#
# number of rings (size 3 to 8) (size 9 to 14) (size 15 to 20)
#    0.000    1.000    5.000    1.500    5.250    1.000 
#    0.000    2.500    0.000    0.000    0.000    0.000 
#    0.000    0.000    0.000    0.000    0.000    0.000 
#
# Total GULP energy -89308.089739 kJ/mol
# GULP energy per Si atom -5581.755609 kJ/mol
# Density = 1.835892 g / cm^3
# Si number density = 18.400804 Si / 1000 Ang^3
#
#
#
# Elastic Constant Matrix: (Units=GPa)
#
#
# Indices 1 2 3 4 5 6 
#
# 1 104.7771 29.8915 51.2988 -6.5701 43.1566 7.9350
# 2 29.8915 109.4390 49.7555 0.1333 39.5200 10.2507
# 3 51.2988 49.7555 138.7948 -0.2615 44.0142 9.9304
# 4 -6.5701 0.1333 -0.2615 31.5253 1.4558 2.9233
# 5 43.1566 39.5200 44.0142 1.4558 36.5972 -5.8835
# 6 7.9350 10.2507 9.9304 2.9233 -5.8835 31.6130
#
#
#
# Elastic Compliance Matrix: (Units=1/GPa)
#
#
# Indices 1 2 3 4 5 6 
#
# 1 0.033717 0.015883 0.005994 0.012960 -0.069397 -0.029610
# 2 0.015883 0.025106 0.004531 0.008093 -0.055575 -0.024643
# 3 0.005994 0.004531 0.014393 0.004087 -0.031647 -0.013763
# 4 0.012960 0.008093 0.004087 0.037508 -0.033130 -0.016795
# 5 -0.069397 -0.055575 -0.031647 -0.033130 0.223012 0.089949
# 6 -0.029610 -0.024643 -0.013763 -0.016795 0.089949 0.069672
#
#
# Mechanical properties :
#
#
# Convention : Reuss Voigt Hill
#
# Bulk Modulus (GPa) = 7.93435 68.32251 38.12843
# Shear Modulus (GPa) = 12.73551 34.75144 23.74348
#
# Velocity S-wave (km/s) = 2.63367 4.35050 3.59604
# Velocity P-wave (km/s) = 3.68369 7.90231 6.16507
#
# Compressibility (1/GPa) = 0.12603425
#
# Stress axis : x y z
#
# Youngs Moduli (GPa) = 29.65870 39.83064 69.47683
#
# Poissons Ratio (x) = -0.63265 -0.41644
# Poissons Ratio (y) = -0.47108 -0.31483
# Poissons Ratio (z) = -0.17777 -0.18049
#
# Static dielectric constant tensor:
#      x y z
#    x 1.585840 -0.004260 -0.125060 
#    y -0.004260 1.613560 -0.059620 
#    z -0.125060 -0.059620 0.681120 
# 
# From -- ./inp_files/205286.got.cif
#   From: 2010.05.17/outbox.cif.g08.bks.cpg/sg2_103_cif.got.tgz:205286.got - 2010.06.03 11:33:40.
