data_PCOD9107822
_publ_section_title
;
Structure prediction by ZEFSAII (Michael W. Deem and Ramdas Pophale) SiO2 
 PCOD9107822
Probable space group: P -1
;
_chemical_formula_sum "Si O2"
_cell_formula_units_Z 16
_cell_length_a 9.410246
_cell_length_b 8.647892
_cell_length_c 18.925903
_cell_angle_alpha 43.366441
_cell_angle_beta 140.598913
_cell_angle_gamma 117.321759
_cell_volume 652.364738
_symmetry_space_group_name_H-M "P -1"
_symmetry_group_IT_number 2
_symmetry_cell_setting 'triclinic'
loop_
_space_group_symop_operation_xyz
x,y,z
-x,-y,-z
loop_
_atom_site_type_symbol
_atom_site_label
_atom_site_fract_x
_atom_site_fract_y
_atom_site_fract_z
Si Si1 0.532128 0.248384 0.872557
Si Si2 0.908100 0.696969 0.796204
Si Si3 0.963177 0.833723 0.932678
Si Si4 0.193739 0.800048 0.606940
Si Si5 0.506050 0.963191 0.778653
Si Si6 0.359875 0.829241 0.907528
Si Si7 0.409105 0.713343 0.577081
Si Si8 0.128657 0.453336 0.489091
O O1 0.482445 0.469015 0.730135
O O2 0.354205 0.089617 0.845765
O O3 0.550238 0.312195 0.940242
O O4 0.789585 0.104610 0.997917
O O5 0.891689 0.796328 0.836938
O O6 0.654747 0.769852 0.641060
O O7 0.113288 0.785141 0.809643
O O8 0.988684 0.419468 0.927960
O O9 0.754227 0.996299 0.839991
O O10 0.415452 0.818842 0.730660
O O11 0.247164 0.854118 0.528626
O O12 0.072872 0.581416 0.629572
O O13 0.000000 0.000000 0.500000
O O14 0.510689 0.811615 0.901435
O O15 0.321662 0.208870 0.638485
O O16 0.267537 0.656809 0.473884
O O17 0.000000 0.500000 0.500000
#
# Coordination Sequence:
#
# PCOD9107822 Si02
#       8
#     2   2   2   2   2   2   2   2
#     4   9  19  35  52  80 114 150 175 203 258 343
#     4   9  18  33  51  79 112 150 174 204 261 338
#     4   9  18  32  54  77 111 144 185 210 251 321
#     4   9  19  32  54  85 102 127 188 245 262 292
#     4  11  19  33  56  86 109 137 175 234 270 302
#     4  10  20  32  51  81 119 143 173 206 271 331
#     4  10  16  35  60  77 104 150 180 214 261 324
#     4   9  19  34  56  83 100 134 191 232 263 308
#
# _framework density 24.526156
#
# number of rings (size 3 to 8) (size 9 to 14) (size 15 to 20)
#    0.000    2.500    2.500    0.750    0.000    1.000 
#    0.000    0.000    0.000    7.500    0.000    0.000 
#    0.000    0.000    0.000    0.000    0.000    0.000 
#
# Total GULP energy -89326.391705 kJ/mol
# GULP energy per Si atom -5582.899482 kJ/mol
# Density = 2.447033 g / cm^3
# Si number density = 24.526156 Si / 1000 Ang^3
#
#
#
# Elastic Constant Matrix: (Units=GPa)
#
#
# Indices 1 2 3 4 5 6 
#
# 1 79.4669 29.0849 15.9199 -0.6470 23.4179 11.2575
# 2 29.0849 99.1684 27.1258 18.1546 6.3025 -0.4443
# 3 15.9199 27.1258 75.7351 5.0562 17.3878 8.2180
# 4 -0.6470 18.1546 5.0562 42.0698 -3.3922 10.0554
# 5 23.4179 6.3025 17.3878 -3.3922 40.2922 6.2949
# 6 11.2575 -0.4443 8.2180 10.0554 6.2949 33.9870
#
#
#
# Elastic Compliance Matrix: (Units=1/GPa)
#
#
# Indices 1 2 3 4 5 6 
#
# 1 0.017793 -0.005426 0.000562 0.003152 -0.008621 -0.005436
# 2 -0.005426 0.013979 -0.004285 -0.006597 0.001529 0.004685
# 3 0.000562 -0.004285 0.016378 0.000124 -0.006231 -0.003085
# 4 0.003152 -0.006597 0.000124 0.029415 0.003258 -0.010466
# 5 -0.008621 0.001529 -0.006231 0.003258 0.032973 -0.002689
# 6 -0.005436 0.004685 -0.003085 -0.010466 -0.002689 0.035625
#
#
# Mechanical properties :
#
#
# Convention : Reuss Voigt Hill
#
# Bulk Modulus (GPa) = 33.49900 44.29240 38.89570
# Shear Modulus (GPa) = 28.66770 35.41913 32.04341
#
# Velocity S-wave (km/s) = 3.42257 3.80430 3.61847
# Velocity P-wave (km/s) = 5.41357 6.11518 5.77504
#
# Compressibility (1/GPa) = 0.02985164
#
# Stress axis : x y z
#
# Youngs Moduli (GPa) = 56.20100 71.53663 61.05845
#
# Poissons Ratio (x) = 0.38813 -0.03430
# Poissons Ratio (y) = 0.30493 0.26164
# Poissons Ratio (z) = -0.03157 0.30654
#
# Static dielectric constant tensor:
#      x y z
#    x 1.928520 0.017680 0.015380 
#    y 0.017680 2.038770 0.001850 
#    z 0.015380 0.001850 2.028900 
# 
# From -- ./inp_files/502922.got.cif
#   From: 2010.05.17/outbox.cif.g08.bks.cpg/sg2_252_cif.got.tgz:502922.got - 2010.06.03 11:33:40.
