data_PCOD9107758
_publ_section_title
;
Structure prediction by ZEFSAII (Michael W. Deem and Ramdas Pophale) SiO2 
 PCOD9107758
Probable space group: P -1
;
_chemical_formula_sum "Si O2"
_cell_formula_units_Z 14
_cell_length_a 18.381905
_cell_length_b 7.837199
_cell_length_c 9.983715
_cell_angle_alpha 100.285740
_cell_angle_beta 45.760832
_cell_angle_gamma 62.656581
_cell_volume 568.039361
_symmetry_space_group_name_H-M "P -1"
_symmetry_group_IT_number 2
_symmetry_cell_setting 'triclinic'
loop_
_space_group_symop_operation_xyz
x,y,z
-x,-y,-z
loop_
_atom_site_type_symbol
_atom_site_label
_atom_site_fract_x
_atom_site_fract_y
_atom_site_fract_z
Si Si1 0.498904 0.150549 0.132866
Si Si2 0.087959 0.751545 0.687734
Si Si3 0.871712 0.512528 0.674688
Si Si4 0.480276 0.529628 0.290019
Si Si5 0.452008 0.333593 0.562729
Si Si6 0.203114 0.367613 0.924606
Si Si7 0.089559 0.140617 0.816832
O O1 0.283061 0.464036 0.471251
O O2 0.551485 0.280051 0.063268
O O3 0.500000 0.000000 0.000000
O O4 0.657618 0.862850 0.986027
O O5 0.088814 0.669248 0.526772
O O6 0.050145 0.009040 0.777366
O O7 0.958294 0.829931 0.963581
O O8 0.000000 0.500000 0.500000
O O9 0.888251 0.431217 0.794687
O O10 0.431499 0.483937 0.480244
O O11 0.603748 0.496601 0.200664
O O12 0.304847 0.865550 0.495853
O O13 0.336485 0.325121 0.690048
O O14 0.662033 0.982405 0.264804
O O15 0.047275 0.544582 0.044323
#
# Coordination Sequence:
#
# PCOD9107758 Si02
#       7
#     2   2   2   2   2   2   2
#     4   9  18  37  61  85 116 166 211 243 300 382
#     4   9  20  39  62  88 123 173 205 248 318 393
#     4  11  24  39  61  91 128 170 208 256 320 382
#     4  10  20  40  65  95 121 169 211 255 311 389
#     4  10  22  37  66  93 128 163 214 262 314 373
#     4  11  23  40  60 101 128 163 208 274 318 359
#     4  10  21  37  65  94 125 159 213 264 313 363
#
# _framework density 24.646180999999999
#
# number of rings (size 3 to 8) (size 9 to 14) (size 15 to 20)
#    0.000    2.000    1.429    2.571    4.000    2.286 
#    0.000    0.000    0.000    6.000    0.000    0.000 
#    0.000    0.000    0.000    0.000    0.000    0.000 
#
# Total GULP energy -78106.375583 kJ/mol
# GULP energy per Si atom -5579.026827 kJ/mol
# Density = 2.459009 g / cm^3
# Si number density = 24.646181 Si / 1000 Ang^3
#
#
#
# Elastic Constant Matrix: (Units=GPa)
#
#
# Indices 1 2 3 4 5 6 
#
# 1 161.3530 25.8048 25.5391 0.2517 13.5236 -25.3853
# 2 25.8048 78.9167 30.1594 14.4028 -15.4608 -29.3807
# 3 25.5391 30.1594 53.2255 10.0959 11.0669 -14.9536
# 4 0.2517 14.4028 10.0959 32.1962 -8.9597 -3.2397
# 5 13.5236 -15.4608 11.0669 -8.9597 37.5664 -0.3178
# 6 -25.3853 -29.3807 -14.9536 -3.2397 -0.3178 37.2742
#
#
#
# Elastic Compliance Matrix: (Units=1/GPa)
#
#
# Indices 1 2 3 4 5 6 
#
# 1 0.007384 -0.001100 -0.001499 0.000569 -0.002503 0.003589
# 2 -0.001100 0.027149 -0.013279 -0.002242 0.015075 0.015257
# 3 -0.001499 -0.013279 0.032272 -0.008704 -0.016503 0.000562
# 4 0.000569 -0.002242 -0.008704 0.037521 0.010373 -0.001522
# 5 -0.002503 0.015075 -0.016503 0.010373 0.041102 0.004809
# 6 0.003589 0.015257 0.000562 -0.001522 0.004809 0.041433
#
#
# Mechanical properties :
#
#
# Convention : Reuss Voigt Hill
#
# Bulk Modulus (GPa) = 28.53085 50.72243 39.62664
# Shear Modulus (GPa) = 21.71102 35.54016 28.62559
#
# Velocity S-wave (km/s) = 2.97123 3.80151 3.41172
# Velocity P-wave (km/s) = 4.83448 6.31613 5.62431
#
# Compressibility (1/GPa) = 0.03504978
#
# Stress axis : x y z
#
# Youngs Moduli (GPa) = 135.42240 36.83415 30.98690
#
# Poissons Ratio (x) = 0.04051 0.04646
# Poissons Ratio (y) = 0.14893 0.41146
# Poissons Ratio (z) = 0.20302 0.48910
#
# Static dielectric constant tensor:
#      x y z
#    x 2.111270 0.170670 0.148160 
#    y 0.170670 2.129510 0.140030 
#    z 0.148160 0.140030 2.090220 
# 
# From -- ./inp_files/329140.got.cif
#   From: 2010.05.17/outbox.cif.g08.bks.cpg/sg2_165_cif.got.tgz:329140.got - 2010.06.03 11:33:40.
