data_PCOD9107590
_publ_section_title
;
Structure prediction by ZEFSAII (Michael W. Deem and Ramdas Pophale) SiO2 
 PCOD9107590
Probable space group: P -1
;
_chemical_formula_sum "Si O2"
_cell_formula_units_Z 16
_cell_length_a 15.125432
_cell_length_b 8.147648
_cell_length_c 14.421665
_cell_angle_alpha 113.008836
_cell_angle_beta 152.741087
_cell_angle_gamma 65.868982
_cell_volume 741.277131
_symmetry_space_group_name_H-M "P -1"
_symmetry_group_IT_number 2
_symmetry_cell_setting 'triclinic'
loop_
_space_group_symop_operation_xyz
x,y,z
-x,-y,-z
loop_
_atom_site_type_symbol
_atom_site_label
_atom_site_fract_x
_atom_site_fract_y
_atom_site_fract_z
Si Si1 0.001030 0.563107 0.177624
Si Si2 0.878231 0.675349 0.294830
Si Si3 0.819746 0.370952 0.271078
Si Si4 0.303781 0.919511 0.789791
Si Si5 0.021336 0.094612 0.264870
Si Si6 0.308273 0.792270 0.561821
Si Si7 0.870714 0.848152 0.816079
Si Si8 0.283478 0.151697 0.137046
O O1 0.904306 0.618525 0.199855
O O2 0.218803 0.618909 0.401882
O O3 0.011824 0.353347 0.120417
O O4 0.873979 0.680540 0.007679
O O5 0.727309 0.561725 0.182410
O O6 0.062743 0.613641 0.520315
O O7 0.844092 0.892263 0.313964
O O8 0.710178 0.206007 0.162219
O O9 0.960973 0.280924 0.301335
O O10 0.317735 0.801286 0.683347
O O11 0.500000 0.000000 0.000000
O O12 0.165725 0.110911 0.316862
O O13 0.139076 0.954049 0.412853
O O14 0.825145 0.017186 0.032087
O O15 0.512193 0.827571 0.715597
O O16 0.707010 0.851100 0.742890
O O17 0.000000 0.000000 0.000000
#
# Coordination Sequence:
#
# PCOD9107590 Si02
#       8
#     2   2   2   2   2   2   2   2
#     4  11  21  41  66  89 124 166 207 263 315 374
#     4  11  22  37  65  91 123 169 212 251 313 382
#     4  11  21  38  63  88 124 168 211 255 310 379
#     4  12  23  38  60  94 137 169 207 260 312 377
#     4  10  20  40  65  86 125 166 205 262 313 371
#     4  11  22  39  62  92 128 164 211 254 310 385
#     4  10  22  42  67  91 121 162 212 264 322 371
#     4  10  23  40  63  93 120 164 212 262 319 369
#
# _framework density 21.58437
#
# number of rings (size 3 to 8) (size 9 to 14) (size 15 to 20)
#    0.000    1.250    3.750    3.750    0.000    1.500 
#    0.000    2.500    0.000    0.000    0.000    0.000 
#    0.000    0.000    0.000    0.000    0.000    0.000 
#
# Total GULP energy -89191.691800 kJ/mol
# GULP energy per Si atom -5574.480738 kJ/mol
# Density = 2.153524 g / cm^3
# Si number density = 21.584370 Si / 1000 Ang^3
#
#
#
# Elastic Constant Matrix: (Units=GPa)
#
#
# Indices 1 2 3 4 5 6 
#
# 1 152.2437 17.7044 27.7409 9.3242 4.9624 9.1485
# 2 17.7044 109.6684 22.2172 28.9430 12.1776 3.7328
# 3 27.7409 22.2172 56.1324 12.5037 7.3690 0.5067
# 4 9.3242 28.9430 12.5037 21.1863 3.8802 -1.3305
# 5 4.9624 12.1776 7.3690 3.8802 27.7648 6.9223
# 6 9.1485 3.7328 0.5067 -1.3305 6.9223 34.2725
#
#
#
# Elastic Compliance Matrix: (Units=1/GPa)
#
#
# Indices 1 2 3 4 5 6 
#
# 1 0.007381 -0.000150 -0.003330 -0.001262 0.000309 -0.002016
# 2 -0.000150 0.014787 -0.001124 -0.019011 -0.003088 -0.001668
# 3 -0.003330 -0.001124 0.022519 -0.009521 -0.003828 0.001082
# 4 -0.001262 -0.019011 -0.009521 0.080011 -0.001580 0.005974
# 5 0.000309 -0.003088 -0.003828 -0.001580 0.040532 -0.007938
# 6 -0.002016 -0.001668 0.001082 0.005974 -0.007938 0.031717
#
#
# Mechanical properties :
#
#
# Convention : Reuss Voigt Hill
#
# Bulk Modulus (GPa) = 28.18393 50.37440 39.27916
# Shear Modulus (GPa) = 22.93790 33.33684 28.13737
#
# Velocity S-wave (km/s) = 3.26346 3.93426 3.61446
# Velocity P-wave (km/s) = 5.22361 6.63528 5.97131
#
# Compressibility (1/GPa) = 0.03548121
#
# Stress axis : x y z
#
# Youngs Moduli (GPa) = 135.48461 67.62600 44.40721
#
# Poissons Ratio (x) = 0.01012 0.14786
# Poissons Ratio (y) = 0.02027 0.04989
# Poissons Ratio (z) = 0.45113 0.07598
#
# Static dielectric constant tensor:
#      x y z
#    x 1.839780 0.058700 0.051060 
#    y 0.058700 1.772280 0.073890 
#    z 0.051060 0.073890 1.817970 
# 
# From -- ./inp_files/445334.got.cif
#   From: 2010.05.17/outbox.cif.g08.bks.cpg/sg2_223_cif.got.tgz:445334.got - 2010.06.03 11:33:40.
