data_PCOD9107715
_publ_section_title
;
Structure prediction by ZEFSAII (Michael W. Deem and Ramdas Pophale) SiO2 
 PCOD9107715
Probable space group: P -1
;
_chemical_formula_sum "Si O2"
_cell_formula_units_Z 16
_cell_length_a 9.533811
_cell_length_b 9.650085
_cell_length_c 15.065563
_cell_angle_alpha 48.546764
_cell_angle_beta 103.869213
_cell_angle_gamma 72.652072
_cell_volume 784.988233
_symmetry_space_group_name_H-M "P -1"
_symmetry_group_IT_number 2
_symmetry_cell_setting 'triclinic'
loop_
_space_group_symop_operation_xyz
x,y,z
-x,-y,-z
loop_
_atom_site_type_symbol
_atom_site_label
_atom_site_fract_x
_atom_site_fract_y
_atom_site_fract_z
Si Si1 0.298612 0.752188 0.859222
Si Si2 0.909077 0.277713 0.871551
Si Si3 0.856788 0.453012 0.985533
Si Si4 0.224808 0.313450 0.855412
Si Si5 0.799650 0.236271 0.349204
Si Si6 0.508119 0.977315 0.666258
Si Si7 0.480397 0.737019 0.592301
Si Si8 0.410163 0.041490 0.821523
O O1 0.153682 0.710870 0.881108
O O2 0.265384 0.823775 0.722047
O O3 0.314655 0.915187 0.855720
O O4 0.500000 0.500000 0.000000
O O5 0.693583 0.490943 0.719502
O O6 0.049792 0.317084 0.835826
O O7 0.897361 0.330680 0.950291
O O8 0.000000 0.000000 0.000000
O O9 0.662652 0.715494 0.839487
O O10 0.000000 0.500000 0.000000
O O11 0.184757 0.560926 0.757884
O O12 0.302756 0.235490 0.800108
O O13 0.381878 0.136825 0.028412
O O14 0.655000 0.317106 0.372680
O O15 0.000000 0.000000 0.500000
O O16 0.449773 0.910088 0.595935
O O17 0.570575 0.117695 0.568419
O O18 0.403548 0.109259 0.687882
#
# Coordination Sequence:
#
# PCOD9107715 Si02
#       8
#     2   2   2   2   2   2   2   2
#     4  12  20  40  67  98 129 176 229 278 335 400
#     4  11  24  43  65  98 134 173 221 274 344 402
#     4  11  22  36  65  95 125 162 228 279 322 388
#     4  11  26  41  68 102 134 174 229 285 338 402
#     4  12  26  43  68 103 141 175 228 283 342 404
#     4  10  20  40  65  93 126 178 217 271 336 393
#     4  10  24  41  69  92 135 175 224 271 342 403
#     4  11  22  42  70  96 136 174 228 286 338 398
#
# _framework density 20.382472
#
# number of rings (size 3 to 8) (size 9 to 14) (size 15 to 20)
#    0.000    1.000    3.750    3.000   10.500    0.000 
#    0.000    4.375    0.000    0.000    0.000    0.000 
#    0.000    0.000    0.000    0.000    0.000    0.000 
#
# Total GULP energy -89099.927485 kJ/mol
# GULP energy per Si atom -5568.745468 kJ/mol
# Density = 2.033608 g / cm^3
# Si number density = 20.382472 Si / 1000 Ang^3
#
#
#
# Elastic Constant Matrix: (Units=GPa)
#
#
# Indices 1 2 3 4 5 6 
#
# 1 122.0333 -1.0553 25.6334 2.7716 -6.6152 -12.5009
# 2 -1.0553 94.0372 14.6229 8.4233 7.2493 -8.1501
# 3 25.6334 14.6229 46.3064 13.8672 2.4048 -14.0529
# 4 2.7716 8.4233 13.8672 24.8415 -8.4097 -7.4188
# 5 -6.6152 7.2493 2.4048 -8.4097 27.5115 4.8749
# 6 -12.5009 -8.1501 -14.0529 -7.4188 4.8749 34.3726
#
#
#
# Elastic Compliance Matrix: (Units=1/GPa)
#
#
# Indices 1 2 3 4 5 6 
#
# 1 0.009850 0.000602 -0.006662 0.004108 0.003809 0.001348
# 2 0.000602 0.011805 -0.002127 -0.003748 -0.004270 0.001945
# 3 -0.006662 -0.002127 0.035052 -0.019382 -0.011601 0.008866
# 4 0.004108 -0.003748 -0.019382 0.059945 0.021539 0.002565
# 5 0.003809 -0.004270 -0.011601 0.021539 0.047123 -0.006404
# 6 0.001348 0.001945 0.008866 0.002565 -0.006404 0.035131
#
#
# Mechanical properties :
#
#
# Convention : Reuss Voigt Hill
#
# Bulk Modulus (GPa) = 24.79298 37.86435 31.32866
# Shear Modulus (GPa) = 21.86052 32.22349 27.04200
#
# Velocity S-wave (km/s) = 3.27848 3.98042 3.64638
# Velocity P-wave (km/s) = 5.14991 6.30414 5.75603
#
# Compressibility (1/GPa) = 0.04033399
#
# Stress axis : x y z
#
# Youngs Moduli (GPa) = 101.52041 84.70985 28.52935
#
# Poissons Ratio (x) = -0.05097 0.19005
# Poissons Ratio (y) = -0.06108 0.06067
# Poissons Ratio (z) = 0.67629 0.18014
#
# Static dielectric constant tensor:
#      x y z
#    x 1.881480 0.021580 -0.004030 
#    y 0.021580 1.766310 -0.030620 
#    z -0.004030 -0.030620 1.774230 
# 
# From -- ./inp_files/494399.got.cif
#   From: 2010.05.17/outbox.cif.g08.bks.cpg/sg2_248_cif.got.tgz:494399.got - 2010.06.03 11:33:40.
