data_PCOD9107463
_publ_section_title
;
Structure prediction by ZEFSAII (Michael W. Deem and Ramdas Pophale) SiO2 
 PCOD9107463
Probable space group: P -1
;
_chemical_formula_sum "Si O2"
_cell_formula_units_Z 14
_cell_length_a 7.917782
_cell_length_b 11.090569
_cell_length_c 15.702364
_cell_angle_alpha 41.685225
_cell_angle_beta 131.968714
_cell_angle_gamma 104.122330
_cell_volume 583.791991
_symmetry_space_group_name_H-M "P -1"
_symmetry_group_IT_number 2
_symmetry_cell_setting 'triclinic'
loop_
_space_group_symop_operation_xyz
x,y,z
-x,-y,-z
loop_
_atom_site_type_symbol
_atom_site_label
_atom_site_fract_x
_atom_site_fract_y
_atom_site_fract_z
Si Si1 0.711534 0.190671 0.777390
Si Si2 0.968455 0.493537 0.855563
Si Si3 0.191156 0.564272 0.460814
Si Si4 0.682443 0.873503 0.435941
Si Si5 0.491489 0.714727 0.908603
Si Si6 0.854019 0.361483 0.416401
Si Si7 0.259275 0.634124 0.015424
O O1 0.475518 0.341590 0.685009
O O2 0.771679 0.343084 0.662017
O O3 0.555629 0.116058 0.703068
O O4 0.000000 0.000000 0.000000
O O5 0.750952 0.711236 0.622060
O O6 0.881493 0.345825 0.951941
O O7 0.200802 0.361579 0.935305
O O8 0.100273 0.567124 0.933436
O O9 0.141541 0.715304 0.444964
O O10 0.946530 0.529270 0.381387
O O11 0.937664 0.778909 0.510532
O O12 0.607558 0.115611 0.290687
O O13 0.500000 0.500000 0.000000
O O14 0.309197 0.793771 0.890283
O O15 0.561705 0.458078 0.231414
#
# Coordination Sequence:
#
# PCOD9107463 Si02
#       7
#     2   2   2   2   2   2   2
#     4  10  22  39  64  96 128 169 217 267 323 389
#     4  10  22  44  62  95 129 170 221 266 331 385
#     4   9  21  41  62  90 135 165 211 276 320 383
#     4  11  23  40  68  94 132 175 219 267 331 396
#     4  10  23  43  64  94 131 172 214 278 320 383
#     4  10  20  40  64  93 127 175 215 264 331 383
#     4  10  21  40  67  91 130 171 212 272 329 382
#
# _framework density 23.981142999999999
#
# number of rings (size 3 to 8) (size 9 to 14) (size 15 to 20)
#    0.000    2.000    1.429    0.857    2.000    4.571 
#    7.714    5.714    0.000    0.000    0.000    0.000 
#    0.000    0.000    0.000    0.000    0.000    0.000 
#
# Total GULP energy -77988.739354 kJ/mol
# GULP energy per Si atom -5570.624240 kJ/mol
# Density = 2.392656 g / cm^3
# Si number density = 23.981143 Si / 1000 Ang^3
#
#
#
# Elastic Constant Matrix: (Units=GPa)
#
#
# Indices 1 2 3 4 5 6 
#
# 1 146.6782 -2.9164 31.6491 1.9168 0.5022 11.8539
# 2 -2.9164 57.6371 27.4187 15.3991 5.8031 -4.7173
# 3 31.6491 27.4187 120.5651 20.3442 6.7232 2.6992
# 4 1.9168 15.3991 20.3442 34.1532 11.5203 0.6423
# 5 0.5022 5.8031 6.7232 11.5203 36.6397 2.8993
# 6 11.8539 -4.7173 2.6992 0.6423 2.8993 22.4749
#
#
#
# Elastic Compliance Matrix: (Units=1/GPa)
#
#
# Indices 1 2 3 4 5 6 
#
# 1 0.007602 0.001013 -0.002232 0.000413 0.000298 -0.003579
# 2 0.001013 0.021745 -0.004048 -0.007267 -0.000812 0.004828
# 3 -0.002232 -0.004048 0.010548 -0.004378 0.000179 -0.000837
# 4 0.000413 -0.007267 -0.004378 0.038566 -0.010097 -0.001017
# 5 0.000298 -0.000812 0.000179 -0.010097 0.030879 -0.004044
# 6 -0.003579 0.004828 -0.000837 -0.001017 -0.004044 0.048046
#
#
# Mechanical properties :
#
#
# Convention : Reuss Voigt Hill
#
# Bulk Modulus (GPa) = 34.05724 48.57591 41.31658
# Shear Modulus (GPa) = 28.13596 36.56882 32.35239
#
# Velocity S-wave (km/s) = 3.42899 3.90923 3.67696
# Velocity P-wave (km/s) = 5.46899 6.37777 5.94078
#
# Compressibility (1/GPa) = 0.02936233
#
# Stress axis : x y z
#
# Youngs Moduli (GPa) = 131.53931 45.98680 94.80245
#
# Poissons Ratio (x) = -0.04660 0.21162
# Poissons Ratio (y) = -0.13329 0.38375
# Poissons Ratio (z) = 0.29363 0.18615
#
# Static dielectric constant tensor:
#      x y z
#    x 2.082920 -0.040430 -0.011330 
#    y -0.040430 1.979540 -0.034190 
#    z -0.011330 -0.034190 1.954340 
# 
# From -- ./inp_files/559708.got.cif
#   From: 2010.05.17/outbox.cif.g08.bks.cpg/sg2_280_cif.got.tgz:559708.got - 2010.06.03 11:33:40.
