data_PCOD9107403
_publ_section_title
;
Structure prediction by ZEFSAII (Michael W. Deem and Ramdas Pophale) SiO2 
 PCOD9107403
Probable space group: P -1
;
_chemical_formula_sum "Si O2"
_cell_formula_units_Z 16
_cell_length_a 6.219908
_cell_length_b 22.772164
_cell_length_c 7.950025
_cell_angle_alpha 135.270788
_cell_angle_beta 62.450689
_cell_angle_gamma 98.896805
_cell_volume 674.759068
_symmetry_space_group_name_H-M "P -1"
_symmetry_group_IT_number 2
_symmetry_cell_setting 'triclinic'
loop_
_space_group_symop_operation_xyz
x,y,z
-x,-y,-z
loop_
_atom_site_type_symbol
_atom_site_label
_atom_site_fract_x
_atom_site_fract_y
_atom_site_fract_z
Si Si1 0.467061 0.154733 0.308402
Si Si2 0.745385 0.581162 0.922890
Si Si3 0.703185 0.433838 0.406432
Si Si4 0.482708 0.746376 0.159621
Si Si5 0.908990 0.804720 0.951952
Si Si6 0.018825 0.865038 0.404728
Si Si7 0.009319 0.034817 0.880532
Si Si8 0.447206 0.686007 0.539512
O O1 0.509616 0.198538 0.560783
O O2 0.236510 0.117290 0.358531
O O3 0.425748 0.234474 0.354384
O O4 0.723059 0.082775 0.025801
O O5 0.755621 0.485848 0.659688
O O6 0.025092 0.594320 0.839944
O O7 0.574294 0.648037 0.987295
O O8 0.614897 0.610310 0.207157
O O9 0.500000 0.500000 0.500000
O O10 0.598817 0.356368 0.355177
O O11 0.682543 0.765286 0.995368
O O12 0.209281 0.783280 0.257092
O O13 0.972691 0.841687 0.184491
O O14 0.853133 0.889169 0.026310
O O15 0.164549 0.731179 0.660642
O O16 0.120097 0.949576 0.554916
O O17 0.000000 0.000000 0.000000
#
# Coordination Sequence:
#
# PCOD9107403 Si02
#       8
#     2   2   2   2   2   2   2   2
#     4   9  21  40  62  89 127 166 208 263 308 373
#     4  10  23  42  67  94 131 166 203 260 319 376
#     4  11  24  42  67  98 128 164 208 260 316 377
#     4  10  20  40  64  90 122 166 210 260 313 374
#     4  10  23  41  62  90 127 164 212 264 307 375
#     4  11  22  39  64  90 124 169 214 260 318 367
#     4  11  21  41  60  90 128 168 213 264 317 369
#     4  10  21  44  66  91 132 167 206 259 315 374
#
# _framework density 23.712164999999999
#
# number of rings (size 3 to 8) (size 9 to 14) (size 15 to 20)
#    0.000    1.750    2.500    1.125    1.750    1.000 
#    6.750    6.250    0.000    0.000    0.000    0.000 
#    0.000    0.000    0.000    0.000    0.000    0.000 
#
# Total GULP energy -89528.736204 kJ/mol
# GULP energy per Si atom -5595.546013 kJ/mol
# Density = 2.365820 g / cm^3
# Si number density = 23.712165 Si / 1000 Ang^3
#
#
#
# Elastic Constant Matrix: (Units=GPa)
#
#
# Indices 1 2 3 4 5 6 
#
# 1 27.8237 13.9580 13.2329 -5.6733 9.7943 3.8380
# 2 13.9580 127.7242 11.4273 -3.4819 -5.3202 5.3313
# 3 13.2329 11.4273 96.9647 -8.9827 -4.7232 7.6976
# 4 -5.6733 -3.4819 -8.9827 36.4459 4.3398 -3.7381
# 5 9.7943 -5.3202 -4.7232 4.3398 33.6706 -2.2163
# 6 3.8380 5.3313 7.6976 -3.7381 -2.2163 33.5526
#
#
#
# Elastic Compliance Matrix: (Units=1/GPa)
#
#
# Indices 1 2 3 4 5 6 
#
# 1 0.049534 -0.005237 -0.005999 0.007402 -0.017280 -0.003774
# 2 -0.005237 0.008547 -0.000147 -0.000437 0.002871 -0.000584
# 3 -0.005999 -0.000147 0.011551 0.001372 0.003061 -0.001585
# 4 0.007402 -0.000437 0.001372 0.029760 -0.005744 0.001844
# 5 -0.017280 0.002871 0.003061 -0.005744 0.036520 0.002591
# 6 -0.003774 -0.000584 -0.001585 0.001844 0.002591 0.031069
#
#
# Mechanical properties :
#
#
# Convention : Reuss Voigt Hill
#
# Bulk Modulus (GPa) = 21.33736 36.63876 28.98806
# Shear Modulus (GPa) = 24.34658 34.99345 29.67001
#
# Velocity S-wave (km/s) = 3.20778 3.84573 3.54115
# Velocity P-wave (km/s) = 4.76842 5.93334 5.38249
#
# Compressibility (1/GPa) = 0.04686616
#
# Stress axis : x y z
#
# Youngs Moduli (GPa) = 20.18830 117.00179 86.57192
#
# Poissons Ratio (x) = 0.61272 0.51935
# Poissons Ratio (y) = 0.10572 0.01271
# Poissons Ratio (z) = 0.12111 0.01717
#
# Static dielectric constant tensor:
#      x y z
#    x 1.911950 0.021440 0.044030 
#    y 0.021440 1.897940 -0.002520 
#    z 0.044030 -0.002520 1.890230 
# 
# From -- ./inp_files/49177.got.cif
#   From: 2010.05.17/outbox.cif.g08.bks.cpg/sg2_25_cif.got.tgz:49177.got - 2010.06.03 11:33:40.
