data_PCOD9107158
_publ_section_title
;
Structure prediction by ZEFSAII (Michael W. Deem and Ramdas Pophale) SiO2 
 PCOD9107158
Probable space group: P -1
;
_chemical_formula_sum "Si O2"
_cell_formula_units_Z 16
_cell_length_a 9.250213
_cell_length_b 26.181409
_cell_length_c 8.454496
_cell_angle_alpha 54.587092
_cell_angle_beta 121.232481
_cell_angle_gamma 151.304177
_cell_volume 800.988258
_symmetry_space_group_name_H-M "P -1"
_symmetry_group_IT_number 2
_symmetry_cell_setting 'triclinic'
loop_
_space_group_symop_operation_xyz
x,y,z
-x,-y,-z
loop_
_atom_site_type_symbol
_atom_site_label
_atom_site_fract_x
_atom_site_fract_y
_atom_site_fract_z
Si Si1 0.868172 0.506830 0.045328
Si Si2 0.714713 0.031917 0.937733
Si Si3 0.190777 0.415056 0.386260
Si Si4 0.948803 0.913825 0.680532
Si Si5 0.092332 0.246481 0.555009
Si Si6 0.733590 0.096979 0.329453
Si Si7 0.634116 0.315530 0.384437
Si Si8 0.721453 0.378883 0.644988
O O1 0.630817 0.388859 0.210545
O O2 0.128286 0.603488 0.145098
O O3 0.751985 0.531314 0.842631
O O4 0.000000 0.500000 0.000000
O O5 0.908579 0.141842 0.750134
O O6 0.475207 0.927886 0.866273
O O7 0.937590 0.059692 0.122686
O O8 0.500000 0.000000 0.000000
O O9 0.500000 0.500000 0.500000
O O10 0.040871 0.301726 0.478120
O O11 0.961096 0.387680 0.403113
O O12 0.603194 0.790353 0.673610
O O13 0.125996 0.917872 0.662878
O O14 0.000000 0.000000 0.500000
O O15 0.445778 0.339129 0.605384
O O16 0.986152 0.206309 0.384906
O O17 0.500000 0.000000 0.500000
O O18 0.585524 0.292821 0.585152
O O19 0.000000 0.500000 0.500000
#
# Coordination Sequence:
#
# PCOD9107158 Si02
#       8
#     2   2   2   2   2   2   2   2
#     4   9  20  39  61  89 125 158 205 251 305 363
#     4   9  22  40  63  89 124 161 204 258 309 374
#     4  11  24  39  62  94 124 161 215 254 297 381
#     4  11  23  40  65  94 119 160 213 256 308 369
#     4  11  21  40  68  90 124 171 201 254 323 361
#     4   9  20  42  62  88 124 161 202 254 316 370
#     4  10  22  40  63  88 128 164 200 259 315 362
#     4  10  20  40  63  89 125 165 204 250 314 369
#
# _framework density 19.975321999999998
#
# number of rings (size 3 to 8) (size 9 to 14) (size 15 to 20)
#    0.000    2.000    1.250    2.250   10.500    0.000 
#    2.250    8.125    0.000    0.000    0.000    0.000 
#    0.000    0.000    0.000    0.000    0.000    0.000 
#
# Total GULP energy -89160.612387 kJ/mol
# GULP energy per Si atom -5572.538274 kJ/mol
# Density = 1.992986 g / cm^3
# Si number density = 19.975322 Si / 1000 Ang^3
#
#
#
# Elastic Constant Matrix: (Units=GPa)
#
#
# Indices 1 2 3 4 5 6 
#
# 1 48.4595 4.4938 24.4980 2.4610 -2.9026 4.8044
# 2 4.4938 87.9304 59.9595 26.1418 6.0625 1.8324
# 3 24.4980 59.9595 157.7479 36.6806 1.0588 -19.5151
# 4 2.4610 26.1418 36.6806 42.0341 -5.4750 -4.1701
# 5 -2.9026 6.0625 1.0588 -5.4750 27.7355 0.0741
# 6 4.8044 1.8324 -19.5151 -4.1701 0.0741 35.5817
#
#
#
# Elastic Compliance Matrix: (Units=1/GPa)
#
#
# Indices 1 2 3 4 5 6 
#
# 1 0.024059 0.002040 -0.005800 0.002115 0.002728 -0.006293
# 2 0.002040 0.018032 -0.006145 -0.007144 -0.004889 -0.005401
# 3 -0.005800 -0.006145 0.011706 -0.005477 -0.000810 0.006880
# 4 0.002115 -0.007144 -0.005477 0.034131 0.008727 0.001060
# 5 0.002728 -0.004889 -0.000810 0.008727 0.039162 0.000380
# 6 -0.006293 -0.005401 0.006880 0.001060 0.000380 0.033129
#
#
# Mechanical properties :
#
#
# Convention : Reuss Voigt Hill
#
# Bulk Modulus (GPa) = 29.42403 52.44893 40.93648
# Shear Modulus (GPa) = 26.12917 34.74937 30.43927
#
# Velocity S-wave (km/s) = 3.62065 4.17539 3.90788
# Velocity P-wave (km/s) = 5.67812 7.03982 6.39531
#
# Compressibility (1/GPa) = 0.03398583
#
# Stress axis : x y z
#
# Youngs Moduli (GPa) = 41.56502 55.45608 85.42904
#
# Poissons Ratio (x) = -0.11312 0.49551
# Poissons Ratio (y) = -0.08478 0.52495
# Poissons Ratio (z) = 0.24109 0.34077
#
# Static dielectric constant tensor:
#      x y z
#    x 1.702140 -0.003940 -0.046770 
#    y -0.003940 1.757370 0.023990 
#    z -0.046770 0.023990 1.728900 
# 
# From -- ./inp_files/227423.got.cif
#   From: 2010.05.17/outbox.cif.g08.bks.cpg/sg2_114_cif.got.tgz:227423.got - 2010.06.03 11:33:40.
