data_PCOD9107086
_publ_section_title
;
Structure prediction by ZEFSAII (Michael W. Deem and Ramdas Pophale) SiO2 
 PCOD9107086
Probable space group: P -1
;
_chemical_formula_sum "Si O2"
_cell_formula_units_Z 16
_cell_length_a 7.955796
_cell_length_b 15.986604
_cell_length_c 11.518260
_cell_angle_alpha 52.538617
_cell_angle_beta 119.335739
_cell_angle_gamma 150.108712
_cell_volume 576.910964
_symmetry_space_group_name_H-M "P -1"
_symmetry_group_IT_number 2
_symmetry_cell_setting 'triclinic'
loop_
_space_group_symop_operation_xyz
x,y,z
-x,-y,-z
loop_
_atom_site_type_symbol
_atom_site_label
_atom_site_fract_x
_atom_site_fract_y
_atom_site_fract_z
Si Si1 0.415742 0.154875 0.945909
Si Si2 0.822224 0.806594 0.865852
Si Si3 0.230533 0.034621 0.459183
Si Si4 0.729967 0.470205 0.909333
Si Si5 0.191208 0.695347 0.253927
Si Si6 0.091962 0.320380 0.408737
Si Si7 0.730948 0.479128 0.490935
Si Si8 0.609803 0.047917 0.215736
O O1 0.455705 0.293598 0.877281
O O2 0.766310 0.292272 0.877458
O O3 0.463852 0.100575 0.118320
O O4 0.099515 0.981611 0.903235
O O5 0.041181 0.827828 0.838456
O O6 0.665436 0.829549 0.712883
O O7 0.514458 0.614314 0.994266
O O8 0.424587 0.044410 0.607184
O O9 0.079153 0.869432 0.471216
O O10 0.000000 0.000000 0.500000
O O11 0.950260 0.655766 0.756791
O O12 0.000000 0.500000 0.000000
O O13 0.424865 0.703058 0.372679
O O14 0.870697 0.529740 0.365511
O O15 0.328699 0.869420 0.185820
O O16 0.482325 0.463757 0.413557
O O17 0.038499 0.384283 0.435162
#
# Coordination Sequence:
#
# PCOD9107086 Si02
#       8
#     2   2   2   2   2   2   2   2
#     4  11  22  43  68 100 134 178 231 283 335 412
#     4  10  23  43  72  95 130 184 232 277 340 408
#     4  10  22  44  67  97 133 177 226 278 336 411
#     4  12  27  44  62  99 146 179 222 288 347 401
#     4  10  20  40  63 101 131 169 221 280 333 397
#     4  11  23  41  66  95 137 173 227 270 341 401
#     4  10  22  37  65  97 131 171 216 278 335 394
#     4  10  22  40  69  96 131 169 233 278 335 404
#
# _framework density 27.733917999999999
#
# number of rings (size 3 to 8) (size 9 to 14) (size 15 to 20)
#    0.000    1.500    1.250    4.875    5.250    2.000 
#    4.500    5.000    0.000    0.000    0.000    0.000 
#    0.000    0.000    0.000    0.000    0.000    0.000 
#
# Total GULP energy -89244.753985 kJ/mol
# GULP energy per Si atom -5577.797124 kJ/mol
# Density = 2.767079 g / cm^3
# Si number density = 27.733918 Si / 1000 Ang^3
#
#
#
# Elastic Constant Matrix: (Units=GPa)
#
#
# Indices 1 2 3 4 5 6 
#
# 1 78.1644 24.5838 33.0795 -1.4167 1.5535 -1.8637
# 2 24.5838 46.4555 0.8852 4.1448 -16.4265 -6.1153
# 3 33.0795 0.8852 121.1914 -6.4443 8.1086 26.2572
# 4 -1.4167 4.1448 -6.4443 44.1616 -4.1084 0.9548
# 5 1.5535 -16.4265 8.1086 -4.1084 44.3242 -4.0143
# 6 -1.8637 -6.1153 26.2572 0.9548 -4.0143 40.6515
#
#
#
# Elastic Compliance Matrix: (Units=1/GPa)
#
#
# Indices 1 2 3 4 5 6 
#
# 1 0.018461 -0.010608 -0.005202 0.000466 -0.003378 0.002266
# 2 -0.010608 0.032486 0.000537 -0.002256 0.012588 0.005350
# 3 -0.005202 0.000537 0.011616 0.001433 -0.002329 -0.007924
# 4 0.000466 -0.002256 0.001433 0.023199 0.000882 -0.001701
# 5 -0.003378 0.012588 -0.002329 0.000882 0.028398 0.006026
# 6 0.002266 0.005350 -0.007924 -0.001701 0.006026 0.031261
#
#
# Mechanical properties :
#
#
# Convention : Reuss Voigt Hill
#
# Bulk Modulus (GPa) = 31.23275 40.32316 35.77795
# Shear Modulus (GPa) = 26.78962 38.31163 32.55062
#
# Velocity S-wave (km/s) = 3.11135 3.72075 3.42961
# Velocity P-wave (km/s) = 4.91867 5.74713 5.34896
#
# Compressibility (1/GPa) = 0.03201767
#
# Stress axis : x y z
#
# Youngs Moduli (GPa) = 54.16859 30.78233 86.08743
#
# Poissons Ratio (x) = 0.32654 0.44779
# Poissons Ratio (y) = 0.57463 -0.04622
# Poissons Ratio (z) = 0.28176 -0.01653
#
# Static dielectric constant tensor:
#      x y z
#    x 2.160960 -0.014580 -0.049830 
#    y -0.014580 2.412160 0.072800 
#    z -0.049830 0.072800 2.186800 
# 
# From -- ./inp_files/403037.got.cif
#   From: 2010.05.17/outbox.cif.g08.bks.cpg/sg2_202_cif.got.tgz:403037.got - 2010.06.03 11:33:40.
