data_PCOD9107424
_publ_section_title
;
Structure prediction by ZEFSAII (Michael W. Deem and Ramdas Pophale) SiO2 
 PCOD9107424
Probable space group: P -1
;
_chemical_formula_sum "Si O2"
_cell_formula_units_Z 14
_cell_length_a 15.817109
_cell_length_b 5.243510
_cell_length_c 15.741651
_cell_angle_alpha 77.039806
_cell_angle_beta 151.240460
_cell_angle_gamma 95.980909
_cell_volume 600.145248
_symmetry_space_group_name_H-M "P -1"
_symmetry_group_IT_number 2
_symmetry_cell_setting 'triclinic'
loop_
_space_group_symop_operation_xyz
x,y,z
-x,-y,-z
loop_
_atom_site_type_symbol
_atom_site_label
_atom_site_fract_x
_atom_site_fract_y
_atom_site_fract_z
Si Si1 0.791524 0.070635 0.406747
Si Si2 0.426061 0.381210 0.028881
Si Si3 0.028238 0.803380 0.272501
Si Si4 0.269018 0.801532 0.322008
Si Si5 0.073941 0.610893 0.638556
Si Si6 0.790493 0.387932 0.028189
Si Si7 0.695163 0.643215 0.743603
O O1 0.575578 0.136527 0.212337
O O2 0.828701 0.168040 0.336328
O O3 0.867938 0.217133 0.542860
O O4 0.910704 0.774901 0.536699
O O5 0.500000 0.500000 0.000000
O O6 0.225599 0.367119 0.823876
O O7 0.369317 0.575560 0.045153
O O8 0.930934 0.569656 0.169819
O O9 0.171586 0.829068 0.324020
O O10 0.885024 0.081120 0.128344
O O11 0.482397 0.723055 0.532282
O O12 0.220750 0.567528 0.238795
O O13 0.231255 0.084222 0.218986
O O14 0.000000 0.500000 0.500000
O O15 0.722527 0.504301 0.868991
#
# Coordination Sequence:
#
# PCOD9107424 Si02
#       7
#     2   2   2   2   2   2   2
#     4  10  22  39  63  90 130 174 217 279 334 400
#     4  10  22  44  65  97 132 180 226 279 343 401
#     4  12  25  42  67  97 138 176 223 283 337 399
#     4  10  22  42  67  96 134 177 221 276 342 395
#     4  10  20  40  64  91 129 166 225 277 335 400
#     4  12  25  43  66  98 136 173 232 281 332 410
#     4  10  22  42  67  97 133 174 226 277 329 413
#
# _framework density 23.327687999999998
#
# number of rings (size 3 to 8) (size 9 to 14) (size 15 to 20)
#    0.000    1.429    1.429    3.429    0.000    4.000 
#    5.143    2.857    0.000    0.000    0.000    0.000 
#    0.000    0.000    0.000    0.000    0.000    0.000 
#
# Total GULP energy -78082.017876 kJ/mol
# GULP energy per Si atom -5577.286991 kJ/mol
# Density = 2.327459 g / cm^3
# Si number density = 23.327688 Si / 1000 Ang^3
#
#
#
# Elastic Constant Matrix: (Units=GPa)
#
#
# Indices 1 2 3 4 5 6 
#
# 1 139.2068 27.8723 22.5790 -28.0186 -9.7585 -22.7433
# 2 27.8723 129.8765 46.4546 -25.9795 2.0483 -16.3190
# 3 22.5790 46.4546 152.0518 -28.8097 -7.4413 -18.2650
# 4 -28.0186 -25.9795 -28.8097 28.3698 -4.6698 -2.3394
# 5 -9.7585 2.0483 -7.4413 -4.6698 48.6448 -9.6243
# 6 -22.7433 -16.3190 -18.2650 -2.3394 -9.6243 37.4365
#
#
#
# Elastic Compliance Matrix: (Units=1/GPa)
#
#
# Indices 1 2 3 4 5 6 
#
# 1 0.013182 0.001615 0.003432 0.020385 0.007760 0.013655
# 2 0.001615 0.010689 -0.000285 0.012045 0.002343 0.006856
# 3 0.003432 -0.000285 0.010520 0.015532 0.005685 0.009525
# 4 0.020385 0.012045 0.015532 0.088747 0.021665 0.036329
# 5 0.007760 0.002343 0.005685 0.021665 0.028359 0.017154
# 6 0.013655 0.006856 0.009525 0.036329 0.017154 0.049324
#
#
# Mechanical properties :
#
#
# Convention : Reuss Voigt Hill
#
# Bulk Modulus (GPa) = 22.77218 68.32742 45.54980
# Shear Modulus (GPa) = 24.27964 44.50549 34.39257
#
# Velocity S-wave (km/s) = 3.22966 4.37262 3.84386
# Velocity P-wave (km/s) = 4.86730 7.40587 6.26648
#
# Compressibility (1/GPa) = 0.04391324
#
# Stress axis : x y z
#
# Youngs Moduli (GPa) = 75.86344 93.55486 95.06106
#
# Poissons Ratio (x) = -0.15107 -0.32623
# Poissons Ratio (y) = -0.12250 0.02709
# Poissons Ratio (z) = -0.26035 0.02666
#
# Static dielectric constant tensor:
#      x y z
#    x 1.968920 0.063350 0.014460 
#    y 0.063350 1.903720 0.002650 
#    z 0.014460 0.002650 1.922890 
# 
# From -- ./inp_files/494927.got.cif
#   From: 2010.05.17/outbox.cif.g08.bks.cpg/sg2_248_cif.got.tgz:494927.got - 2010.06.03 11:33:40.
