data_PCOD9107395
_publ_section_title
;
Structure prediction by ZEFSAII (Michael W. Deem and Ramdas Pophale) SiO2 
 PCOD9107395
Probable space group: P -1
;
_chemical_formula_sum "Si O2"
_cell_formula_units_Z 16
_cell_length_a 8.787550
_cell_length_b 8.644480
_cell_length_c 10.135617
_cell_angle_alpha 88.653426
_cell_angle_beta 81.496063
_cell_angle_gamma 125.647997
_cell_volume 612.994584
_symmetry_space_group_name_H-M "P -1"
_symmetry_group_IT_number 2
_symmetry_cell_setting 'triclinic'
loop_
_space_group_symop_operation_xyz
x,y,z
-x,-y,-z
loop_
_atom_site_type_symbol
_atom_site_label
_atom_site_fract_x
_atom_site_fract_y
_atom_site_fract_z
Si Si1 0.751556 0.939960 0.395065
Si Si2 0.459151 0.780311 0.250830
Si Si3 0.773260 0.860202 0.024484
Si Si4 0.303237 0.300025 0.369585
Si Si5 0.170806 0.683833 0.756568
Si Si6 0.243638 0.403580 0.640614
Si Si7 0.552700 0.935808 0.864053
Si Si8 0.794237 0.599341 0.875431
O O1 0.524401 0.795160 0.390510
O O2 0.759741 0.897629 0.549132
O O3 0.826208 0.817772 0.321935
O O4 0.803071 0.148681 0.346696
O O5 0.352703 0.603793 0.169503
O O6 0.359266 0.884503 0.247175
O O7 0.672221 0.894990 0.153542
O O8 0.688816 0.889148 0.903947
O O9 0.727793 0.650986 0.012563
O O10 0.000000 0.000000 0.000000
O O11 0.244858 0.395492 0.481833
O O12 0.535598 0.452543 0.335139
O O13 0.192092 0.273088 0.251777
O O14 0.139187 0.496678 0.699045
O O15 0.358746 0.772970 0.820131
O O16 0.991219 0.628374 0.868945
O O17 0.500000 0.000000 0.000000
#
# Coordination Sequence:
#
# PCOD9107395 Si02
#       8
#     2   2   2   2   2   2   2   2
#     4   9  19  40  64  89 126 166 215 257 315 360
#     4  10  20  40  64  89 127 165 205 263 312 375
#     4  11  23  42  66  90 121 161 211 264 317 378
#     4   9  19  38  63  88 127 165 210 270 305 370
#     4  11  23  37  64  91 130 173 208 260 309 381
#     4   9  18  39  60  88 122 168 208 263 312 364
#     4   9  20  40  59  86 122 158 205 259 309 367
#     4  12  22  39  59  95 126 166 213 251 321 372
#
# _framework density 26.101372999999999
#
# number of rings (size 3 to 8) (size 9 to 14) (size 15 to 20)
#    0.750    1.250    1.250    3.375    0.000    1.500 
#    4.500    4.375    0.000    0.000    0.000    0.000 
#    0.000    0.000    0.000    0.000    0.000    0.000 
#
# Total GULP energy -89101.819186 kJ/mol
# GULP energy per Si atom -5568.863699 kJ/mol
# Density = 2.604196 g / cm^3
# Si number density = 26.101373 Si / 1000 Ang^3
#
#
#
# Elastic Constant Matrix: (Units=GPa)
#
#
# Indices 1 2 3 4 5 6 
#
# 1 119.9435 56.1440 32.8819 3.1640 7.7514 -23.0512
# 2 56.1440 81.3823 13.5835 8.4075 -0.2621 -27.2267
# 3 32.8819 13.5835 48.4477 6.9014 8.4035 -20.7752
# 4 3.1640 8.4075 6.9014 35.5546 -14.2331 -1.4988
# 5 7.7514 -0.2621 8.4035 -14.2331 29.2213 12.0760
# 6 -23.0512 -27.2267 -20.7752 -1.4988 12.0760 52.4187
#
#
#
# Elastic Compliance Matrix: (Units=1/GPa)
#
#
# Indices 1 2 3 4 5 6 
#
# 1 0.014753 -0.009736 -0.008774 0.002941 0.000847 -0.002158
# 2 -0.009736 0.022889 0.008951 -0.009716 -0.009962 0.013172
# 3 -0.008774 0.008951 0.042288 -0.020345 -0.029482 0.023761
# 4 0.002941 -0.009716 -0.020345 0.047721 0.035972 -0.018740
# 5 0.000847 -0.009962 -0.029482 0.035972 0.073272 -0.032339
# 6 -0.002158 0.013172 0.023761 -0.018740 -0.032339 0.041301
#
#
# Mechanical properties :
#
#
# Convention : Reuss Voigt Hill
#
# Bulk Modulus (GPa) = 16.44448 50.55471 33.49959
# Shear Modulus (GPa) = 17.75485 33.24986 25.50236
#
# Velocity S-wave (km/s) = 2.61095 3.57301 3.12917
# Velocity P-wave (km/s) = 3.92470 6.03593 5.09096
#
# Compressibility (1/GPa) = 0.06081068
#
# Stress axis : x y z
#
# Youngs Moduli (GPa) = 67.78176 43.68891 23.64758
#
# Poissons Ratio (x) = 0.42538 0.20749
# Poissons Ratio (y) = 0.65995 -0.21168
# Poissons Ratio (z) = 0.59475 -0.39107
#
# Static dielectric constant tensor:
#      x y z
#    x 2.072790 -0.026880 0.047320 
#    y -0.026880 2.230750 -0.124320 
#    z 0.047320 -0.124320 2.173090 
# 
# From -- ./inp_files/382337.got.cif
#   From: 2010.05.17/outbox.cif.g08.bks.cpg/sg2_192_cif.got.tgz:382337.got - 2010.06.03 11:33:40.
