data_PCOD9107781
_publ_section_title
;
Structure prediction by ZEFSAII (Michael W. Deem and Ramdas Pophale) SiO2 
 PCOD9107781
Probable space group: P -1
;
_chemical_formula_sum "Si O2"
_cell_formula_units_Z 12
_cell_length_a 7.599055
_cell_length_b 14.461735
_cell_length_c 10.417345
_cell_angle_alpha 39.325577
_cell_angle_beta 42.332539
_cell_angle_gamma 56.049893
_cell_volume 488.336528
_symmetry_space_group_name_H-M "P -1"
_symmetry_group_IT_number 2
_symmetry_cell_setting 'triclinic'
loop_
_space_group_symop_operation_xyz
x,y,z
-x,-y,-z
loop_
_atom_site_type_symbol
_atom_site_label
_atom_site_fract_x
_atom_site_fract_y
_atom_site_fract_z
Si Si1 0.230741 0.110119 0.286657
Si Si2 0.861243 0.356044 0.787073
Si Si3 0.278199 0.402715 0.083394
Si Si4 0.308448 0.179379 0.880162
Si Si5 0.752871 0.073793 0.997398
Si Si6 0.708115 0.424491 0.378024
O O1 0.194018 0.236338 0.271332
O O2 0.292219 0.184931 0.035850
O O3 0.493529 0.027943 0.266449
O O4 0.000000 0.000000 0.500000
O O5 0.787912 0.245637 0.825507
O O6 0.000000 0.500000 0.500000
O O7 0.585157 0.391414 0.969196
O O8 0.067724 0.267206 0.855164
O O9 0.004244 0.446492 0.249307
O O10 0.294629 0.501090 0.840428
O O11 0.280008 0.012114 0.026414
O O12 0.579213 0.262083 0.605137
O O13 0.000000 0.000000 0.000000
O O14 0.500000 0.500000 0.500000
#
# Coordination Sequence:
#
# PCOD9107781 Si02
#       6
#     2   2   2   2   2   2
#     4  11  22  40  62  92 129 168 222 267 314 387
#     4  10  20  40  65  96 134 169 213 270 324 389
#     4  10  22  39  64  95 129 167 214 271 320 381
#     4  11  21  39  67  94 129 175 214 263 330 382
#     4   9  21  39  61  93 127 167 213 261 325 381
#     4  11  21  39  66  95 129 168 217 265 324 389
#
# _framework density 24.573217
#
# number of rings (size 3 to 8) (size 9 to 14) (size 15 to 20)
#    0.000    1.667    3.333    1.500    0.000    0.000 
#    0.000   10.000    3.667    0.000    0.000    0.000 
#    0.000    0.000    0.000    0.000    0.000    0.000 
#
# Total GULP energy -67009.810742 kJ/mol
# GULP energy per Si atom -5584.150895 kJ/mol
# Density = 2.451729 g / cm^3
# Si number density = 24.573217 Si / 1000 Ang^3
#
#
#
# Elastic Constant Matrix: (Units=GPa)
#
#
# Indices 1 2 3 4 5 6 
#
# 1 102.8988 22.8887 36.1274 9.5826 -40.8778 -23.3188
# 2 22.8887 130.9671 47.6877 7.3505 -22.3768 -8.8599
# 3 36.1274 47.6877 137.2833 8.7526 -53.1741 -25.3554
# 4 9.5826 7.3505 8.7526 45.5796 1.4344 -13.5853
# 5 -40.8778 -22.3768 -53.1741 1.4344 49.7082 5.6775
# 6 -23.3188 -8.8599 -25.3554 -13.5853 5.6775 39.1606
#
#
#
# Elastic Compliance Matrix: (Units=1/GPa)
#
#
# Indices 1 2 3 4 5 6 
#
# 1 0.018082 -0.000923 0.004699 -0.002089 0.018374 0.010212
# 2 -0.000923 0.008873 -0.002759 -0.000930 0.000391 -0.000708
# 3 0.004699 -0.002759 0.016132 -0.001436 0.018848 0.009388
# 4 -0.002089 -0.000930 -0.001436 0.025075 -0.005204 0.007069
# 5 0.018374 0.000391 0.018848 -0.005204 0.054165 0.013575
# 6 0.010212 -0.000708 0.009388 0.007069 0.013575 0.038019
#
#
# Mechanical properties :
#
#
# Convention : Reuss Voigt Hill
#
# Bulk Modulus (GPa) = 22.16375 64.95076 43.55726
# Shear Modulus (GPa) = 28.84264 44.51937 36.68100
#
# Velocity S-wave (km/s) = 3.42971 4.26103 3.86777
# Velocity P-wave (km/s) = 4.97222 7.12021 6.14086
#
# Compressibility (1/GPa) = 0.04511871
#
# Stress axis : x y z
#
# Youngs Moduli (GPa) = 55.30258 112.70592 61.98893
#
# Poissons Ratio (x) = 0.10408 -0.29126
# Poissons Ratio (y) = 0.05107 0.17104
# Poissons Ratio (z) = -0.25984 0.31097
#
# Static dielectric constant tensor:
#      x y z
#    x 2.058940 -0.028560 -0.065990 
#    y -0.028560 2.080780 0.020680 
#    z -0.065990 0.020680 1.927660 
# 
# From -- ./inp_files/36712.got.cif
#   From: 2010.05.17/outbox.cif.g08.bks.cpg/sg2_19_cif.got.tgz:36712.got - 2010.06.03 11:33:40.
