data_PCOD9107274
_publ_section_title
;
Structure prediction by ZEFSAII (Michael W. Deem and Ramdas Pophale) SiO2 
 PCOD9107274
Probable space group: P -1
;
_chemical_formula_sum "Si O2"
_cell_formula_units_Z 16
_cell_length_a 13.690842
_cell_length_b 9.601646
_cell_length_c 11.782604
_cell_angle_alpha 112.366143
_cell_angle_beta 154.102412
_cell_angle_gamma 65.908162
_cell_volume 617.221564
_symmetry_space_group_name_H-M "P -1"
_symmetry_group_IT_number 2
_symmetry_cell_setting 'triclinic'
loop_
_space_group_symop_operation_xyz
x,y,z
-x,-y,-z
loop_
_atom_site_type_symbol
_atom_site_label
_atom_site_fract_x
_atom_site_fract_y
_atom_site_fract_z
Si Si1 0.687387 0.643222 0.812387
Si Si2 0.362036 0.173841 0.509150
Si Si3 0.840572 0.936329 0.525896
Si Si4 0.722723 0.645888 0.214896
Si Si5 0.688140 0.314096 0.757652
Si Si6 0.660357 0.246341 0.317688
Si Si7 0.093412 0.112333 0.998674
Si Si8 0.889622 0.519927 0.576014
O O1 0.786877 0.472015 0.900823
O O2 0.536805 0.643854 0.542084
O O3 0.518508 0.712082 0.755268
O O4 0.858351 0.755776 0.994890
O O5 0.581585 0.252603 0.739563
O O6 0.160281 0.318766 0.362515
O O7 0.355776 0.077351 0.588183
O O8 0.285451 0.092422 0.290284
O O9 0.780674 0.076609 0.420243
O O10 0.045536 0.971913 0.829613
O O11 0.871241 0.778523 0.441563
O O12 0.718609 0.556448 0.300226
O O13 0.864612 0.532015 0.238431
O O14 0.490018 0.732563 0.946914
O O15 0.861087 0.180548 0.839998
O O16 0.817391 0.376742 0.519963
#
# Coordination Sequence:
#
# PCOD9107274 Si02
#       8
#     2   2   2   2   2   2   2   2
#     4  10  22  37  63  98 131 164 222 266 324 381
#     4  10  23  43  68  96 134 171 219 264 328 385
#     4  11  25  46  61  99 138 174 215 267 319 397
#     4  10  25  46  69  94 128 172 221 268 327 378
#     4  10  20  40  63  96 131 172 213 272 318 381
#     4  12  23  42  69  96 129 172 215 274 327 374
#     4  11  23  40  64  97 136 175 211 263 326 393
#     4  10  23  46  71  97 125 165 223 278 317 387
#
# _framework density 25.922622
#
# number of rings (size 3 to 8) (size 9 to 14) (size 15 to 20)
#    0.000    1.500    2.500    1.500    3.500    1.000 
#    4.500    0.000    0.000    0.000    0.000    0.000 
#    0.000    0.000    0.000    0.000    0.000    0.000 
#
# Total GULP energy -89601.529164 kJ/mol
# GULP energy per Si atom -5600.095573 kJ/mol
# Density = 2.586362 g / cm^3
# Si number density = 25.922622 Si / 1000 Ang^3
#
#
#
# Elastic Constant Matrix: (Units=GPa)
#
#
# Indices 1 2 3 4 5 6 
#
# 1 68.5734 24.5483 10.7453 0.4544 -0.6904 32.0966
# 2 24.5483 149.3912 43.9725 0.6770 -1.4379 29.7868
# 3 10.7453 43.9725 78.6719 -9.7888 -18.4813 8.8542
# 4 0.4544 0.6770 -9.7888 55.8695 6.2417 -0.8140
# 5 -0.6904 -1.4379 -18.4813 6.2417 33.5344 6.1436
# 6 32.0966 29.7868 8.8542 -0.8140 6.1436 52.2487
#
#
#
# Elastic Compliance Matrix: (Units=1/GPa)
#
#
# Indices 1 2 3 4 5 6 
#
# 1 0.020866 -0.000735 -0.000505 -0.000720 0.002567 -0.012627
# 2 -0.000735 0.009003 -0.004989 -0.000858 -0.001547 -0.003667
# 3 -0.000505 -0.004989 0.018208 0.002168 0.009595 -0.001025
# 4 -0.000720 -0.000858 0.002168 0.018594 -0.002529 0.001151
# 5 0.002567 -0.001547 0.009595 -0.002529 0.036790 -0.006686
# 6 -0.012627 -0.003667 -0.001025 0.001151 -0.006686 0.029965
#
#
# Mechanical properties :
#
#
# Convention : Reuss Voigt Hill
#
# Bulk Modulus (GPa) = 28.07466 50.57430 39.32448
# Shear Modulus (GPa) = 31.69449 42.82189 37.25819
#
# Velocity S-wave (km/s) = 3.50045 4.06878 3.79527
# Velocity P-wave (km/s) = 5.21452 6.45177 5.86586
#
# Compressibility (1/GPa) = 0.03561931
#
# Stress axis : x y z
#
# Youngs Moduli (GPa) = 47.92570 111.06919 54.92147
#
# Poissons Ratio (x) = 0.08159 0.02772
# Poissons Ratio (y) = 0.03520 0.27403
# Poissons Ratio (z) = 0.02419 0.55417
#
# Static dielectric constant tensor:
#      x y z
#    x 1.987490 0.024050 -0.033090 
#    y 0.024050 2.006610 0.015780 
#    z -0.033090 0.015780 2.087430 
# 
# From -- ./inp_files/447937.got.cif
#   From: 2010.05.17/outbox.cif.g08.bks.cpg/sg2_224_cif.got.tgz:447937.got - 2010.06.03 11:33:40.
