data_PCOD9107326
_publ_section_title
;
Structure prediction by ZEFSAII (Michael W. Deem and Ramdas Pophale) SiO2 
 PCOD9107326
Probable space group: P -1
;
_chemical_formula_sum "Si O2"
_cell_formula_units_Z 15
_cell_length_a 11.030685
_cell_length_b 14.110436
_cell_length_c 8.682420
_cell_angle_alpha 131.855995
_cell_angle_beta 136.851821
_cell_angle_gamma 53.210338
_cell_volume 671.507870
_symmetry_space_group_name_H-M "P -1"
_symmetry_group_IT_number 2
_symmetry_cell_setting 'triclinic'
loop_
_space_group_symop_operation_xyz
x,y,z
-x,-y,-z
loop_
_atom_site_type_symbol
_atom_site_label
_atom_site_fract_x
_atom_site_fract_y
_atom_site_fract_z
Si Si1 0.380877 0.507361 0.241989
Si Si2 0.572241 0.733621 0.155682
Si Si3 0.522212 0.139965 0.120450
Si Si4 0.175661 0.798884 0.351985
Si Si5 0.000000 0.500000 0.000000
Si Si6 0.236607 0.883870 0.170211
Si Si7 0.124586 0.183471 0.308767
Si Si8 0.173721 0.286170 0.125438
O O1 0.500000 0.500000 0.500000
O O2 0.302001 0.655738 0.279456
O O3 0.199735 0.459598 0.067139
O O4 0.466045 0.405932 0.079653
O O5 0.436977 0.800051 0.236334
O O6 0.776414 0.736941 0.396933
O O7 0.521541 0.824766 0.057627
O O8 0.726300 0.150769 0.360231
O O9 0.374155 0.237034 0.192472
O O10 0.500000 0.000000 0.000000
O O11 0.182641 0.885807 0.302428
O O12 0.975088 0.776370 0.175580
O O13 0.091283 0.437687 0.184683
O O14 0.217160 0.030041 0.248626
O O15 0.088863 0.816356 0.875435
O O16 0.157860 0.236777 0.228917
#
# Coordination Sequence:
#
# PCOD9107326 Si02
#       8
#     2   2   2   2   1   2   2   2
#     4  11  22  40  61  87 125 164 208 256 304 362
#     4  12  23  36  62  95 120 160 207 256 305 363
#     4  12  23  37  62  94 122 157 209 259 304 362
#     4  10  22  41  62  85 121 171 202 246 313 361
#     4  10  20  40  64  84 120 168 206 248 302 362
#     4  10  22  41  62  88 127 162 198 257 310 369
#     4  10  22  41  62  90 126 161 202 249 315 371
#     4  10  21  40  64  87 118 168 201 248 309 364
#
# _framework density 22.337786999999999
#
# number of rings (size 3 to 8) (size 9 to 14) (size 15 to 20)
#    0.000    1.333    2.667    2.800    0.000    3.200 
#    0.000    6.000    0.000    0.000    0.000    0.000 
#    0.000    0.000    0.000    0.000    0.000    0.000 
#
# Total GULP energy -83502.480570 kJ/mol
# GULP energy per Si atom -5566.832038 kJ/mol
# Density = 2.228695 g / cm^3
# Si number density = 22.337787 Si / 1000 Ang^3
#
#
#
# Elastic Constant Matrix: (Units=GPa)
#
#
# Indices 1 2 3 4 5 6 
#
# 1 37.9575 -16.3653 0.8784 -3.9708 7.3275 -0.9072
# 2 -16.3653 64.2086 -6.0508 -5.5858 -5.1713 10.8494
# 3 0.8784 -6.0508 119.5954 -18.5187 15.2627 -4.7510
# 4 -3.9708 -5.5858 -18.5187 26.2549 1.8655 -2.9489
# 5 7.3275 -5.1713 15.2627 1.8655 20.5307 -12.7441
# 6 -0.9072 10.8494 -4.7510 -2.9489 -12.7441 24.5023
#
#
#
# Elastic Compliance Matrix: (Units=1/GPa)
#
#
# Indices 1 2 3 4 5 6 
#
# 1 0.036149 0.010973 0.004340 0.010994 -0.022454 -0.013034
# 2 0.010973 0.020557 0.002734 0.007253 -0.008797 -0.011868
# 3 0.004340 0.002734 0.011463 0.009751 -0.013013 -0.004422
# 4 0.010994 0.007253 0.009751 0.048930 -0.015807 -0.003247
# 5 -0.022454 -0.008797 -0.013013 -0.015807 0.095653 0.048389
# 6 -0.013034 -0.011868 -0.004422 -0.003247 0.048389 0.069505
#
#
# Mechanical properties :
#
#
# Convention : Reuss Voigt Hill
#
# Bulk Modulus (GPa) = 9.59124 19.85401 14.72263
# Shear Modulus (GPa) = 17.79885 30.47753 24.13819
#
# Velocity S-wave (km/s) = 2.82584 3.69778 3.29081
# Velocity P-wave (km/s) = 3.86655 5.20949 4.58743
#
# Compressibility (1/GPa) = 0.10426176
#
# Stress axis : x y z
#
# Youngs Moduli (GPa) = 27.66324 48.64626 87.23784
#
# Poissons Ratio (x) = -0.53379 -0.37860
# Poissons Ratio (y) = -0.30355 -0.23849
# Poissons Ratio (z) = -0.12005 -0.13299
#
# Static dielectric constant tensor:
#      x y z
#    x 1.837860 -0.014700 -0.015500 
#    y -0.014700 1.892980 0.060770 
#    z -0.015500 0.060770 1.871770 
# 
# From -- ./inp_files/253587.got.cif
#   From: 2010.05.17/outbox.cif.g08.bks.cpg/sg2_127_cif.got.tgz:253587.got - 2010.06.03 11:33:40.
