data_PCOD9107538
_publ_section_title
;
Structure prediction by ZEFSAII (Michael W. Deem and Ramdas Pophale) SiO2 
 PCOD9107538
Probable space group: P -1
;
_chemical_formula_sum "Si O2"
_cell_formula_units_Z 16
_cell_length_a 10.777478
_cell_length_b 12.604566
_cell_length_c 16.985399
_cell_angle_alpha 147.168156
_cell_angle_beta 54.399539
_cell_angle_gamma 145.482806
_cell_volume 661.704949
_symmetry_space_group_name_H-M "P -1"
_symmetry_group_IT_number 2
_symmetry_cell_setting 'triclinic'
loop_
_space_group_symop_operation_xyz
x,y,z
-x,-y,-z
loop_
_atom_site_type_symbol
_atom_site_label
_atom_site_fract_x
_atom_site_fract_y
_atom_site_fract_z
Si Si1 0.518371 0.575099 0.379218
Si Si2 0.024390 0.002371 0.806073
Si Si3 0.080944 0.085944 0.662845
Si Si4 0.042648 0.625577 0.663250
Si Si5 0.173939 0.536998 0.708600
Si Si6 0.352882 0.070666 0.286624
Si Si7 0.591399 0.126745 0.444762
Si Si8 0.204711 0.598797 0.154019
O O1 0.721309 0.651568 0.308496
O O2 0.563829 0.707990 0.532699
O O3 0.530356 0.783164 0.450568
O O4 0.254091 0.247907 0.262184
O O5 0.143692 0.082177 0.726323
O O6 0.056647 0.856766 0.765734
O O7 0.126774 0.303857 0.986990
O O8 0.951423 0.777737 0.476411
O O9 0.892622 0.075957 0.738423
O O10 0.143344 0.681823 0.746197
O O11 0.211368 0.664906 0.568096
O O12 0.772658 0.286430 0.548888
O O13 0.447125 0.744654 0.738762
O O14 0.017139 0.473818 0.795447
O O15 0.326522 0.826633 0.178030
O O16 0.395911 0.792605 0.275019
#
# Coordination Sequence:
#
# PCOD9107538 Si02
#       8
#     2   2   2   2   2   2   2   2
#     4  10  20  40  64  98 125 161 221 268 301 385
#     4  11  26  43  60  97 139 167 207 267 320 383
#     4  12  23  40  74  95 120 178 214 260 333 364
#     4  10  20  41  67  92 131 163 216 270 307 377
#     4  12  22  41  71  97 120 176 212 264 326 367
#     4  11  23  43  68  98 128 156 230 272 297 391
#     4   9  17  39  62  92 124 160 205 272 296 371
#     4  11  25  42  62  97 136 169 210 257 330 381
#
# _framework density 24.179962
#
# number of rings (size 3 to 8) (size 9 to 14) (size 15 to 20)
#    0.000    1.250    6.250    2.250    0.000    3.000 
#    4.500    1.250    0.000    0.000    0.000    0.000 
#    0.000    0.000    0.000    0.000    0.000    0.000 
#
# Total GULP energy -89415.487380 kJ/mol
# GULP energy per Si atom -5588.467961 kJ/mol
# Density = 2.412493 g / cm^3
# Si number density = 24.179962 Si / 1000 Ang^3
#
#
#
# Elastic Constant Matrix: (Units=GPa)
#
#
# Indices 1 2 3 4 5 6 
#
# 1 81.0105 18.4205 15.0341 10.0076 -16.2306 4.5410
# 2 18.4205 131.4403 18.1625 13.7340 -1.4490 4.3226
# 3 15.0341 18.1625 121.3804 20.5561 -22.2551 -0.8438
# 4 10.0076 13.7340 20.5561 21.6500 -0.7842 -5.0489
# 5 -16.2306 -1.4490 -22.2551 -0.7842 23.5864 1.1667
# 6 4.5410 4.3226 -0.8438 -5.0489 1.1667 46.5123
#
#
#
# Elastic Compliance Matrix: (Units=1/GPa)
#
#
# Indices 1 2 3 4 5 6 
#
# 1 0.016038 -0.001400 0.001976 -0.008560 0.012661 -0.002647
# 2 -0.001400 0.008367 -0.000520 -0.004463 -0.001033 -0.001109
# 3 0.001976 -0.000520 0.012497 -0.012355 0.012787 -0.001580
# 4 -0.008560 -0.004463 -0.012355 0.066134 -0.016049 0.008608
# 5 0.012661 -0.001033 0.012787 -0.016049 0.062787 -0.004225
# 6 -0.002647 -0.001109 -0.001580 0.008608 -0.004225 0.022873
#
#
# Mechanical properties :
#
#
# Convention : Reuss Voigt Hill
#
# Bulk Modulus (GPa) = 27.01602 48.56284 37.78943
# Shear Modulus (GPa) = 24.88519 37.16402 31.02461
#
# Velocity S-wave (km/s) = 3.21154 3.92468 3.58588
# Velocity P-wave (km/s) = 4.99491 6.37691 5.72775
#
# Compressibility (1/GPa) = 0.03701507
#
# Stress axis : x y z
#
# Youngs Moduli (GPa) = 62.35154 119.51052 80.01636
#
# Poissons Ratio (x) = 0.16726 -0.15808
# Poissons Ratio (y) = 0.08727 0.04160
# Poissons Ratio (z) = -0.12318 0.06214
#
# Static dielectric constant tensor:
#      x y z
#    x 2.061090 -0.008100 0.017460 
#    y -0.008100 1.991870 0.009840 
#    z 0.017460 0.009840 1.886260 
# 
# From -- ./inp_files/595657.got.cif
#   From: 2010.05.17/outbox.cif.g08.bks.cpg/sg2_298_cif.got.tgz:595657.got - 2010.06.03 11:33:40.
