data_PCOD9107799
_publ_section_title
;
Structure prediction by ZEFSAII (Michael W. Deem and Ramdas Pophale) SiO2 
 PCOD9107799
Probable space group: P -1
;
_chemical_formula_sum "Si O2"
_cell_formula_units_Z 14
_cell_length_a 9.333975
_cell_length_b 9.700800
_cell_length_c 9.294749
_cell_angle_alpha 101.368191
_cell_angle_beta 124.484995
_cell_angle_gamma 85.577748
_cell_volume 679.488963
_symmetry_space_group_name_H-M "P -1"
_symmetry_group_IT_number 2
_symmetry_cell_setting 'triclinic'
loop_
_space_group_symop_operation_xyz
x,y,z
-x,-y,-z
loop_
_atom_site_type_symbol
_atom_site_label
_atom_site_fract_x
_atom_site_fract_y
_atom_site_fract_z
Si Si1 0.016082 0.999684 0.180023
Si Si2 0.011895 0.693876 0.271802
Si Si3 0.374462 0.423701 0.029388
Si Si4 0.501212 0.877448 0.855646
Si Si5 0.386391 0.600791 0.361684
Si Si6 0.889551 0.123784 0.394063
Si Si7 0.387974 0.118012 0.394036
O O1 0.195886 0.085294 0.336601
O O2 0.883643 0.091314 0.214456
O O3 0.008932 0.840284 0.206384
O O4 0.000000 0.000000 0.000000
O O5 0.190336 0.622883 0.312075
O O6 0.026875 0.737180 0.457390
O O7 0.828716 0.609446 0.130902
O O8 0.453656 0.272281 0.081388
O O9 0.373648 0.528280 0.185283
O O10 0.500000 0.500000 0.000000
O O11 0.310580 0.876268 0.675097
O O12 0.623475 0.895075 0.788925
O O13 0.500000 0.000000 0.000000
O O14 0.500000 0.500000 0.500000
O O15 0.506789 0.742418 0.467164
O O16 0.000000 0.000000 0.500000
O O17 0.500000 0.000000 0.500000
#
# Coordination Sequence:
#
# PCOD9107799 Si02
#       7
#     2   2   2   2   2   2   2
#     4  11  23  38  68 108 136 173 229 288 341 403
#     4  11  23  48  68  96 139 186 231 283 345 414
#     4  12  29  47  70 103 139 190 233 287 350 413
#     4  12  24  45  70 103 142 178 231 288 339 412
#     4  12  25  49  71  99 145 185 229 287 352 415
#     4  10  20  40  65  97 135 176 222 280 342 395
#     4  12  23  43  72 103 135 182 232 279 344 413
#
# _framework density 20.603719999999999
#
# number of rings (size 3 to 8) (size 9 to 14) (size 15 to 20)
#    0.000    0.571    4.286    4.714    4.000    1.143 
#    2.571    1.429    0.000    0.000    0.000    0.000 
#    0.000    0.000    0.000    0.000    0.000    0.000 
#
# Total GULP energy -78117.959541 kJ/mol
# GULP energy per Si atom -5579.854253 kJ/mol
# Density = 2.055682 g / cm^3
# Si number density = 20.603720 Si / 1000 Ang^3
#
#
#
# Elastic Constant Matrix: (Units=GPa)
#
#
# Indices 1 2 3 4 5 6 
#
# 1 144.4529 52.7927 55.2040 15.7069 11.6818 3.6514
# 2 52.7927 131.4764 48.2165 14.5797 0.9521 2.5334
# 3 55.2040 48.2165 134.4827 34.5952 -4.9909 1.6023
# 4 15.7069 14.5797 34.5952 42.7802 -1.6103 -0.2563
# 5 11.6818 0.9521 -4.9909 -1.6103 58.9766 8.6051
# 6 3.6514 2.5334 1.6023 -0.2563 8.6051 34.3646
#
#
#
# Elastic Compliance Matrix: (Units=1/GPa)
#
#
# Indices 1 2 3 4 5 6 
#
# 1 0.009143 -0.002587 -0.002830 -0.000262 -0.001994 -0.000152
# 2 -0.002587 0.009516 -0.002208 -0.000502 0.000214 -0.000381
# 3 -0.002830 -0.002208 0.011331 -0.007321 0.001425 -0.000476
# 4 -0.000262 -0.000502 -0.007321 0.029572 0.000162 0.000586
# 5 -0.001994 0.000214 0.001425 0.000162 0.018115 -0.004405
# 6 -0.000152 -0.000381 -0.000476 0.000586 -0.004405 0.030274
#
#
# Mechanical properties :
#
#
# Convention : Reuss Voigt Hill
#
# Bulk Modulus (GPa) = 67.84625 80.31539 74.08082
# Shear Modulus (GPa) = 39.02703 44.17088 41.59896
#
# Velocity S-wave (km/s) = 4.35693 4.63517 4.49821
# Velocity P-wave (km/s) = 7.63617 8.22874 7.93798
#
# Compressibility (1/GPa) = 0.01473921
#
# Stress axis : x y z
#
# Youngs Moduli (GPa) = 109.36839 105.08638 88.25084
#
# Poissons Ratio (x) = 0.27185 0.24979
# Poissons Ratio (y) = 0.28293 0.19489
# Poissons Ratio (z) = 0.30956 0.23207
#
# Static dielectric constant tensor:
#      x y z
#    x 1.736370 -0.002640 0.056380 
#    y -0.002640 1.684520 0.002250 
#    z 0.056380 0.002250 1.819960 
# 
# From -- ./inp_files/156878.got.cif
#   From: 2010.05.17/outbox.cif.g08.bks.cpg/sg2_79_cif.got.tgz:156878.got - 2010.06.03 11:33:40.
