data_PCOD9107348
_publ_section_title
;
Structure prediction by ZEFSAII (Michael W. Deem and Ramdas Pophale) SiO2 
 PCOD9107348
Probable space group: P -1
;
_chemical_formula_sum "Si O2"
_cell_formula_units_Z 16
_cell_length_a 22.745909
_cell_length_b 8.883367
_cell_length_c 9.727870
_cell_angle_alpha 57.259205
_cell_angle_beta 124.668698
_cell_angle_gamma 152.605430
_cell_volume 740.501271
_symmetry_space_group_name_H-M "P -1"
_symmetry_group_IT_number 2
_symmetry_cell_setting 'triclinic'
loop_
_space_group_symop_operation_xyz
x,y,z
-x,-y,-z
loop_
_atom_site_type_symbol
_atom_site_label
_atom_site_fract_x
_atom_site_fract_y
_atom_site_fract_z
Si Si1 0.418891 0.944068 0.308222
Si Si2 0.212595 0.196469 0.366440
Si Si3 0.874340 0.825031 0.994695
Si Si4 0.262883 0.747716 0.416484
Si Si5 0.410091 0.961833 0.973782
Si Si6 0.014530 0.716732 0.839952
Si Si7 0.618328 0.796135 0.406199
Si Si8 0.112440 0.098247 0.549382
O O1 0.298932 0.557992 0.305047
O O2 0.370002 0.000739 0.314272
O O3 0.500000 0.000000 0.500000
O O4 0.459530 0.084105 0.138525
O O5 0.163972 0.088726 0.198917
O O6 0.301954 0.216617 0.515865
O O7 0.101723 0.003713 0.427302
O O8 0.743635 0.428534 0.036868
O O9 0.926101 0.011479 0.113536
O O10 0.000000 0.000000 0.000000
O O11 0.242123 0.491341 0.540503
O O12 0.129764 0.535844 0.277452
O O13 0.290606 0.893653 0.525935
O O14 0.418709 0.160012 0.795443
O O15 0.500000 0.000000 0.000000
O O16 0.107126 0.918623 0.730608
O O17 0.000000 0.500000 0.000000
O O18 0.500000 0.500000 0.500000
O O19 0.000000 0.000000 0.500000
#
# Coordination Sequence:
#
# PCOD9107348 Si02
#       8
#     2   2   2   2   2   2   2   2
#     4  10  20  40  64  87 117 163 215 262 319 397
#     4  10  22  38  61  91 125 163 213 275 329 378
#     4  11  22  42  66  93 128 172 222 270 324 400
#     4  10  21  40  61  84 123 169 211 261 324 391
#     4  11  24  42  68  98 130 177 226 271 334 409
#     4  11  22  36  58  90 123 158 204 267 323 372
#     4  12  24  42  64  95 134 175 222 282 334 388
#     4   9  19  38  58  82 117 163 206 248 317 397
#
# _framework density 21.606984000000001
#
# number of rings (size 3 to 8) (size 9 to 14) (size 15 to 20)
#    0.000    1.500    0.000    7.500    0.000    4.000 
#    0.000    6.250    0.000    0.000    0.000    0.000 
#    0.000    0.000    0.000    0.000    0.000    0.000 
#
# Total GULP energy -89164.162894 kJ/mol
# GULP energy per Si atom -5572.760181 kJ/mol
# Density = 2.155781 g / cm^3
# Si number density = 21.606984 Si / 1000 Ang^3
#
#
#
# Elastic Constant Matrix: (Units=GPa)
#
#
# Indices 1 2 3 4 5 6 
#
# 1 66.3294 0.1985 29.9599 -14.8426 -7.3746 19.3576
# 2 0.1985 55.6136 26.0390 -6.4713 -2.2367 15.0239
# 3 29.9599 26.0390 177.9497 -18.7946 -9.2685 11.2784
# 4 -14.8426 -6.4713 -18.7946 38.3951 -6.4319 -3.1067
# 5 -7.3746 -2.2367 -9.2685 -6.4319 42.4478 3.2452
# 6 19.3576 15.0239 11.2784 -3.1067 3.2452 28.1870
#
#
#
# Elastic Compliance Matrix: (Units=1/GPa)
#
#
# Indices 1 2 3 4 5 6 
#
# 1 0.025044 0.008013 -0.002765 0.009238 0.007111 -0.020164
# 2 0.008013 0.024882 -0.003140 0.005033 0.004113 -0.017428
# 3 -0.002765 -0.003140 0.006745 0.001958 0.001049 0.000969
# 4 0.009238 0.005033 0.001958 0.032136 0.007714 -0.007157
# 5 0.007111 0.004113 0.001049 0.007714 0.027156 -0.009772
# 6 -0.020164 -0.017428 0.000969 -0.007157 -0.009772 0.058563
#
#
# Mechanical properties :
#
#
# Convention : Reuss Voigt Hill
#
# Bulk Modulus (GPa) = 16.42358 45.80972 31.11665
# Shear Modulus (GPa) = 26.23249 38.05233 32.14241
#
# Velocity S-wave (km/s) = 3.48814 4.20111 3.86112
# Velocity P-wave (km/s) = 4.88266 6.69177 5.85748
#
# Compressibility (1/GPa) = 0.06088806
#
# Stress axis : x y z
#
# Youngs Moduli (GPa) = 39.93010 40.18986 148.26837
#
# Poissons Ratio (x) = -0.32206 0.40995
# Poissons Ratio (y) = -0.31998 0.46551
# Poissons Ratio (z) = 0.11040 0.12618
#
# Static dielectric constant tensor:
#      x y z
#    x 1.826720 0.028640 -0.026450 
#    y 0.028640 1.859000 -0.046370 
#    z -0.026450 -0.046370 1.871210 
# 
# From -- ./inp_files/208833.got.cif
#   From: 2010.05.17/outbox.cif.g08.bks.cpg/sg2_105_cif.got.tgz:208833.got - 2010.06.03 11:33:40.
