data_PCOD9107981
_publ_section_title
;
Structure prediction by ZEFSAII (Michael W. Deem and Ramdas Pophale) SiO2 
 PCOD9107981
Probable space group: P -1
;
_chemical_formula_sum "Si O2"
_cell_formula_units_Z 13
_cell_length_a 6.818918
_cell_length_b 10.765673
_cell_length_c 11.555981
_cell_angle_alpha 65.421908
_cell_angle_beta 105.705943
_cell_angle_gamma 138.215423
_cell_volume 512.961404
_symmetry_space_group_name_H-M "P -1"
_symmetry_group_IT_number 2
_symmetry_cell_setting 'triclinic'
loop_
_space_group_symop_operation_xyz
x,y,z
-x,-y,-z
loop_
_atom_site_type_symbol
_atom_site_label
_atom_site_fract_x
_atom_site_fract_y
_atom_site_fract_z
Si Si1 0.015286 0.389859 0.302493
Si Si2 0.307138 0.007140 0.886713
Si Si3 0.500000 0.000000 0.500000
Si Si4 0.699185 0.258685 0.634811
Si Si5 0.716929 0.768912 0.573488
Si Si6 0.559927 0.364538 0.924631
Si Si7 0.629323 0.697645 0.844358
O O1 0.052669 0.543209 0.327847
O O2 0.237090 0.370006 0.372531
O O3 0.133089 0.489390 0.154206
O O4 0.712549 0.166843 0.368019
O O5 0.471370 0.093331 0.757729
O O6 0.338844 0.170285 0.887766
O O7 0.961363 0.815519 0.889079
O O8 0.500000 0.000000 0.000000
O O9 0.743142 0.170505 0.574371
O O10 0.534419 0.299138 0.523004
O O11 0.656193 0.779774 0.692648
O O12 0.000000 0.000000 0.500000
O O13 0.464928 0.475854 0.878246
O O14 0.529524 0.301446 0.077152
#
# Coordination Sequence:
#
# PCOD9107981 Si02
#       7
#     2   2   1   2   2   2   2
#     4  10  22  40  64  92 126 163 209 263 314 370
#     4  11  23  40  62  91 130 169 202 250 312 372
#     4  12  22  40  64  90 128 168 204 252 324 378
#     4  11  23  41  62  94 128 161 212 259 308 374
#     4  11  19  40  68  94 121 165 205 260 311 363
#     4   9  21  41  64  90 122 163 211 258 300 367
#     4  10  20  40  66  93 123 161 209 256 310 362
#
# _framework density 25.343038
#
# number of rings (size 3 to 8) (size 9 to 14) (size 15 to 20)
#    0.000    1.538    3.077    2.308    0.000    1.846 
#    0.000   13.846    0.000    0.000    0.000    0.000 
#    0.000    0.000    0.000    0.000    0.000    0.000 
#
# Total GULP energy -72381.814117 kJ/mol
# GULP energy per Si atom -5567.831855 kJ/mol
# Density = 2.528536 g / cm^3
# Si number density = 25.343038 Si / 1000 Ang^3
#
#
#
# Elastic Constant Matrix: (Units=GPa)
#
#
# Indices 1 2 3 4 5 6 
#
# 1 50.7359 17.4748 39.8509 11.5835 12.1931 9.5667
# 2 17.4748 119.5303 42.4815 8.9026 -29.7806 -15.3637
# 3 39.8509 42.4815 207.8942 3.1310 -48.4369 7.8131
# 4 11.5835 8.9026 3.1310 41.9905 -0.4719 -20.3847
# 5 12.1931 -29.7806 -48.4369 -0.4719 43.9204 6.5168
# 6 9.5667 -15.3637 7.8131 -20.3847 6.5168 37.6886
#
#
#
# Elastic Compliance Matrix: (Units=1/GPa)
#
#
# Indices 1 2 3 4 5 6 
#
# 1 0.054725 -0.013108 -0.015638 -0.021862 -0.038420 -0.021174
# 2 -0.013108 0.013704 0.002780 0.004711 0.014812 0.008324
# 3 -0.015638 0.002780 0.011478 0.003840 0.018694 0.001567
# 4 -0.021862 0.004711 0.003840 0.042154 0.009830 0.027774
# 5 -0.038420 0.014812 0.018694 0.009830 0.063266 0.006293
# 6 -0.021174 0.008324 0.001567 0.027774 0.006293 0.048911
#
#
# Mechanical properties :
#
#
# Convention : Reuss Voigt Hill
#
# Bulk Modulus (GPa) = 35.74714 64.19720 49.97217
# Shear Modulus (GPa) = 16.92071 43.27677 30.09874
#
# Velocity S-wave (km/s) = 2.58673 4.13684 3.44997
# Velocity P-wave (km/s) = 4.80182 6.94293 5.96916
#
# Compressibility (1/GPa) = 0.02797427
#
# Stress axis : x y z
#
# Youngs Moduli (GPa) = 18.27325 72.97104 87.12036
#
# Poissons Ratio (x) = 0.95652 1.36238
# Poissons Ratio (y) = 0.23953 -0.24217
# Poissons Ratio (z) = 0.28575 -0.20284
#
# Static dielectric constant tensor:
#      x y z
#    x 2.104150 -0.031130 0.061300 
#    y -0.031130 2.000390 0.030890 
#    z 0.061300 0.030890 2.070010 
# 
# From -- ./inp_files/384618.got.cif
#   From: 2010.05.17/outbox.cif.g08.bks.cpg/sg2_193_cif.got.tgz:384618.got - 2010.06.03 11:33:40.
