data_PCOD9107022
_publ_section_title
;
Structure prediction by ZEFSAII (Michael W. Deem and Ramdas Pophale) SiO2 
 PCOD9107022
Probable space group: P -1
;
_chemical_formula_sum "Si O2"
_cell_formula_units_Z 13
_cell_length_a 10.983486
_cell_length_b 9.218395
_cell_length_c 7.601241
_cell_angle_alpha 76.075692
_cell_angle_beta 116.839883
_cell_angle_gamma 60.635274
_cell_volume 481.386347
_symmetry_space_group_name_H-M "P -1"
_symmetry_group_IT_number 2
_symmetry_cell_setting 'triclinic'
loop_
_space_group_symop_operation_xyz
x,y,z
-x,-y,-z
loop_
_atom_site_type_symbol
_atom_site_label
_atom_site_fract_x
_atom_site_fract_y
_atom_site_fract_z
Si Si1 0.474676 0.419533 0.340688
Si Si2 0.943303 0.674656 0.543260
Si Si3 0.756189 0.616749 0.945219
Si Si4 0.000000 0.000000 0.000000
Si Si5 0.320776 0.987060 0.212869
Si Si6 0.605939 0.123615 0.109910
Si Si7 0.193653 0.771025 0.581936
O O1 0.500000 0.500000 0.500000
O O2 0.266677 0.522245 0.135905
O O3 0.566677 0.190076 0.514239
O O4 0.589632 0.427176 0.273512
O O5 0.076170 0.718410 0.582024
O O6 0.000000 0.500000 0.500000
O O7 0.728462 0.887552 0.325698
O O8 0.024806 0.548421 0.812442
O O9 0.703261 0.825122 0.801702
O O10 0.594320 0.713104 0.967023
O O11 0.120447 0.059044 0.036287
O O12 0.098581 0.903193 0.299815
O O13 0.412056 0.887412 0.108038
O O14 0.751913 0.146801 0.257609
#
# Coordination Sequence:
#
# PCOD9107022 Si02
#       7
#     2   2   2   1   2   2   2
#     4  10  25  41  67  98 135 183 225 278 340 404
#     4  12  24  40  67 102 133 171 228 279 336 397
#     4  11  25  44  69 102 136 178 226 284 336 403
#     4  10  20  40  62  92 132 180 220 264 332 400
#     4  11  22  42  68  94 141 177 224 277 343 398
#     4  11  24  42  70  99 131 183 220 285 337 396
#     4  10  23  40  64  96 133 177 230 274 339 405
#
# _framework density 27.005337000000001
#
# number of rings (size 3 to 8) (size 9 to 14) (size 15 to 20)
#    0.000    1.231    3.077    1.385    4.308    2.462 
#    0.000    0.000    0.000   12.923    0.000    0.000 
#    0.000    0.000    0.000    0.000    0.000    0.000 
#
# Total GULP energy -72369.961645 kJ/mol
# GULP energy per Si atom -5566.920127 kJ/mol
# Density = 2.694387 g / cm^3
# Si number density = 27.005337 Si / 1000 Ang^3
#
#
#
# Elastic Constant Matrix: (Units=GPa)
#
#
# Indices 1 2 3 4 5 6 
#
# 1 97.2843 41.6722 7.1584 0.0073 2.7516 21.1504
# 2 41.6722 97.8391 -1.3773 19.4925 8.7532 9.6552
# 3 7.1584 -1.3773 102.8483 1.2780 -6.1965 -4.9495
# 4 0.0073 19.4925 1.2780 48.8415 13.6918 7.4483
# 5 2.7516 8.7532 -6.1965 13.6918 38.9859 6.8406
# 6 21.1504 9.6552 -4.9495 7.4483 6.8406 47.5683
#
#
#
# Elastic Compliance Matrix: (Units=1/GPa)
#
#
# Indices 1 2 3 4 5 6 
#
# 1 0.014300 -0.006217 -0.001400 0.003401 -0.000018 -0.005772
# 2 -0.006217 0.013952 0.000686 -0.005504 -0.000824 0.000984
# 3 -0.001400 0.000686 0.010019 -0.001241 0.001715 0.001473
# 4 0.003401 -0.005504 -0.001241 0.025325 -0.007497 -0.003411
# 5 -0.000018 -0.000824 0.001715 -0.007497 0.029211 -0.002673
# 6 -0.005772 0.000984 0.001473 -0.003411 -0.002673 0.024461
#
#
# Mechanical properties :
#
#
# Convention : Reuss Voigt Hill
#
# Bulk Modulus (GPa) = 40.96793 43.65315 42.31054
# Shear Modulus (GPa) = 35.90228 43.78036 39.84132
#
# Velocity S-wave (km/s) = 3.65012 4.03075 3.84515
# Velocity P-wave (km/s) = 5.74175 6.15324 5.95105
#
# Compressibility (1/GPa) = 0.02440933
#
# Stress axis : x y z
#
# Youngs Moduli (GPa) = 69.92826 71.67590 99.80749
#
# Poissons Ratio (x) = 0.44561 0.13970
# Poissons Ratio (y) = 0.43474 -0.06843
# Poissons Ratio (z) = 0.09788 -0.04914
#
# Static dielectric constant tensor:
#      x y z
#    x 2.103750 -0.079220 -0.004710 
#    y -0.079220 2.346950 0.196590 
#    z -0.004710 0.196590 2.506190 
# 
# From -- ./inp_files/150970.got.cif
#   From: 2010.05.17/outbox.cif.g08.bks.cpg/sg2_76_cif.got.tgz:150970.got - 2010.06.03 11:33:40.
