data_PCOD9107019
_publ_section_title
;
Structure prediction by ZEFSAII (Michael W. Deem and Ramdas Pophale) SiO2 
 PCOD9107019
Probable space group: P -1
;
_chemical_formula_sum "Si O2"
_cell_formula_units_Z 16
_cell_length_a 25.136164
_cell_length_b 20.193206
_cell_length_c 9.176951
_cell_angle_alpha 151.257963
_cell_angle_beta 29.932523
_cell_angle_gamma 159.678575
_cell_volume 749.897436
_symmetry_space_group_name_H-M "P -1"
_symmetry_group_IT_number 2
_symmetry_cell_setting 'triclinic'
loop_
_space_group_symop_operation_xyz
x,y,z
-x,-y,-z
loop_
_atom_site_type_symbol
_atom_site_label
_atom_site_fract_x
_atom_site_fract_y
_atom_site_fract_z
Si Si1 0.384239 0.968116 0.324395
Si Si2 0.395339 0.820192 0.524647
Si Si3 0.658772 0.711258 0.606250
Si Si4 0.657815 0.939705 0.836456
Si Si5 0.292684 0.600451 0.925831
Si Si6 0.335989 0.370461 0.225208
Si Si7 0.838171 0.626084 0.915807
Si Si8 0.823164 0.003904 0.289679
O O1 0.295085 0.006614 0.535443
O O2 0.490107 0.115077 0.492571
O O3 0.269176 0.735273 0.199312
O O4 0.500000 0.000000 0.000000
O O5 0.293931 0.595258 0.275943
O O6 0.500000 0.000000 0.500000
O O7 0.291725 0.852232 0.886220
O O8 0.500000 0.500000 0.500000
O O9 0.673345 0.880748 0.841660
O O10 0.656252 0.684369 0.734021
O O11 0.790255 0.738126 0.274288
O O12 0.472101 0.759210 0.876402
O O13 0.761068 0.951716 0.500616
O O14 0.299317 0.496338 0.579707
O O15 0.164032 0.435250 0.032706
O O16 0.500000 0.500000 0.000000
O O17 0.202728 0.167912 0.055589
O O18 0.999936 0.775764 0.732611
#
# Coordination Sequence:
#
# PCOD9107019 Si02
#       8
#     2   2   2   2   2   2   2   2
#     4  11  21  41  67  95 123 171 217 261 309 385
#     4  11  21  41  71  90 122 174 224 248 312 395
#     4  11  21  39  69  92 127 172 216 258 314 387
#     4  11  21  42  62  95 129 168 217 263 304 394
#     4  10  20  40  62  92 129 161 218 260 306 387
#     4  11  21  39  67  95 123 172 215 256 316 381
#     4  11  25  42  64  99 131 163 210 279 320 367
#     4  12  26  41  64  99 137 157 212 280 321 361
#
# _framework density 21.336251000000001
#
# number of rings (size 3 to 8) (size 9 to 14) (size 15 to 20)
#    0.000    1.000    8.750    0.000    3.500    3.500 
#    2.250    1.250    0.000    0.000    0.000    0.000 
#    0.000    0.000    0.000    0.000    0.000    0.000 
#
# Total GULP energy -89389.830840 kJ/mol
# GULP energy per Si atom -5586.864427 kJ/mol
# Density = 2.128769 g / cm^3
# Si number density = 21.336251 Si / 1000 Ang^3
#
#
#
# Elastic Constant Matrix: (Units=GPa)
#
#
# Indices 1 2 3 4 5 6 
#
# 1 54.2700 9.9131 16.3640 -4.6969 8.0156 -13.3536
# 2 9.9131 79.5067 18.6245 -5.7533 14.8593 -2.3999
# 3 16.3640 18.6245 98.2475 15.0185 20.6819 3.4151
# 4 -4.6969 -5.7533 15.0185 36.0296 -10.5158 0.1007
# 5 8.0156 14.8593 20.6819 -10.5158 36.0481 5.3178
# 6 -13.3536 -2.3999 3.4151 0.1007 5.3178 16.6997
#
#
#
# Elastic Compliance Matrix: (Units=1/GPa)
#
#
# Indices 1 2 3 4 5 6 
#
# 1 0.027032 -0.000198 -0.004658 0.003680 -0.005776 0.024357
# 2 -0.000198 0.014200 -0.002071 0.001730 -0.004675 0.003784
# 3 -0.004658 -0.002071 0.014831 -0.009685 -0.008827 -0.004186
# 4 0.003680 0.001730 -0.009685 0.036848 0.014736 0.000257
# 5 -0.005776 -0.004675 -0.008827 0.014736 0.042856 -0.017221
# 6 0.024357 0.003784 -0.004186 0.000257 -0.017221 0.086240
#
#
# Mechanical properties :
#
#
# Convention : Reuss Voigt Hill
#
# Bulk Modulus (GPa) = 23.69152 35.75861 29.72506
# Shear Modulus (GPa) = 20.00550 30.23032 25.11791
#
# Velocity S-wave (km/s) = 3.06540 3.76819 3.43482
# Velocity P-wave (km/s) = 4.86383 5.97732 5.44909
#
# Compressibility (1/GPa) = 0.04220919
#
# Stress axis : x y z
#
# Youngs Moduli (GPa) = 36.99323 70.42014 67.42663
#
# Poissons Ratio (x) = 0.01396 0.31408
# Poissons Ratio (y) = 0.00733 0.13962
# Poissons Ratio (z) = 0.17232 0.14582
#
# Static dielectric constant tensor:
#      x y z
#    x 1.796950 -0.029930 -0.005580 
#    y -0.029930 1.782580 0.018210 
#    z -0.005580 0.018210 1.852750 
# 
# From -- ./inp_files/357754.got.cif
#   From: 2010.05.17/outbox.cif.g08.bks.cpg/sg2_179_cif.got.tgz:357754.got - 2010.06.03 11:33:40.
