data_PCOD9107203
_publ_section_title
;
Structure prediction by ZEFSAII (Michael W. Deem and Ramdas Pophale) SiO2 
 PCOD9107203
Probable space group: P -1
;
_chemical_formula_sum "Si O2"
_cell_formula_units_Z 16
_cell_length_a 8.728148
_cell_length_b 11.770179
_cell_length_c 18.245241
_cell_angle_alpha 29.619548
_cell_angle_beta 119.849718
_cell_angle_gamma 113.905351
_cell_volume 801.834518
_symmetry_space_group_name_H-M "P -1"
_symmetry_group_IT_number 2
_symmetry_cell_setting 'triclinic'
loop_
_space_group_symop_operation_xyz
x,y,z
-x,-y,-z
loop_
_atom_site_type_symbol
_atom_site_label
_atom_site_fract_x
_atom_site_fract_y
_atom_site_fract_z
Si Si1 0.324222 0.396358 0.978746
Si Si2 0.472481 0.119369 0.504760
Si Si3 0.813171 0.018974 0.739227
Si Si4 0.834762 0.935153 0.292681
Si Si5 0.489700 0.631477 0.241074
Si Si6 0.454680 0.084845 0.049448
Si Si7 0.164959 0.882222 0.648491
Si Si8 0.688360 0.474973 0.516762
O O1 0.201112 0.610228 0.800269
O O2 0.500000 0.500000 0.000000
O O3 0.221791 0.236696 0.099224
O O4 0.373159 0.225623 0.019034
O O5 0.409985 0.391008 0.335367
O O6 0.500000 0.000000 0.500000
O O7 0.662821 0.081829 0.608515
O O8 0.336925 0.996336 0.593472
O O9 0.773083 0.216144 0.681059
O O10 0.002058 0.044142 0.734005
O O11 0.811749 0.672352 0.460878
O O12 0.656353 0.023025 0.158615
O O13 0.854023 0.075633 0.292998
O O14 0.644333 0.547650 0.381374
O O15 0.384301 0.838868 0.144851
O O16 0.551074 0.753297 0.114011
O O17 0.000000 0.000000 0.500000
O O18 0.500000 0.500000 0.500000
#
# Coordination Sequence:
#
# PCOD9107203 Si02
#       8
#     2   2   2   2   2   2   2   2
#     4  12  23  43  65  88 125 176 221 266 328 399
#     4  11  21  38  62  90 127 172 217 266 329 393
#     4  11  23  38  62  94 121 167 221 264 326 390
#     4  11  22  39  63  92 131 167 214 275 326 390
#     4   9  20  34  64  94 120 162 216 265 319 382
#     4  10  20  40  63  91 127 169 217 268 326 398
#     4  12  26  42  61  93 128 167 220 276 333 389
#     4  10  20  40  67  93 126 171 217 265 326 397
#
# _framework density 19.954242000000001
#
# number of rings (size 3 to 8) (size 9 to 14) (size 15 to 20)
#    0.000    1.250    2.500    4.875    0.000    2.500 
#    0.000    1.250    0.000    9.000    0.000    0.000 
#    0.000    0.000    0.000    0.000    0.000    0.000 
#
# Total GULP energy -89255.286634 kJ/mol
# GULP energy per Si atom -5578.455415 kJ/mol
# Density = 1.990883 g / cm^3
# Si number density = 19.954242 Si / 1000 Ang^3
#
#
#
# Elastic Constant Matrix: (Units=GPa)
#
#
# Indices 1 2 3 4 5 6 
#
# 1 110.3158 43.0606 40.9634 -24.6856 -2.2655 -14.8948
# 2 43.0606 91.3408 35.3399 -26.5627 1.6847 -20.9086
# 3 40.9634 35.3399 133.1649 -30.2273 -6.9817 0.5197
# 4 -24.6856 -26.5627 -30.2273 47.2355 6.0650 0.5007
# 5 -2.2655 1.6847 -6.9817 6.0650 28.7720 -1.1524
# 6 -14.8948 -20.9086 0.5197 0.5007 -1.1524 24.5229
#
#
#
# Elastic Compliance Matrix: (Units=1/GPa)
#
#
# Indices 1 2 3 4 5 6 
#
# 1 0.012490 -0.002817 -0.002344 0.003379 0.000074 0.005169
# 2 -0.002817 0.018782 -0.002589 0.007669 -0.003003 0.014060
# 3 -0.002344 -0.002589 0.009789 0.003436 0.001464 -0.003840
# 4 0.003379 0.007669 0.003436 0.030058 -0.005379 0.007652
# 5 0.000074 -0.003003 0.001464 -0.005379 0.036398 -0.000726
# 6 0.005169 0.014060 -0.003840 0.007652 -0.000726 0.055797
#
#
# Mechanical properties :
#
#
# Convention : Reuss Voigt Hill
#
# Bulk Modulus (GPa) = 39.12142 63.72768 51.42455
# Shear Modulus (GPa) = 26.69020 34.46992 30.58006
#
# Velocity S-wave (km/s) = 3.66125 4.16077 3.91897
# Velocity P-wave (km/s) = 6.12545 7.42219 6.80478
#
# Compressibility (1/GPa) = 0.02556145
#
# Stress axis : x y z
#
# Youngs Moduli (GPa) = 80.06156 53.24250 102.15125
#
# Poissons Ratio (x) = 0.14998 0.23943
# Poissons Ratio (y) = 0.22553 0.26451
# Poissons Ratio (z) = 0.18765 0.13786
#
# Static dielectric constant tensor:
#      x y z
#    x 1.670650 0.005900 -0.015570 
#    y 0.005900 1.763480 -0.045630 
#    z -0.015570 -0.045630 1.738270 
# 
# From -- ./inp_files/559552.got.cif
#   From: 2010.05.17/outbox.cif.g08.bks.cpg/sg2_280_cif.got.tgz:559552.got - 2010.06.03 11:33:40.
