data_PCOD9107081
_publ_section_title
;
Structure prediction by ZEFSAII (Michael W. Deem and Ramdas Pophale) SiO2 
 PCOD9107081
Probable space group: P -1
;
_chemical_formula_sum "Si O2"
_cell_formula_units_Z 16
_cell_length_a 19.215443
_cell_length_b 11.447272
_cell_length_c 11.417190
_cell_angle_alpha 148.318503
_cell_angle_beta 37.010476
_cell_angle_gamma 150.067924
_cell_volume 640.020287
_symmetry_space_group_name_H-M "P -1"
_symmetry_group_IT_number 2
_symmetry_cell_setting 'triclinic'
loop_
_space_group_symop_operation_xyz
x,y,z
-x,-y,-z
loop_
_atom_site_type_symbol
_atom_site_label
_atom_site_fract_x
_atom_site_fract_y
_atom_site_fract_z
Si Si1 0.791848 0.403084 0.044414
Si Si2 0.963966 0.456750 0.313919
Si Si3 0.599449 0.448416 0.749015
Si Si4 0.804797 0.088597 0.431357
Si Si5 0.441615 0.947381 0.358679
Si Si6 0.345078 0.123013 0.108295
Si Si7 0.938384 0.673208 0.294897
Si Si8 0.591066 0.478825 0.261507
O O1 0.812637 0.559416 0.270400
O O2 0.647859 0.316440 0.101496
O O3 0.927751 0.586465 0.935257
O O4 0.771422 0.116952 0.855496
O O5 0.067848 0.713475 0.481164
O O6 0.859713 0.199971 0.320503
O O7 0.905688 0.541852 0.357151
O O8 0.648394 0.326371 0.673953
O O9 0.705597 0.731158 0.778227
O O10 0.497566 0.206066 0.587477
O O11 0.500000 0.500000 0.000000
O O12 0.664955 0.090870 0.630956
O O13 0.734019 0.771992 0.281138
O O14 0.587377 0.993904 0.162202
O O15 0.484357 0.345595 0.183677
O O16 0.000000 0.000000 0.500000
O O17 0.000000 0.500000 0.000000
O O18 0.500000 0.500000 0.500000
#
# Coordination Sequence:
#
# PCOD9107081 Si02
#       8
#     2   2   2   2   2   2   2   2
#     4  11  24  43  70 101 145 185 236 300 360 435
#     4  10  24  45  67 101 140 188 249 298 358 424
#     4   9  20  37  63  95 139 177 221 275 352 432
#     4  11  22  42  70  98 142 182 238 296 357 430
#     4  10  20  40  62  98 136 176 227 280 353 427
#     4  11  22  40  65 102 137 177 227 283 360 426
#     4  10  23  48  73 103 143 195 255 302 359 429
#     4  12  24  41  69 103 141 185 233 291 371 440
#
# _framework density 24.999209
#
# number of rings (size 3 to 8) (size 9 to 14) (size 15 to 20)
#    0.000    1.500    1.250    3.375    0.000    4.500 
#    4.500    2.500    0.000    0.000    0.000    0.000 
#    0.000    0.000    0.000    0.000    0.000    0.000 
#
# Total GULP energy -89306.181397 kJ/mol
# GULP energy per Si atom -5581.636337 kJ/mol
# Density = 2.494231 g / cm^3
# Si number density = 24.999209 Si / 1000 Ang^3
#
#
#
# Elastic Constant Matrix: (Units=GPa)
#
#
# Indices 1 2 3 4 5 6 
#
# 1 97.1737 12.1917 30.9629 3.3048 -0.1861 -25.8433
# 2 12.1917 124.8263 34.2213 0.7371 3.6790 -33.1276
# 3 30.9629 34.2213 103.3514 -0.4196 7.2178 -18.0683
# 4 3.3048 0.7371 -0.4196 39.7302 -4.0361 -1.6993
# 5 -0.1861 3.6790 7.2178 -4.0361 43.1117 3.0009
# 6 -25.8433 -33.1276 -18.0683 -1.6993 3.0009 37.9888
#
#
#
# Elastic Compliance Matrix: (Units=1/GPa)
#
#
# Indices 1 2 3 4 5 6 
#
# 1 0.013581 0.002069 -0.003058 -0.000826 -0.000350 0.009580
# 2 0.002069 0.011205 -0.002479 -0.000101 -0.001244 0.010093
# 3 -0.003058 -0.002479 0.011812 0.000302 -0.001858 0.001536
# 4 -0.000826 -0.000101 0.000302 0.025498 0.002310 0.000452
# 5 -0.000350 -0.001244 -0.001858 0.002310 0.024107 -0.004008
# 6 0.009580 0.010093 0.001536 0.000452 -0.004008 0.042710
#
#
# Mechanical properties :
#
#
# Convention : Reuss Voigt Hill
#
# Bulk Modulus (GPa) = 33.71248 53.34480 43.52864
# Shear Modulus (GPa) = 34.30910 40.69784 37.50347
#
# Velocity S-wave (km/s) = 3.70862 4.03918 3.87743
# Velocity P-wave (km/s) = 5.64386 6.56797 6.12337
#
# Compressibility (1/GPa) = 0.02966261
#
# Stress axis : x y z
#
# Youngs Moduli (GPa) = 73.63367 89.24946 84.65771
#
# Poissons Ratio (x) = -0.18470 0.25888
# Poissons Ratio (y) = -0.15238 0.20986
# Poissons Ratio (z) = 0.22517 0.22125
#
# Static dielectric constant tensor:
#      x y z
#    x 2.010470 0.012450 -0.054400 
#    y 0.012450 2.019620 0.000340 
#    z -0.054400 0.000340 1.998600 
# 
# From -- ./inp_files/471258.got.cif
#   From: 2010.05.17/outbox.cif.g08.bks.cpg/sg2_236_cif.got.tgz:471258.got - 2010.06.03 11:33:40.
