data_PCOD9107432
_publ_section_title
;
Structure prediction by ZEFSAII (Michael W. Deem and Ramdas Pophale) SiO2 
 PCOD9107432
Probable space group: P -1
;
_chemical_formula_sum "Si O2"
_cell_formula_units_Z 15
_cell_length_a 11.064436
_cell_length_b 11.967122
_cell_length_c 7.959579
_cell_angle_alpha 136.310296
_cell_angle_beta 70.951022
_cell_angle_gamma 118.393451
_cell_volume 640.159241
_symmetry_space_group_name_H-M "P -1"
_symmetry_group_IT_number 2
_symmetry_cell_setting 'triclinic'
loop_
_space_group_symop_operation_xyz
x,y,z
-x,-y,-z
loop_
_atom_site_type_symbol
_atom_site_label
_atom_site_fract_x
_atom_site_fract_y
_atom_site_fract_z
Si Si1 0.157080 0.872737 0.736503
Si Si2 0.252722 0.580311 0.215723
Si Si3 0.384268 0.389066 0.557493
Si Si4 0.880431 0.557642 0.237330
Si Si5 0.906622 0.220514 0.850362
Si Si6 0.101727 0.197025 0.005529
Si Si7 0.349568 0.996506 0.107637
Si Si8 0.500000 0.500000 0.000000
O O1 0.200001 0.724729 0.470287
O O2 0.997269 0.804212 0.794540
O O3 0.175033 0.057780 0.842143
O O4 0.252179 0.920198 0.909870
O O5 0.204043 0.392588 0.131289
O O6 0.416347 0.636085 0.210355
O O7 0.188650 0.531402 0.005616
O O8 0.500000 0.500000 0.500000
O O9 0.241521 0.404568 0.581645
O O10 0.363889 0.191152 0.339132
O O11 0.427864 0.450033 0.793080
O O12 0.008988 0.724850 0.301839
O O13 0.920998 0.405613 0.133314
O O14 0.744742 0.111088 0.811298
O O15 0.995849 0.139730 0.834156
O O16 0.500000 0.000000 0.000000
#
# Coordination Sequence:
#
# PCOD9107432 Si02
#       8
#     2   2   2   2   2   2   2   1
#     4  10  21  40  62 100 132 171 231 281 344 414
#     4  10  20  40  64  91 136 180 225 283 343 407
#     4  11  24  43  69  98 136 183 231 287 347 424
#     4   9  20  41  63  95 126 182 236 275 357 415
#     4   9  19  42  61  90 136 171 232 285 335 426
#     4   9  20  39  63  94 132 176 228 279 343 411
#     4  11  23  40  63 100 135 178 229 287 356 413
#     4  10  24  44  68  98 134 186 234 274 352 428
#
# _framework density 23.43167
#
# number of rings (size 3 to 8) (size 9 to 14) (size 15 to 20)
#    0.000    2.133    0.000    2.000    1.867    1.600 
#   28.800    0.667    0.000    0.000    0.000    0.000 
#    0.000    0.000    0.000    0.000    0.000    0.000 
#
# Total GULP energy -83531.189291 kJ/mol
# GULP energy per Si atom -5568.745953 kJ/mol
# Density = 2.337834 g / cm^3
# Si number density = 23.431670 Si / 1000 Ang^3
#
#
#
# Elastic Constant Matrix: (Units=GPa)
#
#
# Indices 1 2 3 4 5 6 
#
# 1 97.9447 22.3113 14.5960 -0.5567 -12.3216 4.2520
# 2 22.3113 101.6993 30.5907 21.2783 -12.6032 14.4147
# 3 14.5960 30.5907 108.5666 14.5271 -17.2635 -0.3141
# 4 -0.5567 21.2783 14.5271 25.3738 -10.3245 -2.8624
# 5 -12.3216 -12.6032 -17.2635 -10.3245 48.2525 -4.0708
# 6 4.2520 14.4147 -0.3141 -2.8624 -4.0708 41.5440
#
#
#
# Elastic Compliance Matrix: (Units=1/GPa)
#
#
# Indices 1 2 3 4 5 6 
#
# 1 0.011344 -0.002840 -0.000854 0.004304 0.002803 0.000389
# 2 -0.002840 0.014260 -0.002209 -0.011692 -0.000761 -0.005554
# 3 -0.000854 -0.002209 0.010772 -0.003230 0.002448 0.000953
# 4 0.004304 -0.011692 -0.003230 0.056004 0.009580 0.008389
# 5 0.002803 -0.000761 0.002448 0.009580 0.024424 0.003049
# 6 0.000389 -0.005554 0.000953 0.008389 0.003049 0.026842
#
#
# Mechanical properties :
#
#
# Convention : Reuss Voigt Hill
#
# Bulk Modulus (GPa) = 40.69909 49.24518 44.97214
# Shear Modulus (GPa) = 30.55443 39.08157 34.81800
#
# Velocity S-wave (km/s) = 3.61498 4.08842 3.85897
# Velocity P-wave (km/s) = 5.90179 6.58400 6.25220
#
# Compressibility (1/GPa) = 0.02457058
#
# Stress axis : x y z
#
# Youngs Moduli (GPa) = 88.15000 70.12862 92.82988
#
# Poissons Ratio (x) = 0.19918 0.07927
# Poissons Ratio (y) = 0.25036 0.20503
# Poissons Ratio (z) = 0.07527 0.15489
#
# Static dielectric constant tensor:
#      x y z
#    x 1.833480 -0.023450 0.020400 
#    y -0.023450 1.984040 -0.052010 
#    z 0.020400 -0.052010 1.910640 
# 
# From -- ./inp_files/259721.got.cif
#   From: 2010.05.17/outbox.cif.g08.bks.cpg/sg2_130_cif.got.tgz:259721.got - 2010.06.03 11:33:40.
