data_PCOD9107862
_publ_section_title
;
Structure prediction by ZEFSAII (Michael W. Deem and Ramdas Pophale) SiO2 
 PCOD9107862
Probable space group: P -1
;
_chemical_formula_sum "Si O2"
_cell_formula_units_Z 15
_cell_length_a 8.776788
_cell_length_b 11.069217
_cell_length_c 15.685810
_cell_angle_alpha 33.066622
_cell_angle_beta 126.239427
_cell_angle_gamma 121.690313
_cell_volume 669.071416
_symmetry_space_group_name_H-M "P -1"
_symmetry_group_IT_number 2
_symmetry_cell_setting 'triclinic'
loop_
_space_group_symop_operation_xyz
x,y,z
-x,-y,-z
loop_
_atom_site_type_symbol
_atom_site_label
_atom_site_fract_x
_atom_site_fract_y
_atom_site_fract_z
Si Si1 0.856968 0.867053 0.274013
Si Si2 0.903367 0.670656 0.927094
Si Si3 0.000000 0.500000 0.500000
Si Si4 0.504795 0.862218 0.667344
Si Si5 0.304781 0.469430 0.897719
Si Si6 0.431130 0.734003 0.246646
Si Si7 0.827916 0.892768 0.062633
Si Si8 0.409416 0.706649 0.457233
O O1 0.948918 0.665879 0.468499
O O2 0.639069 0.857946 0.230726
O O3 0.883629 0.767072 0.243217
O O4 0.970225 0.099835 0.173723
O O5 0.690826 0.724153 0.800469
O O6 0.868792 0.580684 0.065267
O O7 0.000000 0.500000 0.000000
O O8 0.785173 0.366062 0.518449
O O9 0.320119 0.700688 0.717128
O O10 0.500000 0.000000 0.500000
O O11 0.529242 0.043034 0.643600
O O12 0.295175 0.271386 0.942816
O O13 0.500000 0.500000 0.000000
O O14 0.385546 0.708113 0.346575
O O15 0.447973 0.487354 0.360679
O O16 0.285931 0.902112 0.062898
O O17 0.000000 0.000000 0.000000
#
# Coordination Sequence:
#
# PCOD9107862 Si02
#       8
#     2   2   1   2   2   2   2   2
#     4  11  23  38  68  96 128 170 220 279 335 388
#     4  11  24  43  68  98 134 179 224 274 338 405
#     4  10  20  40  66  86 124 162 220 260 330 390
#     4  11  25  44  67  92 135 182 227 272 332 402
#     4  10  24  44  68  93 132 183 221 269 341 405
#     4  10  23  38  64  98 128 166 211 280 333 397
#     4  12  23  41  67  97 132 164 226 279 323 395
#     4  10  21  42  64  91 126 171 216 263 335 395
#
# _framework density 22.419132999999999
#
# number of rings (size 3 to 8) (size 9 to 14) (size 15 to 20)
#    0.000    1.333    2.667    2.800    9.333    1.067 
#    0.000    0.667    0.000    0.000    0.000    0.000 
#    0.000    0.000    0.000    0.000    0.000    0.000 
#
# Total GULP energy -83576.341513 kJ/mol
# GULP energy per Si atom -5571.756101 kJ/mol
# Density = 2.236811 g / cm^3
# Si number density = 22.419133 Si / 1000 Ang^3
#
#
#
# Elastic Constant Matrix: (Units=GPa)
#
#
# Indices 1 2 3 4 5 6 
#
# 1 96.2643 1.4755 26.8337 -10.7991 10.7909 11.9367
# 2 1.4755 77.5596 17.3844 -26.5806 10.2481 -1.0397
# 3 26.8337 17.3844 80.8670 -23.9751 7.7248 2.1009
# 4 -10.7991 -26.5806 -23.9751 40.3151 -1.4280 -10.6289
# 5 10.7909 10.2481 7.7248 -1.4280 50.9379 -12.3195
# 6 11.9367 -1.0397 2.1009 -10.6289 -12.3195 36.0520
#
#
#
# Elastic Compliance Matrix: (Units=1/GPa)
#
#
# Indices 1 2 3 4 5 6 
#
# 1 0.012481 0.001150 -0.003806 0.000411 -0.003483 -0.004947
# 2 0.001150 0.017576 -0.000309 0.012374 -0.002691 0.002873
# 3 -0.003806 -0.000309 0.016434 0.009261 -0.000690 0.002788
# 4 0.000411 0.012374 0.009261 0.041755 0.000098 0.012025
# 5 -0.003483 -0.002691 -0.000690 0.000098 0.023214 0.009077
# 6 -0.004947 0.002873 0.002788 0.012025 0.009077 0.035943
#
#
# Mechanical properties :
#
#
# Convention : Reuss Voigt Hill
#
# Bulk Modulus (GPa) = 24.65324 38.45314 31.55319
# Shear Modulus (GPa) = 29.96670 39.39415 34.68042
#
# Velocity S-wave (km/s) = 3.66000 4.19640 3.93735
# Velocity P-wave (km/s) = 5.37412 6.37722 5.89704
#
# Compressibility (1/GPa) = 0.04056261
#
# Stress axis : x y z
#
# Youngs Moduli (GPa) = 80.12016 56.89691 60.84815
#
# Poissons Ratio (x) = -0.06545 0.23158
# Poissons Ratio (y) = -0.09217 0.01879
# Poissons Ratio (z) = 0.30492 0.01757
#
# Static dielectric constant tensor:
#      x y z
#    x 1.787220 -0.035070 -0.082920 
#    y -0.035070 1.916330 -0.114920 
#    z -0.082920 -0.114920 1.465580 
# 
# From -- ./inp_files/380278.got.cif
#   From: 2010.05.17/outbox.cif.g08.bks.cpg/sg2_191_cif.got.tgz:380278.got - 2010.06.03 11:33:40.
