data_PCOD9107522
_publ_section_title
;
Structure prediction by ZEFSAII (Michael W. Deem and Ramdas Pophale) SiO2 
 PCOD9107522
Probable space group: P -1
;
_chemical_formula_sum "Si O2"
_cell_formula_units_Z 15
_cell_length_a 22.027016
_cell_length_b 9.031732
_cell_length_c 5.472817
_cell_angle_alpha 78.283288
_cell_angle_beta 89.680369
_cell_angle_gamma 34.832666
_cell_volume 583.117870
_symmetry_space_group_name_H-M "P -1"
_symmetry_group_IT_number 2
_symmetry_cell_setting 'triclinic'
loop_
_space_group_symop_operation_xyz
x,y,z
-x,-y,-z
loop_
_atom_site_type_symbol
_atom_site_label
_atom_site_fract_x
_atom_site_fract_y
_atom_site_fract_z
Si Si1 0.664306 0.480277 0.391467
Si Si2 0.877056 0.029370 0.245897
Si Si3 0.349185 0.207151 0.369516
Si Si4 0.760115 0.068320 0.858575
Si Si5 0.734785 0.845340 0.279209
Si Si6 0.500000 0.000000 0.000000
Si Si7 0.871172 0.368263 0.062414
Si Si8 0.927682 0.539849 0.735622
O O1 0.793804 0.223288 0.407191
O O2 0.628191 0.698998 0.484359
O O3 0.666971 0.318359 0.587983
O O4 0.588800 0.671117 0.096598
O O5 0.928910 0.088027 0.199245
O O6 0.795020 0.137500 0.001583
O O7 0.967758 0.707610 0.362591
O O8 0.360986 0.036343 0.602172
O O9 0.421949 0.065443 0.173963
O O10 0.222329 0.470316 0.193773
O O11 0.879239 0.768284 0.840264
O O12 0.714493 0.020814 0.027740
O O13 0.801224 0.574568 0.225865
O O14 0.819943 0.739864 0.503693
O O15 0.941101 0.364921 0.972240
#
# Coordination Sequence:
#
# PCOD9107522 Si02
#       8
#     2   2   2   2   2   1   2   2
#     4  12  24  41  69  97 131 168 223 277 328 392
#     4  12  22  40  64 102 133 180 228 267 316 388
#     4  11  21  43  69  95 129 170 218 277 330 392
#     4  11  24  42  64  95 141 181 217 265 326 390
#     4  10  22  43  63  96 136 182 214 266 328 389
#     4  12  24  42  70 104 122 164 222 282 338 394
#     4  10  20  40  64  96 134 176 222 272 318 384
#     4  10  24  38  64  96 143 183 217 265 322 382
#
# _framework density 25.723786
#
# number of rings (size 3 to 8) (size 9 to 14) (size 15 to 20)
#    0.000    1.067    4.000    2.000    0.000    4.800 
#    0.000    0.667    0.000   17.600    0.000    0.000 
#    0.000    0.000    0.000    0.000    0.000    0.000 
#
# Total GULP energy -83583.443770 kJ/mol
# GULP energy per Si atom -5572.229585 kJ/mol
# Density = 2.566524 g / cm^3
# Si number density = 25.723786 Si / 1000 Ang^3
#
#
#
# Elastic Constant Matrix: (Units=GPa)
#
#
# Indices 1 2 3 4 5 6 
#
# 1 70.5996 47.0249 31.4513 -8.1352 -21.3201 23.2643
# 2 47.0249 99.2487 18.8139 -16.6527 -35.4019 8.4561
# 3 31.4513 18.8139 64.2240 -7.1878 -44.7116 5.0662
# 4 -8.1352 -16.6527 -7.1878 45.9261 16.5060 -8.6516
# 5 -21.3201 -35.4019 -44.7116 16.5060 52.5462 1.6581
# 6 23.2643 8.4561 5.0662 -8.6516 1.6581 40.4102
#
#
#
# Elastic Compliance Matrix: (Units=1/GPa)
#
#
# Indices 1 2 3 4 5 6 
#
# 1 0.034521 -0.016498 -0.021293 -0.000419 -0.014677 -0.013240
# 2 -0.016498 0.022913 0.017980 -0.000177 0.024053 0.001424
# 3 -0.021293 0.017980 0.060023 -0.009167 0.057534 -0.003352
# 4 -0.000419 -0.000177 -0.009167 0.027872 -0.017100 0.008096
# 5 -0.014677 0.024053 0.057534 -0.017100 0.083952 -0.010902
# 6 -0.013240 0.001424 -0.003352 0.008096 -0.010902 0.034671
#
#
# Mechanical properties :
#
#
# Convention : Reuss Voigt Hill
#
# Bulk Modulus (GPa) = 12.84753 47.62807 30.23780
# Shear Modulus (GPa) = 15.17363 36.89531 26.03447
#
# Velocity S-wave (km/s) = 2.43135 3.79131 3.18477
# Velocity P-wave (km/s) = 3.58988 6.14172 5.03031
#
# Compressibility (1/GPa) = 0.07783599
#
# Stress axis : x y z
#
# Youngs Moduli (GPa) = 28.96775 43.64374 16.66023
#
# Poissons Ratio (x) = 0.72002 0.35475
# Poissons Ratio (y) = 0.47790 -0.29956
# Poissons Ratio (z) = 0.61682 -0.78473
#
# Static dielectric constant tensor:
#      x y z
#    x 2.146720 -0.096970 0.099960 
#    y -0.096970 2.033440 -0.062000 
#    z 0.099960 -0.062000 2.479870 
# 
# From -- ./inp_files/88651.got.cif
#   From: 2010.05.17/outbox.cif.g08.bks.cpg/sg2_45_cif.got.tgz:88651.got - 2010.06.03 11:33:40.
