data_PCOD9107823
_publ_section_title
;
Structure prediction by ZEFSAII (Michael W. Deem and Ramdas Pophale) SiO2 
 PCOD9107823
Probable space group: P -1
;
_chemical_formula_sum "Si O2"
_cell_formula_units_Z 15
_cell_length_a 9.646342
_cell_length_b 9.561598
_cell_length_c 12.927882
_cell_angle_alpha 104.825498
_cell_angle_beta 69.781932
_cell_angle_gamma 147.780476
_cell_volume 594.981680
_symmetry_space_group_name_H-M "P -1"
_symmetry_group_IT_number 2
_symmetry_cell_setting 'triclinic'
loop_
_space_group_symop_operation_xyz
x,y,z
-x,-y,-z
loop_
_atom_site_type_symbol
_atom_site_label
_atom_site_fract_x
_atom_site_fract_y
_atom_site_fract_z
Si Si1 0.691543 0.031079 0.249111
Si Si2 0.429745 0.580379 0.384726
Si Si3 0.500000 0.500000 0.000000
Si Si4 0.649742 0.340344 0.038914
Si Si5 0.860134 0.704605 0.243067
Si Si6 0.859099 0.771733 0.784724
Si Si7 0.253678 0.700187 0.549989
Si Si8 0.259473 0.809082 0.166576
O O1 0.805107 0.266966 0.321520
O O2 0.949777 0.152367 0.167218
O O3 0.578912 0.821843 0.320687
O O4 0.456411 0.891999 0.211183
O O5 0.615615 0.588934 0.341256
O O6 0.165318 0.319686 0.338653
O O7 0.352432 0.614179 0.509380
O O8 0.498762 0.671402 0.002612
O O9 0.571999 0.523800 0.864716
O O10 0.783588 0.547964 0.132181
O O11 0.443922 0.067856 0.099773
O O12 0.836380 0.392746 0.927307
O O13 0.042666 0.737100 0.261950
O O14 0.044721 0.988036 0.211371
O O15 0.000000 0.500000 0.500000
O O16 0.500000 0.000000 0.500000
#
# Coordination Sequence:
#
# PCOD9107823 Si02
#       8
#     2   2   1   2   2   2   2   2
#     4  10  23  40  67  99 132 174 224 287 340 414
#     4  10  20  40  66 101 126 176 223 281 341 404
#     4  12  22  40  60  94 120 172 228 270 324 396
#     4  11  25  40  63  91 132 182 226 272 336 402
#     4  11  22  42  63  89 134 179 220 279 340 407
#     4  11  22  39  62  93 132 170 230 277 332 407
#     4  10  20  40  72 106 139 174 231 292 351 408
#     4  11  24  44  61  95 134 180 222 276 344 401
#
# _framework density 25.210861999999999
#
# number of rings (size 3 to 8) (size 9 to 14) (size 15 to 20)
#    0.000    1.333    4.000    1.200    1.867    4.800 
#    0.000    0.667    0.000    3.200    0.000    0.000 
#    0.000    0.000    0.000    0.000    0.000    0.000 
#
# Total GULP energy -83519.080962 kJ/mol
# GULP energy per Si atom -5567.938731 kJ/mol
# Density = 2.515348 g / cm^3
# Si number density = 25.210862 Si / 1000 Ang^3
#
#
#
# Elastic Constant Matrix: (Units=GPa)
#
#
# Indices 1 2 3 4 5 6 
#
# 1 176.3376 0.5508 23.4930 9.6249 -30.9374 0.5397
# 2 0.5508 82.2117 6.1200 23.4836 0.9505 -13.8562
# 3 23.4930 6.1200 59.7222 30.1238 -34.7884 -7.5790
# 4 9.6249 23.4836 30.1238 47.6458 -12.5308 0.9907
# 5 -30.9374 0.9505 -34.7884 -12.5308 42.7101 3.6144
# 6 0.5397 -13.8562 -7.5790 0.9907 3.6144 39.9613
#
#
#
# Elastic Compliance Matrix: (Units=1/GPa)
#
#
# Indices 1 2 3 4 5 6 
#
# 1 0.006514 -0.000180 0.000407 -0.000144 0.005056 -0.000527
# 2 -0.000180 0.016143 0.004465 -0.011061 -0.000672 0.006782
# 3 0.000407 0.004465 0.047603 -0.024371 0.031111 0.008361
# 4 -0.000144 -0.011061 -0.024371 0.040173 -0.007177 -0.008802
# 5 0.005056 -0.000672 0.031111 -0.007177 0.050222 0.001235
# 6 -0.000527 0.006782 0.008361 -0.008802 0.001235 0.029075
#
#
# Mechanical properties :
#
#
# Convention : Reuss Voigt Hill
#
# Bulk Modulus (GPa) = 12.55616 42.06655 27.31135
# Shear Modulus (GPa) = 24.16705 45.27061 34.71883
#
# Velocity S-wave (km/s) = 3.09948 4.24214 3.71501
# Velocity P-wave (km/s) = 4.21904 6.38095 5.40910
#
# Compressibility (1/GPa) = 0.07964221
#
# Stress axis : x y z
#
# Youngs Moduli (GPa) = 153.51934 61.94735 21.00718
#
# Poissons Ratio (x) = 0.01116 -0.00855
# Poissons Ratio (y) = 0.02767 -0.09379
# Poissons Ratio (z) = -0.06248 -0.27657
#
# Static dielectric constant tensor:
#      x y z
#    x 2.131830 0.233850 -0.256070 
#    y 0.233850 2.364880 -0.573360 
#    z -0.256070 -0.573360 2.975910 
# 
# From -- ./inp_files/89310.got.cif
#   From: 2010.05.17/outbox.cif.g08.bks.cpg/sg2_45_cif.got.tgz:89310.got - 2010.06.03 11:33:40.
