data_PCOD9107349
_publ_section_title
;
Structure prediction by ZEFSAII (Michael W. Deem and Ramdas Pophale) SiO2 
 PCOD9107349
Probable space group: P -1
;
_chemical_formula_sum "Si O2"
_cell_formula_units_Z 16
_cell_length_a 6.517858
_cell_length_b 13.077507
_cell_length_c 10.610132
_cell_angle_alpha 92.853339
_cell_angle_beta 135.494916
_cell_angle_gamma 77.271326
_cell_volume 610.695168
_symmetry_space_group_name_H-M "P -1"
_symmetry_group_IT_number 2
_symmetry_cell_setting 'triclinic'
loop_
_space_group_symop_operation_xyz
x,y,z
-x,-y,-z
loop_
_atom_site_type_symbol
_atom_site_label
_atom_site_fract_x
_atom_site_fract_y
_atom_site_fract_z
Si Si1 0.723057 0.195154 0.265401
Si Si2 0.209584 0.299993 0.484767
Si Si3 0.844305 0.439904 0.105665
Si Si4 0.301117 0.923039 0.358958
Si Si5 0.665230 0.427577 0.682042
Si Si6 0.045221 0.280367 0.971043
Si Si7 0.148953 0.889667 0.969262
Si Si8 0.314693 0.031580 0.788342
O O1 0.958355 0.249998 0.437286
O O2 0.689596 0.079293 0.286971
O O3 0.804555 0.170669 0.150670
O O4 0.393689 0.275055 0.133526
O O5 0.467155 0.192159 0.559402
O O6 0.378325 0.387345 0.613129
O O7 0.910641 0.311603 0.776088
O O8 0.016001 0.361368 0.285577
O O9 0.076880 0.508863 0.174071
O O10 0.500000 0.500000 0.000000
O O11 0.031776 0.913720 0.333425
O O12 0.500000 0.000000 0.500000
O O13 0.090011 0.999477 0.164847
O O14 0.500000 0.500000 0.500000
O O15 0.838853 0.369800 0.975599
O O16 0.996905 0.173931 0.999733
O O17 0.480004 0.894777 0.165105
O O18 0.500000 0.000000 0.000000
#
# Coordination Sequence:
#
# PCOD9107349 Si02
#       8
#     2   2   2   2   2   2   2   2
#     4  10  20  40  65  98 138 180 228 261 331 408
#     4  11  21  41  69  97 141 181 216 283 347 388
#     4  11  24  48  73  97 131 176 236 292 341 406
#     4  10  16  34  65  97 136 185 215 259 339 397
#     4  10  26  44  66 103 131 171 227 295 347 388
#     4  12  24  43  76  98 129 184 230 277 344 414
#     4  10  22  40  65 105 137 181 232 267 320 411
#     4   8  18  33  58  96 141 181 221 262 314 393
#
# _framework density 26.199650999999999
#
# number of rings (size 3 to 8) (size 9 to 14) (size 15 to 20)
#    0.000    2.000    3.750    1.125    5.250    0.500 
#    0.000   10.000    0.000    0.000    0.000    0.000 
#    0.000    0.000    0.000    0.000    0.000    0.000 
#
# Total GULP energy -89141.890629 kJ/mol
# GULP energy per Si atom -5571.368164 kJ/mol
# Density = 2.614002 g / cm^3
# Si number density = 26.199651 Si / 1000 Ang^3
#
#
#
# Elastic Constant Matrix: (Units=GPa)
#
#
# Indices 1 2 3 4 5 6 
#
# 1 67.7343 36.5856 69.0650 -9.1825 26.1869 -1.3817
# 2 36.5856 151.5561 80.7455 26.4452 6.1581 14.4444
# 3 69.0650 80.7455 222.3460 1.7739 35.0437 16.8594
# 4 -9.1825 26.4452 1.7739 65.6844 6.7816 15.6974
# 5 26.1869 6.1581 35.0437 6.7816 44.7188 0.3948
# 6 -1.3817 14.4444 16.8594 15.6974 0.3948 35.5344
#
#
#
# Elastic Compliance Matrix: (Units=1/GPa)
#
#
# Indices 1 2 3 4 5 6 
#
# 1 0.029116 -0.005113 -0.005375 0.006961 -0.013215 0.002832
# 2 -0.005113 0.009999 -0.002635 -0.004914 0.004435 -0.000891
# 3 -0.005375 -0.002635 0.007801 0.001179 -0.002752 -0.003329
# 4 0.006961 -0.004914 0.001179 0.020660 -0.007392 -0.007336
# 5 -0.013215 0.004435 -0.002752 -0.007392 0.032751 0.001891
# 6 0.002832 -0.000891 -0.003329 -0.007336 0.001891 0.033413
#
#
# Mechanical properties :
#
#
# Convention : Reuss Voigt Hill
#
# Bulk Modulus (GPa) = 48.37931 90.49208 69.43569
# Shear Modulus (GPa) = 29.96262 46.20355 38.08308
#
# Velocity S-wave (km/s) = 3.38542 4.20398 3.81671
# Velocity P-wave (km/s) = 5.81267 7.62752 6.78108
#
# Compressibility (1/GPa) = 0.02066999
#
# Stress axis : x y z
#
# Youngs Moduli (GPa) = 34.34536 100.01455 128.19316
#
# Poissons Ratio (x) = 0.51135 0.68901
# Poissons Ratio (y) = 0.17560 0.33780
# Poissons Ratio (z) = 0.18460 0.26355
#
# Static dielectric constant tensor:
#      x y z
#    x 2.248840 0.054210 -0.056240 
#    y 0.054210 2.164150 0.049770 
#    z -0.056240 0.049770 1.926250 
# 
# From -- ./inp_files/560847.got.cif
#   From: 2010.05.17/outbox.cif.g08.bks.cpg/sg2_281_cif.got.tgz:560847.got - 2010.06.03 11:33:40.
