data_PCOD9107817
_publ_section_title
;
Structure prediction by ZEFSAII (Michael W. Deem and Ramdas Pophale) SiO2 
 PCOD9107817
Probable space group: P -1
;
_chemical_formula_sum "Si O2"
_cell_formula_units_Z 14
_cell_length_a 7.353904
_cell_length_b 9.155134
_cell_length_c 10.520785
_cell_angle_alpha 121.958084
_cell_angle_beta 66.468687
_cell_angle_gamma 114.947383
_cell_volume 530.440422
_symmetry_space_group_name_H-M "P -1"
_symmetry_group_IT_number 2
_symmetry_cell_setting 'triclinic'
loop_
_space_group_symop_operation_xyz
x,y,z
-x,-y,-z
loop_
_atom_site_type_symbol
_atom_site_label
_atom_site_fract_x
_atom_site_fract_y
_atom_site_fract_z
Si Si1 0.706615 0.847230 0.540015
Si Si2 0.909636 0.772238 0.685900
Si Si3 0.749577 0.387787 0.417686
Si Si4 0.953435 0.613301 0.226525
Si Si5 0.398308 0.469383 0.874572
Si Si6 0.602450 0.861691 0.976583
Si Si7 0.405038 0.810084 0.271698
O O1 0.835835 0.890001 0.654795
O O2 0.491866 0.702904 0.567678
O O3 0.852919 0.764053 0.378154
O O4 0.657641 0.021910 0.579061
O O5 0.801293 0.565591 0.574708
O O6 0.828534 0.847606 0.869747
O O7 0.140620 0.757613 0.625270
O O8 0.863205 0.454854 0.281705
O O9 0.845382 0.585362 0.105417
O O10 0.196081 0.685525 0.209347
O O11 0.475065 0.661772 0.878165
O O12 0.497522 0.314433 0.725492
O O13 0.500000 0.500000 0.000000
O O14 0.565691 0.879687 0.144352
O O15 0.500000 0.000000 0.000000
#
# Coordination Sequence:
#
# PCOD9107817 Si02
#       7
#     2   2   2   2   2   2   2
#     4  11  22  40  67 103 136 178 227 280 332 405
#     4  10  20  40  66 100 135 174 230 279 335 392
#     4  10  22  39  71 101 133 177 230 280 337 402
#     4  11  23  41  68  99 136 182 223 281 345 401
#     4  10  24  43  65  92 136 177 223 274 342 399
#     4  11  21  41  69  93 131 179 220 279 326 397
#     4  11  25  42  65 101 142 177 218 280 344 402
#
# _framework density 26.393162
#
# number of rings (size 3 to 8) (size 9 to 14) (size 15 to 20)
#    0.000    1.429    1.429    4.714    0.000    6.286 
#    0.000    3.571    0.000    0.000    0.000    0.000 
#    0.000    0.000    0.000    0.000    0.000    0.000 
#
# Total GULP energy -78294.700746 kJ/mol
# GULP energy per Si atom -5592.478625 kJ/mol
# Density = 2.633309 g / cm^3
# Si number density = 26.393162 Si / 1000 Ang^3
#
#
#
# Elastic Constant Matrix: (Units=GPa)
#
#
# Indices 1 2 3 4 5 6 
#
# 1 174.0771 38.6647 45.5019 7.2257 -25.6299 -11.0277
# 2 38.6647 125.6501 12.9846 16.4373 -12.8889 -30.8956
# 3 45.5019 12.9846 45.9996 -4.4169 -15.9944 -19.0546
# 4 7.2257 16.4373 -4.4169 40.1933 -17.1246 -14.9769
# 5 -25.6299 -12.8889 -15.9944 -17.1246 49.4461 14.6855
# 6 -11.0277 -30.8956 -19.0546 -14.9769 14.6855 41.0668
#
#
#
# Elastic Compliance Matrix: (Units=1/GPa)
#
#
# Indices 1 2 3 4 5 6 
#
# 1 0.009061 -0.002628 -0.010751 -0.003573 0.001152 -0.006247
# 2 -0.002628 0.010601 0.003013 -0.000467 -0.000346 0.008621
# 3 -0.010751 0.003013 0.046987 0.019216 0.009728 0.024711
# 4 -0.003573 -0.000467 0.019216 0.039826 0.012825 0.017544
# 5 0.001152 -0.000346 0.009728 0.012825 0.028614 -0.000993
# 6 -0.006247 0.008621 0.024711 0.017544 -0.000993 0.047378
#
#
# Mechanical properties :
#
#
# Convention : Reuss Voigt Hill
#
# Bulk Modulus (GPa) = 21.77839 60.00323 40.89081
# Shear Modulus (GPa) = 22.88280 42.71295 32.79787
#
# Velocity S-wave (km/s) = 2.94768 4.02722 3.52897
# Velocity P-wave (km/s) = 4.45584 6.66396 5.66846
#
# Compressibility (1/GPa) = 0.04591707
#
# Stress axis : x y z
#
# Youngs Moduli (GPa) = 110.36819 94.32803 21.28236
#
# Poissons Ratio (x) = 0.24786 0.22881
# Poissons Ratio (y) = 0.29001 -0.06412
# Poissons Ratio (z) = 1.18658 -0.28418
#
# Static dielectric constant tensor:
#      x y z
#    x 2.011430 -0.003100 0.046800 
#    y -0.003100 2.126800 -0.024760 
#    z 0.046800 -0.024760 2.206050 
# 
# From -- ./inp_files/374952.got.cif
#   From: 2010.05.17/outbox.cif.g08.bks.cpg/sg2_188_cif.got.tgz:374952.got - 2010.06.03 11:33:40.
