data_PCOD9107189
_publ_section_title
;
Structure prediction by ZEFSAII (Michael W. Deem and Ramdas Pophale) SiO2 
 PCOD9107189
Probable space group: P -1
;
_chemical_formula_sum "Si O2"
_cell_formula_units_Z 16
_cell_length_a 8.505054
_cell_length_b 11.587422
_cell_length_c 19.678415
_cell_angle_alpha 138.295044
_cell_angle_beta 137.685041
_cell_angle_gamma 73.566869
_cell_volume 694.234805
_symmetry_space_group_name_H-M "P -1"
_symmetry_group_IT_number 2
_symmetry_cell_setting 'triclinic'
loop_
_space_group_symop_operation_xyz
x,y,z
-x,-y,-z
loop_
_atom_site_type_symbol
_atom_site_label
_atom_site_fract_x
_atom_site_fract_y
_atom_site_fract_z
Si Si1 0.470663 0.159806 0.607792
Si Si2 0.249002 0.330653 0.504688
Si Si3 0.095423 0.383385 0.883015
Si Si4 0.942099 0.466668 0.208023
Si Si5 0.286824 0.081507 0.816168
Si Si6 0.444224 0.126296 0.730920
Si Si7 0.478389 0.217685 0.399141
Si Si8 0.737954 0.747406 0.797515
O O1 0.347333 0.263731 0.571913
O O2 0.304214 0.061803 0.582689
O O3 0.814306 0.340419 0.809833
O O4 0.500000 0.000000 0.500000
O O5 0.347138 0.260781 0.439968
O O6 0.439231 0.591145 0.676883
O O7 0.898744 0.159232 0.318028
O O8 0.069820 0.408288 0.804582
O O9 0.124809 0.193436 0.823296
O O10 0.380260 0.615939 0.097267
O O11 0.167927 0.632473 0.410698
O O12 0.099717 0.362242 0.187343
O O13 0.611801 0.260774 0.027646
O O14 0.301449 0.055497 0.728373
O O15 0.628027 0.028440 0.745233
O O16 0.383491 0.273807 0.326155
O O17 0.000000 0.000000 0.000000
#
# Coordination Sequence:
#
# PCOD9107189 Si02
#       8
#     2   2   2   2   2   2   2   2
#     4  12  20  39  63  94 135 171 220 269 310 392
#     4  11  23  42  65  95 132 167 219 271 326 381
#     4  11  20  40  61  94 136 177 214 261 319 388
#     4  10  20  40  63  90 130 170 215 263 323 377
#     4  11  24  41  61  99 143 173 208 266 332 393
#     4  11  23  37  63  96 134 176 213 259 328 382
#     4  11  22  43  70  91 120 178 229 263 322 381
#     4  11  23  44  72  94 120 166 228 276 319 387
#
# _framework density 23.046956000000002
#
# number of rings (size 3 to 8) (size 9 to 14) (size 15 to 20)
#    0.000    1.000    5.000    4.875    0.000    0.500 
#    2.250    5.000    0.000    0.000    0.000    0.000 
#    0.000    0.000    0.000    0.000    0.000    0.000 
#
# Total GULP energy -89262.777465 kJ/mol
# GULP energy per Si atom -5578.923592 kJ/mol
# Density = 2.299450 g / cm^3
# Si number density = 23.046956 Si / 1000 Ang^3
#
#
#
# Elastic Constant Matrix: (Units=GPa)
#
#
# Indices 1 2 3 4 5 6 
#
# 1 59.3598 8.7071 37.7183 0.2058 5.3569 18.7594
# 2 8.7071 53.8690 32.0970 4.8213 0.4425 12.6048
# 3 37.7183 32.0970 150.1611 12.5053 15.6549 17.1479
# 4 0.2058 4.8213 12.5053 49.4585 5.0771 0.1524
# 5 5.3569 0.4425 15.6549 5.0771 40.4756 4.0108
# 6 18.7594 12.6048 17.1479 0.1524 4.0108 28.8977
#
#
#
# Elastic Compliance Matrix: (Units=1/GPa)
#
#
# Indices 1 2 3 4 5 6 
#
# 1 0.024005 0.002201 -0.005032 0.001003 -0.000037 -0.013558
# 2 0.002201 0.023180 -0.004596 -0.001315 0.002302 -0.009125
# 3 -0.005032 -0.004596 0.009306 -0.001608 -0.002694 0.000132
# 4 0.001003 -0.001315 -0.001608 0.020976 -0.002234 0.001076
# 5 -0.000037 0.002302 -0.002694 -0.002234 0.026308 -0.003021
# 6 -0.013558 -0.009125 0.000132 0.001076 -0.003021 0.047722
#
#
# Mechanical properties :
#
#
# Convention : Reuss Voigt Hill
#
# Bulk Modulus (GPa) = 24.01693 46.71497 35.36595
# Shear Modulus (GPa) = 27.74251 36.09085 31.91668
#
# Velocity S-wave (km/s) = 3.47326 3.96153 3.72540
# Velocity P-wave (km/s) = 5.15055 6.42171 5.82094
#
# Compressibility (1/GPa) = 0.04163729
#
# Stress axis : x y z
#
# Youngs Moduli (GPa) = 41.65751 43.14021 107.46280
#
# Poissons Ratio (x) = -0.09494 0.54071
# Poissons Ratio (y) = -0.09168 0.49391
# Poissons Ratio (z) = 0.20960 0.19828
#
# Static dielectric constant tensor:
#      x y z
#    x 1.882420 0.004870 0.041210 
#    y 0.004870 1.847400 0.021370 
#    z 0.041210 0.021370 2.023910 
# 
# From -- ./inp_files/589665.got.cif
#   From: 2010.05.17/outbox.cif.g08.bks.cpg/sg2_295_cif.got.tgz:589665.got - 2010.06.03 11:33:40.
