data_PCOD9107023
_publ_section_title
;
Structure prediction by ZEFSAII (Michael W. Deem and Ramdas Pophale) SiO2 
 PCOD9107023
Probable space group: P -1
;
_chemical_formula_sum "Si O2"
_cell_formula_units_Z 16
_cell_length_a 7.605503
_cell_length_b 8.124162
_cell_length_c 14.922929
_cell_angle_alpha 107.829765
_cell_angle_beta 50.766226
_cell_angle_gamma 104.313444
_cell_volume 678.104741
_symmetry_space_group_name_H-M "P -1"
_symmetry_group_IT_number 2
_symmetry_cell_setting 'triclinic'
loop_
_space_group_symop_operation_xyz
x,y,z
-x,-y,-z
loop_
_atom_site_type_symbol
_atom_site_label
_atom_site_fract_x
_atom_site_fract_y
_atom_site_fract_z
Si Si1 0.943572 0.196975 0.066843
Si Si2 0.692671 0.035472 0.368652
Si Si3 0.727203 0.784016 0.885724
Si Si4 0.166221 0.298469 0.831064
Si Si5 0.716717 0.165350 0.863451
Si Si6 0.600791 0.673401 0.541980
Si Si7 0.490294 0.367035 0.238730
Si Si8 0.004369 0.917167 0.387699
O O1 0.045579 0.247385 0.139041
O O2 0.677529 0.223199 0.146899
O O3 0.081501 0.299503 0.960598
O O4 0.000000 0.000000 0.000000
O O5 0.600342 0.196610 0.375734
O O6 0.500000 0.000000 0.500000
O O7 0.724565 0.878239 0.264383
O O8 0.913865 0.046247 0.362861
O O9 0.666674 0.658207 0.801563
O O10 0.733437 0.983151 0.881355
O O11 0.519990 0.765801 0.020486
O O12 0.349089 0.456161 0.780476
O O13 0.931668 0.290627 0.848216
O O14 0.759530 0.133976 0.739081
O O15 0.500000 0.500000 0.500000
O O16 0.649700 0.650881 0.627319
O O17 0.818567 0.754442 0.430544
O O18 0.000000 0.000000 0.500000
#
# Coordination Sequence:
#
# PCOD9107023 Si02
#       8
#     2   2   2   2   2   2   2   2
#     4  12  23  41  68  98 133 180 224 266 344 405
#     4   9  20  38  66  90 122 173 223 255 326 407
#     4  11  23  39  66  99 131 174 223 273 334 401
#     4  11  22  42  65  93 135 175 216 279 336 397
#     4  10  20  40  62  92 133 172 219 270 331 398
#     4  11  23  44  69  96 128 178 221 271 338 399
#     4  12  25  42  67  98 139 170 223 286 334 394
#     4  10  21  38  65  94 132 171 219 276 329 389
#
# _framework density 23.595175000000001
#
# number of rings (size 3 to 8) (size 9 to 14) (size 15 to 20)
#    0.000    1.250    2.500    4.875    1.750    2.500 
#    0.000    0.625    8.250    0.000    0.000    0.000 
#    0.000    0.000    0.000    0.000    0.000    0.000 
#
# Total GULP energy -89526.756767 kJ/mol
# GULP energy per Si atom -5595.422298 kJ/mol
# Density = 2.354147 g / cm^3
# Si number density = 23.595175 Si / 1000 Ang^3
#
#
#
# Elastic Constant Matrix: (Units=GPa)
#
#
# Indices 1 2 3 4 5 6 
#
# 1 72.7054 6.7467 28.0392 1.7830 21.2200 23.0759
# 2 6.7467 70.4982 4.2130 3.7590 1.1329 16.2315
# 3 28.0392 4.2130 149.4246 -14.3864 9.4806 5.9847
# 4 1.7830 3.7590 -14.3864 34.7759 6.5279 1.0675
# 5 21.2200 1.1329 9.4806 6.5279 41.2388 3.0458
# 6 23.0759 16.2315 5.9847 1.0675 3.0458 24.4643
#
#
#
# Elastic Compliance Matrix: (Units=1/GPa)
#
#
# Indices 1 2 3 4 5 6 
#
# 1 0.025491 0.003525 -0.003266 -0.000301 -0.010624 -0.024249
# 2 0.003525 0.017328 -0.000688 -0.001747 -0.000786 -0.014480
# 3 -0.003266 -0.000688 0.007643 0.003491 -0.000729 0.001607
# 4 -0.000301 -0.001747 0.003491 0.031453 -0.005572 -0.000090
# 5 -0.010624 -0.000786 -0.000729 -0.005572 0.030255 0.007197
# 6 -0.024249 -0.014480 0.001607 -0.000090 0.007197 0.072070
#
#
# Mechanical properties :
#
#
# Convention : Reuss Voigt Hill
#
# Bulk Modulus (GPa) = 20.16011 41.18065 30.67038
# Shear Modulus (GPa) = 24.79754 37.00443 30.90099
#
# Velocity S-wave (km/s) = 3.24537 3.96448 3.62281
# Velocity P-wave (km/s) = 4.75457 6.20057 5.52508
#
# Compressibility (1/GPa) = 0.04960290
#
# Stress axis : x y z
#
# Youngs Moduli (GPa) = 39.22938 57.70997 130.84413
#
# Poissons Ratio (x) = -0.20345 0.42739
# Poissons Ratio (y) = -0.13830 0.09008
# Poissons Ratio (z) = 0.12814 0.03973
#
# Static dielectric constant tensor:
#      x y z
#    x 1.917230 -0.015710 -0.005170 
#    y -0.015710 1.926210 -0.010480 
#    z -0.005170 -0.010480 1.920770 
# 
# From -- ./inp_files/495406.got.cif
#   From: 2010.05.17/outbox.cif.g08.bks.cpg/sg2_248_cif.got.tgz:495406.got - 2010.06.03 11:33:40.
