data_PCOD9107759
_publ_section_title
;
Structure prediction by ZEFSAII (Michael W. Deem and Ramdas Pophale) SiO2 
 PCOD9107759
Probable space group: P -1
;
_chemical_formula_sum "Si O2"
_cell_formula_units_Z 12
_cell_length_a 7.484012
_cell_length_b 11.122431
_cell_length_c 18.490397
_cell_angle_alpha 35.212876
_cell_angle_beta 38.829844
_cell_angle_gamma 62.631345
_cell_volume 485.437728
_symmetry_space_group_name_H-M "P -1"
_symmetry_group_IT_number 2
_symmetry_cell_setting 'triclinic'
loop_
_space_group_symop_operation_xyz
x,y,z
-x,-y,-z
loop_
_atom_site_type_symbol
_atom_site_label
_atom_site_fract_x
_atom_site_fract_y
_atom_site_fract_z
Si Si1 0.889761 0.159559 0.235518
Si Si2 0.582812 0.643434 0.574700
Si Si3 0.687444 0.849261 0.018150
Si Si4 0.868214 0.680924 0.317454
Si Si5 0.382825 0.666028 0.888538
Si Si6 0.879043 0.482192 0.810027
O O1 0.660652 0.180250 0.235814
O O2 0.718765 0.893217 0.452399
O O3 0.187907 0.176825 0.085830
O O4 0.064283 0.399530 0.108992
O O5 0.488587 0.408680 0.764779
O O6 0.840232 0.663288 0.422213
O O7 0.253622 0.604630 0.658187
O O8 0.500000 0.000000 0.000000
O O9 0.003158 0.037133 0.873727
O O10 0.500000 0.500000 0.500000
O O11 0.091701 0.609543 0.233493
O O12 0.707493 0.646700 0.783190
O O13 0.338967 0.713520 0.963050
#
# Coordination Sequence:
#
# PCOD9107759 Si02
#       6
#     2   2   2   2   2   2
#     4  10  22  41  63  94 128 168 210 255 313 373
#     4  10  22  41  65  93 125 164 209 264 314 366
#     4  11  22  41  66  91 127 163 209 265 315 371
#     4   9  21  39  63  95 121 158 209 262 312 367
#     4  10  21  40  66  91 130 171 208 255 307 373
#     4  10  20  40  65  95 124 167 208 256 312 370
#
# _framework density 24.719958999999999
#
# number of rings (size 3 to 8) (size 9 to 14) (size 15 to 20)
#    0.000    2.000    1.667    1.000    0.000    6.667 
#    3.000    1.667    3.667    0.000    0.000    0.000 
#    0.000    0.000    0.000    0.000    0.000    0.000 
#
# Total GULP energy -66995.065633 kJ/mol
# GULP energy per Si atom -5582.922136 kJ/mol
# Density = 2.466370 g / cm^3
# Si number density = 24.719959 Si / 1000 Ang^3
#
#
#
# Elastic Constant Matrix: (Units=GPa)
#
#
# Indices 1 2 3 4 5 6 
#
# 1 66.9740 33.0563 27.5082 -2.1333 2.4139 -20.7423
# 2 33.0563 121.9772 56.4903 16.6709 11.0728 -7.9242
# 3 27.5082 56.4903 134.0680 -25.6487 17.3418 -1.9423
# 4 -2.1333 16.6709 -25.6487 61.5462 -7.1828 0.5458
# 5 2.4139 11.0728 17.3418 -7.1828 19.1504 4.7288
# 6 -20.7423 -7.9242 -1.9423 0.5458 4.7288 50.4111
#
#
#
# Elastic Compliance Matrix: (Units=1/GPa)
#
#
# Indices 1 2 3 4 5 6 
#
# 1 0.020216 -0.004131 -0.002164 0.000882 0.000266 0.007551
# 2 -0.004131 0.013141 -0.005287 -0.006483 -0.004892 0.000692
# 3 -0.002164 -0.005287 0.011867 0.005720 -0.005061 -0.000851
# 4 0.000882 -0.006483 0.005720 0.021216 0.006736 -0.001297
# 5 0.000266 -0.004892 -0.005061 0.006736 0.063831 -0.006915
# 6 0.007551 0.000692 -0.000851 -0.001297 -0.006915 0.023682
#
#
# Mechanical properties :
#
#
# Convention : Reuss Voigt Hill
#
# Bulk Modulus (GPa) = 45.32811 61.90321 53.61566
# Shear Modulus (GPa) = 27.10474 39.95249 33.52861
#
# Velocity S-wave (km/s) = 3.31489 4.02457 3.68684
# Velocity P-wave (km/s) = 5.74698 6.83318 6.31348
#
# Compressibility (1/GPa) = 0.02206137
#
# Stress axis : x y z
#
# Youngs Moduli (GPa) = 49.46658 76.09557 84.26612
#
# Poissons Ratio (x) = 0.31432 0.18233
# Poissons Ratio (y) = 0.20433 0.44553
# Poissons Ratio (z) = 0.10703 0.40233
#
# Static dielectric constant tensor:
#      x y z
#    x 2.082600 0.008520 -0.119220 
#    y 0.008520 1.985240 0.044870 
#    z -0.119220 0.044870 2.074400 
# 
# From -- ./inp_files/65151.got.cif
#   From: 2010.05.17/outbox.cif.g08.bks.cpg/sg2_33_cif.got.tgz:65151.got - 2010.06.03 11:33:40.
