data_PCOD9107493
_publ_section_title
;
Structure prediction by ZEFSAII (Michael W. Deem and Ramdas Pophale) SiO2 
 PCOD9107493
Probable space group: P -1
;
_chemical_formula_sum "Si O2"
_cell_formula_units_Z 16
_cell_length_a 19.248378
_cell_length_b 8.568363
_cell_length_c 18.516193
_cell_angle_alpha 37.885407
_cell_angle_beta 21.616995
_cell_angle_gamma 47.711301
_cell_volume 665.389855
_symmetry_space_group_name_H-M "P -1"
_symmetry_group_IT_number 2
_symmetry_cell_setting 'triclinic'
loop_
_space_group_symop_operation_xyz
x,y,z
-x,-y,-z
loop_
_atom_site_type_symbol
_atom_site_label
_atom_site_fract_x
_atom_site_fract_y
_atom_site_fract_z
Si Si1 0.538942 0.379663 0.931886
Si Si2 0.216835 0.609140 0.721195
Si Si3 0.085499 0.779024 0.036025
Si Si4 0.397401 0.138187 0.688255
Si Si5 0.242600 0.904986 0.078873
Si Si6 0.066867 0.488310 0.567602
Si Si7 0.056092 0.789048 0.682711
Si Si8 0.718045 0.997397 0.760096
O O1 0.610236 0.135337 0.986888
O O2 0.728788 0.548593 0.645763
O O3 0.500000 0.500000 0.000000
O O4 0.353537 0.310576 0.081686
O O5 0.294533 0.376288 0.696073
O O6 0.371752 0.743533 0.582622
O O7 0.202622 0.812149 0.599074
O O8 0.000000 0.500000 0.000000
O O9 0.983735 0.672703 0.250261
O O10 0.051724 0.518366 0.115832
O O11 0.304878 0.921547 0.797718
O O12 0.000000 0.000000 0.000000
O O13 0.347111 0.037135 0.856338
O O14 0.098433 0.630822 0.288025
O O15 0.104499 0.066986 0.189187
O O16 0.122245 0.805256 0.415302
O O17 0.188366 0.887583 0.448947
O O18 0.500000 0.000000 0.000000
#
# Coordination Sequence:
#
# PCOD9107493 Si02
#       8
#     2   2   2   2   2   2   2   2
#     4  11  22  41  65  93 126 168 218 273 333 397
#     4  11  21  39  65  94 131 171 221 272 324 388
#     4  10  20  40  64  94 132 174 219 272 326 390
#     4  10  22  39  64  95 131 172 221 269 326 398
#     4  11  22  40  63  96 130 166 225 270 332 399
#     4   9  21  39  61  92 127 165 213 265 327 387
#     4  11  21  38  67  94 131 180 216 274 332 384
#     4   9  20  40  61  91 129 166 216 265 327 385
#
# _framework density 24.046053000000001
#
# number of rings (size 3 to 8) (size 9 to 14) (size 15 to 20)
#    0.000    1.750    2.500    1.875    0.000    0.000 
#    0.000   19.375    2.750    0.000    0.000    0.000 
#    0.000    0.000    0.000    0.000    0.000    0.000 
#
# Total GULP energy -89259.052647 kJ/mol
# GULP energy per Si atom -5578.690790 kJ/mol
# Density = 2.399132 g / cm^3
# Si number density = 24.046053 Si / 1000 Ang^3
#
#
#
# Elastic Constant Matrix: (Units=GPa)
#
#
# Indices 1 2 3 4 5 6 
#
# 1 87.0176 34.1911 30.6167 4.7016 -6.6356 2.4723
# 2 34.1911 98.4267 37.4184 0.4353 -23.1534 11.7170
# 3 30.6167 37.4184 142.4180 4.1769 -33.5576 11.1702
# 4 4.7016 0.4353 4.1769 28.8445 10.9644 -6.9983
# 5 -6.6356 -23.1534 -33.5576 10.9644 48.5326 -10.1674
# 6 2.4723 11.7170 11.1702 -6.9983 -10.1674 38.0004
#
#
#
# Elastic Compliance Matrix: (Units=1/GPa)
#
#
# Indices 1 2 3 4 5 6 
#
# 1 0.013924 -0.004374 -0.002145 -0.001290 -0.001270 0.000496
# 2 -0.004374 0.013616 -0.001222 -0.001811 0.004923 -0.002571
# 3 -0.002145 -0.001222 0.009484 -0.003691 0.006247 -0.001280
# 4 -0.001290 -0.001811 -0.003691 0.041375 -0.011633 0.006234
# 5 -0.001270 0.004923 0.006247 -0.011633 0.030291 0.002691
# 6 0.000496 -0.002571 -0.001280 0.006234 0.002691 0.029320
#
#
# Mechanical properties :
#
#
# Convention : Reuss Voigt Hill
#
# Bulk Modulus (GPa) = 46.41917 59.14607 52.78262
# Shear Modulus (GPa) = 31.11913 38.11790 34.61851
#
# Velocity S-wave (km/s) = 3.60133 3.98578 3.79842
# Velocity P-wave (km/s) = 6.05301 6.76996 6.42150
#
# Compressibility (1/GPa) = 0.02154282
#
# Stress axis : x y z
#
# Youngs Moduli (GPa) = 71.82000 73.44322 105.43604
#
# Poissons Ratio (x) = 0.32121 0.22611
# Poissons Ratio (y) = 0.31411 0.12889
# Poissons Ratio (z) = 0.15402 0.08978
#
# Static dielectric constant tensor:
#      x y z
#    x 2.013040 0.026230 -0.179210 
#    y 0.026230 2.090250 -0.074770 
#    z -0.179210 -0.074770 2.239300 
# 
# From -- ./inp_files/601105.got.cif
#   From: 2010.05.17/outbox.cif.g08.bks.cpg/sg2_301_cif.got.tgz:601105.got - 2010.06.03 11:33:40.
