data_PCOD9107775
_publ_section_title
;
Structure prediction by ZEFSAII (Michael W. Deem and Ramdas Pophale) SiO2 
 PCOD9107775
Probable space group: P -1
;
_chemical_formula_sum "Si O2"
_cell_formula_units_Z 16
_cell_length_a 20.643918
_cell_length_b 9.648815
_cell_length_c 7.998515
_cell_angle_alpha 121.546903
_cell_angle_beta 129.519646
_cell_angle_gamma 34.316515
_cell_volume 692.866654
_symmetry_space_group_name_H-M "P -1"
_symmetry_group_IT_number 2
_symmetry_cell_setting 'triclinic'
loop_
_space_group_symop_operation_xyz
x,y,z
-x,-y,-z
loop_
_atom_site_type_symbol
_atom_site_label
_atom_site_fract_x
_atom_site_fract_y
_atom_site_fract_z
Si Si1 0.928673 0.769317 0.169752
Si Si2 0.727166 0.928139 0.682618
Si Si3 0.111628 0.650170 0.121148
Si Si4 0.946667 0.678811 0.679524
Si Si5 0.763397 0.256741 0.409810
Si Si6 0.643939 0.707172 0.263434
Si Si7 0.540214 0.563688 0.462719
Si Si8 0.635090 0.769741 0.893910
O O1 0.031041 0.713283 0.189555
O O2 0.862099 0.987211 0.326642
O O3 0.818679 0.854427 0.930813
O O4 0.014228 0.753220 0.873825
O O5 0.796228 0.899829 0.609302
O O6 0.700787 0.778287 0.503016
O O7 0.592756 0.195036 0.682724
O O8 0.164575 0.745742 0.329031
O O9 0.239735 0.370536 0.095368
O O10 0.999735 0.481482 0.784718
O O11 0.000000 0.500000 0.500000
O O12 0.707519 0.458613 0.300107
O O13 0.641902 0.356314 0.365030
O O14 0.488993 0.938461 0.159638
O O15 0.669567 0.702358 0.104872
O O16 0.500000 0.500000 0.500000
O O17 0.591523 0.654293 0.689517
#
# Coordination Sequence:
#
# PCOD9107775 Si02
#       8
#     2   2   2   2   2   2   2   2
#     4  11  24  40  61  96 127 165 210 255 310 372
#     4  10  22  41  64  90 126 166 207 258 303 376
#     4  10  21  42  63  88 125 165 207 254 303 370
#     4  11  23  39  65  91 123 168 211 256 307 366
#     4  11  24  40  65  92 127 166 204 261 315 370
#     4  10  20  40  65  96 122 162 214 255 312 366
#     4  10  24  42  64  91 130 164 205 263 319 367
#     4   9  21  40  67  92 124 164 212 261 302 373
#
# _framework density 23.092465000000001
#
# number of rings (size 3 to 8) (size 9 to 14) (size 15 to 20)
#    0.000    1.750    0.000    4.125    3.500    7.000 
#    0.000    1.250    0.000    0.000    0.000    0.000 
#    0.000    0.000    0.000    0.000    0.000    0.000 
#
# Total GULP energy -89325.032545 kJ/mol
# GULP energy per Si atom -5582.814534 kJ/mol
# Density = 2.303991 g / cm^3
# Si number density = 23.092465 Si / 1000 Ang^3
#
#
#
# Elastic Constant Matrix: (Units=GPa)
#
#
# Indices 1 2 3 4 5 6 
#
# 1 68.2594 49.0616 14.1754 -9.4606 4.3063 -31.6133
# 2 49.0616 116.9564 37.6993 17.7990 6.5883 -28.8191
# 3 14.1754 37.6993 78.9917 1.4654 -9.3250 -17.1012
# 4 -9.4606 17.7990 1.4654 37.2323 -9.2117 -8.4817
# 5 4.3063 6.5883 -9.3250 -9.2117 21.0368 0.4390
# 6 -31.6133 -28.8191 -17.1012 -8.4817 0.4390 48.9680
#
#
#
# Elastic Compliance Matrix: (Units=1/GPa)
#
#
# Indices 1 2 3 4 5 6 
#
# 1 0.038783 -0.017895 0.007109 0.025894 0.011709 0.021369
# 2 -0.017895 0.021843 -0.009934 -0.019838 -0.016154 -0.005458
# 3 0.007109 -0.009934 0.019252 0.011143 0.014917 0.007262
# 4 0.025894 -0.019838 0.011143 0.053759 0.029016 0.017984
# 5 0.011709 -0.016154 0.014917 0.029016 0.069356 0.007666
# 6 0.021369 -0.005458 0.007262 0.017984 0.007666 0.036587
#
#
# Mechanical properties :
#
#
# Convention : Reuss Voigt Hill
#
# Bulk Modulus (GPa) = 26.01676 51.78668 38.90172
# Shear Modulus (GPa) = 17.01651 32.33217 24.67434
#
# Velocity S-wave (km/s) = 2.71751 3.74587 3.27234
# Velocity P-wave (km/s) = 4.59753 6.41742 5.58214
#
# Compressibility (1/GPa) = 0.03843676
#
# Stress axis : x y z
#
# Youngs Moduli (GPa) = 25.78479 45.78083 51.94400
#
# Poissons Ratio (x) = 0.81925 -0.36927
# Poissons Ratio (y) = 0.46142 0.51602
# Poissons Ratio (z) = -0.18330 0.45479
#
# Static dielectric constant tensor:
#      x y z
#    x 1.938040 -0.081820 0.034840 
#    y -0.081820 1.994160 -0.185360 
#    z 0.034840 -0.185360 2.076450 
# 
# From -- ./inp_files/346382.got.cif
#   From: 2010.05.17/outbox.cif.g08.bks.cpg/sg2_174_cif.got.tgz:346382.got - 2010.06.03 11:33:40.
