data_PCOD9107802
_publ_section_title
;
Structure prediction by ZEFSAII (Michael W. Deem and Ramdas Pophale) SiO2 
 PCOD9107802
Probable space group: P -1
;
_chemical_formula_sum "Si O2"
_cell_formula_units_Z 16
_cell_length_a 8.910559
_cell_length_b 11.816336
_cell_length_c 9.650794
_cell_angle_alpha 54.288051
_cell_angle_beta 103.007731
_cell_angle_gamma 125.203078
_cell_volume 664.596003
_symmetry_space_group_name_H-M "P -1"
_symmetry_group_IT_number 2
_symmetry_cell_setting 'triclinic'
loop_
_space_group_symop_operation_xyz
x,y,z
-x,-y,-z
loop_
_atom_site_type_symbol
_atom_site_label
_atom_site_fract_x
_atom_site_fract_y
_atom_site_fract_z
Si Si1 0.232155 0.020327 0.470777
Si Si2 0.249217 0.836892 0.381716
Si Si3 0.380789 0.331476 0.788551
Si Si4 0.983973 0.842009 0.782227
Si Si5 0.728336 0.455015 0.961866
Si Si6 0.050534 0.543220 0.749781
Si Si7 0.021194 0.802318 0.115926
Si Si8 0.499862 0.297910 0.537536
O O1 0.082898 0.036083 0.345125
O O2 0.343761 0.183233 0.473516
O O3 0.341924 0.986731 0.405504
O O4 0.120738 0.870893 0.665642
O O5 0.082221 0.680952 0.547107
O O6 0.366681 0.767295 0.401277
O O7 0.174270 0.888701 0.203169
O O8 0.524834 0.361758 0.918889
O O9 0.167321 0.212785 0.874820
O O10 0.428098 0.276993 0.694259
O O11 0.413260 0.511027 0.627433
O O12 0.807988 0.648524 0.880550
O O13 0.083697 0.877877 0.922832
O O14 0.869299 0.472695 0.858594
O O15 0.773492 0.389485 0.156755
O O16 0.025876 0.386241 0.774820
#
# Coordination Sequence:
#
# PCOD9107802 Si02
#       8
#     2   2   2   2   2   2   2   2
#     4  11  24  44  70  90 134 176 219 261 321 399
#     4  12  24  43  67  96 135 174 214 265 330 395
#     4  11  24  40  68  97 136 163 218 281 321 379
#     4  10  23  42  68  97 127 173 222 266 316 390
#     4  10  20  40  65  98 131 168 216 274 325 376
#     4  10  21  37  66  98 129 170 214 267 330 382
#     4  11  25  41  67 101 131 169 220 274 323 380
#     4  11  25  42  64 100 129 173 219 268 330 379
#
# _framework density 24.074777999999998
#
# number of rings (size 3 to 8) (size 9 to 14) (size 15 to 20)
#    0.000    1.250    3.750    1.500    7.000    3.500 
#    0.000    0.625    0.000    0.000    0.000    0.000 
#    0.000    0.000    0.000    0.000    0.000    0.000 
#
# Total GULP energy -89566.122834 kJ/mol
# GULP energy per Si atom -5597.882677 kJ/mol
# Density = 2.401998 g / cm^3
# Si number density = 24.074778 Si / 1000 Ang^3
#
#
#
# Elastic Constant Matrix: (Units=GPa)
#
#
# Indices 1 2 3 4 5 6 
#
# 1 92.0089 17.9788 20.6233 16.1378 10.8005 -21.3482
# 2 17.9788 60.6227 27.8856 9.8790 -6.3174 -30.6356
# 3 20.6233 27.8856 123.5517 26.2916 19.2134 -2.5559
# 4 16.1378 9.8790 26.2916 33.8492 0.1123 -5.9729
# 5 10.8005 -6.3174 19.2134 0.1123 24.7989 10.2033
# 6 -21.3482 -30.6356 -2.5559 -5.9729 10.2033 32.1728
#
#
#
# Elastic Compliance Matrix: (Units=1/GPa)
#
#
# Indices 1 2 3 4 5 6 
#
# 1 0.017017 0.003405 0.000245 -0.006095 -0.014064 0.017882
# 2 0.003405 0.038974 -0.008497 0.000510 -0.001074 0.039132
# 3 0.000245 -0.008497 0.013388 -0.008919 -0.010463 -0.005202
# 4 -0.006095 0.000510 -0.008919 0.039194 0.009521 -0.000010
# 5 -0.014064 -0.001074 -0.010463 0.009521 0.066835 -0.030615
# 6 0.017882 0.039132 -0.005202 -0.000010 -0.030615 0.089505
#
#
# Mechanical properties :
#
#
# Convention : Reuss Voigt Hill
#
# Bulk Modulus (GPa) = 16.75436 45.46206 31.10821
# Shear Modulus (GPa) = 16.97777 32.14388 24.56083
#
# Velocity S-wave (km/s) = 2.65846 3.65796 3.19751
# Velocity P-wave (km/s) = 4.04940 6.06346 5.15573
#
# Compressibility (1/GPa) = 0.05968596
#
# Stress axis : x y z
#
# Youngs Moduli (GPa) = 58.76385 25.65790 74.69332
#
# Poissons Ratio (x) = -0.08737 -0.01829
# Poissons Ratio (y) = -0.20009 0.63466
# Poissons Ratio (z) = -0.01439 0.21801
#
# Static dielectric constant tensor:
#      x y z
#    x 1.904940 -0.003490 0.008200 
#    y -0.003490 1.964360 -0.024090 
#    z 0.008200 -0.024090 1.895810 
# 
# From -- ./inp_files/185276.got.cif
#   From: 2010.05.17/outbox.cif.g08.bks.cpg/sg2_93_cif.got.tgz:185276.got - 2010.06.03 11:33:40.
