data_PCOD9107151
_publ_section_title
;
Structure prediction by ZEFSAII (Michael W. Deem and Ramdas Pophale) SiO2 
 PCOD9107151
Probable space group: P -1
;
_chemical_formula_sum "Si O2"
_cell_formula_units_Z 14
_cell_length_a 8.169470
_cell_length_b 14.212394
_cell_length_c 7.459073
_cell_angle_alpha 136.546909
_cell_angle_beta 77.193898
_cell_angle_gamma 108.280021
_cell_volume 565.555864
_symmetry_space_group_name_H-M "P -1"
_symmetry_group_IT_number 2
_symmetry_cell_setting 'triclinic'
loop_
_space_group_symop_operation_xyz
x,y,z
-x,-y,-z
loop_
_atom_site_type_symbol
_atom_site_label
_atom_site_fract_x
_atom_site_fract_y
_atom_site_fract_z
Si Si1 0.975708 0.969987 0.747100
Si Si2 0.653012 0.362826 0.936115
Si Si3 0.303976 0.929578 0.511542
Si Si4 0.128831 0.336599 0.564729
Si Si5 0.644436 0.616206 0.728836
Si Si6 0.314683 0.901098 0.901790
Si Si7 0.774833 0.390056 0.565094
O O1 0.917887 0.802091 0.496368
O O2 0.151469 0.014027 0.649534
O O3 0.817840 0.044051 0.862553
O O4 0.000000 0.000000 0.000000
O O5 0.733842 0.229752 0.775143
O O6 0.643029 0.375957 0.742958
O O7 0.766385 0.514923 0.177854
O O8 0.465187 0.326663 0.019192
O O9 0.286131 0.903267 0.695825
O O10 0.500000 0.000000 0.500000
O O11 0.247582 0.288526 0.316035
O O12 0.955665 0.369480 0.568638
O O13 0.500000 0.500000 0.500000
O O14 0.778691 0.536387 0.674637
O O15 0.300298 0.738644 0.726346
O O16 0.500000 0.000000 0.000000
#
# Coordination Sequence:
#
# PCOD9107151 Si02
#       7
#     2   2   2   2   2   2   2
#     4  10  20  40  63  89 122 167 204 249 313 365
#     4  10  22  38  61  94 125 163 200 253 316 363
#     4  10  22  40  64  90 124 163 207 253 308 367
#     4  11  21  39  65  91 124 160 209 251 312 372
#     4  10  24  37  59  90 121 163 203 254 305 364
#     4  10  23  38  64  89 122 166 209 249 304 376
#     4  11  21  41  59  91 125 160 206 257 310 363
#
# _framework density 24.754404999999998
#
# number of rings (size 3 to 8) (size 9 to 14) (size 15 to 20)
#    0.000    1.714    4.286    1.286    8.000    1.143 
#    0.000    0.714    0.000    0.000    0.000    0.000 
#    0.000    0.000    0.000    0.000    0.000    0.000 
#
# Total GULP energy -78152.207067 kJ/mol
# GULP energy per Si atom -5582.300505 kJ/mol
# Density = 2.469806 g / cm^3
# Si number density = 24.754405 Si / 1000 Ang^3
#
#
#
# Elastic Constant Matrix: (Units=GPa)
#
#
# Indices 1 2 3 4 5 6 
#
# 1 63.2389 21.3821 47.2867 2.2778 -25.7204 25.8271
# 2 21.3821 78.8789 44.5465 -13.0052 -21.1551 32.7478
# 3 47.2867 44.5465 140.3269 7.6031 -25.4885 28.0725
# 4 2.2778 -13.0052 7.6031 43.9793 14.9031 -4.3219
# 5 -25.7204 -21.1551 -25.4885 14.9031 37.5616 -13.5701
# 6 25.8271 32.7478 28.0725 -4.3219 -13.5701 37.4527
#
#
#
# Elastic Compliance Matrix: (Units=1/GPa)
#
#
# Indices 1 2 3 4 5 6 
#
# 1 0.032982 0.005079 -0.005580 -0.007123 0.018269 -0.017205
# 2 0.005079 0.023669 -0.004823 0.003954 0.005403 -0.018169
# 3 -0.005580 -0.004823 0.011208 -0.003976 0.002714 0.000189
# 4 -0.007123 0.003954 -0.003976 0.030883 -0.016928 0.001865
# 5 0.018269 0.005403 0.002714 -0.016928 0.049516 -0.003368
# 6 -0.017205 -0.018169 0.000189 0.001865 -0.003368 0.053304
#
#
# Mechanical properties :
#
#
# Convention : Reuss Voigt Hill
#
# Bulk Modulus (GPa) = 17.47954 56.54169 37.01062
# Shear Modulus (GPa) = 21.61865 35.08068 28.34967
#
# Velocity S-wave (km/s) = 2.95841 3.76859 3.38781
# Velocity P-wave (km/s) = 4.32968 6.46738 5.50332
#
# Compressibility (1/GPa) = 0.05720973
#
# Stress axis : x y z
#
# Youngs Moduli (GPa) = 30.31980 42.24984 89.21879
#
# Poissons Ratio (x) = -0.21459 0.49787
# Poissons Ratio (y) = -0.15400 0.43033
# Poissons Ratio (z) = 0.16919 0.20378
#
# Static dielectric constant tensor:
#      x y z
#    x 2.102310 -0.046380 0.029810 
#    y -0.046380 1.961030 -0.022320 
#    z 0.029810 -0.022320 1.992970 
# 
# From -- ./inp_files/218999.got.cif
#   From: 2010.05.17/outbox.cif.g08.bks.cpg/sg2_110_cif.got.tgz:218999.got - 2010.06.03 11:33:40.
