data_PCOD9107352
_publ_section_title
;
Structure prediction by ZEFSAII (Michael W. Deem and Ramdas Pophale) SiO2 
 PCOD9107352
Probable space group: P -1
;
_chemical_formula_sum "Si O2"
_cell_formula_units_Z 12
_cell_length_a 12.069493
_cell_length_b 7.970380
_cell_length_c 11.271731
_cell_angle_alpha 70.041628
_cell_angle_beta 143.846167
_cell_angle_gamma 86.738429
_cell_volume 481.197511
_symmetry_space_group_name_H-M "P -1"
_symmetry_group_IT_number 2
_symmetry_cell_setting 'triclinic'
loop_
_space_group_symop_operation_xyz
x,y,z
-x,-y,-z
loop_
_atom_site_type_symbol
_atom_site_label
_atom_site_fract_x
_atom_site_fract_y
_atom_site_fract_z
Si Si1 0.189957 0.605054 0.444793
Si Si2 0.600906 0.193762 0.530382
Si Si3 0.699062 0.676781 0.999812
Si Si4 0.189849 0.264020 0.276672
Si Si5 0.671550 0.847612 0.323652
Si Si6 0.931045 0.226607 0.444049
O O1 0.272913 0.689427 0.393082
O O2 0.374868 0.336976 0.683124
O O3 0.937347 0.656201 0.195900
O O4 0.159676 0.731989 0.510255
O O5 0.440641 0.223844 0.493576
O O6 0.783987 0.931766 0.727001
O O7 0.423835 0.288084 0.241346
O O8 0.754189 0.458604 0.165234
O O9 0.523744 0.899215 0.871662
O O10 0.157460 0.235193 0.392560
O O11 0.000000 0.500000 0.000000
O O12 0.821468 0.810954 0.346768
O O13 0.000000 0.000000 0.500000
#
# Coordination Sequence:
#
# PCOD9107352 Si02
#       6
#     2   2   2   2   2   2
#     4  11  24  40  61  92 124 158 204 251 302 361
#     4  10  23  40  62  92 120 160 205 243 304 361
#     4  10  22  42  62  89 128 159 200 254 297 359
#     4  10  20  40  64  87 123 160 200 253 298 356
#     4  10  22  39  61  91 122 161 205 247 305 360
#     4  11  23  39  62  92 123 161 206 248 301 363
#
# _framework density 24.937784000000001
#
# number of rings (size 3 to 8) (size 9 to 14) (size 15 to 20)
#    0.000    1.667    0.000    6.000    0.000    8.667 
#    0.000   11.667    0.000    0.000    0.000    0.000 
#    0.000    0.000    0.000    0.000    0.000    0.000 
#
# Total GULP energy -67154.790528 kJ/mol
# GULP energy per Si atom -5596.232544 kJ/mol
# Density = 2.488102 g / cm^3
# Si number density = 24.937784 Si / 1000 Ang^3
#
#
#
# Elastic Constant Matrix: (Units=GPa)
#
#
# Indices 1 2 3 4 5 6 
#
# 1 75.3655 12.9242 -8.5849 -4.9551 8.9543 7.8479
# 2 12.9242 124.3912 40.7411 -46.3149 2.5789 6.5886
# 3 -8.5849 40.7411 103.3221 -22.4289 -11.4666 -6.6739
# 4 -4.9551 -46.3149 -22.4289 51.0819 -8.9506 -0.9005
# 5 8.9543 2.5789 -11.4666 -8.9506 31.4115 -2.2736
# 6 7.8479 6.5886 -6.6739 -0.9005 -2.2736 53.6710
#
#
#
# Elastic Compliance Matrix: (Units=1/GPa)
#
#
# Indices 1 2 3 4 5 6 
#
# 1 0.014353 -0.001914 0.001317 -0.000449 -0.003717 -0.001865
# 2 -0.001914 0.013271 -0.003015 0.010725 0.001304 -0.001489
# 3 0.001317 -0.003015 0.012612 0.003977 0.005758 0.002056
# 4 -0.000449 0.010725 0.003977 0.032768 0.010052 0.000219
# 5 -0.003717 0.001304 0.005758 0.010052 0.037962 0.002876
# 6 -0.001865 -0.001489 0.002056 0.000219 0.002876 0.019469
#
#
# Mechanical properties :
#
#
# Convention : Reuss Voigt Hill
#
# Bulk Modulus (GPa) = 30.29261 43.69329 36.99295
# Shear Modulus (GPa) = 33.63311 44.43276 39.03293
#
# Velocity S-wave (km/s) = 3.67642 4.22565 3.96057
# Velocity P-wave (km/s) = 5.49501 6.43173 5.98173
#
# Compressibility (1/GPa) = 0.03301135
#
# Stress axis : x y z
#
# Youngs Moduli (GPa) = 69.67107 75.35477 79.29003
#
# Poissons Ratio (x) = 0.14422 -0.10442
# Poissons Ratio (y) = 0.13334 0.23907
# Poissons Ratio (z) = -0.09175 0.22721
#
# Static dielectric constant tensor:
#      x y z
#    x 1.949760 0.014290 0.018640 
#    y 0.014290 1.999190 0.003430 
#    z 0.018640 0.003430 2.019470 
# 
# From -- ./inp_files/204551.got.cif
#   From: 2010.05.17/outbox.cif.g08.bks.cpg/sg2_103_cif.got.tgz:204551.got - 2010.06.03 11:33:40.
