data_PCOD9107029
_publ_section_title
;
Structure prediction by ZEFSAII (Michael W. Deem and Ramdas Pophale) SiO2 
 PCOD9107029
Probable space group: P -1
;
_chemical_formula_sum "Si O2"
_cell_formula_units_Z 16
_cell_length_a 14.786644
_cell_length_b 12.374301
_cell_length_c 8.267194
_cell_angle_alpha 122.009166
_cell_angle_beta 120.654815
_cell_angle_gamma 29.230346
_cell_volume 622.270242
_symmetry_space_group_name_H-M "P -1"
_symmetry_group_IT_number 2
_symmetry_cell_setting 'triclinic'
loop_
_space_group_symop_operation_xyz
x,y,z
-x,-y,-z
loop_
_atom_site_type_symbol
_atom_site_label
_atom_site_fract_x
_atom_site_fract_y
_atom_site_fract_z
Si Si1 0.915612 0.128026 0.353515
Si Si2 0.331971 0.889420 0.228480
Si Si3 0.185762 0.157649 0.977849
Si Si4 0.195956 0.353046 0.917956
Si Si5 0.611704 0.268936 0.314498
Si Si6 0.711171 0.301179 0.770753
Si Si7 0.987010 0.683717 0.489097
Si Si8 0.638181 0.758715 0.351802
O O1 0.712890 0.270710 0.291518
O O2 0.930181 0.264604 0.457119
O O3 0.000000 0.000000 0.500000
O O4 0.065710 0.911976 0.200412
O O5 0.324726 0.746508 0.141974
O O6 0.544637 0.721006 0.292781
O O7 0.193492 0.093088 0.394518
O O8 0.261526 0.021846 0.103674
O O9 0.258566 0.223873 0.039758
O O10 0.268638 0.977448 0.780754
O O11 0.962488 0.385916 0.976446
O O12 0.340445 0.246524 0.826369
O O13 0.078256 0.355079 0.729659
O O14 0.634455 0.293352 0.539560
O O15 0.408558 0.455771 0.195292
O O16 0.151313 0.453207 0.559115
O O17 0.500000 0.000000 0.500000
#
# Coordination Sequence:
#
# PCOD9107029 Si02
#       8
#     2   2   2   2   2   2   2   2
#     4   9  18  35  62  90 115 152 202 255 305 357
#     4  11  22  40  63  93 126 168 203 261 315 371
#     4  11  24  41  64  87 139 170 197 256 324 375
#     4  11  23  43  63  92 126 173 209 254 315 374
#     4  10  20  40  62  93 122 163 205 259 311 367
#     4   9  20  38  65  89 120 157 216 259 301 365
#     4  11  21  42  67  91 124 161 214 265 305 363
#     4  12  23  37  67  95 118 163 224 260 300 366
#
# _framework density 25.712301
#
# number of rings (size 3 to 8) (size 9 to 14) (size 15 to 20)
#    0.000    1.500    2.500    4.125    0.000    1.000 
#    2.250    2.500    0.000    0.000    0.000    0.000 
#    0.000    0.000    0.000    0.000    0.000    0.000 
#
# Total GULP energy -89414.973635 kJ/mol
# GULP energy per Si atom -5588.435852 kJ/mol
# Density = 2.565378 g / cm^3
# Si number density = 25.712301 Si / 1000 Ang^3
#
#
#
# Elastic Constant Matrix: (Units=GPa)
#
#
# Indices 1 2 3 4 5 6 
#
# 1 101.3013 29.3427 8.4450 6.9630 -28.3033 2.5674
# 2 29.3427 142.6483 29.6477 6.7616 -13.4252 6.7361
# 3 8.4450 29.6477 65.7399 12.6330 -19.3844 6.9494
# 4 6.9630 6.7616 12.6330 42.8427 3.5631 -7.6906
# 5 -28.3033 -13.4252 -19.3844 3.5631 38.1336 1.2006
# 6 2.5674 6.7361 6.9494 -7.6906 1.2006 42.4245
#
#
#
# Elastic Compliance Matrix: (Units=1/GPa)
#
#
# Indices 1 2 3 4 5 6 
#
# 1 0.013901 -0.002212 0.003836 -0.004443 0.011975 -0.002263
# 2 -0.002212 0.008168 -0.003507 0.000048 -0.000536 -0.000565
# 3 0.003836 -0.003507 0.022779 -0.008942 0.014198 -0.005430
# 4 -0.004443 0.000048 -0.008942 0.028892 -0.010755 0.007268
# 5 0.011975 -0.000536 0.014198 -0.010755 0.043339 -0.006142
# 6 -0.002263 -0.000565 -0.005430 0.007268 -0.006142 0.026179
#
#
# Mechanical properties :
#
#
# Convention : Reuss Voigt Hill
#
# Bulk Modulus (GPa) = 24.34132 49.39559 36.86845
# Shear Modulus (GPa) = 31.11032 40.83043 35.97037
#
# Velocity S-wave (km/s) = 3.48219 3.98926 3.74432
# Velocity P-wave (km/s) = 5.06507 6.36172 5.75006
#
# Compressibility (1/GPa) = 0.04108241
#
# Stress axis : x y z
#
# Youngs Moduli (GPa) = 71.93653 122.42633 43.89957
#
# Poissons Ratio (x) = 0.27084 -0.16840
# Poissons Ratio (y) = 0.15914 0.15395
# Poissons Ratio (z) = -0.27595 0.42934
#
# Static dielectric constant tensor:
#      x y z
#    x 2.058690 -0.009080 0.012020 
#    y -0.009080 2.081250 0.013640 
#    z 0.012020 0.013640 2.132710 
# 
# From -- ./inp_files/308087.got.cif
#   From: 2010.05.17/outbox.cif.g08.bks.cpg/sg2_155_cif.got.tgz:308087.got - 2010.06.03 11:33:40.
