data_PCOD9107091
_publ_section_title
;
Structure prediction by ZEFSAII (Michael W. Deem and Ramdas Pophale) SiO2 
 PCOD9107091
Probable space group: P -1
;
_chemical_formula_sum "Si O2"
_cell_formula_units_Z 16
_cell_length_a 8.034769
_cell_length_b 12.364254
_cell_length_c 15.357608
_cell_angle_alpha 27.750409
_cell_angle_beta 72.575536
_cell_angle_gamma 65.734435
_cell_volume 640.166311
_symmetry_space_group_name_H-M "P -1"
_symmetry_group_IT_number 2
_symmetry_cell_setting 'triclinic'
loop_
_space_group_symop_operation_xyz
x,y,z
-x,-y,-z
loop_
_atom_site_type_symbol
_atom_site_label
_atom_site_fract_x
_atom_site_fract_y
_atom_site_fract_z
Si Si1 0.273145 0.338999 0.551807
Si Si2 0.236745 0.026340 0.057054
Si Si3 0.166223 0.878613 0.919430
Si Si4 0.914258 0.475619 0.388071
Si Si5 0.692954 0.555431 0.911598
Si Si6 0.425759 0.582887 0.229516
Si Si7 0.060821 0.221036 0.372311
Si Si8 0.748531 0.648321 0.030743
O O1 0.242728 0.495635 0.534016
O O2 0.433310 0.360026 0.449625
O O3 0.092028 0.445276 0.442642
O O4 0.282100 0.063379 0.767538
O O5 0.044650 0.970533 0.135455
O O6 0.391691 0.811941 0.137547
O O7 0.170439 0.273029 0.832693
O O8 0.286839 0.097920 0.093236
O O9 0.185831 0.718576 0.944044
O O10 0.251522 0.681336 0.122039
O O11 0.989977 0.268064 0.450032
O O12 0.735596 0.749752 0.697314
O O13 0.500000 0.500000 0.000000
O O14 0.738379 0.652098 0.927394
O O15 0.598111 0.538406 0.172599
O O16 0.939339 0.459604 0.167846
O O17 0.000000 0.000000 0.500000
#
# Coordination Sequence:
#
# PCOD9107091 Si02
#       8
#     2   2   2   2   2   2   2   2
#     4  11  23  36  70 103 129 179 228 285 349 402
#     4  11  21  42  70  94 139 181 222 292 344 411
#     4  12  23  42  71  99 139 179 233 288 343 418
#     4  10  20  40  63 104 132 173 235 281 345 412
#     4  12  25  46  72 100 135 188 240 287 346 423
#     4  12  23  44  67 105 141 176 229 291 344 418
#     4  11  26  47  71 100 142 184 232 293 349 421
#     4  11  26  44  68  98 140 185 229 280 361 414
#
# _framework density 24.993504999999999
#
# number of rings (size 3 to 8) (size 9 to 14) (size 15 to 20)
#    0.000    0.750    6.250    2.625    1.750    2.000 
#    0.000    3.750    0.000    0.000    0.000    0.000 
#    0.000    0.000    0.000    0.000    0.000    0.000 
#
# Total GULP energy -89381.081040 kJ/mol
# GULP energy per Si atom -5586.317565 kJ/mol
# Density = 2.493662 g / cm^3
# Si number density = 24.993505 Si / 1000 Ang^3
#
#
#
# Elastic Constant Matrix: (Units=GPa)
#
#
# Indices 1 2 3 4 5 6 
#
# 1 47.7584 18.6830 9.0361 8.1881 -9.0337 0.9416
# 2 18.6830 183.5702 45.8068 18.8318 -13.6884 25.4789
# 3 9.0361 45.8068 89.8327 13.1845 -24.8059 -3.9347
# 4 8.1881 18.8318 13.1845 30.9093 -5.1255 -6.0903
# 5 -9.0337 -13.6884 -24.8059 -5.1255 31.2677 10.9544
# 6 0.9416 25.4789 -3.9347 -6.0903 10.9544 43.6304
#
#
#
# Elastic Compliance Matrix: (Units=1/GPa)
#
#
# Indices 1 2 3 4 5 6 
#
# 1 0.023477 -0.001275 0.000812 -0.005079 0.006771 -0.002098
# 2 -0.001275 0.007650 -0.002881 -0.003885 0.002077 -0.005763
# 3 0.000812 -0.002881 0.016138 -0.003514 0.011271 -0.000200
# 4 -0.005079 -0.003885 -0.003514 0.038753 -0.002435 0.008082
# 5 0.006771 0.002077 0.011271 -0.002435 0.047837 -0.012693
# 6 -0.002098 -0.005763 -0.000200 0.008082 -0.012693 0.030628
#
#
# Mechanical properties :
#
#
# Convention : Reuss Voigt Hill
#
# Bulk Modulus (GPa) = 24.64443 52.02368 38.33405
# Shear Modulus (GPa) = 27.07153 37.67048 32.37101
#
# Velocity S-wave (km/s) = 3.29468 3.88649 3.60276
# Velocity P-wave (km/s) = 4.93508 6.40311 5.71642
#
# Compressibility (1/GPa) = 0.04057712
#
# Stress axis : x y z
#
# Youngs Moduli (GPa) = 42.59510 130.72726 61.96387
#
# Poissons Ratio (x) = 0.16664 -0.05031
# Poissons Ratio (y) = 0.05430 0.17852
# Poissons Ratio (z) = -0.03458 0.37663
#
# Static dielectric constant tensor:
#      x y z
#    x 2.139450 -0.039970 -0.087820 
#    y -0.039970 1.975370 0.014650 
#    z -0.087820 0.014650 1.988020 
# 
# From -- ./inp_files/399156.got.cif
#   From: 2010.05.17/outbox.cif.g08.bks.cpg/sg2_200_cif.got.tgz:399156.got - 2010.06.03 11:33:40.
