data_PCOD9107992
_publ_section_title
;
Structure prediction by ZEFSAII (Michael W. Deem and Ramdas Pophale) SiO2 
 PCOD9107992
Probable space group: P -1
;
_chemical_formula_sum "Si O2"
_cell_formula_units_Z 16
_cell_length_a 7.273000
_cell_length_b 14.209436
_cell_length_c 12.405596
_cell_angle_alpha 50.620561
_cell_angle_beta 70.447094
_cell_angle_gamma 45.000852
_cell_volume 685.345000
_symmetry_space_group_name_H-M "P -1"
_symmetry_group_IT_number 2
_symmetry_cell_setting 'triclinic'
loop_
_space_group_symop_operation_xyz
x,y,z
-x,-y,-z
loop_
_atom_site_type_symbol
_atom_site_label
_atom_site_fract_x
_atom_site_fract_y
_atom_site_fract_z
Si Si1 0.779642 0.604949 0.559601
Si Si2 0.082616 0.989893 0.209849
Si Si3 0.062010 0.412452 0.864538
Si Si4 0.965374 0.712302 0.718577
Si Si5 0.492825 0.968121 0.301732
Si Si6 0.772222 0.320321 0.101287
Si Si7 0.686760 0.343930 0.497316
Si Si8 0.393870 0.932495 0.997011
O O1 0.682353 0.786202 0.448002
O O2 0.522068 0.637142 0.552417
O O3 0.000000 0.500000 0.500000
O O4 0.911249 0.496523 0.720454
O O5 0.803641 0.169294 0.165248
O O6 0.287973 0.977757 0.257768
O O7 0.143075 0.826630 0.345899
O O8 0.146983 0.990812 0.072776
O O9 0.971525 0.565219 0.842234
O O10 0.379896 0.267883 0.896813
O O11 0.982688 0.317239 0.000289
O O12 0.159801 0.697182 0.774822
O O13 0.104616 0.672262 0.605389
O O14 0.680221 0.889640 0.676618
O O15 0.631207 0.003367 0.165132
O O16 0.500000 0.500000 0.000000
O O17 0.500000 0.500000 0.500000
O O18 0.500000 0.000000 0.000000
#
# Coordination Sequence:
#
# PCOD9107992 Si02
#       8
#     2   2   2   2   2   2   2   2
#     4  11  23  38  62  99 124 166 213 256 315 368
#     4   9  19  36  63  89 120 170 208 248 318 375
#     4  12  22  38  66  91 127 163 210 262 306 378
#     4  11  23  41  63  92 126 170 211 252 323 373
#     4   9  20  36  60  92 124 166 207 258 307 378
#     4  11  23  39  62  95 127 165 210 263 313 373
#     4  11  23  42  65  91 130 165 208 264 317 382
#     4  10  16  35  62  87 117 164 210 247 304 373
#
# _framework density 23.345904999999998
#
# number of rings (size 3 to 8) (size 9 to 14) (size 15 to 20)
#    0.000    1.500    3.750    4.875    0.000    6.000 
#    0.000    1.250    2.750    2.250    0.000    0.000 
#    0.000    0.000    0.000    0.000    0.000    0.000 
#
# Total GULP energy -89469.644593 kJ/mol
# GULP energy per Si atom -5591.852787 kJ/mol
# Density = 2.329277 g / cm^3
# Si number density = 23.345905 Si / 1000 Ang^3
#
#
#
# Elastic Constant Matrix: (Units=GPa)
#
#
# Indices 1 2 3 4 5 6 
#
# 1 45.1049 11.9508 23.4302 3.0461 6.4933 6.2833
# 2 11.9508 169.3369 68.4342 -21.4176 -2.5048 14.1549
# 3 23.4302 68.4342 138.1443 -5.1745 -10.3328 8.7892
# 4 3.0461 -21.4176 -5.1745 52.1066 -1.5382 -7.2998
# 5 6.4933 -2.5048 -10.3328 -1.5382 28.6022 -4.8363
# 6 6.2833 14.1549 8.7892 -7.2998 -4.8363 23.8826
#
#
#
# Elastic Compliance Matrix: (Units=1/GPa)
#
#
# Indices 1 2 3 4 5 6 
#
# 1 0.027593 0.000249 -0.005118 -0.003506 -0.009728 -0.008566
# 2 0.000249 0.007951 -0.003789 0.002445 -0.001080 -0.002855
# 3 -0.005118 -0.003789 0.010285 0.000007 0.004674 0.000755
# 4 -0.003506 0.002445 0.000007 0.021437 0.003297 0.006690
# 5 -0.009728 -0.001080 0.004674 0.003297 0.040758 0.010741
# 6 -0.008566 -0.002855 0.000755 0.006690 0.010741 0.049759
#
#
# Mechanical properties :
#
#
# Convention : Reuss Voigt Hill
#
# Bulk Modulus (GPa) = 35.06785 62.24627 48.65706
# Shear Modulus (GPa) = 27.08525 37.50300 32.29413
#
# Velocity S-wave (km/s) = 3.40982 4.01235 3.72329
# Velocity P-wave (km/s) = 5.52776 6.94159 6.27463
#
# Compressibility (1/GPa) = 0.02851615
#
# Stress axis : x y z
#
# Youngs Moduli (GPa) = 36.24074 125.77319 97.22548
#
# Poissons Ratio (x) = -0.03138 0.49756
# Poissons Ratio (y) = -0.00904 0.36834
# Poissons Ratio (z) = 0.18546 0.47650
#
# Static dielectric constant tensor:
#      x y z
#    x 1.969580 -0.020430 0.022450 
#    y -0.020430 1.933350 -0.007670 
#    z 0.022450 -0.007670 1.866770 
# 
# From -- ./inp_files/398559.got.cif
#   From: 2010.05.17/outbox.cif.g08.bks.cpg/sg2_200_cif.got.tgz:398559.got - 2010.06.03 11:33:40.
