data_PCOD9107838
_publ_section_title
;
Structure prediction by ZEFSAII (Michael W. Deem and Ramdas Pophale) SiO2 
 PCOD9107838
Probable space group: P -1
;
_chemical_formula_sum "Si O2"
_cell_formula_units_Z 16
_cell_length_a 5.550856
_cell_length_b 13.259090
_cell_length_c 11.201839
_cell_angle_alpha 63.847712
_cell_angle_beta 75.464715
_cell_angle_gamma 92.126743
_cell_volume 705.929039
_symmetry_space_group_name_H-M "P -1"
_symmetry_group_IT_number 2
_symmetry_cell_setting 'triclinic'
loop_
_space_group_symop_operation_xyz
x,y,z
-x,-y,-z
loop_
_atom_site_type_symbol
_atom_site_label
_atom_site_fract_x
_atom_site_fract_y
_atom_site_fract_z
Si Si1 0.850153 0.079694 0.140614
Si Si2 0.356231 0.094383 0.911946
Si Si3 0.210356 0.491760 0.580867
Si Si4 0.792251 0.063219 0.433201
Si Si5 0.108129 0.680572 0.680704
Si Si6 0.117646 0.682463 0.955681
Si Si7 0.336851 0.489629 0.144878
Si Si8 0.341441 0.336622 0.829370
O O1 0.888422 0.082813 0.274784
O O2 0.734870 0.196783 0.075017
O O3 0.692567 0.958244 0.186273
O O4 0.096131 0.088322 0.022143
O O5 0.465254 0.228244 0.832966
O O6 0.500000 0.000000 0.000000
O O7 0.500000 0.500000 0.500000
O O8 0.199808 0.595819 0.619568
O O9 0.174503 0.372689 0.722417
O O10 0.000000 0.500000 0.500000
O O11 0.809597 0.187436 0.425719
O O12 0.500000 0.000000 0.500000
O O13 0.000000 0.000000 0.500000
O O14 0.182221 0.666029 0.818414
O O15 0.805545 0.636288 0.744696
O O16 0.143663 0.571161 0.084129
O O17 0.827747 0.692794 0.014338
O O18 0.469473 0.551842 0.210715
O O19 0.500000 0.500000 0.000000
#
# Coordination Sequence:
#
# PCOD9107838 Si02
#       8
#     2   2   2   2   2   2   2   2
#     4   9  22  41  65 100 137 178 239 291 361 424
#     4  10  21  40  68 102 142 186 230 299 369 427
#     4  12  28  48  67 100 146 199 245 286 343 435
#     4  11  28  49  74 103 138 191 247 300 351 424
#     4  11  24  47  72 103 141 182 241 302 367 420
#     4  10  20  40  66 103 132 167 226 308 366 421
#     4  12  21  35  69 107 139 173 221 296 381 428
#     4  11  23  40  66 101 140 182 241 288 362 427
#
# _framework density 22.665164999999998
#
# number of rings (size 3 to 8) (size 9 to 14) (size 15 to 20)
#    0.000    1.250    2.500    2.625    1.750    6.000 
#    0.000    0.000    0.000    0.000    0.000    0.000 
#    0.000    0.000    0.000    0.000    0.000    0.000 
#
# Total GULP energy -89195.314240 kJ/mol
# GULP energy per Si atom -5574.707140 kJ/mol
# Density = 2.261358 g / cm^3
# Si number density = 22.665165 Si / 1000 Ang^3
#
#
#
# Elastic Constant Matrix: (Units=GPa)
#
#
# Indices 1 2 3 4 5 6 
#
# 1 83.8070 58.7544 25.4546 -4.1670 8.5805 2.8410
# 2 58.7544 188.0091 44.9554 0.6323 8.9749 8.2762
# 3 25.4546 44.9554 68.4983 4.2306 0.5005 -1.5560
# 4 -4.1670 0.6323 4.2306 43.4760 -2.8538 -5.9522
# 5 8.5805 8.9749 0.5005 -2.8538 42.3023 -1.7682
# 6 2.8410 8.2762 -1.5560 -5.9522 -1.7682 29.3152
#
#
#
# Elastic Compliance Matrix: (Units=1/GPa)
#
#
# Indices 1 2 3 4 5 6 
#
# 1 0.016192 -0.004127 -0.003408 0.001745 -0.002266 -0.000368
# 2 -0.004127 0.007565 -0.003441 -0.000510 -0.000848 -0.002073
# 3 -0.003408 -0.003441 0.018265 -0.001704 0.001174 0.001996
# 4 0.001745 -0.000510 -0.001704 0.024115 0.001605 0.004878
# 5 -0.002266 -0.000848 0.001174 0.001605 0.024471 0.002323
# 6 -0.000368 -0.002073 0.001996 0.004878 0.002323 0.035969
#
#
# Mechanical properties :
#
#
# Convention : Reuss Voigt Hill
#
# Bulk Modulus (GPa) = 49.82323 66.51592 58.16958
# Shear Modulus (GPa) = 32.21290 37.09536 34.65413
#
# Velocity S-wave (km/s) = 3.77404 4.04996 3.91443
# Velocity P-wave (km/s) = 6.40478 7.16104 6.79344
#
# Compressibility (1/GPa) = 0.02007096
#
# Stress axis : x y z
#
# Youngs Moduli (GPa) = 61.76055 132.19418 54.74813
#
# Poissons Ratio (x) = 0.54551 0.18659
# Poissons Ratio (y) = 0.25486 0.18837
# Poissons Ratio (z) = 0.21049 0.45482
#
# Static dielectric constant tensor:
#      x y z
#    x 2.010060 -0.000620 -0.009170 
#    y -0.000620 1.949330 -0.078390 
#    z -0.009170 -0.078390 1.967190 
# 
# From -- ./inp_files/364041.got.cif
#   From: 2010.05.17/outbox.cif.g08.bks.cpg/sg2_183_cif.got.tgz:364041.got - 2010.06.03 11:33:40.
