data_PCOD9107440
_publ_section_title
;
Structure prediction by ZEFSAII (Michael W. Deem and Ramdas Pophale) SiO2 
 PCOD9107440
Probable space group: P -1
;
_chemical_formula_sum "Si O2"
_cell_formula_units_Z 16
_cell_length_a 7.519428
_cell_length_b 18.898135
_cell_length_c 12.132646
_cell_angle_alpha 31.939729
_cell_angle_beta 42.803016
_cell_angle_gamma 53.126567
_cell_volume 618.523363
_symmetry_space_group_name_H-M "P -1"
_symmetry_group_IT_number 2
_symmetry_cell_setting 'triclinic'
loop_
_space_group_symop_operation_xyz
x,y,z
-x,-y,-z
loop_
_atom_site_type_symbol
_atom_site_label
_atom_site_fract_x
_atom_site_fract_y
_atom_site_fract_z
Si Si1 0.996845 0.742978 0.344057
Si Si2 0.257028 0.231960 0.351060
Si Si3 0.797450 0.467246 0.035604
Si Si4 0.791286 0.172963 0.088124
Si Si5 0.535195 0.696579 0.274730
Si Si6 0.674357 0.198534 0.555447
Si Si7 0.005836 0.456009 0.711167
Si Si8 0.840392 0.939654 0.754007
O O1 0.243343 0.693246 0.367770
O O2 0.903615 0.596244 0.532059
O O3 0.808424 0.800085 0.447494
O O4 0.116470 0.835660 0.069342
O O5 0.486753 0.159234 0.281042
O O6 0.978229 0.210259 0.443539
O O7 0.339003 0.392682 0.100189
O O8 0.652219 0.324935 0.318645
O O9 0.000000 0.500000 0.000000
O O10 0.936772 0.447186 0.883160
O O11 0.961704 0.080308 0.208728
O O12 0.877173 0.325428 0.883345
O O13 0.518690 0.779416 0.285704
O O14 0.681935 0.564958 0.411027
O O15 0.707963 0.792197 0.987630
O O16 0.630645 0.048846 0.729262
O O17 0.000000 0.000000 0.500000
#
# Coordination Sequence:
#
# PCOD9107440 Si02
#       8
#     2   2   2   2   2   2   2   2
#     4  10  22  40  64  94 131 162 208 260 315 379
#     4   9  22  40  62 100 128 162 209 252 322 376
#     4   9  19  35  64  93 124 160 203 253 304 374
#     4  11  24  41  65  92 129 170 204 264 318 368
#     4  10  22  39  64  93 120 167 212 262 307 372
#     4  10  20  40  64  92 125 165 211 260 307 370
#     4  10  21  39  59  98 131 163 208 248 320 377
#     4  11  25  45  62  89 122 165 220 257 313 379
#
# _framework density 25.868061999999998
#
# number of rings (size 3 to 8) (size 9 to 14) (size 15 to 20)
#    0.000    2.000    0.000    3.375    7.000    2.500 
#   11.250    1.250    0.000    0.000    0.000    0.000 
#    0.000    0.000    0.000    0.000    0.000    0.000 
#
# Total GULP energy -89479.122208 kJ/mol
# GULP energy per Si atom -5592.445138 kJ/mol
# Density = 2.580918 g / cm^3
# Si number density = 25.868062 Si / 1000 Ang^3
#
#
#
# Elastic Constant Matrix: (Units=GPa)
#
#
# Indices 1 2 3 4 5 6 
#
# 1 72.6198 12.8033 19.8089 21.4211 2.3426 -16.5517
# 2 12.8033 78.3639 42.6895 1.7151 25.6733 -11.2334
# 3 19.8089 42.6895 133.9541 17.7747 29.9182 -5.2219
# 4 21.4211 1.7151 17.7747 41.7955 12.6689 -0.7768
# 5 2.3426 25.6733 29.9182 12.6689 39.0233 7.1071
# 6 -16.5517 -11.2334 -5.2219 -0.7768 7.1071 32.2056
#
#
#
# Elastic Compliance Matrix: (Units=1/GPa)
#
#
# Indices 1 2 3 4 5 6 
#
# 1 0.019128 -0.002047 -0.001184 -0.009935 0.002865 0.008053
# 2 -0.002047 0.021026 -0.003612 0.006332 -0.014651 0.009082
# 3 -0.001184 -0.003612 0.010177 -0.002098 -0.004819 0.000795
# 4 -0.009935 0.006332 -0.002098 0.033581 -0.012941 0.000429
# 5 0.002865 -0.014651 -0.004819 -0.012941 0.045686 -0.014813
# 6 0.008053 0.009082 0.000795 0.000429 -0.014813 0.041765
#
#
# Mechanical properties :
#
#
# Convention : Reuss Voigt Hill
#
# Bulk Modulus (GPa) = 27.28884 48.39349 37.84116
# Shear Modulus (GPa) = 25.34678 36.58060 30.96369
#
# Velocity S-wave (km/s) = 3.13365 3.76456 3.46350
# Velocity P-wave (km/s) = 4.86468 6.13550 5.53667
#
# Compressibility (1/GPa) = 0.03664502
#
# Stress axis : x y z
#
# Youngs Moduli (GPa) = 52.28047 47.55938 98.26067
#
# Poissons Ratio (x) = 0.09735 0.11633
# Poissons Ratio (y) = 0.10702 0.35493
# Poissons Ratio (z) = 0.06190 0.17179
#
# Static dielectric constant tensor:
#      x y z
#    x 2.108020 0.019280 -0.054510 
#    y 0.019280 2.005600 -0.007740 
#    z -0.054510 -0.007740 2.041430 
# 
# From -- ./inp_files/181577.got.cif
#   From: 2010.05.17/outbox.cif.g08.bks.cpg/sg2_91_cif.got.tgz:181577.got - 2010.06.03 11:33:40.
