data_PCOD9107603
_publ_section_title
;
Structure prediction by ZEFSAII (Michael W. Deem and Ramdas Pophale) SiO2 
 PCOD9107603
Probable space group: P -1
;
_chemical_formula_sum "Si O2"
_cell_formula_units_Z 16
_cell_length_a 18.489891
_cell_length_b 11.094577
_cell_length_c 6.590066
_cell_angle_alpha 54.604762
_cell_angle_beta 109.222110
_cell_angle_gamma 138.285432
_cell_volume 719.924440
_symmetry_space_group_name_H-M "P -1"
_symmetry_group_IT_number 2
_symmetry_cell_setting 'triclinic'
loop_
_space_group_symop_operation_xyz
x,y,z
-x,-y,-z
loop_
_atom_site_type_symbol
_atom_site_label
_atom_site_fract_x
_atom_site_fract_y
_atom_site_fract_z
Si Si1 0.190017 0.451911 0.059751
Si Si2 0.424962 0.917036 0.815645
Si Si3 0.090993 0.502602 0.593891
Si Si4 0.280731 0.321807 0.969101
Si Si5 0.516097 0.779742 0.759562
Si Si6 0.752015 0.030640 0.824053
Si Si7 0.134316 0.042940 0.754891
Si Si8 0.975016 0.836584 0.451482
O O1 0.299782 0.699479 0.967156
O O2 0.108166 0.450878 0.874470
O O3 0.226744 0.371206 0.016357
O O4 0.127456 0.311860 0.338402
O O5 0.465138 0.847398 0.764970
O O6 0.441230 0.095499 0.539039
O O7 0.500000 0.000000 0.000000
O O8 0.052203 0.322696 0.581020
O O9 0.000000 0.500000 0.500000
O O10 0.204015 0.746947 0.408995
O O11 0.412457 0.525414 0.894502
O O12 0.238695 0.269606 0.745693
O O13 0.244097 0.102181 0.202479
O O14 0.621063 0.865246 0.897944
O O15 0.832540 0.076046 0.027613
O O16 0.036884 0.012278 0.789482
O O17 0.086208 0.964403 0.559073
#
# Coordination Sequence:
#
# PCOD9107603 Si02
#       8
#     2   2   2   2   2   2   2   2
#     4  11  23  41  66  92 123 170 210 256 311 379
#     4  10  23  36  62  97 120 164 210 252 310 377
#     4  12  25  42  64  93 129 163 207 263 318 372
#     4   9  21  41  63  90 123 167 210 250 310 370
#     4  10  20  40  65  87 131 161 205 258 309 369
#     4  10  21  39  66  94 123 168 200 262 315 368
#     4   9  22  41  64  93 121 170 214 252 312 368
#     4  11  24  43  66  91 125 170 213 259 306 375
#
# _framework density 22.224556
#
# number of rings (size 3 to 8) (size 9 to 14) (size 15 to 20)
#    0.750    1.000    2.500    1.125    3.500    4.500 
#    0.000    1.250    0.000    3.750    0.000    0.000 
#    0.000    0.000    0.000    0.000    0.000    0.000 
#
# Total GULP energy -89074.127443 kJ/mol
# GULP energy per Si atom -5567.132965 kJ/mol
# Density = 2.217397 g / cm^3
# Si number density = 22.224556 Si / 1000 Ang^3
#
#
#
# Elastic Constant Matrix: (Units=GPa)
#
#
# Indices 1 2 3 4 5 6 
#
# 1 59.7413 11.3605 18.9039 -1.8797 15.7448 22.0833
# 2 11.3605 125.2491 44.9398 5.5512 -0.6004 15.9819
# 3 18.9039 44.9398 76.4651 -2.4715 13.3936 16.9910
# 4 -1.8797 5.5512 -2.4715 22.6886 3.0432 5.6286
# 5 15.7448 -0.6004 13.3936 3.0432 31.0948 -3.3399
# 6 22.0833 15.9819 16.9910 5.6286 -3.3399 37.7839
#
#
#
# Elastic Compliance Matrix: (Units=1/GPa)
#
#
# Indices 1 2 3 4 5 6 
#
# 1 0.029380 -0.001187 0.001673 0.010565 -0.018874 -0.020664
# 2 -0.001187 0.010760 -0.006965 -0.004124 0.004241 0.000264
# 3 0.001673 -0.006965 0.021339 0.008244 -0.012045 -0.009920
# 4 0.010565 -0.004124 0.008244 0.053358 -0.016083 -0.017508
# 5 -0.018874 0.004241 -0.012045 -0.016083 0.050875 0.021547
# 6 -0.020664 0.000264 -0.009920 -0.017508 0.021547 0.047406
#
#
# Mechanical properties :
#
#
# Convention : Reuss Voigt Hill
#
# Bulk Modulus (GPa) = 20.60976 45.76263 33.18620
# Shear Modulus (GPa) = 20.63985 30.73022 25.68503
#
# Velocity S-wave (km/s) = 3.05076 3.72252 3.40325
# Velocity P-wave (km/s) = 4.65865 6.25395 5.51430
#
# Compressibility (1/GPa) = 0.04852070
#
# Stress axis : x y z
#
# Youngs Moduli (GPa) = 34.03653 92.93319 46.86360
#
# Poissons Ratio (x) = 0.11034 -0.07842
# Poissons Ratio (y) = 0.04041 0.32642
# Poissons Ratio (z) = -0.05696 0.64732
#
# Static dielectric constant tensor:
#      x y z
#    x 1.835320 0.001360 0.022710 
#    y 0.001360 1.920260 -0.109670 
#    z 0.022710 -0.109670 1.961880 
# 
# From -- ./inp_files/118075.got.cif
#   From: 2010.05.17/outbox.cif.g08.bks.cpg/sg2_60_cif.got.tgz:118075.got - 2010.06.03 11:33:40.
