data_PCOD9107382
_publ_section_title
;
Structure prediction by ZEFSAII (Michael W. Deem and Ramdas Pophale) SiO2 
 PCOD9107382
Probable space group: P -1
;
_chemical_formula_sum "Si O2"
_cell_formula_units_Z 15
_cell_length_a 8.508282
_cell_length_b 13.885674
_cell_length_c 11.902394
_cell_angle_alpha 149.534072
_cell_angle_beta 117.638718
_cell_angle_gamma 69.786631
_cell_volume 626.979058
_symmetry_space_group_name_H-M "P -1"
_symmetry_group_IT_number 2
_symmetry_cell_setting 'triclinic'
loop_
_space_group_symop_operation_xyz
x,y,z
-x,-y,-z
loop_
_atom_site_type_symbol
_atom_site_label
_atom_site_fract_x
_atom_site_fract_y
_atom_site_fract_z
Si Si1 0.383248 0.916603 0.612089
Si Si2 0.748738 0.407019 0.897366
Si Si3 0.730894 0.792478 0.697421
Si Si4 0.768841 0.817267 0.992735
Si Si5 0.588805 0.767541 0.243570
Si Si6 0.000000 0.500000 0.500000
Si Si7 0.939685 0.482952 0.717919
Si Si8 0.919595 0.902235 0.651836
O O1 0.233456 0.752049 0.351188
O O2 0.538734 0.800021 0.588859
O O3 0.338459 0.062562 0.839396
O O4 0.438742 0.054862 0.664730
O O5 0.594812 0.315004 0.840471
O O6 0.668665 0.601157 0.031430
O O7 0.929243 0.464240 0.082207
O O8 0.808796 0.591123 0.521330
O O9 0.862587 0.916130 0.776898
O O10 0.729058 0.860606 0.893433
O O11 0.764109 0.590044 0.781444
O O12 0.976353 0.905077 0.167335
O O13 0.744521 0.828285 0.447910
O O14 0.016475 0.558746 0.698583
O O15 0.940337 0.256003 0.469831
#
# Coordination Sequence:
#
# PCOD9107382 Si02
#       8
#     2   2   2   2   2   1   2   2
#     4  12  24  39  61  94 129 160 199 256 307 371
#     4  10  21  39  63  93 121 164 201 254 308 359
#     4  10  21  41  65  87 122 164 210 255 295 361
#     4  11  24  39  59  90 129 166 199 245 318 357
#     4  10  22  38  62  95 122 154 209 255 307 358
#     4   8  18  38  62  88 114 154 202 256 292 340
#     4   9  20  37  62  86 122 156 207 247 297 360
#     4  10  20  40  64  89 118 159 212 258 290 360
#
# _framework density 23.924246
#
# number of rings (size 3 to 8) (size 9 to 14) (size 15 to 20)
#    0.000    1.867    1.333    2.000    3.733    3.200 
#    0.000    2.667    0.000    6.400    0.000    0.000 
#    0.000    0.000    0.000    0.000    0.000    0.000 
#
# Total GULP energy -83556.769335 kJ/mol
# GULP energy per Si atom -5570.451289 kJ/mol
# Density = 2.386979 g / cm^3
# Si number density = 23.924246 Si / 1000 Ang^3
#
#
#
# Elastic Constant Matrix: (Units=GPa)
#
#
# Indices 1 2 3 4 5 6 
#
# 1 35.0174 33.8794 15.5159 -5.0733 -18.8553 2.2057
# 2 33.8794 107.9249 44.3743 5.6208 -15.1834 -16.7083
# 3 15.5159 44.3743 86.8720 5.0815 -37.0580 -4.3348
# 4 -5.0733 5.6208 5.0815 34.6889 -0.0108 -5.9804
# 5 -18.8553 -15.1834 -37.0580 -0.0108 49.8379 3.8113
# 6 2.2057 -16.7083 -4.3348 -5.9804 3.8113 19.1368
#
#
#
# Elastic Compliance Matrix: (Units=1/GPa)
#
#
# Indices 1 2 3 4 5 6 
#
# 1 0.069632 -0.028483 0.012667 0.007143 0.029664 -0.033701
# 2 -0.028483 0.025304 -0.012585 -0.002169 -0.014314 0.024698
# 3 0.012667 -0.012585 0.023397 -0.001503 0.019231 -0.011448
# 4 0.007143 -0.002169 -0.001503 0.031606 0.000416 0.006737
# 5 0.029664 -0.014314 0.019231 0.000416 0.042752 -0.019945
# 6 -0.033701 0.024698 -0.011448 0.006737 -0.019945 0.081188
#
#
# Mechanical properties :
#
#
# Convention : Reuss Voigt Hill
#
# Bulk Modulus (GPa) = 16.25157 46.37261 31.31209
# Shear Modulus (GPa) = 14.23720 29.80235 22.01977
#
# Velocity S-wave (km/s) = 2.44210 3.53327 3.03709
# Velocity P-wave (km/s) = 3.84181 6.00587 5.04133
#
# Compressibility (1/GPa) = 0.06153250
#
# Stress axis : x y z
#
# Youngs Moduli (GPa) = 14.36112 39.51910 42.73967
#
# Poissons Ratio (x) = 1.12562 -0.54139
# Poissons Ratio (y) = 0.40905 0.53788
# Poissons Ratio (z) = -0.18191 0.49735
#
# Static dielectric constant tensor:
#      x y z
#    x 1.942920 0.050140 -0.006150 
#    y 0.050140 1.899540 0.022420 
#    z -0.006150 0.022420 1.920950 
# 
# From -- ./inp_files/277314.got.cif
#   From: 2010.05.17/outbox.cif.g08.bks.cpg/sg2_139_cif.got.tgz:277314.got - 2010.06.03 11:33:40.
