data_PCOD9107262
_publ_section_title
;
Structure prediction by ZEFSAII (Michael W. Deem and Ramdas Pophale) SiO2 
 PCOD9107262
Probable space group: P -1
;
_chemical_formula_sum "Si O2"
_cell_formula_units_Z 16
_cell_length_a 5.539007
_cell_length_b 5.284576
_cell_length_c 23.048403
_cell_angle_alpha 98.108438
_cell_angle_beta 111.753940
_cell_angle_gamma 95.285139
_cell_volume 612.650245
_symmetry_space_group_name_H-M "P -1"
_symmetry_group_IT_number 2
_symmetry_cell_setting 'triclinic'
loop_
_space_group_symop_operation_xyz
x,y,z
-x,-y,-z
loop_
_atom_site_type_symbol
_atom_site_label
_atom_site_fract_x
_atom_site_fract_y
_atom_site_fract_z
Si Si1 0.814356 0.795668 0.516521
Si Si2 0.584899 0.536577 0.189118
Si Si3 0.410069 0.854503 0.397053
Si Si4 0.208870 0.721934 0.630257
Si Si5 0.107574 0.909950 0.751602
Si Si6 0.306697 0.454140 0.926323
Si Si7 0.346068 0.504682 0.282573
Si Si8 0.820025 0.038393 0.041007
O O1 0.572922 0.690365 0.449647
O O2 0.979578 0.612517 0.561234
O O3 0.721868 0.973068 0.564514
O O4 0.000000 0.000000 0.500000
O O5 0.518382 0.512138 0.114712
O O6 0.383388 0.594966 0.222830
O O7 0.697310 0.276283 0.209533
O O8 0.805008 0.792411 0.216932
O O9 0.238624 0.673000 0.329003
O O10 0.598267 0.062403 0.381329
O O11 0.367193 0.514774 0.666271
O O12 0.111836 0.865075 0.681696
O O13 0.821724 0.779189 0.742884
O O14 0.122188 0.672854 0.919876
O O15 0.145915 0.171635 0.914075
O O16 0.500000 0.500000 0.000000
O O17 0.500000 0.000000 0.000000
O O18 0.000000 0.000000 0.000000
#
# Coordination Sequence:
#
# PCOD9107262 Si02
#       8
#     2   2   2   2   2   2   2   2
#     4   9  20  36  64  95 133 173 229 292 360 423
#     4  11  25  48  68 107 146 182 245 292 361 429
#     4  10  20  40  63  95 133 177 232 290 358 426
#     4  10  21  40  63  92 135 176 229 292 353 419
#     4  11  25  42  71 103 140 190 239 294 352 429
#     4  10  22  45  74 105 146 189 234 303 366 438
#     4  11  25  41  71  96 135 189 236 291 355 428
#     4  10  21  42  72 107 147 193 241 290 366 442
#
# _framework density 26.116040999999999
#
# number of rings (size 3 to 8) (size 9 to 14) (size 15 to 20)
#    0.000    1.750    1.250    1.875    3.500    1.500 
#   13.500    8.750    0.000    0.000    0.000    0.000 
#    0.000    0.000    0.000    0.000    0.000    0.000 
#
# Total GULP energy -89528.969180 kJ/mol
# GULP energy per Si atom -5595.560574 kJ/mol
# Density = 2.605660 g / cm^3
# Si number density = 26.116041 Si / 1000 Ang^3
#
#
#
# Elastic Constant Matrix: (Units=GPa)
#
#
# Indices 1 2 3 4 5 6 
#
# 1 87.6327 21.3575 41.0697 -5.8705 -32.7124 13.8035
# 2 21.3575 113.4903 11.9767 -10.2350 -7.2137 -2.8303
# 3 41.0697 11.9767 183.5274 -12.8872 -35.3802 8.5784
# 4 -5.8705 -10.2350 -12.8872 33.0298 8.1322 -6.7904
# 5 -32.7124 -7.2137 -35.3802 8.1322 39.2790 -3.9337
# 6 13.8035 -2.8303 8.5784 -6.7904 -3.9337 35.3817
#
#
#
# Elastic Compliance Matrix: (Units=1/GPa)
#
#
# Indices 1 2 3 4 5 6 
#
# 1 0.018653 -0.002904 -0.001217 -0.002745 0.013852 -0.006201
# 2 -0.002904 0.009644 -0.000088 0.003218 -0.001151 0.002415
# 3 -0.001217 -0.000088 0.006745 0.001127 0.004770 -0.000421
# 4 -0.002745 0.003218 0.001127 0.034387 -0.007112 0.006864
# 5 0.013852 -0.001151 0.004770 -0.007112 0.042221 -0.003324
# 6 -0.006201 0.002415 -0.000421 0.006864 -0.003324 0.031925
#
#
# Mechanical properties :
#
#
# Convention : Reuss Voigt Hill
#
# Bulk Modulus (GPa) = 37.55913 59.27314 48.41614
# Shear Modulus (GPa) = 31.08123 42.22120 36.65122
#
# Velocity S-wave (km/s) = 3.45355 4.02515 3.75026
# Velocity P-wave (km/s) = 5.50596 6.65942 6.10997
#
# Compressibility (1/GPa) = 0.02662468
#
# Stress axis : x y z
#
# Youngs Moduli (GPa) = 53.60999 103.68765 148.24967
#
# Poissons Ratio (x) = 0.30106 0.18044
# Poissons Ratio (y) = 0.15566 0.01311
# Poissons Ratio (z) = 0.06525 0.00917
#
# Static dielectric constant tensor:
#      x y z
#    x 2.091630 -0.086490 0.016940 
#    y -0.086490 2.120340 -0.022880 
#    z 0.016940 -0.022880 2.014220 
# 
# From -- ./inp_files/14776.got.cif
#   From: 2010.05.17/outbox.cif.g08.bks.cpg/sg2_8_cif.got.tgz:14776.got - 2010.06.03 11:33:40.
