data_PCOD9107696
_publ_section_title
;
Structure prediction by ZEFSAII (Michael W. Deem and Ramdas Pophale) SiO2 
 PCOD9107696
Probable space group: P -1
;
_chemical_formula_sum "Si O2"
_cell_formula_units_Z 14
_cell_length_a 13.518978
_cell_length_b 18.288829
_cell_length_c 7.982448
_cell_angle_alpha 128.409902
_cell_angle_beta 131.350488
_cell_angle_gamma 21.068772
_cell_volume 532.523082
_symmetry_space_group_name_H-M "P -1"
_symmetry_group_IT_number 2
_symmetry_cell_setting 'triclinic'
loop_
_space_group_symop_operation_xyz
x,y,z
-x,-y,-z
loop_
_atom_site_type_symbol
_atom_site_label
_atom_site_fract_x
_atom_site_fract_y
_atom_site_fract_z
Si Si1 0.765798 0.763570 0.491177
Si Si2 0.659635 0.678286 0.982230
Si Si3 0.165052 0.962899 0.014335
Si Si4 0.291562 0.640759 0.133401
Si Si5 0.578733 0.118321 0.494487
Si Si6 0.301397 0.464980 0.483550
Si Si7 0.748582 0.916559 0.096185
O O1 0.707355 0.762701 0.612127
O O2 0.044043 0.646951 0.583575
O O3 0.500000 0.000000 0.500000
O O4 0.798122 0.652757 0.247451
O O5 0.809956 0.521033 0.786678
O O6 0.454069 0.884498 0.954422
O O7 0.438774 0.747611 0.924419
O O8 0.292858 0.953603 0.279645
O O9 0.947877 0.137705 0.886600
O O10 0.000000 0.000000 0.000000
O O11 0.505315 0.566562 0.384938
O O12 0.062763 0.710486 0.062790
O O13 0.500000 0.500000 0.000000
O O14 0.486535 0.272126 0.522122
O O15 0.806738 0.928436 0.357057
O O16 0.500000 0.000000 0.000000
#
# Coordination Sequence:
#
# PCOD9107696 Si02
#       7
#     2   2   2   2   2   2   2
#     4  11  23  40  67  98 137 175 219 270 334 392
#     4   9  22  39  65  96 127 178 220 266 326 398
#     4  10  20  40  65  92 129 165 217 268 332 394
#     4  11  26  42  65 100 134 175 221 281 335 387
#     4  10  22  39  68  95 122 178 222 263 326 399
#     4  11  23  41  66  95 135 169 228 277 323 395
#     4  10  22  42  67  94 134 176 219 267 338 401
#
# _framework density 26.289939
#
# number of rings (size 3 to 8) (size 9 to 14) (size 15 to 20)
#    0.000    1.714    1.429    1.714   10.000    1.714 
#    0.000    3.571    0.000    0.000    0.000    0.000 
#    0.000    0.000    0.000    0.000    0.000    0.000 
#
# Total GULP energy -77954.256535 kJ/mol
# GULP energy per Si atom -5568.161181 kJ/mol
# Density = 2.623010 g / cm^3
# Si number density = 26.289939 Si / 1000 Ang^3
#
#
#
# Elastic Constant Matrix: (Units=GPa)
#
#
# Indices 1 2 3 4 5 6 
#
# 1 142.6863 39.3686 15.1785 7.7129 17.9862 -60.1862
# 2 39.3686 106.9609 24.6543 13.5771 8.2478 -39.1897
# 3 15.1785 24.6543 84.8540 13.0695 -11.0476 -23.4354
# 4 7.7129 13.5771 13.0695 29.0052 -14.2452 -13.1251
# 5 17.9862 8.2478 -11.0476 -14.2452 40.6899 1.2924
# 6 -60.1862 -39.1897 -23.4354 -13.1251 1.2924 59.8616
#
#
#
# Elastic Compliance Matrix: (Units=1/GPa)
#
#
# Indices 1 2 3 4 5 6 
#
# 1 0.013785 0.000788 0.000582 -0.001153 -0.006960 0.014501
# 2 0.000788 0.013415 -0.001828 -0.004771 -0.005486 0.007932
# 3 0.000582 -0.001828 0.014158 -0.002198 0.003049 0.004383
# 4 -0.001153 -0.004771 -0.002198 0.049193 0.017935 0.005256
# 5 -0.006960 -0.005486 0.003049 0.017935 0.036069 -0.006242
# 6 0.014501 0.007932 0.004383 0.005256 -0.006242 0.039481
#
#
# Mechanical properties :
#
#
# Convention : Reuss Voigt Hill
#
# Bulk Modulus (GPa) = 24.72613 54.76711 39.74662
# Shear Modulus (GPa) = 27.70100 42.93132 35.31616
#
# Velocity S-wave (km/s) = 3.24955 4.04542 3.66913
# Velocity P-wave (km/s) = 4.84820 6.53435 5.75338
#
# Compressibility (1/GPa) = 0.04044304
#
# Stress axis : x y z
#
# Youngs Moduli (GPa) = 72.54027 74.54276 70.63167
#
# Poissons Ratio (x) = -0.05875 -0.04108
# Poissons Ratio (y) = -0.05717 0.12908
# Poissons Ratio (z) = -0.04219 0.13623
#
# Static dielectric constant tensor:
#      x y z
#    x -6.516050 3.079990 -15.566760 
#    y 3.079990 0.947190 5.641360 
#    z -15.566760 5.641360 -25.821300 
# 
# From -- ./inp_files/319480.got.cif
#   From: 2010.05.17/outbox.cif.g08.bks.cpg/sg2_160_cif.got.tgz:319480.got - 2010.06.03 11:33:40.
