data_PCOD9107237
_publ_section_title
;
Structure prediction by ZEFSAII (Michael W. Deem and Ramdas Pophale) SiO2 
 PCOD9107237
Probable space group: P -1
;
_chemical_formula_sum "Si O2"
_cell_formula_units_Z 16
_cell_length_a 11.067130
_cell_length_b 8.588806
_cell_length_c 8.208633
_cell_angle_alpha 88.162715
_cell_angle_beta 89.560496
_cell_angle_gamma 69.296383
_cell_volume 729.490149
_symmetry_space_group_name_H-M "P -1"
_symmetry_group_IT_number 2
_symmetry_cell_setting 'triclinic'
loop_
_space_group_symop_operation_xyz
x,y,z
-x,-y,-z
loop_
_atom_site_type_symbol
_atom_site_label
_atom_site_fract_x
_atom_site_fract_y
_atom_site_fract_z
Si Si1 0.792245 0.494917 0.184950
Si Si2 0.645896 0.102589 0.114457
Si Si3 0.378146 0.936605 0.509881
Si Si4 0.971483 0.447055 0.816840
Si Si5 0.749421 0.742239 0.638817
Si Si6 0.111018 0.819373 0.001935
Si Si7 0.638804 0.778914 0.976498
Si Si8 0.438302 0.377301 0.577155
O O1 0.872090 0.302540 0.152368
O O2 0.660940 0.535689 0.283470
O O3 0.886177 0.583024 0.257955
O O4 0.734041 0.593276 0.015959
O O5 0.639100 0.130872 0.308669
O O6 0.756271 0.144271 0.015275
O O7 0.508142 0.205372 0.033998
O O8 0.658836 0.909004 0.099449
O O9 0.434919 0.786365 0.386566
O O10 0.500000 0.000000 0.500000
O O11 0.251709 0.096698 0.467655
O O12 0.875690 0.594839 0.704241
O O13 0.923255 0.292111 0.852199
O O14 0.000000 0.500000 0.000000
O O15 0.677288 0.828912 0.800990
O O16 0.654980 0.665665 0.550528
O O17 0.000000 0.000000 0.000000
O O18 0.500000 0.500000 0.500000
#
# Coordination Sequence:
#
# PCOD9107237 Si02
#       8
#     2   2   2   2   2   2   2   2
#     4  11  24  42  66  93 129 177 218 267 324 390
#     4  11  23  37  66 102 131 167 216 268 331 386
#     4  10  20  40  63  93 132 169 207 256 322 394
#     4  10  22  45  66  94 128 171 226 273 317 383
#     4  11  22  41  68  95 129 179 216 261 323 395
#     4  11  24  41  65  92 129 169 218 279 325 375
#     4  11  21  38  67  99 128 169 221 266 327 390
#     4  11  24  42  65  99 141 168 207 271 334 387
#
# _framework density 21.933126999999999
#
# number of rings (size 3 to 8) (size 9 to 14) (size 15 to 20)
#    0.000    1.250    5.000    3.000    3.500    2.000 
#    0.000    0.000    0.000    4.500    0.000    0.000 
#    0.000    0.000    0.000    0.000    0.000    0.000 
#
# Total GULP energy -89113.500238 kJ/mol
# GULP energy per Si atom -5569.593765 kJ/mol
# Density = 2.188321 g / cm^3
# Si number density = 21.933127 Si / 1000 Ang^3
#
#
#
# Elastic Constant Matrix: (Units=GPa)
#
#
# Indices 1 2 3 4 5 6 
#
# 1 125.0473 49.8604 22.7187 -31.7437 -15.6845 -7.6191
# 2 49.8604 136.1515 30.0159 -24.1049 -0.1810 -25.8022
# 3 22.7187 30.0159 54.4444 -7.1166 -1.7891 -0.9819
# 4 -31.7437 -24.1049 -7.1166 37.3911 -3.5797 0.6376
# 5 -15.6845 -0.1810 -1.7891 -3.5797 33.9301 -9.7108
# 6 -7.6191 -25.8022 -0.9819 0.6376 -9.7108 22.8397
#
#
#
# Elastic Compliance Matrix: (Units=1/GPa)
#
#
# Indices 1 2 3 4 5 6 
#
# 1 0.013221 -0.000953 -0.003169 0.010753 0.008998 0.006722
# 2 -0.000953 0.013184 -0.005536 0.006808 0.004674 0.016135
# 3 -0.003169 -0.005536 0.022238 -0.002156 -0.002676 -0.007433
# 4 0.010753 0.006808 -0.002156 0.040898 0.013757 0.015893
# 5 0.008998 0.004674 -0.002676 0.013757 0.042347 0.025787
# 6 0.006722 0.016135 -0.007433 0.015893 0.025787 0.074454
#
#
# Mechanical properties :
#
#
# Convention : Reuss Voigt Hill
#
# Bulk Modulus (GPa) = 34.09924 57.87035 45.98479
# Shear Modulus (GPa) = 21.23750 33.03540 27.13645
#
# Velocity S-wave (km/s) = 3.11510 3.88517 3.52125
# Velocity P-wave (km/s) = 5.34033 6.82410 6.12729
#
# Compressibility (1/GPa) = 0.02932616
#
# Stress axis : x y z
#
# Youngs Moduli (GPa) = 75.63960 75.85142 44.96839
#
# Poissons Ratio (x) = 0.07231 0.14249
# Poissons Ratio (y) = 0.07211 0.24894
# Poissons Ratio (z) = 0.23968 0.41991
#
# Static dielectric constant tensor:
#      x y z
#    x 1.846270 -0.021310 -0.028810 
#    y -0.021310 1.909920 0.060380 
#    z -0.028810 0.060380 1.901490 
# 
# From -- ./inp_files/242988.got.cif
#   From: 2010.05.17/outbox.cif.g08.bks.cpg/sg2_122_cif.got.tgz:242988.got - 2010.06.03 11:33:40.
