data_PCOD9107700
_publ_section_title
;
Structure prediction by ZEFSAII (Michael W. Deem and Ramdas Pophale) SiO2 
 PCOD9107700
Probable space group: P -1
;
_chemical_formula_sum "Si O2"
_cell_formula_units_Z 15
_cell_length_a 9.321028
_cell_length_b 9.036113
_cell_length_c 14.101955
_cell_angle_alpha 98.791498
_cell_angle_beta 128.098602
_cell_angle_gamma 49.958790
_cell_volume 654.217543
_symmetry_space_group_name_H-M "P -1"
_symmetry_group_IT_number 2
_symmetry_cell_setting 'triclinic'
loop_
_space_group_symop_operation_xyz
x,y,z
-x,-y,-z
loop_
_atom_site_type_symbol
_atom_site_label
_atom_site_fract_x
_atom_site_fract_y
_atom_site_fract_z
Si Si1 0.317898 0.603052 0.222217
Si Si2 0.390941 0.232280 0.462585
Si Si3 0.650196 0.908564 0.268848
Si Si4 0.173002 0.992632 0.143280
Si Si5 0.702555 0.172266 0.422848
Si Si6 0.000000 0.500000 0.500000
Si Si7 0.293095 0.541028 0.986121
Si Si8 0.933281 0.628170 0.181843
O O1 0.268840 0.807269 0.233132
O O2 0.565504 0.404656 0.360618
O O3 0.077638 0.645938 0.165759
O O4 0.356300 0.543753 0.120992
O O5 0.627878 0.179313 0.501422
O O6 0.248588 0.353526 0.513628
O O7 0.156383 0.408948 0.309984
O O8 0.500000 0.000000 0.500000
O O9 0.405142 0.941779 0.181352
O O10 0.866135 0.713619 0.406046
O O11 0.772089 0.826402 0.206710
O O12 0.583550 0.109996 0.301530
O O13 0.980375 0.225381 0.129162
O O14 0.000000 0.000000 0.000000
O O15 0.000000 0.000000 0.500000
O O16 0.256049 0.386510 0.940144
O O17 0.500000 0.500000 0.000000
#
# Coordination Sequence:
#
# PCOD9107700 Si02
#       8
#     2   2   2   2   2   1   2   2
#     4  10  23  43  63  98 136 176 226 290 345 413
#     4  10  20  40  65  92 131 177 228 281 337 410
#     4  11  23  43  66  98 137 179 233 281 345 416
#     4  10  22  41  67  95 130 173 229 279 337 415
#     4  11  25  44  68 102 142 184 234 288 359 411
#     4  10  22  38  68 100 126 184 238 278 338 406
#     4  11  23  42  67  96 130 181 231 281 348 424
#     4  10  22  40  64  97 134 174 225 285 350 408
#
# _framework density 22.928152000000001
#
# number of rings (size 3 to 8) (size 9 to 14) (size 15 to 20)
#    0.000    1.600    1.333    3.600    1.867    3.200 
#    2.400    6.000    0.000    0.000    0.000    0.000 
#    0.000    0.000    0.000    0.000    0.000    0.000 
#
# Total GULP energy -83576.129610 kJ/mol
# GULP energy per Si atom -5571.741974 kJ/mol
# Density = 2.287597 g / cm^3
# Si number density = 22.928152 Si / 1000 Ang^3
#
#
#
# Elastic Constant Matrix: (Units=GPa)
#
#
# Indices 1 2 3 4 5 6 
#
# 1 206.3924 51.7197 42.2550 3.8135 -2.6197 -42.3139
# 2 51.7197 94.1728 12.7634 -11.2642 -5.9897 -21.1061
# 3 42.2550 12.7634 31.0973 -7.6403 -5.8824 -0.4930
# 4 3.8135 -11.2642 -7.6403 40.5837 2.1974 -1.6349
# 5 -2.6197 -5.9897 -5.8824 2.1974 40.4094 2.8763
# 6 -42.3139 -21.1061 -0.4930 -1.6349 2.8763 40.6661
#
#
#
# Elastic Compliance Matrix: (Units=1/GPa)
#
#
# Indices 1 2 3 4 5 6 
#
# 1 0.010283 -0.002200 -0.014261 -0.003764 -0.002199 0.009389
# 2 -0.002200 0.013632 -0.001366 0.003868 0.001124 0.004845
# 3 -0.014261 -0.001366 0.055848 0.010465 0.007500 -0.014980
# 4 -0.003764 0.003868 0.010465 0.027990 0.000379 -0.000684
# 5 -0.002199 0.001124 0.007500 0.000379 0.026087 -0.003444
# 6 0.009389 0.004845 -0.014980 -0.000684 -0.003444 0.036909
#
#
# Mechanical properties :
#
#
# Convention : Reuss Voigt Hill
#
# Bulk Modulus (GPa) = 22.67111 60.57098 41.62104
# Shear Modulus (GPa) = 22.61361 39.32681 30.97021
#
# Velocity S-wave (km/s) = 3.14392 4.14601 3.67924
# Velocity P-wave (km/s) = 4.80503 7.02811 6.02008
#
# Compressibility (1/GPa) = 0.04410901
#
# Stress axis : x y z
#
# Youngs Moduli (GPa) = 97.25075 73.35500 17.90572
#
# Poissons Ratio (x) = 0.16141 0.25535
# Poissons Ratio (y) = 0.21399 0.02445
# Poissons Ratio (z) = 1.38690 0.10017
#
# Static dielectric constant tensor:
#      x y z
#    x 1.807600 0.030630 0.014180 
#    y 0.030630 1.866600 0.011780 
#    z 0.014180 0.011780 1.923950 
# 
# From -- ./inp_files/348963.got.cif
#   From: 2010.05.17/outbox.cif.g08.bks.cpg/sg2_175_cif.got.tgz:348963.got - 2010.06.03 11:33:40.
