data_PCOD9107984
_publ_section_title
;
Structure prediction by ZEFSAII (Michael W. Deem and Ramdas Pophale) SiO2 
 PCOD9107984
Probable space group: P -1
;
_chemical_formula_sum "Si O2"
_cell_formula_units_Z 16
_cell_length_a 18.096660
_cell_length_b 11.358707
_cell_length_c 7.769870
_cell_angle_alpha 59.092156
_cell_angle_beta 127.381571
_cell_angle_gamma 150.658384
_cell_volume 621.380072
_symmetry_space_group_name_H-M "P -1"
_symmetry_group_IT_number 2
_symmetry_cell_setting 'triclinic'
loop_
_space_group_symop_operation_xyz
x,y,z
-x,-y,-z
loop_
_atom_site_type_symbol
_atom_site_label
_atom_site_fract_x
_atom_site_fract_y
_atom_site_fract_z
Si Si1 0.838662 0.320945 0.288451
Si Si2 0.292223 0.598434 0.799439
Si Si3 0.143409 0.563971 0.142406
Si Si4 0.440674 0.338576 0.375633
Si Si5 0.713884 0.778679 0.188104
Si Si6 0.039298 0.811757 0.557362
Si Si7 0.405521 0.085751 0.254778
Si Si8 0.820536 0.794326 0.970981
O O1 0.699769 0.232875 0.262017
O O2 0.000000 0.500000 0.500000
O O3 0.836876 0.165345 0.327174
O O4 0.841989 0.426856 0.048290
O O5 0.101805 0.351061 0.660205
O O6 0.426695 0.732013 0.746684
O O7 0.296577 0.478157 0.032703
O O8 0.070804 0.350638 0.305761
O O9 0.295856 0.818412 0.264908
O O10 0.000000 0.500000 0.000000
O O11 0.500000 0.500000 0.500000
O O12 0.543996 0.526913 0.220140
O O13 0.438905 0.178168 0.428383
O O14 0.252548 0.154214 0.246059
O O15 0.690493 0.904074 0.983563
O O16 0.789657 0.780863 0.140882
O O17 0.840487 0.923684 0.416465
O O18 0.000000 0.000000 0.000000
#
# Coordination Sequence:
#
# PCOD9107984 Si02
#       8
#     2   2   2   2   2   2   2   2
#     4   9  20  39  61  91 131 170 216 269 326 389
#     4  11  23  41  62  96 139 168 225 280 335 394
#     4  10  20  40  66  93 124 177 227 262 335 398
#     4  11  25  46  68 101 133 178 230 274 345 410
#     4  11  21  46  70  90 137 180 219 273 348 406
#     4  10  23  40  66  95 128 180 221 272 335 399
#     4  11  21  44  69  90 134 180 214 283 337 400
#     4  11  25  40  67 101 132 178 223 282 338 401
#
# _framework density 25.749137000000001
#
# number of rings (size 3 to 8) (size 9 to 14) (size 15 to 20)
#    0.000    1.500    5.000    0.750    3.500    3.500 
#    6.750    0.000    0.000    0.000    0.000    0.000 
#    0.000    0.000    0.000    0.000    0.000    0.000 
#
# Total GULP energy -89187.416580 kJ/mol
# GULP energy per Si atom -5574.213536 kJ/mol
# Density = 2.569053 g / cm^3
# Si number density = 25.749137 Si / 1000 Ang^3
#
#
#
# Elastic Constant Matrix: (Units=GPa)
#
#
# Indices 1 2 3 4 5 6 
#
# 1 204.6257 40.4726 23.9409 5.4386 -3.6152 23.6216
# 2 40.4726 103.1488 14.5303 4.2043 -1.4349 14.8260
# 3 23.9409 14.5303 45.3525 -5.6015 -21.5171 -2.6938
# 4 5.4386 4.2043 -5.6015 39.3846 -6.0879 1.9220
# 5 -3.6152 -1.4349 -21.5171 -6.0879 43.9749 9.1542
# 6 23.6216 14.8260 -2.6938 1.9220 9.1542 31.6904
#
#
#
# Elastic Compliance Matrix: (Units=1/GPa)
#
#
# Indices 1 2 3 4 5 6 
#
# 1 0.006010 -0.001278 -0.003378 -0.001062 -0.000525 -0.003953
# 2 -0.001278 0.011417 -0.003872 -0.001524 -0.000931 -0.004356
# 3 -0.003378 -0.003872 0.034368 0.008339 0.017197 0.001778
# 4 -0.001062 -0.001524 0.008339 0.028253 0.008246 -0.001882
# 5 -0.000525 -0.000931 0.017197 0.008246 0.033888 -0.008001
# 6 -0.003953 -0.004356 0.001778 -0.001882 -0.008001 0.039116
#
#
# Mechanical properties :
#
#
# Convention : Reuss Voigt Hill
#
# Bulk Modulus (GPa) = 28.78670 56.77941 42.78306
# Shear Modulus (GPa) = 27.51968 41.28885 34.40426
#
# Velocity S-wave (km/s) = 3.27274 4.00872 3.65928
# Velocity P-wave (km/s) = 5.04827 6.59737 5.87411
#
# Compressibility (1/GPa) = 0.03473827
#
# Stress axis : x y z
#
# Youngs Moduli (GPa) = 166.37989 87.58861 29.09718
#
# Poissons Ratio (x) = 0.11196 0.09830
# Poissons Ratio (y) = 0.21267 0.11266
# Poissons Ratio (z) = 0.56206 0.33914
#
# Static dielectric constant tensor:
#      x y z
#    x 2.441500 -0.080090 -0.179810 
#    y -0.080090 2.032730 -0.036270 
#    z -0.179810 -0.036270 2.362780 
# 
# From -- ./inp_files/331862.got.cif
#   From: 2010.05.17/outbox.cif.g08.bks.cpg/sg2_166_cif.got.tgz:331862.got - 2010.06.03 11:33:40.
