data_PCOD9107903
_publ_section_title
;
Structure prediction by ZEFSAII (Michael W. Deem and Ramdas Pophale) SiO2 
 PCOD9107903
Probable space group: P -1
;
_chemical_formula_sum "Si O2"
_cell_formula_units_Z 16
_cell_length_a 11.566101
_cell_length_b 13.139366
_cell_length_c 14.994417
_cell_angle_alpha 65.147991
_cell_angle_beta 149.322875
_cell_angle_gamma 133.698496
_cell_volume 741.266068
_symmetry_space_group_name_H-M "P -1"
_symmetry_group_IT_number 2
_symmetry_cell_setting 'triclinic'
loop_
_space_group_symop_operation_xyz
x,y,z
-x,-y,-z
loop_
_atom_site_type_symbol
_atom_site_label
_atom_site_fract_x
_atom_site_fract_y
_atom_site_fract_z
Si Si1 0.702977 0.216837 0.253680
Si Si2 0.242075 0.348477 0.076317
Si Si3 0.132365 0.335293 0.334793
Si Si4 0.653835 0.828777 0.311939
Si Si5 0.116796 0.556190 0.158608
Si Si6 0.850235 0.716602 0.339357
Si Si7 0.830670 0.130787 0.045407
Si Si8 0.364242 0.325467 0.980085
O O1 0.638031 0.326311 0.166762
O O2 0.002985 0.283064 0.367507
O O3 0.805879 0.202168 0.422974
O O4 0.386310 0.049642 0.061603
O O5 0.606620 0.524121 0.258314
O O6 0.193899 0.259919 0.987731
O O7 0.025761 0.384185 0.913401
O O8 0.118714 0.248435 0.121947
O O9 0.500000 0.500000 0.500000
O O10 0.987651 0.404090 0.180203
O O11 0.983614 0.190433 0.223175
O O12 0.498600 0.707719 0.338313
O O13 0.699236 0.762192 0.283144
O O14 0.412736 0.848630 0.130679
O O15 0.000000 0.000000 0.500000
O O16 0.000000 0.500000 0.000000
O O17 0.842855 0.755801 0.217891
O O18 0.500000 0.500000 0.000000
#
# Coordination Sequence:
#
# PCOD9107903 Si02
#       8
#     2   2   2   2   2   2   2   2
#     4  12  25  40  65  97 129 170 217 267 326 387
#     4  10  20  40  66  90 123 174 217 264 317 375
#     4  12  23  38  61 100 130 163 212 263 321 395
#     4  11  19  34  64  94 126 167 198 256 334 380
#     4  11  19  37  65  88 120 165 205 258 316 381
#     4  11  21  41  67  93 128 170 221 264 316 384
#     4  11  22  39  62  96 137 166 207 271 329 382
#     4  10  24  43  66  91 124 174 228 266 316 379
#
# _framework density 21.584693000000001
#
# number of rings (size 3 to 8) (size 9 to 14) (size 15 to 20)
#    0.000    1.000    5.000    4.125    0.000    2.500 
#    0.000    1.875    0.000    0.000    0.000    0.000 
#    0.000    0.000    0.000    0.000    0.000    0.000 
#
# Total GULP energy -89308.534780 kJ/mol
# GULP energy per Si atom -5581.783424 kJ/mol
# Density = 2.153556 g / cm^3
# Si number density = 21.584693 Si / 1000 Ang^3
#
#
#
# Elastic Constant Matrix: (Units=GPa)
#
#
# Indices 1 2 3 4 5 6 
#
# 1 118.5991 6.7462 37.7413 -5.9523 -15.5358 -7.2159
# 2 6.7462 45.5746 4.9793 8.6445 0.9640 -11.6816
# 3 37.7413 4.9793 94.3481 7.4365 -10.8116 -7.4652
# 4 -5.9523 8.6445 7.4365 35.8309 4.3965 3.4714
# 5 -15.5358 0.9640 -10.8116 4.3965 28.9775 -3.0165
# 6 -7.2159 -11.6816 -7.4652 3.4714 -3.0165 21.4392
#
#
#
# Elastic Compliance Matrix: (Units=1/GPa)
#
#
# Indices 1 2 3 4 5 6 
#
# 1 0.010418 -0.001149 -0.003649 0.002078 0.004140 0.001856
# 2 -0.001149 0.028050 0.001296 -0.009145 0.002104 0.017125
# 3 -0.003649 0.001296 0.013281 -0.004725 0.004241 0.005465
# 4 0.002078 -0.009145 -0.004725 0.033454 -0.006700 -0.012288
# 5 0.004140 0.002104 0.004241 -0.006700 0.040381 0.010783
# 6 0.001856 0.017125 0.005465 -0.012288 0.010783 0.062008
#
#
# Mechanical properties :
#
#
# Convention : Reuss Voigt Hill
#
# Bulk Modulus (GPa) = 22.34911 39.71725 31.03318
# Shear Modulus (GPa) = 23.86507 31.18653 27.52580
#
# Velocity S-wave (km/s) = 3.32874 3.80523 3.57493
# Velocity P-wave (km/s) = 5.01504 6.14386 5.60792
#
# Compressibility (1/GPa) = 0.04474450
#
# Stress axis : x y z
#
# Youngs Moduli (GPa) = 95.98852 35.65062 75.29396
#
# Poissons Ratio (x) = 0.04098 0.27477
# Poissons Ratio (y) = 0.11033 -0.09761
# Poissons Ratio (z) = 0.35029 -0.04622
#
# Static dielectric constant tensor:
#      x y z
#    x 1.789930 0.002700 0.007620 
#    y 0.002700 1.838170 -0.042940 
#    z 0.007620 -0.042940 1.916440 
# 
# From -- ./inp_files/389967.got.cif
#   From: 2010.05.17/outbox.cif.g08.bks.cpg/sg2_195_cif.got.tgz:389967.got - 2010.06.03 11:33:40.
