data_PCOD9107990
_publ_section_title
;
Structure prediction by ZEFSAII (Michael W. Deem and Ramdas Pophale) SiO2 
 PCOD9107990
Probable space group: P -1
;
_chemical_formula_sum "Si O2"
_cell_formula_units_Z 16
_cell_length_a 23.064064
_cell_length_b 11.197597
_cell_length_c 11.422715
_cell_angle_alpha 140.937724
_cell_angle_beta 148.695509
_cell_angle_gamma 30.938379
_cell_volume 777.468371
_symmetry_space_group_name_H-M "P -1"
_symmetry_group_IT_number 2
_symmetry_cell_setting 'triclinic'
loop_
_space_group_symop_operation_xyz
x,y,z
-x,-y,-z
loop_
_atom_site_type_symbol
_atom_site_label
_atom_site_fract_x
_atom_site_fract_y
_atom_site_fract_z
Si Si1 0.374546 0.188981 0.777694
Si Si2 0.945325 0.433864 0.464847
Si Si3 0.845853 0.845278 0.907917
Si Si4 0.543412 0.664144 0.753101
Si Si5 0.012004 0.968422 0.135226
Si Si6 0.073686 0.343233 0.863346
Si Si7 0.273555 0.486456 0.258289
Si Si8 0.463272 0.932153 0.503294
O O1 0.209188 0.348542 0.602159
O O2 0.424139 0.939800 0.731343
O O3 0.448034 0.099404 0.710118
O O4 0.417465 0.325062 0.036691
O O5 0.000000 0.500000 0.500000
O O6 0.047702 0.328041 0.671506
O O7 0.942565 0.222507 0.259219
O O8 0.921403 0.565106 0.813235
O O9 0.686237 0.009306 0.726802
O O10 0.873910 0.861097 0.105817
O O11 0.927199 0.883029 0.980771
O O12 0.500000 0.500000 0.500000
O O13 0.677280 0.589508 0.849182
O O14 0.171261 0.768846 0.295623
O O15 0.000000 0.000000 0.000000
O O16 0.186573 0.398997 0.094580
O O17 0.418256 0.337941 0.463889
O O18 0.500000 0.000000 0.500000
#
# Coordination Sequence:
#
# PCOD9107990 Si02
#       8
#     2   2   2   2   2   2   2   2
#     4  10  23  40  63 100 127 181 234 276 347 417
#     4  12  24  39  67  95 138 178 228 289 342 409
#     4  10  21  41  68  92 128 178 224 280 341 412
#     4  10  22  41  66  93 142 177 221 289 354 411
#     4  11  25  41  64  99 138 171 230 285 350 419
#     4  10  20  40  66  93 129 175 225 273 342 413
#     4  10  22  40  64 100 128 176 228 277 347 420
#     4  11  21  41  72  97 134 181 234 282 343 417
#
# _framework density 20.579613999999999
#
# number of rings (size 3 to 8) (size 9 to 14) (size 15 to 20)
#    0.000    1.500    2.500    3.000    1.750    3.500 
#    0.000    0.000    0.000    6.000    0.000    0.000 
#    0.000    0.000    0.000    0.000    0.000    0.000 
#
# Total GULP energy -89177.137323 kJ/mol
# GULP energy per Si atom -5573.571083 kJ/mol
# Density = 2.053277 g / cm^3
# Si number density = 20.579614 Si / 1000 Ang^3
#
#
#
# Elastic Constant Matrix: (Units=GPa)
#
#
# Indices 1 2 3 4 5 6 
#
# 1 132.0194 20.4164 38.2709 -12.4480 -20.3511 5.9780
# 2 20.4164 104.7752 34.8540 -25.2761 5.4933 -5.6465
# 3 38.2709 34.8540 87.0911 -16.1146 -15.2036 6.2633
# 4 -12.4480 -25.2761 -16.1146 36.3516 -2.0797 0.8809
# 5 -20.3511 5.4933 -15.2036 -2.0797 31.8066 -10.1214
# 6 5.9780 -5.6465 6.2633 0.8809 -10.1214 25.5038
#
#
#
# Elastic Compliance Matrix: (Units=1/GPa)
#
#
# Indices 1 2 3 4 5 6 
#
# 1 0.009397 -0.000783 -0.002610 0.001802 0.005088 0.000222
# 2 -0.000783 0.013113 -0.004512 0.006578 -0.003697 0.002501
# 3 -0.002610 -0.004512 0.016399 0.003661 0.006572 -0.001933
# 4 0.001802 0.006578 0.003661 0.034549 0.004223 0.000617
# 5 0.005088 -0.003697 0.006572 0.004223 0.042980 0.013286
# 6 0.000222 0.002501 -0.001933 0.000617 0.013286 0.045437
#
#
# Mechanical properties :
#
#
# Convention : Reuss Voigt Hill
#
# Bulk Modulus (GPa) = 43.29299 56.77425 50.03362
# Shear Modulus (GPa) = 26.97107 34.08868 30.52988
#
# Velocity S-wave (km/s) = 3.62411 4.07434 3.85580
# Velocity P-wave (km/s) = 6.21247 7.05558 6.64740
#
# Compressibility (1/GPa) = 0.02309843
#
# Stress axis : x y z
#
# Youngs Moduli (GPa) = 106.42148 76.25999 60.98055
#
# Poissons Ratio (x) = 0.05970 0.15917
# Poissons Ratio (y) = 0.08331 0.27514
# Poissons Ratio (z) = 0.27778 0.34408
#
# Static dielectric constant tensor:
#      x y z
#    x 1.748100 -0.011230 -0.039510 
#    y -0.011230 1.731810 -0.018900 
#    z -0.039510 -0.018900 1.807990 
# 
# From -- ./inp_files/417244.got.cif
#   From: 2010.05.17/outbox.cif.g08.bks.cpg/sg2_209_cif.got.tgz:417244.got - 2010.06.03 11:33:40.
