data_PCOD9107374
_publ_section_title
;
Structure prediction by ZEFSAII (Michael W. Deem and Ramdas Pophale) SiO2 
 PCOD9107374
Probable space group: P -1
;
_chemical_formula_sum "Si O2"
_cell_formula_units_Z 12
_cell_length_a 10.100867
_cell_length_b 7.524312
_cell_length_c 11.238892
_cell_angle_alpha 105.361514
_cell_angle_beta 118.056459
_cell_angle_gamma 42.753317
_cell_volume 507.076169
_symmetry_space_group_name_H-M "P -1"
_symmetry_group_IT_number 2
_symmetry_cell_setting 'triclinic'
loop_
_space_group_symop_operation_xyz
x,y,z
-x,-y,-z
loop_
_atom_site_type_symbol
_atom_site_label
_atom_site_fract_x
_atom_site_fract_y
_atom_site_fract_z
Si Si1 0.203809 0.918314 0.915692
Si Si2 0.330470 0.387712 0.927428
Si Si3 0.184272 0.323025 0.443570
Si Si4 0.025609 0.136834 0.631223
Si Si5 0.112625 0.279255 0.150072
Si Si6 0.566493 0.990337 0.289260
O O1 0.249567 0.666648 0.924405
O O2 0.038704 0.072411 0.763909
O O3 0.433800 0.803520 0.950985
O O4 0.138924 0.086281 0.036743
O O5 0.372261 0.251632 0.795987
O O6 0.137172 0.443426 0.917108
O O7 0.136338 0.230268 0.295215
O O8 0.385120 0.085914 0.565651
O O9 0.000000 0.500000 0.500000
O O10 0.157866 0.548893 0.414832
O O11 0.260402 0.015133 0.680173
O O12 0.000000 0.000000 0.500000
O O13 0.313787 0.236896 0.202438
#
# Coordination Sequence:
#
# PCOD9107374 Si02
#       6
#     2   2   2   2   2   2
#     4  10  24  39  64  98 123 159 208 250 311 365
#     4  10  20  43  65  90 125 164 200 256 304 365
#     4  10  20  40  64  88 125 166 203 247 307 367
#     4  11  23  42  64  88 128 165 201 260 310 359
#     4  11  21  39  70  91 121 163 210 253 301 370
#     4  10  22  41  67  92 119 168 209 246 308 369
#
# _framework density 23.665085999999999
#
# number of rings (size 3 to 8) (size 9 to 14) (size 15 to 20)
#    0.000    1.667    3.333    2.000    2.333    3.333 
#    3.000    0.833    0.000    0.000    0.000    0.000 
#    0.000    0.000    0.000    0.000    0.000    0.000 
#
# Total GULP energy -66960.309405 kJ/mol
# GULP energy per Si atom -5580.025784 kJ/mol
# Density = 2.361122 g / cm^3
# Si number density = 23.665086 Si / 1000 Ang^3
#
#
#
# Elastic Constant Matrix: (Units=GPa)
#
#
# Indices 1 2 3 4 5 6 
#
# 1 56.0886 26.2711 31.9458 1.7008 10.2571 -17.3351
# 2 26.2711 63.0765 59.9281 6.7281 -16.6373 7.9241
# 3 31.9458 59.9281 220.7188 11.9989 -22.4984 24.0655
# 4 1.7008 6.7281 11.9989 58.1477 -5.2910 1.2501
# 5 10.2571 -16.6373 -22.4984 -5.2910 38.6961 -5.1278
# 6 -17.3351 7.9241 24.0655 1.2501 -5.1278 34.4675
#
#
#
# Elastic Compliance Matrix: (Units=1/GPa)
#
#
# Indices 1 2 3 4 5 6 
#
# 1 0.043339 -0.021683 -0.005461 -0.000076 -0.020342 0.027571
# 2 -0.021683 0.033755 -0.002726 -0.000886 0.016666 -0.014251
# 3 -0.005461 -0.002726 0.007165 -0.000544 0.003494 -0.006583
# 4 -0.000076 -0.000886 -0.000544 0.017570 0.001748 0.000168
# 5 -0.020342 0.016666 0.003494 0.001748 0.039249 -0.010727
# 6 0.027571 -0.014251 -0.006583 0.000168 -0.010727 0.049150
#
#
# Mechanical properties :
#
#
# Convention : Reuss Voigt Hill
#
# Bulk Modulus (GPa) = 40.78516 64.01932 52.40224
# Shear Modulus (GPa) = 19.36916 41.04485 30.20700
#
# Velocity S-wave (km/s) = 2.86399 4.16914 3.57660
# Velocity P-wave (km/s) = 5.31115 7.09130 6.26478
#
# Compressibility (1/GPa) = 0.02451872
#
# Stress axis : x y z
#
# Youngs Moduli (GPa) = 23.07376 29.62486 139.57416
#
# Poissons Ratio (x) = 0.64237 0.76221
# Poissons Ratio (y) = 0.50032 0.38046
# Poissons Ratio (z) = 0.12601 0.08075
#
# Static dielectric constant tensor:
#      x y z
#    x 1.997390 -0.054710 -0.010570 
#    y -0.054710 1.902920 -0.026840 
#    z -0.010570 -0.026840 1.906070 
# 
# From -- ./inp_files/305674.got.cif
#   From: 2010.05.17/outbox.cif.g08.bks.cpg/sg2_153_cif.got.tgz:305674.got - 2010.06.03 11:33:40.
