data_PCOD9107105
_publ_section_title
;
Structure prediction by ZEFSAII (Michael W. Deem and Ramdas Pophale) SiO2 
 PCOD9107105
Probable space group: P -1
;
_chemical_formula_sum "Si O2"
_cell_formula_units_Z 14
_cell_length_a 17.519592
_cell_length_b 14.910673
_cell_length_c 15.655583
_cell_angle_alpha 24.687671
_cell_angle_beta 25.628899
_cell_angle_gamma 22.541156
_cell_volume 602.987405
_symmetry_space_group_name_H-M "P -1"
_symmetry_group_IT_number 2
_symmetry_cell_setting 'triclinic'
loop_
_space_group_symop_operation_xyz
x,y,z
-x,-y,-z
loop_
_atom_site_type_symbol
_atom_site_label
_atom_site_fract_x
_atom_site_fract_y
_atom_site_fract_z
Si Si1 0.469364 0.218258 0.780744
Si Si2 0.472533 0.837513 0.851952
Si Si3 0.713733 0.295215 0.343230
Si Si4 0.914904 0.741990 0.439257
Si Si5 0.888751 0.616998 0.308689
Si Si6 0.264524 0.693492 0.887317
Si Si7 0.157630 0.245568 0.944109
O O1 0.658414 0.121818 0.603570
O O2 0.449802 0.427059 0.686082
O O3 0.247245 0.322217 0.864523
O O4 0.500000 0.000000 0.000000
O O5 0.552848 0.533300 0.038127
O O6 0.356144 0.961882 0.952668
O O7 0.682491 0.832808 0.629005
O O8 0.304234 0.072207 0.753776
O O9 0.665626 0.309074 0.279268
O O10 0.950492 0.235227 0.169607
O O11 0.000000 0.500000 0.500000
O O12 0.083779 0.607297 0.464202
O O13 0.871106 0.000313 0.216473
O O14 0.882879 0.568190 0.256857
O O15 0.097877 0.615886 0.113151
#
# Coordination Sequence:
#
# PCOD9107105 Si02
#       7
#     2   2   2   2   2   2   2
#     4  11  22  37  59  94 130 165 207 267 312 369
#     4   9  20  40  61  89 122 163 207 255 311 371
#     4  10  22  38  60  92 124 167 218 251 321 380
#     4  11  23  39  63  93 124 162 207 263 324 378
#     4   8  21  40  59  90 122 161 209 250 314 376
#     4  10  20  40  63  85 121 165 210 259 312 377
#     4   9  19  41  62  86 129 171 210 263 309 374
#
# _framework density 23.217731000000001
#
# number of rings (size 3 to 8) (size 9 to 14) (size 15 to 20)
#    0.857    1.429    0.000    2.143    0.000    6.857 
#    0.000    4.286    0.000    0.000    0.000    0.000 
#    0.000    0.000    0.000    0.000    0.000    0.000 
#
# Total GULP energy -77949.343220 kJ/mol
# GULP energy per Si atom -5567.810230 kJ/mol
# Density = 2.316489 g / cm^3
# Si number density = 23.217731 Si / 1000 Ang^3
#
#
#
# Elastic Constant Matrix: (Units=GPa)
#
#
# Indices 1 2 3 4 5 6 
#
# 1 -70.2613 -150.9484 21.2752 185.6037 79.2039 71.1051
# 2 -150.9484 -135.3859 36.5433 236.9657 106.7804 106.9347
# 3 21.2752 36.5433 68.6330 -17.4344 7.6586 -20.0705
# 4 185.6037 236.9657 -17.4344 -246.3778 -114.1010 -134.9150
# 5 79.2039 106.7804 7.6586 -114.1010 -21.1659 -59.0688
# 6 71.1051 106.9347 -20.0705 -134.9150 -59.0688 -30.3357
#
#
#
# Elastic Compliance Matrix: (Units=1/GPa)
#
#
# Indices 1 2 3 4 5 6 
#
# 1 0.021778 -0.003014 -0.000372 0.004781 0.003106 0.013356
# 2 -0.003014 0.013448 -0.003257 0.007865 0.001801 0.004008
# 3 -0.000372 -0.003257 0.017913 -0.001933 -0.009616 0.003114
# 4 0.004781 0.007865 -0.001933 0.015085 -0.011403 -0.004674
# 5 0.003106 0.001801 -0.009616 -0.011403 0.037406 -0.002133
# 6 0.013356 0.004008 0.003114 -0.004674 -0.002133 0.035352
#
#
# Mechanical properties :
#
#
# Convention : Reuss Voigt Hill
#
# Bulk Modulus (GPa) = 25.09275 -35.91931 -5.41328
# Shear Modulus (GPa) = 29.84157 -62.50149 -16.32996
#
# Velocity S-wave (km/s) = 3.58899 -5.19405 -2.65493
# Velocity P-wave (km/s) = 5.29202 7.17462 3.42561
#
# Compressibility (1/GPa) = 0.03985215
#
# Stress axis : x y z
#
# Youngs Moduli (GPa) = 45.91832 74.36028 55.82645
#
# Poissons Ratio (x) = 0.22411 0.02079
# Poissons Ratio (y) = 0.13839 0.18182
# Poissons Ratio (z) = 0.01710 0.24218
#
# Static dielectric constant tensor:
#      x y z
#    x 2.051270 -0.183170 -0.130240 
#    y -0.183170 2.113360 0.124230 
#    z -0.130240 0.124230 2.159730 
# 
# From -- ./inp_files/578393.got.cif
#   From: 2010.05.17/outbox.cif.g08.bks.cpg/sg2_290_cif.got.tgz:578393.got - 2010.06.03 11:33:40.
