data_PCOD9107163
_publ_section_title
;
Structure prediction by ZEFSAII (Michael W. Deem and Ramdas Pophale) SiO2 
 PCOD9107163
Probable space group: P -1
;
_chemical_formula_sum "Si O2"
_cell_formula_units_Z 12
_cell_length_a 7.601802
_cell_length_b 11.093947
_cell_length_c 10.064921
_cell_angle_alpha 104.672786
_cell_angle_beta 113.916193
_cell_angle_gamma 120.862079
_cell_volume 538.845506
_symmetry_space_group_name_H-M "P -1"
_symmetry_group_IT_number 2
_symmetry_cell_setting 'triclinic'
loop_
_space_group_symop_operation_xyz
x,y,z
-x,-y,-z
loop_
_atom_site_type_symbol
_atom_site_label
_atom_site_fract_x
_atom_site_fract_y
_atom_site_fract_z
Si Si1 0.322407 0.046794 0.964131
Si Si2 0.939294 0.158958 0.419875
Si Si3 0.463195 0.517886 0.648009
Si Si4 0.695747 0.681369 0.029350
Si Si5 0.734097 0.003064 0.574723
Si Si6 0.542509 0.213666 0.336267
O O1 0.413622 0.223676 0.983508
O O2 0.305989 0.066618 0.120687
O O3 0.083754 0.902838 0.753137
O O4 0.500000 0.000000 0.000000
O O5 0.241917 0.328446 0.589762
O O6 0.765907 0.207801 0.393323
O O7 0.194894 0.990813 0.554169
O O8 0.500000 0.500000 0.500000
O O9 0.347563 0.605783 0.627354
O O10 0.697832 0.634866 0.862502
O O11 0.992729 0.824333 0.224202
O O12 0.500000 0.500000 0.000000
O O13 0.500000 0.000000 0.500000
O O14 0.591608 0.836490 0.575272
#
# Coordination Sequence:
#
# PCOD9107163 Si02
#       6
#     2   2   2   2   2   2
#     4   9  21  39  65  94 125 170 222 266 325 388
#     4  10  20  40  63  89 128 170 215 267 327 392
#     4  11  24  37  61  97 129 164 221 272 326 386
#     4  11  23  42  66  94 135 174 213 273 334 385
#     4  10  22  40  65  90 129 171 222 261 329 386
#     4   9  21  40  63  86 127 174 217 266 324 387
#
# _framework density 22.269832999999998
#
# number of rings (size 3 to 8) (size 9 to 14) (size 15 to 20)
#    0.000    2.000    1.667    0.500    4.667    3.333 
#    0.000    0.000    0.000    5.000    0.000    0.000 
#    0.000    0.000    0.000    0.000    0.000    0.000 
#
# Total GULP energy -66815.041571 kJ/mol
# GULP energy per Si atom -5567.920131 kJ/mol
# Density = 2.221915 g / cm^3
# Si number density = 22.269833 Si / 1000 Ang^3
#
#
#
# Elastic Constant Matrix: (Units=GPa)
#
#
# Indices 1 2 3 4 5 6 
#
# 1 64.8118 25.9854 21.3972 -10.1819 8.2101 -24.0252
# 2 25.9854 104.8547 -0.8293 -0.8832 8.7337 -10.3617
# 3 21.3972 -0.8293 106.4565 -7.0710 -1.9406 -3.7252
# 4 -10.1819 -0.8832 -7.0710 30.2502 5.5099 -0.8640
# 5 8.2101 8.7337 -1.9406 5.5099 32.4659 -2.9888
# 6 -24.0252 -10.3617 -3.7252 -0.8640 -2.9888 39.5461
#
#
#
# Elastic Compliance Matrix: (Units=1/GPa)
#
#
# Indices 1 2 3 4 5 6 
#
# 1 0.026007 -0.004534 -0.004277 0.009090 -0.005870 0.013964
# 2 -0.004534 0.010796 0.000920 -0.000707 -0.001580 0.000026
# 3 -0.004277 0.000920 0.010286 0.000735 0.001206 -0.001281
# 4 0.009090 -0.000707 0.000735 0.037882 -0.007975 0.005631
# 5 -0.005870 -0.001580 0.001206 -0.007975 0.034001 -0.001471
# 6 0.013964 0.000026 -0.001281 0.005631 -0.001471 0.033668
#
#
# Mechanical properties :
#
#
# Convention : Reuss Voigt Hill
#
# Bulk Modulus (GPa) = 31.93985 41.02551 36.48268
# Shear Modulus (GPa) = 27.95519 35.75708 31.85614
#
# Velocity S-wave (km/s) = 3.54686 4.01138 3.78625
# Velocity P-wave (km/s) = 5.58094 6.31798 5.96086
#
# Compressibility (1/GPa) = 0.03130885
#
# Stress axis : x y z
#
# Youngs Moduli (GPa) = 38.45135 92.62619 97.21597
#
# Poissons Ratio (x) = 0.41992 0.41581
# Poissons Ratio (y) = 0.17432 -0.08948
# Poissons Ratio (z) = 0.16446 -0.08526
#
# Static dielectric constant tensor:
#      x y z
#    x 1.829540 -0.048050 -0.021000 
#    y -0.048050 1.873550 -0.032790 
#    z -0.021000 -0.032790 1.835640 
# 
# From -- ./inp_files/374656.got.cif
#   From: 2010.05.17/outbox.cif.g08.bks.cpg/sg2_188_cif.got.tgz:374656.got - 2010.06.03 11:33:40.
