data_PCOD9107107
_publ_section_title
;
Structure prediction by ZEFSAII (Michael W. Deem and Ramdas Pophale) SiO2 
 PCOD9107107
Probable space group: P -1
;
_chemical_formula_sum "Si O2"
_cell_formula_units_Z 16
_cell_length_a 11.410445
_cell_length_b 6.999487
_cell_length_c 23.021901
_cell_angle_alpha 70.263862
_cell_angle_beta 157.775453
_cell_angle_gamma 102.874039
_cell_volume 633.447884
_symmetry_space_group_name_H-M "P -1"
_symmetry_group_IT_number 2
_symmetry_cell_setting 'triclinic'
loop_
_space_group_symop_operation_xyz
x,y,z
-x,-y,-z
loop_
_atom_site_type_symbol
_atom_site_label
_atom_site_fract_x
_atom_site_fract_y
_atom_site_fract_z
Si Si1 0.725865 0.233773 0.684016
Si Si2 0.689721 0.347283 0.152935
Si Si3 0.089505 0.378276 0.442142
Si Si4 0.151375 0.162855 0.982050
Si Si5 0.688702 0.843653 0.314721
Si Si6 0.298240 0.525596 0.170355
Si Si7 0.709482 0.205696 0.465127
Si Si8 0.328563 0.273258 0.391291
O O1 0.386202 0.241867 0.555799
O O2 0.651724 0.219263 0.584011
O O3 0.774064 0.471665 0.686606
O O4 0.981716 0.079431 0.858063
O O5 0.422540 0.240918 0.064870
O O6 0.809521 0.430878 0.260096
O O7 0.016773 0.223308 0.282617
O O8 0.500000 0.500000 0.000000
O O9 0.124754 0.242585 0.531653
O O10 0.182552 0.591257 0.480804
O O11 0.353239 0.018823 0.140066
O O12 0.867499 0.336231 0.864551
O O13 0.554569 0.645917 0.250407
O O14 0.946447 0.924850 0.385966
O O15 0.496940 0.296789 0.302988
O O16 0.000000 0.500000 0.000000
O O17 0.456645 0.168352 0.399905
#
# Coordination Sequence:
#
# PCOD9107107 Si02
#       8
#     2   2   2   2   2   2   2   2
#     4   9  16  33  60  86 113 158 210 247 304 353
#     4  11  21  34  62  96 121 154 222 267 291 351
#     4   9  19  36  62  86 120 167 205 246 308 378
#     4  12  23  38  62  99 125 159 204 262 317 358
#     4  11  24  41  61  92 134 163 198 249 326 380
#     4  11  23  41  63  92 123 160 211 255 298 374
#     4  10  20  40  63  85 122 170 207 245 310 375
#     4   9  17  36  58  85 115 163 213 254 286 363
#
# _framework density 25.258590999999999
#
# number of rings (size 3 to 8) (size 9 to 14) (size 15 to 20)
#    0.000    1.750    5.000    2.625    3.500    0.500 
#    0.000    1.250    0.000    0.000    0.000    0.000 
#    0.000    0.000    0.000    0.000    0.000    0.000 
#
# Total GULP energy -89204.796861 kJ/mol
# GULP energy per Si atom -5575.299804 kJ/mol
# Density = 2.520110 g / cm^3
# Si number density = 25.258591 Si / 1000 Ang^3
#
#
#
# Elastic Constant Matrix: (Units=GPa)
#
#
# Indices 1 2 3 4 5 6 
#
# 1 93.2502 9.8334 33.6623 14.6820 4.3574 24.0570
# 2 9.8334 36.1034 16.5682 2.8677 -4.6789 15.7435
# 3 33.6623 16.5682 185.1167 14.7195 -25.1469 -7.9234
# 4 14.6820 2.8677 14.7195 44.0909 0.7641 4.0701
# 5 4.3574 -4.6789 -25.1469 0.7641 62.8311 10.9930
# 6 24.0570 15.7435 -7.9234 4.0701 10.9930 23.9319
#
#
#
# Elastic Compliance Matrix: (Units=1/GPa)
#
#
# Indices 1 2 3 4 5 6 
#
# 1 0.018962 0.009697 -0.004968 -0.002772 0.002293 -0.027667
# 2 0.009697 0.051458 -0.007322 0.000348 0.009012 -0.050222
# 3 -0.004968 -0.007322 0.007716 -0.001593 0.000757 0.012289
# 4 -0.002772 0.000348 -0.001593 0.024297 -0.000377 -0.001929
# 5 0.002293 0.009012 0.000757 -0.000377 0.019704 -0.016969
# 6 -0.027667 -0.050222 0.012289 -0.001929 -0.016969 0.114826
#
#
# Mechanical properties :
#
#
# Convention : Reuss Voigt Hill
#
# Bulk Modulus (GPa) = 13.70812 48.28867 30.99840
# Shear Modulus (GPa) = 18.76415 43.13122 30.94769
#
# Velocity S-wave (km/s) = 2.72854 4.13678 3.50413
# Velocity P-wave (km/s) = 3.91988 6.47893 5.35453
#
# Compressibility (1/GPa) = 0.07294946
#
# Stress axis : x y z
#
# Youngs Moduli (GPa) = 52.73817 19.43350 129.59668
#
# Poissons Ratio (x) = -0.18845 0.64387
# Poissons Ratio (y) = -0.51142 0.94892
# Poissons Ratio (z) = 0.26202 0.14229
#
# Static dielectric constant tensor:
#      x y z
#    x 2.116580 0.014270 -0.082280 
#    y 0.014270 2.100910 -0.052780 
#    z -0.082280 -0.052780 2.003780 
# 
# From -- ./inp_files/500669.got.cif
#   From: 2010.05.17/outbox.cif.g08.bks.cpg/sg2_251_cif.got.tgz:500669.got - 2010.06.03 11:33:40.
