data_PCOD9107469
_publ_section_title
;
Structure prediction by ZEFSAII (Michael W. Deem and Ramdas Pophale) SiO2 
 PCOD9107469
Probable space group: P -1
;
_chemical_formula_sum "Si O2"
_cell_formula_units_Z 16
_cell_length_a 27.534799
_cell_length_b 11.369634
_cell_length_c 5.377110
_cell_angle_alpha 121.064688
_cell_angle_beta 128.274008
_cell_angle_gamma 30.966703
_cell_volume 679.505474
_symmetry_space_group_name_H-M "P -1"
_symmetry_group_IT_number 2
_symmetry_cell_setting 'triclinic'
loop_
_space_group_symop_operation_xyz
x,y,z
-x,-y,-z
loop_
_atom_site_type_symbol
_atom_site_label
_atom_site_fract_x
_atom_site_fract_y
_atom_site_fract_z
Si Si1 0.393353 0.855541 0.713933
Si Si2 0.418625 0.018836 0.578126
Si Si3 0.061661 0.358558 0.792499
Si Si4 0.391169 0.607853 0.056887
Si Si5 0.136141 0.769372 0.960386
Si Si6 0.727603 0.956655 0.068244
Si Si7 0.643013 0.604764 0.974085
Si Si8 0.061098 0.043144 0.519663
O O1 0.409757 0.974978 0.783230
O O2 0.401773 0.725724 0.386553
O O3 0.496861 0.634230 0.955486
O O4 0.277860 0.047435 0.658074
O O5 0.541169 0.793171 0.681923
O O6 0.350802 0.030070 0.225307
O O7 0.374489 0.249133 0.708660
O O8 0.085201 0.156193 0.662259
O O9 0.000000 0.500000 0.500000
O O10 0.169378 0.245208 0.974120
O O11 0.000000 0.500000 0.000000
O O12 0.353047 0.550151 0.044472
O O13 0.313823 0.812321 0.838384
O O14 0.061089 0.771292 0.694743
O O15 0.093216 0.945577 0.795574
O O16 0.255128 0.543419 0.020518
O O17 0.117352 0.855873 0.275888
#
# Coordination Sequence:
#
# PCOD9107469 Si02
#       8
#     2   2   2   2   2   2   2   2
#     4   9  19  37  61  91 125 169 209 264 323 393
#     4   9  22  42  58  95 133 169 218 260 332 407
#     4  12  29  45  70 100 134 176 227 281 336 404
#     4   9  19  36  62  92 126 162 217 262 321 395
#     4  10  22  42  73  94 134 173 219 285 328 391
#     4  11  23  40  67  88 132 171 216 273 331 398
#     4  10  20  40  64  93 132 172 215 271 328 392
#     4  10  23  46  67 102 127 172 231 275 334 395
#
# _framework density 23.546536
#
# number of rings (size 3 to 8) (size 9 to 14) (size 15 to 20)
#    0.000    2.000    0.000    2.625    7.000    0.000 
#    6.750    3.125    0.000    0.000    0.000    0.000 
#    0.000    0.000    0.000    0.000    0.000    0.000 
#
# Total GULP energy -89246.077899 kJ/mol
# GULP energy per Si atom -5577.879869 kJ/mol
# Density = 2.349294 g / cm^3
# Si number density = 23.546536 Si / 1000 Ang^3
#
#
#
# Elastic Constant Matrix: (Units=GPa)
#
#
# Indices 1 2 3 4 5 6 
#
# 1 80.5545 32.7460 18.0172 -1.7294 2.4594 -36.4997
# 2 32.7460 53.7790 12.3166 -3.3891 5.8065 -35.6722
# 3 18.0172 12.3166 42.6252 3.6441 4.6607 -3.9459
# 4 -1.7294 -3.3891 3.6441 19.9933 2.2249 5.9621
# 5 2.4594 5.8065 4.6607 2.2249 40.4362 2.2906
# 6 -36.4997 -35.6722 -3.9459 5.9621 2.2906 56.9475
#
#
#
# Elastic Compliance Matrix: (Units=1/GPa)
#
#
# Indices 1 2 3 4 5 6 
#
# 1 0.019961 -0.004232 -0.006199 -0.000740 -0.000407 0.009807
# 2 -0.004232 0.036400 -0.006460 0.001718 -0.005434 0.019679
# 3 -0.006199 -0.006460 0.028006 -0.004944 -0.001339 -0.005507
# 4 -0.000740 0.001718 -0.004944 0.052944 -0.002251 -0.005193
# 5 -0.000407 -0.005434 -0.001339 -0.002251 0.026073 -0.004571
# 6 0.009807 0.019679 -0.005507 -0.005193 -0.004571 0.036519
#
#
# Mechanical properties :
#
#
# Convention : Reuss Voigt Hill
#
# Bulk Modulus (GPa) = 19.76854 33.67981 26.72418
# Shear Modulus (GPa) = 19.95642 31.06733 25.51188
#
# Velocity S-wave (km/s) = 2.91440 3.63630 3.29518
# Velocity P-wave (km/s) = 4.44282 5.65374 5.08446
#
# Compressibility (1/GPa) = 0.05058543
#
# Stress axis : x y z
#
# Youngs Moduli (GPa) = 50.09790 27.47275 35.70618
#
# Poissons Ratio (x) = 0.11627 0.22133
# Poissons Ratio (y) = 0.21203 0.23065
# Poissons Ratio (z) = 0.31054 0.17747
#
# Static dielectric constant tensor:
#      x y z
#    x 1.900230 -0.017920 -0.078810 
#    y -0.017920 2.041600 -0.109830 
#    z -0.078810 -0.109830 1.990850 
# 
# From -- ./inp_files/48258.got.cif
#   From: 2010.05.17/outbox.cif.g08.bks.cpg/sg2_25_cif.got.tgz:48258.got - 2010.06.03 11:33:40.
