data_PCOD9107949
_publ_section_title
;
Structure prediction by ZEFSAII (Michael W. Deem and Ramdas Pophale) SiO2 
 PCOD9107949
Probable space group: P -1
;
_chemical_formula_sum "Si O2"
_cell_formula_units_Z 16
_cell_length_a 7.727533
_cell_length_b 11.043411
_cell_length_c 20.340354
_cell_angle_alpha 138.757555
_cell_angle_beta 36.586789
_cell_angle_gamma 130.928701
_cell_volume 676.214434
_symmetry_space_group_name_H-M "P -1"
_symmetry_group_IT_number 2
_symmetry_cell_setting 'triclinic'
loop_
_space_group_symop_operation_xyz
x,y,z
-x,-y,-z
loop_
_atom_site_type_symbol
_atom_site_label
_atom_site_fract_x
_atom_site_fract_y
_atom_site_fract_z
Si Si1 0.410592 0.988446 0.599587
Si Si2 0.800550 0.343501 0.673901
Si Si3 0.653250 0.643213 0.565043
Si Si4 0.812487 0.085987 0.013680
Si Si5 0.688520 0.629420 0.361665
Si Si6 0.411108 0.001061 0.811724
Si Si7 0.947068 0.221463 0.808594
Si Si8 0.552248 0.307350 0.076006
O O1 0.598940 0.147364 0.649938
O O2 0.082125 0.042071 0.722668
O O3 0.500000 0.000000 0.500000
O O4 0.497579 0.789209 0.508383
O O5 0.615876 0.514785 0.800352
O O6 0.004592 0.348938 0.548830
O O7 0.025270 0.359631 0.673603
O O8 0.500000 0.500000 0.500000
O O9 0.526228 0.558473 0.637463
O O10 0.548872 0.841652 0.667167
O O11 0.154051 0.095167 0.895800
O O12 0.662977 0.879023 0.955446
O O13 0.676876 0.243481 0.080296
O O14 0.750225 0.096350 0.114268
O O15 0.807875 0.667495 0.267101
O O16 0.675839 0.147787 0.814923
O O17 0.814097 0.328055 0.951322
#
# Coordination Sequence:
#
# PCOD9107949 Si02
#       8
#     2   2   2   2   2   2   2   2
#     4  10  22  41  59  86 124 159 203 252 308 363
#     4  11  23  40  63  90 123 164 209 251 301 368
#     4  10  21  36  62  92 120 153 204 257 293 354
#     4   9  20  38  64  93 126 159 201 255 301 367
#     4  10  22  40  63  90 123 162 204 254 308 362
#     4  10  20  40  66  92 120 164 209 243 304 367
#     4  10  23  41  62  89 125 163 202 253 307 369
#     4  10  22  40  62  95 127 157 201 255 312 358
#
# _framework density 23.661135000000002
#
# number of rings (size 3 to 8) (size 9 to 14) (size 15 to 20)
#    0.000    2.000    0.000    3.375    0.000   10.000 
#    0.000    3.750    0.000    0.000    0.000    0.000 
#    0.000    0.000    0.000    0.000    0.000    0.000 
#
# Total GULP energy -89484.620979 kJ/mol
# GULP energy per Si atom -5592.788811 kJ/mol
# Density = 2.360728 g / cm^3
# Si number density = 23.661135 Si / 1000 Ang^3
#
#
#
# Elastic Constant Matrix: (Units=GPa)
#
#
# Indices 1 2 3 4 5 6 
#
# 1 60.2468 5.6525 29.4387 6.2351 -13.3719 -13.3604
# 2 5.6525 63.4468 29.4072 -0.9225 -4.7859 -8.1099
# 3 29.4387 29.4072 162.4794 11.2031 -23.1755 -6.6233
# 4 6.2351 -0.9225 11.2031 48.1302 -7.2459 0.6605
# 5 -13.3719 -4.7859 -23.1755 -7.2459 40.8422 2.8274
# 6 -13.3604 -8.1099 -6.6233 0.6605 2.8274 27.5708
#
#
#
# Elastic Compliance Matrix: (Units=1/GPa)
#
#
# Indices 1 2 3 4 5 6 
#
# 1 0.021156 0.000971 -0.002881 -0.001505 0.004486 0.009421
# 2 0.000971 0.017832 -0.003211 0.000959 0.000418 0.004879
# 3 -0.002881 -0.003211 0.007716 -0.001033 0.002928 -0.000763
# 4 -0.001505 0.000959 -0.001033 0.021702 0.002989 -0.001522
# 5 0.004486 0.000418 0.002928 0.002989 0.028191 0.000038
# 6 0.009421 0.004879 -0.000763 -0.001522 0.000038 0.042120
#
#
# Mechanical properties :
#
#
# Convention : Reuss Voigt Hill
#
# Bulk Modulus (GPa) = 27.42593 46.13000 36.77796
# Shear Modulus (GPa) = 31.03422 38.08696 34.56059
#
# Velocity S-wave (km/s) = 3.62555 4.01644 3.82599
# Velocity P-wave (km/s) = 5.39837 6.40683 5.92410
#
# Compressibility (1/GPa) = 0.03646185
#
# Stress axis : x y z
#
# Youngs Moduli (GPa) = 47.26816 56.07865 129.60733
#
# Poissons Ratio (x) = -0.05448 0.37342
# Poissons Ratio (y) = -0.04592 0.41618
# Poissons Ratio (z) = 0.13619 0.18007
#
# Static dielectric constant tensor:
#      x y z
#    x 1.934500 -0.043300 0.010090 
#    y -0.043300 1.917980 -0.038910 
#    z 0.010090 -0.038910 1.893100 
# 
# From -- ./inp_files/333647.got.cif
#   From: 2010.05.17/outbox.cif.g08.bks.cpg/sg2_167_cif.got.tgz:333647.got - 2010.06.03 11:33:40.
