data_PCOD9107458
_publ_section_title
;
Structure prediction by ZEFSAII (Michael W. Deem and Ramdas Pophale) SiO2 
 PCOD9107458
Probable space group: P -1
;
_chemical_formula_sum "Si O2"
_cell_formula_units_Z 16
_cell_length_a 17.399615
_cell_length_b 11.388023
_cell_length_c 15.243022
_cell_angle_alpha 133.542861
_cell_angle_beta 28.111447
_cell_angle_gamma 149.698722
_cell_volume 683.714382
_symmetry_space_group_name_H-M "P -1"
_symmetry_group_IT_number 2
_symmetry_cell_setting 'triclinic'
loop_
_space_group_symop_operation_xyz
x,y,z
-x,-y,-z
loop_
_atom_site_type_symbol
_atom_site_label
_atom_site_fract_x
_atom_site_fract_y
_atom_site_fract_z
Si Si1 0.670907 0.519697 0.457275
Si Si2 0.068920 0.654914 0.236236
Si Si3 0.245042 0.536083 0.130490
Si Si4 0.017251 0.771761 0.076525
Si Si5 0.575749 0.071157 0.140750
Si Si6 0.176118 0.995150 0.436823
Si Si7 0.804560 0.737385 0.107936
Si Si8 0.207214 0.275015 0.182231
O O1 0.811567 0.506591 0.375359
O O2 0.756792 0.768479 0.517144
O O3 0.384751 0.309764 0.661862
O O4 0.782441 0.570590 0.273970
O O5 0.071222 0.526753 0.245533
O O6 0.183164 0.902291 0.292227
O O7 0.254203 0.752765 0.021543
O O8 0.119823 0.342906 0.234872
O O9 0.450522 0.806058 0.104367
O O10 0.329956 0.465015 0.937284
O O11 0.944651 0.716986 0.020476
O O12 0.111190 0.025338 0.127388
O O13 0.239914 0.822725 0.909724
O O14 0.360957 0.043913 0.344026
O O15 0.904389 0.772412 0.635093
O O16 0.000000 0.000000 0.000000
O O17 0.500000 0.500000 0.000000
#
# Coordination Sequence:
#
# PCOD9107458 Si02
#       8
#     2   2   2   2   2   2   2   2
#     4  10  22  40  63  89 122 163 209 252 305 370
#     4  10  21  37  63  95 122 156 203 258 309 365
#     4  11  22  39  60  89 131 154 202 256 307 356
#     4  10  22  42  62  90 125 163 207 253 304 372
#     4  10  20  40  64  93 123 156 203 257 309 364
#     4  10  21  37  65  93 124 160 207 249 311 365
#     4  12  24  40  64  90 122 168 209 251 310 363
#     4  11  22  38  60  92 126 166 201 254 306 366
#
# _framework density 23.401585000000001
#
# number of rings (size 3 to 8) (size 9 to 14) (size 15 to 20)
#    0.000    1.500    2.500    3.750    1.750    2.000 
#    2.250    8.750    0.000    0.000    0.000    0.000 
#    0.000    0.000    0.000    0.000    0.000    0.000 
#
# Total GULP energy -89512.834927 kJ/mol
# GULP energy per Si atom -5594.552183 kJ/mol
# Density = 2.334832 g / cm^3
# Si number density = 23.401585 Si / 1000 Ang^3
#
#
#
# Elastic Constant Matrix: (Units=GPa)
#
#
# Indices 1 2 3 4 5 6 
#
# 1 126.6385 29.6742 32.8010 -17.2811 0.8456 -15.9150
# 2 29.6742 97.2573 25.5320 -8.3355 -0.3479 -16.8414
# 3 32.8010 25.5320 89.4171 -29.7359 -9.7492 -8.0868
# 4 -17.2811 -8.3355 -29.7359 30.3389 -0.0157 0.8498
# 5 0.8456 -0.3479 -9.7492 -0.0157 25.7471 -3.5800
# 6 -15.9150 -16.8414 -8.0868 0.8498 -3.5800 36.5762
#
#
#
# Elastic Compliance Matrix: (Units=1/GPa)
#
#
# Indices 1 2 3 4 5 6 
#
# 1 0.009544 -0.001683 -0.001784 0.003146 -0.000613 0.002851
# 2 -0.001683 0.012195 -0.002578 -0.000255 -0.000158 0.004303
# 3 -0.001784 -0.002578 0.019381 0.017200 0.007746 0.002681
# 4 0.003146 -0.000255 0.017200 0.051417 0.007071 0.004552
# 5 -0.000613 -0.000158 0.007746 0.007071 0.042542 0.005373
# 6 0.002851 0.004303 0.002681 0.004552 0.005373 0.031575
#
#
# Mechanical properties :
#
#
# Convention : Reuss Voigt Hill
#
# Bulk Modulus (GPa) = 34.44462 54.36971 44.40717
# Shear Modulus (GPa) = 26.53657 33.55283 30.04470
#
# Velocity S-wave (km/s) = 3.37109 3.79064 3.58701
# Velocity P-wave (km/s) = 5.46838 6.51478 6.01438
#
# Compressibility (1/GPa) = 0.02903211
#
# Stress axis : x y z
#
# Youngs Moduli (GPa) = 104.77338 82.00146 51.59756
#
# Poissons Ratio (x) = 0.13799 0.09203
# Poissons Ratio (y) = 0.17632 0.13300
# Poissons Ratio (z) = 0.18687 0.21137
#
# Static dielectric constant tensor:
#      x y z
#    x 1.887230 0.032740 -0.033680 
#    y 0.032740 1.915360 0.040480 
#    z -0.033680 0.040480 1.866950 
# 
# From -- ./inp_files/206989.got.cif
#   From: 2010.05.17/outbox.cif.g08.bks.cpg/sg2_104_cif.got.tgz:206989.got - 2010.06.03 11:33:40.
