data_PCOD9107848
_publ_section_title
;
Structure prediction by ZEFSAII (Michael W. Deem and Ramdas Pophale) SiO2 
 PCOD9107848
Probable space group: P -1
;
_chemical_formula_sum "Si O2"
_cell_formula_units_Z 16
_cell_length_a 8.585109
_cell_length_b 11.889302
_cell_length_c 19.828029
_cell_angle_alpha 154.794461
_cell_angle_beta 63.957971
_cell_angle_gamma 109.769379
_cell_volume 765.131258
_symmetry_space_group_name_H-M "P -1"
_symmetry_group_IT_number 2
_symmetry_cell_setting 'triclinic'
loop_
_space_group_symop_operation_xyz
x,y,z
-x,-y,-z
loop_
_atom_site_type_symbol
_atom_site_label
_atom_site_fract_x
_atom_site_fract_y
_atom_site_fract_z
Si Si1 0.176646 0.934108 0.474340
Si Si2 0.039701 0.076107 0.876185
Si Si3 0.709909 0.946327 0.936556
Si Si4 0.738991 0.600020 0.366825
Si Si5 0.107212 0.935162 0.644161
Si Si6 0.856752 0.637424 0.864993
Si Si7 0.190800 0.439525 0.515878
Si Si8 0.619072 0.526425 0.633645
O O1 0.127191 0.004785 0.599686
O O2 0.234579 0.619407 0.277260
O O3 0.293529 0.136798 0.530465
O O4 0.000000 0.000000 0.500000
O O5 0.050787 0.130493 0.823795
O O6 0.118622 0.759854 0.702299
O O7 0.838670 0.111661 0.961054
O O8 0.144783 0.258202 0.001670
O O9 0.781236 0.877809 0.960494
O O10 0.734317 0.663759 0.738472
O O11 0.500000 0.000000 0.000000
O O12 0.730761 0.652513 0.476598
O O13 0.585635 0.431050 0.288215
O O14 0.937254 0.454529 0.240148
O O15 0.299326 0.783199 0.545406
O O16 0.964095 0.731089 0.563191
O O17 0.337067 0.380188 0.398143
#
# Coordination Sequence:
#
# PCOD9107848 Si02
#       8
#     2   2   2   2   2   2   2   2
#     4  10  20  40  66  83 111 168 208 237 283 353
#     4  11  21  36  61  89 123 155 189 250 310 351
#     4  12  22  34  58  90 126 154 190 250 310 351
#     4  11  22  37  63  90 120 158 204 238 293 356
#     4  11  19  40  62  86 120 160 201 240 293 354
#     4  11  22  40  58  87 124 159 197 245 296 354
#     4  11  19  38  62  87 125 155 192 242 308 358
#     4  11  21  35  57  96 120 150 197 249 300 352
#
# _framework density 20.911443999999999
#
# number of rings (size 3 to 8) (size 9 to 14) (size 15 to 20)
#    0.000    1.000    7.500    2.250    1.750    0.500 
#    0.000    2.500    0.000    3.000    0.000    0.000 
#    0.000    0.000    0.000    0.000    0.000    0.000 
#
# Total GULP energy -89200.944578 kJ/mol
# GULP energy per Si atom -5575.059036 kJ/mol
# Density = 2.086385 g / cm^3
# Si number density = 20.911444 Si / 1000 Ang^3
#
#
#
# Elastic Constant Matrix: (Units=GPa)
#
#
# Indices 1 2 3 4 5 6 
#
# 1 65.3460 35.3643 17.5905 -6.4138 13.0884 3.4357
# 2 35.3643 130.8508 35.3180 -23.2631 16.7642 -14.3705
# 3 17.5905 35.3180 42.1553 -15.2364 22.8696 -9.6186
# 4 -6.4138 -23.2631 -15.2364 29.1711 -13.4034 13.3118
# 5 13.0884 16.7642 22.8696 -13.4034 36.1678 -7.9675
# 6 3.4357 -14.3705 -9.6186 13.3118 -7.9675 31.1456
#
#
#
# Elastic Compliance Matrix: (Units=1/GPa)
#
#
# Indices 1 2 3 4 5 6 
#
# 1 0.019962 -0.004593 -0.003738 -0.000224 -0.004238 -0.006464
# 2 -0.004593 0.011532 -0.007183 0.004809 0.003161 0.002362
# 3 -0.003738 -0.007183 0.045798 0.006136 -0.021305 0.003170
# 4 -0.000224 0.004809 0.006136 0.053260 0.010180 -0.016021
# 5 -0.004238 0.003161 -0.021305 0.010180 0.045545 0.002646
# 6 -0.006464 0.002362 0.003170 -0.016021 0.002646 0.042413
#
#
# Mechanical properties :
#
#
# Convention : Reuss Voigt Hill
#
# Bulk Modulus (GPa) = 21.61492 46.09974 33.85733
# Shear Modulus (GPa) = 18.87089 29.30220 24.08654
#
# Velocity S-wave (km/s) = 3.00729 3.74739 3.39755
# Velocity P-wave (km/s) = 4.73468 6.38882 5.62291
#
# Compressibility (1/GPa) = 0.04626433
#
# Stress axis : x y z
#
# Youngs Moduli (GPa) = 50.09588 86.71809 21.83478
#
# Poissons Ratio (x) = 0.39826 0.08163
# Poissons Ratio (y) = 0.23007 0.15683
# Poissons Ratio (z) = 0.18728 0.62287
#
# Static dielectric constant tensor:
#      x y z
#    x 1.741530 0.014410 0.024540 
#    y 0.014410 1.782430 0.025950 
#    z 0.024540 0.025950 1.909750 
# 
# From -- ./inp_files/560154.got.cif
#   From: 2010.05.17/outbox.cif.g08.bks.cpg/sg2_281_cif.got.tgz:560154.got - 2010.06.03 11:33:40.
