data_PCOD9107332
_publ_section_title
;
Structure prediction by ZEFSAII (Michael W. Deem and Ramdas Pophale) SiO2 
 PCOD9107332
Probable space group: P -1
;
_chemical_formula_sum "Si O2"
_cell_formula_units_Z 16
_cell_length_a 14.298880
_cell_length_b 9.221328
_cell_length_c 12.648049
_cell_angle_alpha 51.152587
_cell_angle_beta 138.936583
_cell_angle_gamma 95.187575
_cell_volume 566.568326
_symmetry_space_group_name_H-M "P -1"
_symmetry_group_IT_number 2
_symmetry_cell_setting 'triclinic'
loop_
_space_group_symop_operation_xyz
x,y,z
-x,-y,-z
loop_
_atom_site_type_symbol
_atom_site_label
_atom_site_fract_x
_atom_site_fract_y
_atom_site_fract_z
Si Si1 0.374038 0.717440 0.387615
Si Si2 0.133683 0.599726 0.523883
Si Si3 0.788300 0.977382 0.230764
Si Si4 0.214347 0.602052 0.986858
Si Si5 0.299592 0.413065 0.529377
Si Si6 0.881251 0.937839 0.725080
Si Si7 0.724524 0.835637 0.823944
Si Si8 0.397132 0.949599 0.738115
O O1 0.500000 0.500000 0.500000
O O2 0.224711 0.691802 0.303789
O O3 0.291988 0.005548 0.164941
O O4 0.539990 0.597923 0.678293
O O5 0.167685 0.478730 0.490560
O O6 0.115206 0.840596 0.369973
O O7 0.944892 0.741738 0.381410
O O8 0.358170 0.333411 0.895327
O O9 0.862337 0.119637 0.234770
O O10 0.743722 0.973153 0.316442
O O11 0.546249 0.193824 0.879127
O O12 0.189625 0.455973 0.952067
O O13 0.084284 0.676203 0.947721
O O14 0.328408 0.233013 0.545071
O O15 0.674753 0.087123 0.409962
O O16 0.858912 0.831900 0.858301
O O17 0.500000 0.000000 0.500000
#
# Coordination Sequence:
#
# PCOD9107332 Si02
#       8
#     2   2   2   2   2   2   2   2
#     4  10  21  41  64  87 117 156 212 251 298 365
#     4  10  20  40  64  85 124 167 200 249 309 353
#     4   9  20  40  62  91 125 159 206 248 303 360
#     4   9  21  39  65  86 121 161 191 254 308 355
#     4  10  21  39  60  87 126 164 198 256 305 350
#     4  11  22  41  59  90 127 155 202 248 304 367
#     4  10  21  39  64  87 117 162 196 247 314 355
#     4  11  24  36  61  95 125 161 203 251 294 368
#
# _framework density 28.240195
#
# number of rings (size 3 to 8) (size 9 to 14) (size 15 to 20)
#    0.000    2.000    1.250    2.250    5.250    4.000 
#    4.500    4.375    0.000    0.000    0.000    0.000 
#    0.000    0.000    0.000    0.000    0.000    0.000 
#
# Total GULP energy -89570.571131 kJ/mol
# GULP energy per Si atom -5598.160696 kJ/mol
# Density = 2.817592 g / cm^3
# Si number density = 28.240195 Si / 1000 Ang^3
#
#
#
# Elastic Constant Matrix: (Units=GPa)
#
#
# Indices 1 2 3 4 5 6 
#
# 1 161.3406 50.2542 25.9136 -17.6335 31.6293 -3.2317
# 2 50.2542 140.6402 -6.2224 -34.4233 10.4376 2.2779
# 3 25.9136 -6.2224 112.2685 -4.4337 28.4940 -1.5898
# 4 -17.6335 -34.4233 -4.4337 47.0065 -4.1624 3.4557
# 5 31.6293 10.4376 28.4940 -4.1624 40.5650 3.8165
# 6 -3.2317 2.2779 -1.5898 3.4557 3.8165 37.9043
#
#
#
# Elastic Compliance Matrix: (Units=1/GPa)
#
#
# Indices 1 2 3 4 5 6 
#
# 1 0.008207 -0.002414 -0.000612 0.000680 -0.005401 0.001301
# 2 -0.002414 0.009683 0.001567 0.006338 -0.000947 -0.001205
# 3 -0.000612 0.001567 0.011160 0.001213 -0.007734 0.000990
# 4 0.000680 0.006338 0.001213 0.026478 -0.000044 -0.002682
# 5 -0.005401 -0.000947 -0.007734 -0.000044 0.034934 -0.004241
# 6 0.001301 -0.001205 0.000990 -0.002682 -0.004241 0.027279
#
#
# Mechanical properties :
#
#
# Convention : Reuss Voigt Hill
#
# Bulk Modulus (GPa) = 38.26425 61.57111 49.91768
# Shear Modulus (GPa) = 38.64906 48.04876 43.34891
#
# Velocity S-wave (km/s) = 3.70345 4.12932 3.92217
# Velocity P-wave (km/s) = 5.64503 6.67720 6.18269
#
# Compressibility (1/GPa) = 0.02613405
#
# Stress axis : x y z
#
# Youngs Moduli (GPa) = 121.84197 103.27068 89.60426
#
# Poissons Ratio (x) = 0.24926 0.05485
# Poissons Ratio (y) = 0.29408 -0.14044
# Poissons Ratio (z) = 0.07458 -0.16186
#
# Static dielectric constant tensor:
#      x y z
#    x 2.213640 0.013140 -0.043260 
#    y 0.013140 2.185550 -0.040130 
#    z -0.043260 -0.040130 2.352470 
# 
# From -- ./inp_files/355023.got.cif
#   From: 2010.05.17/outbox.cif.g08.bks.cpg/sg2_178_cif.got.tgz:355023.got - 2010.06.03 11:33:40.
