data_PCOD9107836
_publ_section_title
;
Structure prediction by ZEFSAII (Michael W. Deem and Ramdas Pophale) SiO2 
 PCOD9107836
Probable space group: P -1
;
_chemical_formula_sum "Si O2"
_cell_formula_units_Z 14
_cell_length_a 15.664768
_cell_length_b 25.211165
_cell_length_c 7.161473
_cell_angle_alpha 132.248594
_cell_angle_beta 132.491245
_cell_angle_gamma 16.927473
_cell_volume 602.700834
_symmetry_space_group_name_H-M "P -1"
_symmetry_group_IT_number 2
_symmetry_cell_setting 'triclinic'
loop_
_space_group_symop_operation_xyz
x,y,z
-x,-y,-z
loop_
_atom_site_type_symbol
_atom_site_label
_atom_site_fract_x
_atom_site_fract_y
_atom_site_fract_z
Si Si1 0.215307 0.160009 0.598103
Si Si2 0.628826 0.146362 0.566160
Si Si3 0.801482 0.178152 0.715350
Si Si4 0.565232 0.584397 0.620463
Si Si5 0.635594 0.777729 0.949633
Si Si6 0.930063 0.174688 0.279875
Si Si7 0.260948 0.354140 0.846425
O O1 0.891637 0.369944 0.540592
O O2 0.124717 0.135842 0.496066
O O3 0.500000 0.000000 0.500000
O O4 0.289304 0.184193 0.900810
O O5 0.575465 0.257638 0.689013
O O6 0.638252 0.092233 0.268691
O O7 0.360763 0.275486 0.604184
O O8 0.907213 0.978319 0.715868
O O9 0.638968 0.306276 0.605266
O O10 0.928255 0.155834 0.013336
O O11 0.000000 0.000000 0.500000
O O12 0.397930 0.638673 0.670900
O O13 0.602997 0.646617 0.885777
O O14 0.911280 0.566725 0.825841
O O15 0.617701 0.774768 0.137427
#
# Coordination Sequence:
#
# PCOD9107836 Si02
#       7
#     2   2   2   2   2   2   2
#     4  11  27  48  68  96 141 188 228 273 335 411
#     4  12  22  38  70 102 134 171 223 282 345 396
#     4  12  24  41  72 106 136 169 225 289 346 394
#     4  11  23  46  72 100 135 181 228 283 338 394
#     4  10  23  41  66  96 138 180 221 277 342 400
#     4  12  26  44  69 101 143 179 225 277 334 412
#     4  10  20  40  66 102 135 168 226 288 335 396
#
# _framework density 23.228770999999998
#
# number of rings (size 3 to 8) (size 9 to 14) (size 15 to 20)
#    0.000    0.857    4.286    3.000    2.000    1.143 
#    2.571    2.857    0.000    0.000    0.000    0.000 
#    0.000    0.000    0.000    0.000    0.000    0.000 
#
# Total GULP energy -78084.507519 kJ/mol
# GULP energy per Si atom -5577.464823 kJ/mol
# Density = 2.317590 g / cm^3
# Si number density = 23.228771 Si / 1000 Ang^3
#
#
#
# Elastic Constant Matrix: (Units=GPa)
#
#
# Indices 1 2 3 4 5 6 
#
# 1 109.4040 12.3148 38.8731 9.1274 10.6500 -12.1845
# 2 12.3148 103.3437 27.3009 4.9908 -7.0554 -16.2310
# 3 38.8731 27.3009 87.9979 -17.7990 -7.7519 11.7837
# 4 9.1274 4.9908 -17.7990 26.9466 -5.3949 -1.6425
# 5 10.6500 -7.0554 -7.7519 -5.3949 46.3273 1.7210
# 6 -12.1845 -16.2310 11.7837 -1.6425 1.7210 30.3204
#
#
#
# Elastic Compliance Matrix: (Units=1/GPa)
#
#
# Indices 1 2 3 4 5 6 
#
# 1 0.018851 0.005043 -0.016779 -0.019256 -0.009220 0.016276
# 2 0.005043 0.014525 -0.011107 -0.011432 -0.002644 0.013650
# 3 -0.016779 -0.011107 0.032675 0.030249 0.012063 -0.024434
# 4 -0.019256 -0.011432 0.030249 0.067634 0.016474 -0.022886
# 5 -0.009220 -0.002644 0.012063 0.016474 0.027629 -0.010485
# 6 0.016276 0.013650 -0.024434 -0.022886 -0.010485 0.055680
#
#
# Mechanical properties :
#
#
# Convention : Reuss Voigt Hill
#
# Bulk Modulus (GPa) = 49.10333 50.85815 49.98074
# Shear Modulus (GPa) = 18.55501 35.53598 27.04549
#
# Velocity S-wave (km/s) = 2.82936 3.91554 3.41590
# Velocity P-wave (km/s) = 5.64434 6.51030 6.09272
#
# Compressibility (1/GPa) = 0.02036522
#
# Stress axis : x y z
#
# Youngs Moduli (GPa) = 53.04655 68.84604 30.60455
#
# Poissons Ratio (x) = -0.34719 0.51351
# Poissons Ratio (y) = -0.26751 0.33993
# Poissons Ratio (z) = 0.89006 0.76469
#
# Static dielectric constant tensor:
#      x y z
#    x 1.961880 -0.068790 -0.009020 
#    y -0.068790 1.946450 0.037980 
#    z -0.009020 0.037980 1.881010 
# 
# From -- ./inp_files/101313.got.cif
#   From: 2010.05.17/outbox.cif.g08.bks.cpg/sg2_51_cif.got.tgz:101313.got - 2010.06.03 11:33:40.
