data_PCOD9107893
_publ_section_title
;
Structure prediction by ZEFSAII (Michael W. Deem and Ramdas Pophale) SiO2 
 PCOD9107893
Probable space group: P -1
;
_chemical_formula_sum "Si O2"
_cell_formula_units_Z 14
_cell_length_a 19.621755
_cell_length_b 21.098553
_cell_length_c 9.512208
_cell_angle_alpha 147.944872
_cell_angle_beta 21.998313
_cell_angle_gamma 155.240851
_cell_volume 617.380473
_symmetry_space_group_name_H-M "P -1"
_symmetry_group_IT_number 2
_symmetry_cell_setting 'triclinic'
loop_
_space_group_symop_operation_xyz
x,y,z
-x,-y,-z
loop_
_atom_site_type_symbol
_atom_site_label
_atom_site_fract_x
_atom_site_fract_y
_atom_site_fract_z
Si Si1 0.025173 0.667810 0.336707
Si Si2 0.382221 0.592498 0.493281
Si Si3 0.423058 0.360825 0.488098
Si Si4 0.081347 0.874273 0.858455
Si Si5 0.725529 0.101569 0.929374
Si Si6 0.257678 0.048984 0.112202
Si Si7 0.683122 0.900522 0.379429
O O1 0.751922 0.536019 0.611392
O O2 0.116426 0.784179 0.508985
O O3 0.060513 0.744672 0.261985
O O4 0.192474 0.621621 0.932625
O O5 0.435574 0.572357 0.510883
O O6 0.610224 0.740952 0.266937
O O7 0.500000 0.500000 0.500000
O O8 0.428518 0.230358 0.157433
O O9 0.157441 0.253924 0.849429
O O10 0.099172 0.995703 0.945596
O O11 0.268388 0.976226 0.812627
O O12 0.747492 0.044387 0.925292
O O13 0.678568 0.978811 0.674964
O O14 0.527542 0.122107 0.344617
O O15 0.000000 0.000000 0.500000
#
# Coordination Sequence:
#
# PCOD9107893 Si02
#       7
#     2   2   2   2   2   2   2
#     4   9  21  39  66  95 118 154 206 254 298 351
#     4  10  20  40  66  89 125 162 194 246 314 356
#     4  11  25  42  60  86 127 168 196 241 314 367
#     4  10  23  40  60  95 121 152 210 252 292 359
#     4   9  17  36  63  86 119 159 195 247 303 354
#     4  10  22  39  58  86 125 167 196 240 309 358
#     4   9  18  36  63  91 114 148 208 254 292 345
#
# _framework density 22.676456000000002
#
# number of rings (size 3 to 8) (size 9 to 14) (size 15 to 20)
#    0.000    2.286    1.429    0.857    4.000    2.857 
#    2.571    0.714    0.000    0.000    0.000    0.000 
#    0.000    0.000    0.000    0.000    0.000    0.000 
#
# Total GULP energy -78049.593005 kJ/mol
# GULP energy per Si atom -5574.970929 kJ/mol
# Density = 2.262484 g / cm^3
# Si number density = 22.676456 Si / 1000 Ang^3
#
#
#
# Elastic Constant Matrix: (Units=GPa)
#
#
# Indices 1 2 3 4 5 6 
#
# 1 175.5049 56.2347 28.1265 8.2487 20.2372 -26.1402
# 2 56.2347 98.7290 23.8262 -9.2763 11.8392 -21.4697
# 3 28.1265 23.8262 49.1658 -2.7244 5.2773 -9.0036
# 4 8.2487 -9.2763 -2.7244 37.5030 -3.2171 5.6979
# 5 20.2372 11.8392 5.2773 -3.2171 33.9604 2.2334
# 6 -26.1402 -21.4697 -9.0036 5.6979 2.2334 47.5800
#
#
#
# Elastic Compliance Matrix: (Units=1/GPa)
#
#
# Indices 1 2 3 4 5 6 
#
# 1 0.008228 -0.003299 -0.002296 -0.003620 -0.003950 0.003216
# 2 -0.003299 0.014340 -0.003966 0.003231 -0.002349 0.003631
# 3 -0.002296 -0.003966 0.023993 0.000967 -0.000980 0.001420
# 4 -0.003620 0.003231 0.000967 0.029280 0.003920 -0.004038
# 5 -0.003950 -0.002349 -0.000980 0.003920 0.033502 -0.005458
# 6 0.003216 0.003631 0.001420 -0.004038 -0.005458 0.025431
#
#
# Mechanical properties :
#
#
# Convention : Reuss Voigt Hill
#
# Bulk Modulus (GPa) = 36.44372 59.97494 48.20933
# Shear Modulus (GPa) = 30.66721 38.15619 34.41170
#
# Velocity S-wave (km/s) = 3.68146 4.10644 3.89975
# Velocity P-wave (km/s) = 5.84611 6.99924 6.44850
#
# Compressibility (1/GPa) = 0.02743957
#
# Stress axis : x y z
#
# Youngs Moduli (GPa) = 121.54306 69.73510 41.67867
#
# Poissons Ratio (x) = 0.23008 0.09567
# Poissons Ratio (y) = 0.40102 0.16528
# Poissons Ratio (z) = 0.27900 0.27654
#
# Static dielectric constant tensor:
#      x y z
#    x 1.847470 0.030480 -0.023560 
#    y 0.030480 1.963000 0.009390 
#    z -0.023560 0.009390 1.993420 
# 
# From -- ./inp_files/155396.got.cif
#   From: 2010.05.17/outbox.cif.g08.bks.cpg/sg2_78_cif.got.tgz:155396.got - 2010.06.03 11:33:40.
