data_PCOD9107202
_publ_section_title
;
Structure prediction by ZEFSAII (Michael W. Deem and Ramdas Pophale) SiO2 
 PCOD9107202
Probable space group: P -1
;
_chemical_formula_sum "Si O2"
_cell_formula_units_Z 14
_cell_length_a 15.379966
_cell_length_b 7.506879
_cell_length_c 8.002395
_cell_angle_alpha 45.353872
_cell_angle_beta 53.389851
_cell_angle_gamma 53.261433
_cell_volume 501.036348
_symmetry_space_group_name_H-M "P -1"
_symmetry_group_IT_number 2
_symmetry_cell_setting 'triclinic'
loop_
_space_group_symop_operation_xyz
x,y,z
-x,-y,-z
loop_
_atom_site_type_symbol
_atom_site_label
_atom_site_fract_x
_atom_site_fract_y
_atom_site_fract_z
Si Si1 0.928689 0.881204 0.854861
Si Si2 0.165424 0.981595 0.473086
Si Si3 0.946575 0.756755 0.268944
Si Si4 0.371733 0.503109 0.458649
Si Si5 0.414418 0.962019 0.759747
Si Si6 0.438177 0.292630 0.947978
Si Si7 0.737410 0.378278 0.853947
O O1 0.060097 0.858573 0.683694
O O2 0.867672 0.847713 0.772848
O O3 0.862636 0.190490 0.779586
O O4 0.922637 0.699129 0.141628
O O5 0.287527 0.770207 0.450614
O O6 0.159898 0.107983 0.578762
O O7 0.000000 0.500000 0.500000
O O8 0.000000 0.000000 0.000000
O O9 0.363490 0.240938 0.728327
O O10 0.501593 0.503120 0.327623
O O11 0.318818 0.494297 0.340043
O O12 0.500000 0.000000 0.500000
O O13 0.494123 0.748735 0.927820
O O14 0.317004 0.850853 0.886012
O O15 0.306424 0.419120 0.073792
O O16 0.500000 0.000000 0.000000
#
# Coordination Sequence:
#
# PCOD9107202 Si02
#       7
#     2   2   2   2   2   2   2
#     4   9  20  42  66  97 130 173 223 280 337 409
#     4   9  20  42  66  98 130 175 226 277 336 414
#     4  10  22  45  66  94 138 182 224 284 343 406
#     4  10  20  41  64  88 128 170 221 265 333 400
#     4  11  19  39  64  84 119 174 211 265 324 396
#     4  11  23  38  59  95 128 162 214 276 330 396
#     4  10  20  40  63  91 127 168 220 265 334 401
#
# _framework density 27.942084000000001
#
# number of rings (size 3 to 8) (size 9 to 14) (size 15 to 20)
#    0.000    2.000    2.857    0.857    0.000    2.286 
#   36.000    0.000    0.000    0.000    0.000    0.000 
#    0.000    0.000    0.000    0.000    0.000    0.000 
#
# Total GULP energy -78011.014090 kJ/mol
# GULP energy per Si atom -5572.215292 kJ/mol
# Density = 2.787849 g / cm^3
# Si number density = 27.942084 Si / 1000 Ang^3
#
#
#
# Elastic Constant Matrix: (Units=GPa)
#
#
# Indices 1 2 3 4 5 6 
#
# 1 45.8672 -10.4642 53.9357 5.4993 3.7503 -5.4212
# 2 -10.4642 123.7698 18.0129 11.9036 -8.3782 2.9891
# 3 53.9357 18.0129 166.0882 8.4869 30.9485 9.1705
# 4 5.4993 11.9036 8.4869 47.1788 0.0017 3.9753
# 5 3.7503 -8.3782 30.9485 0.0017 71.2104 3.4641
# 6 -5.4212 2.9891 9.1705 3.9753 3.4641 36.9062
#
#
#
# Elastic Compliance Matrix: (Units=1/GPa)
#
#
# Indices 1 2 3 4 5 6 
#
# 1 0.043546 0.006572 -0.016092 -0.004673 0.004992 0.009897
# 2 0.006572 0.009524 -0.003514 -0.002633 0.002246 0.001140
# 3 -0.016092 -0.003514 0.012761 0.000879 -0.004874 -0.004887
# 4 -0.004673 -0.002633 0.000879 0.022507 -0.000296 -0.003088
# 5 0.004992 0.002246 -0.004874 -0.000296 0.016149 0.000279
# 6 0.009897 0.001140 -0.004887 -0.003088 0.000279 0.029978
#
#
# Mechanical properties :
#
#
# Convention : Reuss Voigt Hill
#
# Bulk Modulus (GPa) = 25.14898 50.96600 38.05749
# Shear Modulus (GPa) = 28.77075 49.34181 39.05628
#
# Velocity S-wave (km/s) = 3.21231 4.20677 3.74272
# Velocity P-wave (km/s) = 4.77268 6.47112 5.68568
#
# Compressibility (1/GPa) = 0.03976305
#
# Stress axis : x y z
#
# Youngs Moduli (GPa) = 22.96432 104.99436 78.36463
#
# Poissons Ratio (x) = -0.69001 1.26103
# Poissons Ratio (y) = -0.15092 0.27538
# Poissons Ratio (z) = 0.36954 0.36896
#
# Static dielectric constant tensor:
#      x y z
#    x 2.307070 0.031710 0.001720 
#    y 0.031710 2.530640 0.111480 
#    z 0.001720 0.111480 2.293550 
# 
# From -- ./inp_files/342370.got.cif
#   From: 2010.05.17/outbox.cif.g08.bks.cpg/sg2_172_cif.got.tgz:342370.got - 2010.06.03 11:33:40.
