data_PCOD9107698
_publ_section_title
;
Structure prediction by ZEFSAII (Michael W. Deem and Ramdas Pophale) SiO2 
 PCOD9107698
Probable space group: P -1
;
_chemical_formula_sum "Si O2"
_cell_formula_units_Z 16
_cell_length_a 14.428838
_cell_length_b 11.921370
_cell_length_c 9.218085
_cell_angle_alpha 63.811279
_cell_angle_beta 48.935960
_cell_angle_gamma 38.514382
_cell_volume 735.491320
_symmetry_space_group_name_H-M "P -1"
_symmetry_group_IT_number 2
_symmetry_cell_setting 'triclinic'
loop_
_space_group_symop_operation_xyz
x,y,z
-x,-y,-z
loop_
_atom_site_type_symbol
_atom_site_label
_atom_site_fract_x
_atom_site_fract_y
_atom_site_fract_z
Si Si1 0.564033 0.678062 0.574287
Si Si2 0.306398 0.484107 0.995818
Si Si3 0.942382 0.723976 0.807323
Si Si4 0.736670 0.657950 0.145567
Si Si5 0.368496 0.635495 0.187253
Si Si6 0.114130 0.523449 0.449066
Si Si7 0.196653 0.842445 0.820104
Si Si8 0.012419 0.025736 0.306276
O O1 0.577756 0.730178 0.372173
O O2 0.641545 0.476844 0.630188
O O3 0.699891 0.651482 0.557000
O O4 0.351926 0.816140 0.739354
O O5 0.195308 0.546173 0.222160
O O6 0.259424 0.412785 0.971729
O O7 0.521950 0.330279 0.877713
O O8 0.258700 0.654581 0.884700
O O9 0.956305 0.849051 0.793686
O O10 0.099621 0.522474 0.828283
O O11 0.987380 0.682798 0.611386
O O12 0.765119 0.782122 0.009253
O O13 0.186535 0.818417 0.201396
O O14 0.500000 0.500000 0.000000
O O15 0.000000 0.500000 0.500000
O O16 0.157739 0.886572 0.663766
O O17 0.000000 0.000000 0.000000
O O18 0.000000 0.000000 0.500000
#
# Coordination Sequence:
#
# PCOD9107698 Si02
#       8
#     2   2   2   2   2   2   2   2
#     4  10  23  41  68  97 129 175 229 268 335 410
#     4  11  22  39  66  92 126 179 225 267 332 408
#     4  10  22  40  64  98 134 172 226 276 331 398
#     4  10  20  40  65  92 130 178 223 269 329 409
#     4  11  23  41  68  95 133 173 221 276 336 409
#     4  11  21  39  68  97 127 178 225 269 324 406
#     4  11  26  41  64  97 134 173 218 284 340 394
#     4  12  25  41  68 102 136 170 221 292 343 388
#
# _framework density 21.754165
#
# number of rings (size 3 to 8) (size 9 to 14) (size 15 to 20)
#    0.000    1.250    3.750    3.000    3.500    1.000 
#    0.000    0.625    2.750    2.250    0.000    0.000 
#    0.000    0.000    0.000    0.000    0.000    0.000 
#
# Total GULP energy -89187.472678 kJ/mol
# GULP energy per Si atom -5574.217042 kJ/mol
# Density = 2.170465 g / cm^3
# Si number density = 21.754165 Si / 1000 Ang^3
#
#
#
# Elastic Constant Matrix: (Units=GPa)
#
#
# Indices 1 2 3 4 5 6 
#
# 1 121.3156 25.1737 37.5463 0.8431 -7.8185 -8.1316
# 2 25.1737 30.6754 8.5607 3.0940 -11.8735 -14.7445
# 3 37.5463 8.5607 103.9371 -12.9772 -9.0850 -8.7664
# 4 0.8431 3.0940 -12.9772 26.1519 -2.8525 0.8748
# 5 -7.8185 -11.8735 -9.0850 -2.8525 42.4079 -5.5137
# 6 -8.1316 -14.7445 -8.7664 0.8748 -5.5137 29.1501
#
#
#
# Elastic Compliance Matrix: (Units=1/GPa)
#
#
# Indices 1 2 3 4 5 6 
#
# 1 0.011287 -0.010885 -0.003861 -0.001120 -0.002381 -0.003935
# 2 -0.010885 0.066890 0.002705 -0.005062 0.021621 0.035852
# 3 -0.003861 0.002705 0.012258 0.006137 0.003668 0.004487
# 4 -0.001120 -0.005062 0.006137 0.042231 0.002290 -0.001861
# 5 -0.002381 0.021621 0.003668 0.002290 0.032402 0.017435
# 6 -0.003935 0.035852 0.004487 -0.001861 0.017435 0.056045
#
#
# Mechanical properties :
#
#
# Convention : Reuss Voigt Hill
#
# Bulk Modulus (GPa) = 15.07098 44.27662 29.67380
# Shear Modulus (GPa) = 18.70468 31.85181 25.27824
#
# Velocity S-wave (km/s) = 2.93545 3.83060 3.41250
# Velocity P-wave (km/s) = 4.29326 6.32155 5.40343
#
# Compressibility (1/GPa) = 0.06635268
#
# Stress axis : x y z
#
# Youngs Moduli (GPa) = 88.59619 14.94999 81.57668
#
# Poissons Ratio (x) = 0.16274 0.31494
# Poissons Ratio (y) = 0.96440 -0.22064
# Poissons Ratio (z) = 0.34204 -0.04044
#
# Static dielectric constant tensor:
#      x y z
#    x 1.702650 -0.419060 -0.828390 
#    y -0.419060 1.039980 -1.534140 
#    z -0.828390 -1.534140 -1.305020 
# 
# From -- ./inp_files/306916.got.cif
#   From: 2010.05.17/outbox.cif.g08.bks.cpg/sg2_154_cif.got.tgz:306916.got - 2010.06.03 11:33:40.
