data_PCOD9107020
_publ_section_title
;
Structure prediction by ZEFSAII (Michael W. Deem and Ramdas Pophale) SiO2 
 PCOD9107020
Probable space group: P -1
;
_chemical_formula_sum "Si O2"
_cell_formula_units_Z 16
_cell_length_a 7.771698
_cell_length_b 12.115832
_cell_length_c 16.137442
_cell_angle_alpha 56.411867
_cell_angle_beta 103.600857
_cell_angle_gamma 139.922406
_cell_volume 763.163046
_symmetry_space_group_name_H-M "P -1"
_symmetry_group_IT_number 2
_symmetry_cell_setting 'triclinic'
loop_
_space_group_symop_operation_xyz
x,y,z
-x,-y,-z
loop_
_atom_site_type_symbol
_atom_site_label
_atom_site_fract_x
_atom_site_fract_y
_atom_site_fract_z
Si Si1 0.225301 0.129791 0.276431
Si Si2 0.301921 0.722267 0.401765
Si Si3 0.301809 0.287078 0.513368
Si Si4 0.503919 0.467790 0.288567
Si Si5 0.000730 0.027307 0.869540
Si Si6 0.402563 0.881770 0.626353
Si Si7 0.222639 0.911793 0.043985
Si Si8 0.985902 0.549074 0.275181
O O1 0.313506 0.322063 0.246901
O O2 0.502326 0.204825 0.291030
O O3 0.113058 0.059437 0.200073
O O4 0.003357 0.919091 0.396495
O O5 0.536559 0.755080 0.440504
O O6 0.000000 0.500000 0.500000
O O7 0.247330 0.702038 0.306232
O O8 0.440328 0.934366 0.366460
O O9 0.500000 0.500000 0.500000
O O10 0.301860 0.336921 0.399285
O O11 0.733874 0.482414 0.322159
O O12 0.701550 0.713781 0.204595
O O13 0.783593 0.991023 0.915943
O O14 0.068717 0.922391 0.958557
O O15 0.079705 0.642913 0.672621
O O16 0.500000 0.000000 0.500000
O O17 0.046034 0.681251 0.150832
O O18 0.500000 0.000000 0.000000
#
# Coordination Sequence:
#
# PCOD9107020 Si02
#       8
#     2   2   2   2   2   2   2   2
#     4  11  23  40  62  95 133 168 213 265 322 395
#     4  12  21  38  60  90 127 167 206 252 314 390
#     4  12  23  36  59  95 136 169 209 255 316 394
#     4  10  20  40  62  92 129 172 206 261 327 387
#     4  10  22  45  69  92 126 172 222 273 337 380
#     4  11  21  38  63  91 126 167 204 250 320 385
#     4  10  23  44  70  95 125 170 226 283 330 384
#     4  10  22  39  65  89 124 164 211 264 322 381
#
# _framework density 20.965374000000001
#
# number of rings (size 3 to 8) (size 9 to 14) (size 15 to 20)
#    0.000    1.250    3.750    3.375    1.750    0.000 
#    2.250   11.250    0.000   12.750    0.000    0.000 
#    0.000    0.000    0.000    0.000    0.000    0.000 
#
# Total GULP energy -89080.048373 kJ/mol
# GULP energy per Si atom -5567.503023 kJ/mol
# Density = 2.091766 g / cm^3
# Si number density = 20.965374 Si / 1000 Ang^3
#
#
#
# Elastic Constant Matrix: (Units=GPa)
#
#
# Indices 1 2 3 4 5 6 
#
# 1 69.1525 9.4429 37.1292 -1.0691 1.1665 -3.8771
# 2 9.4429 153.5357 61.6482 10.9121 8.5438 -14.1846
# 3 37.1292 61.6482 122.3357 12.9478 9.7427 -7.8572
# 4 -1.0691 10.9121 12.9478 26.1776 -6.9728 3.4184
# 5 1.1665 8.5438 9.7427 -6.9728 32.3199 -4.7425
# 6 -3.8771 -14.1846 -7.8572 3.4184 -4.7425 13.2023
#
#
#
# Elastic Compliance Matrix: (Units=1/GPa)
#
#
# Indices 1 2 3 4 5 6 
#
# 1 0.017945 0.001393 -0.006523 0.003589 0.002123 0.002718
# 2 0.001393 0.009085 -0.004108 -0.002947 -0.000637 0.008259
# 3 -0.006523 -0.004108 0.013326 -0.006405 -0.003799 0.001895
# 4 0.003589 -0.002947 -0.006405 0.047474 0.010714 -0.014367
# 5 0.002123 -0.000637 -0.003799 0.010714 0.035619 0.007699
# 6 0.002718 0.008259 0.001895 -0.014367 0.007699 0.093030
#
#
# Mechanical properties :
#
#
# Convention : Reuss Voigt Hill
#
# Bulk Modulus (GPa) = 45.70165 62.38495 54.04330
# Shear Modulus (GPa) = 20.64009 30.12684 25.38347
#
# Velocity S-wave (km/s) = 3.14105 3.79487 3.48333
# Velocity P-wave (km/s) = 5.91616 7.00158 6.48163
#
# Compressibility (1/GPa) = 0.02188105
#
# Stress axis : x y z
#
# Youngs Moduli (GPa) = 55.72646 110.07430 75.04027
#
# Poissons Ratio (x) = -0.15336 0.48947
# Poissons Ratio (y) = -0.07764 0.30825
# Poissons Ratio (z) = 0.36349 0.45217
#
# Static dielectric constant tensor:
#      x y z
#    x 1.811120 0.036950 -0.116640 
#    y 0.036950 1.768160 0.019180 
#    z -0.116640 0.019180 1.795230 
# 
# From -- ./inp_files/500184.got.cif
#   From: 2010.05.17/outbox.cif.g08.bks.cpg/sg2_251_cif.got.tgz:500184.got - 2010.06.03 11:33:40.
