data_PCOD9107793
_publ_section_title
;
Structure prediction by ZEFSAII (Michael W. Deem and Ramdas Pophale) SiO2 
 PCOD9107793
Probable space group: P -1
;
_chemical_formula_sum "Si O2"
_cell_formula_units_Z 13
_cell_length_a 5.110160
_cell_length_b 5.237719
_cell_length_c 21.200425
_cell_angle_alpha 58.691917
_cell_angle_beta 95.472773
_cell_angle_gamma 91.538317
_cell_volume 482.431890
_symmetry_space_group_name_H-M "P -1"
_symmetry_group_IT_number 2
_symmetry_cell_setting 'triclinic'
loop_
_space_group_symop_operation_xyz
x,y,z
-x,-y,-z
loop_
_atom_site_type_symbol
_atom_site_label
_atom_site_fract_x
_atom_site_fract_y
_atom_site_fract_z
Si Si1 0.781453 0.208799 0.268071
Si Si2 0.313504 0.325826 0.065197
Si Si3 0.445018 0.270624 0.887673
Si Si4 0.682843 0.170923 0.663526
Si Si5 0.000000 0.000000 0.000000
Si Si6 0.716508 0.193801 0.516520
Si Si7 0.925783 0.350983 0.380716
O O1 0.713651 0.463946 0.184199
O O2 0.573564 0.946277 0.293552
O O3 0.731995 0.345996 0.318812
O O4 0.080511 0.080470 0.290639
O O5 0.302631 0.566708 0.092853
O O6 0.059340 0.201877 0.040822
O O7 0.462040 0.999841 0.121453
O O8 0.500000 0.500000 0.000000
O O9 0.257161 0.142300 0.953116
O O10 0.628747 0.258636 0.577409
O O11 0.825171 0.458693 0.656095
O O12 0.814622 0.429681 0.436914
O O13 0.500000 0.000000 0.500000
O O14 0.970865 0.985634 0.564158
#
# Coordination Sequence:
#
# PCOD9107793 Si02
#       7
#     2   2   2   2   1   2   2
#     4  11  27  44  64 102 139 181 235 288 352 437
#     4  10  23  44  70 106 137 178 235 293 354 428
#     4  11  26  43  71 104 142 185 240 291 361 429
#     4  11  25  43  67  96 137 185 233 286 364 415
#     4  10  22  44  74  98 140 178 232 292 350 418
#     4  10  20  40  65  97 131 175 237 294 345 423
#     4  10  23  41  66  95 137 178 231 294 354 418
#
# _framework density 26.946807
#
# number of rings (size 3 to 8) (size 9 to 14) (size 15 to 20)
#    0.000    1.538    1.538    2.308    6.462    7.385 
#    0.000    0.000    0.000    0.000    0.000    0.000 
#    0.000    0.000    0.000    0.000    0.000    0.000 
#
# Total GULP energy -72524.318772 kJ/mol
# GULP energy per Si atom -5578.793752 kJ/mol
# Density = 2.688547 g / cm^3
# Si number density = 26.946807 Si / 1000 Ang^3
#
#
#
# Elastic Constant Matrix: (Units=GPa)
#
#
# Indices 1 2 3 4 5 6 
#
# 1 107.1367 32.7069 26.5991 -3.9437 4.9386 15.6062
# 2 32.7069 171.1906 24.6972 -13.6633 -0.9266 25.3201
# 3 26.5991 24.6972 106.5714 -4.8952 10.1195 13.9403
# 4 -3.9437 -13.6633 -4.8952 19.8016 10.6444 6.4488
# 5 4.9386 -0.9266 10.1195 10.6444 19.3171 3.9801
# 6 15.6062 25.3201 13.9403 6.4488 3.9801 54.9824
#
#
#
# Elastic Compliance Matrix: (Units=1/GPa)
#
#
# Indices 1 2 3 4 5 6 
#
# 1 0.010717 -0.001230 -0.001621 0.003425 -0.003379 -0.002222
# 2 -0.001230 0.007198 -0.000360 0.007013 -0.002289 -0.003531
# 3 -0.001621 -0.000360 0.011509 0.008316 -0.009686 -0.002566
# 4 0.003425 0.007013 0.008316 0.090274 -0.051933 -0.013139
# 5 -0.003379 -0.002289 -0.009686 -0.051933 0.085309 0.004385
# 6 -0.002222 -0.003531 -0.002566 -0.013139 0.004385 0.022319
#
#
# Mechanical properties :
#
#
# Convention : Reuss Voigt Hill
#
# Bulk Modulus (GPa) = 43.47361 61.43390 52.45376
# Shear Modulus (GPa) = 20.71119 38.87992 29.79555
#
# Velocity S-wave (km/s) = 2.77536 3.80259 3.32884
# Velocity P-wave (km/s) = 5.14182 6.49056 5.85515
#
# Compressibility (1/GPa) = 0.02300246
#
# Stress axis : x y z
#
# Youngs Moduli (GPa) = 93.30690 138.92741 86.89042
#
# Poissons Ratio (x) = 0.17089 0.14085
# Poissons Ratio (y) = 0.11477 0.03125
# Poissons Ratio (z) = 0.15125 0.04997
#
# Static dielectric constant tensor:
#      x y z
#    x 2.150190 -0.148060 0.073920 
#    y -0.148060 2.171010 -0.052490 
#    z 0.073920 -0.052490 2.000610 
# 
# From -- ./inp_files/5159.got.cif
#   From: 2010.05.17/outbox.cif.g08.bks.cpg/sg2_3_cif.got.tgz:5159.got - 2010.06.03 11:33:40.
