data_PCOD9107998
_publ_section_title
;
Structure prediction by ZEFSAII (Michael W. Deem and Ramdas Pophale) SiO2 
 PCOD9107998
Probable space group: P -1
;
_chemical_formula_sum "Si O2"
_cell_formula_units_Z 16
_cell_length_a 11.944363
_cell_length_b 18.701070
_cell_length_c 17.902831
_cell_angle_alpha 156.201654
_cell_angle_beta 28.066271
_cell_angle_gamma 150.738858
_cell_volume 713.297805
_symmetry_space_group_name_H-M "P -1"
_symmetry_group_IT_number 2
_symmetry_cell_setting 'triclinic'
loop_
_space_group_symop_operation_xyz
x,y,z
-x,-y,-z
loop_
_atom_site_type_symbol
_atom_site_label
_atom_site_fract_x
_atom_site_fract_y
_atom_site_fract_z
Si Si1 0.105393 0.077671 0.283579
Si Si2 0.714759 0.591333 0.399134
Si Si3 0.667493 0.344947 0.417140
Si Si4 0.422927 0.593779 0.304368
Si Si5 0.110514 0.704485 0.484848
Si Si6 0.811394 0.806142 0.894468
Si Si7 0.491284 0.908799 0.064901
Si Si8 0.011047 0.703983 0.065623
O O1 0.156431 0.197039 0.443968
O O2 0.895331 0.143770 0.428359
O O3 0.052697 0.861096 0.126557
O O4 0.351538 0.136487 0.140421
O O5 0.500000 0.500000 0.500000
O O6 0.563743 0.587620 0.408060
O O7 0.899197 0.471564 0.172928
O O8 0.685776 0.348235 0.499475
O O9 0.922374 0.493495 0.373528
O O10 0.594772 0.134132 0.228271
O O11 0.366319 0.696008 0.362316
O O12 0.281201 0.369794 0.163820
O O13 0.714855 0.636124 0.189159
O O14 0.962678 0.751526 0.686618
O O15 0.569843 0.832214 0.021559
O O16 0.000000 0.000000 0.000000
O O17 0.197707 0.814872 0.128205
#
# Coordination Sequence:
#
# PCOD9107998 Si02
#       8
#     2   2   2   2   2   2   2   2
#     4  11  23  41  66  95 123 168 227 263 306 375
#     4  12  21  41  68  95 124 166 217 272 313 365
#     4  11  21  39  70  95 124 165 215 268 315 375
#     4  11  25  42  59  96 136 168 206 261 328 383
#     4  10  21  40  66  88 124 170 217 268 307 369
#     4  10  20  40  66  94 121 166 220 262 311 380
#     4  11  21  37  70  97 122 167 218 267 311 374
#     4  12  25  41  62  97 136 168 206 263 328 382
#
# _framework density 22.431023
#
# number of rings (size 3 to 8) (size 9 to 14) (size 15 to 20)
#    0.000    1.000    3.750    5.625    0.000    3.000 
#    4.500    0.625    0.000    0.000    0.000    0.000 
#    0.000    0.000    0.000    0.000    0.000    0.000 
#
# Total GULP energy -89418.586960 kJ/mol
# GULP energy per Si atom -5588.661685 kJ/mol
# Density = 2.237997 g / cm^3
# Si number density = 22.431023 Si / 1000 Ang^3
#
#
#
# Elastic Constant Matrix: (Units=GPa)
#
#
# Indices 1 2 3 4 5 6 
#
# 1 116.0013 19.2998 29.7089 -1.6092 -36.1522 25.5102
# 2 19.2998 49.2685 24.5412 1.2195 -3.9067 27.4145
# 3 29.7089 24.5412 100.0455 19.8094 -16.0609 21.8566
# 4 -1.6092 1.2195 19.8094 26.4020 10.9439 -2.2930
# 5 -36.1522 -3.9067 -16.0609 10.9439 40.4082 4.0410
# 6 25.5102 27.4145 21.8566 -2.2930 4.0410 28.5364
#
#
#
# Elastic Compliance Matrix: (Units=1/GPa)
#
#
# Indices 1 2 3 4 5 6 
#
# 1 0.064475 0.066214 0.044967 -0.101587 0.127666 -0.181931
# 2 0.066214 0.120776 0.054620 -0.127108 0.151931 -0.248783
# 3 0.044967 0.054620 0.056254 -0.102078 0.111492 -0.159748
# 4 -0.101587 -0.127108 -0.102078 0.245636 -0.244828 0.345516
# 5 0.127666 0.151931 0.111492 -0.244828 0.305115 -0.408359
# 6 -0.181931 -0.248783 -0.159748 0.345516 -0.408359 0.644628
#
#
# Mechanical properties :
#
#
# Convention : Reuss Voigt Hill
#
# Bulk Modulus (GPa) = 1.74487 45.82391 23.78439
# Shear Modulus (GPa) = 3.85708 31.85366 17.85537
#
# Velocity S-wave (km/s) = 1.31273 3.77247 2.82443
# Velocity P-wave (km/s) = 1.75421 6.28081 4.61117
#
# Compressibility (1/GPa) = 0.57310811
#
# Stress axis : x y z
#
# Youngs Moduli (GPa) = 15.50988 8.27980 17.77653
#
# Poissons Ratio (x) = -0.54824 -0.79936
# Poissons Ratio (y) = -1.02698 -0.97096
# Poissons Ratio (z) = -0.69743 -0.45224
#
# Static dielectric constant tensor:
#      x y z
#    x 1.875320 0.025570 -0.026980 
#    y 0.025570 1.839340 0.032380 
#    z -0.026980 0.032380 1.846690 
# 
# From -- ./inp_files/472776.got.cif
#   From: 2010.05.17/outbox.cif.g08.bks.cpg/sg2_237_cif.got.tgz:472776.got - 2010.06.03 11:33:40.
