data_PCOD9107302
_publ_section_title
;
Structure prediction by ZEFSAII (Michael W. Deem and Ramdas Pophale) SiO2 
 PCOD9107302
Probable space group: P -1
;
_chemical_formula_sum "Si O2"
_cell_formula_units_Z 12
_cell_length_a 7.565548
_cell_length_b 9.220313
_cell_length_c 13.772556
_cell_angle_alpha 148.621246
_cell_angle_beta 79.453117
_cell_angle_gamma 98.421491
_cell_volume 491.702793
_symmetry_space_group_name_H-M "P -1"
_symmetry_group_IT_number 2
_symmetry_cell_setting 'triclinic'
loop_
_space_group_symop_operation_xyz
x,y,z
-x,-y,-z
loop_
_atom_site_type_symbol
_atom_site_label
_atom_site_fract_x
_atom_site_fract_y
_atom_site_fract_z
Si Si1 0.611766 0.348555 0.550305
Si Si2 0.147490 0.120225 0.984358
Si Si3 0.032688 0.684312 0.283100
Si Si4 0.343274 0.488999 0.827759
Si Si5 0.469737 0.090446 0.217273
Si Si6 0.877135 0.889104 0.241852
O O1 0.492263 0.362844 0.667488
O O2 0.507591 0.186687 0.379673
O O3 0.632662 0.659944 0.684887
O O4 0.803916 0.193059 0.454378
O O5 0.334071 0.951078 0.875883
O O6 0.086532 0.092837 0.863518
O O7 0.171356 0.455770 0.178629
O O8 0.000000 0.000000 0.000000
O O9 0.841918 0.532549 0.226696
O O10 0.042435 0.747909 0.202711
O O11 0.000000 0.000000 0.500000
O O12 0.294527 0.293375 0.812398
O O13 0.383337 0.793661 0.037248
#
# Coordination Sequence:
#
# PCOD9107302 Si02
#       6
#     2   2   2   2   2   2
#     4  10  20  40  64 101 132 166 220 269 332 389
#     4  11  23  44  66  95 135 173 219 266 335 396
#     4  10  24  43  64  96 132 175 217 271 330 391
#     4  10  22  40  67  98 126 175 218 272 327 382
#     4  10  23  39  69  98 132 172 217 274 327 394
#     4   9  23  41  66  96 131 172 222 268 326 394
#
# _framework density 24.404986999999998
#
# number of rings (size 3 to 8) (size 9 to 14) (size 15 to 20)
#    1.000    1.000    0.000    2.500    2.333    4.000 
#    0.000    0.833    0.000    0.000    0.000    0.000 
#    0.000    0.000    0.000    0.000    0.000    0.000 
#
# Total GULP energy -66991.762655 kJ/mol
# GULP energy per Si atom -5582.646888 kJ/mol
# Density = 2.434944 g / cm^3
# Si number density = 24.404987 Si / 1000 Ang^3
#
#
#
# Elastic Constant Matrix: (Units=GPa)
#
#
# Indices 1 2 3 4 5 6 
#
# 1 61.8423 24.2620 26.4817 5.3754 -17.9174 9.2063
# 2 24.2620 150.6568 61.6583 3.6052 -18.2683 12.2825
# 3 26.4817 61.6583 185.1318 3.6485 -15.0992 7.3544
# 4 5.3754 3.6052 3.6485 47.3853 -9.6471 -21.3882
# 5 -17.9174 -18.2683 -15.0992 -9.6471 41.2220 3.3539
# 6 9.2063 12.2825 7.3544 -21.3882 3.3539 23.2429
#
#
#
# Elastic Compliance Matrix: (Units=1/GPa)
#
#
# Indices 1 2 3 4 5 6 
#
# 1 0.022830 -0.000354 -0.001582 -0.008589 0.008601 -0.017500
# 2 -0.000354 0.008565 -0.002257 -0.002950 0.002676 -0.006773
# 3 -0.001582 -0.002257 0.006461 -0.000267 0.000663 -0.000567
# 4 -0.008589 -0.002950 -0.000267 0.042363 0.001208 0.043854
# 5 0.008601 0.002676 0.000663 0.001208 0.030384 -0.008304
# 6 -0.017500 -0.006773 -0.000567 0.043854 -0.008304 0.095267
#
#
# Mechanical properties :
#
#
# Convention : Reuss Voigt Hill
#
# Bulk Modulus (GPa) = 33.93090 69.15941 51.54515
# Shear Modulus (GPa) = 22.31349 41.38530 31.84940
#
# Velocity S-wave (km/s) = 3.02702 4.12244 3.61645
# Velocity P-wave (km/s) = 5.11376 7.14557 6.21328
#
# Compressibility (1/GPa) = 0.02947166
#
# Stress axis : x y z
#
# Youngs Moduli (GPa) = 43.80197 116.74845 154.76917
#
# Poissons Ratio (x) = 0.04134 0.24482
# Poissons Ratio (y) = 0.01551 0.34926
# Poissons Ratio (z) = 0.06929 0.26346
#
# Static dielectric constant tensor:
#      x y z
#    x 2.011540 -0.092320 0.029060 
#    y -0.092320 1.942500 -0.068830 
#    z 0.029060 -0.068830 2.096350 
# 
# From -- ./inp_files/494170.got.cif
#   From: 2010.05.17/outbox.cif.g08.bks.cpg/sg2_248_cif.got.tgz:494170.got - 2010.06.03 11:33:40.
