data_PCOD9107786
_publ_section_title
;
Structure prediction by ZEFSAII (Michael W. Deem and Ramdas Pophale) SiO2 
 PCOD9107786
Probable space group: P -1
;
_chemical_formula_sum "Si O2"
_cell_formula_units_Z 16
_cell_length_a 11.949266
_cell_length_b 13.788678
_cell_length_c 5.399162
_cell_angle_alpha 66.388650
_cell_angle_beta 89.609004
_cell_angle_gamma 125.907643
_cell_volume 624.213432
_symmetry_space_group_name_H-M "P -1"
_symmetry_group_IT_number 2
_symmetry_cell_setting 'triclinic'
loop_
_space_group_symop_operation_xyz
x,y,z
-x,-y,-z
loop_
_atom_site_type_symbol
_atom_site_label
_atom_site_fract_x
_atom_site_fract_y
_atom_site_fract_z
Si Si1 0.219816 0.697802 0.724636
Si Si2 0.361482 0.967044 0.166788
Si Si3 0.878126 0.065203 0.105271
Si Si4 0.317330 0.459079 0.326892
Si Si5 0.406001 0.619904 0.648652
Si Si6 0.196678 0.202976 0.875799
Si Si7 0.915288 0.512514 0.693160
Si Si8 0.666591 0.855164 0.699287
O O1 0.312286 0.855234 0.494316
O O2 0.280227 0.633916 0.633176
O O3 0.049308 0.619975 0.766323
O O4 0.213805 0.643960 0.050769
O O5 0.401301 0.103353 0.149102
O O6 0.221792 0.905642 0.051946
O O7 0.500000 0.000000 0.000000
O O8 0.849305 0.939642 0.080691
O O9 0.812441 0.999017 0.443019
O O10 0.052718 0.180531 0.984313
O O11 0.412015 0.564010 0.445526
O O12 0.718631 0.682333 0.455241
O O13 0.164480 0.426703 0.405410
O O14 0.370992 0.521980 0.986285
O O15 0.552632 0.770004 0.567965
O O16 0.293463 0.230071 0.082242
O O17 0.000000 0.500000 0.500000
#
# Coordination Sequence:
#
# PCOD9107786 Si02
#       8
#     2   2   2   2   2   2   2   2
#     4  10  22  39  63  98 138 182 227 291 353 425
#     4  11  25  42  71 103 140 186 237 289 362 432
#     4  10  23  47  69 103 140 182 239 301 352 424
#     4  11  25  44  69 105 137 192 234 295 353 432
#     4  11  26  43  69 100 145 180 239 288 358 424
#     4  10  24  45  73 100 139 183 243 295 358 413
#     4  10  20  40  65  96 138 179 231 291 355 418
#     4  11  26  45  69 101 139 188 236 300 351 426
#
# _framework density 25.632259000000001
#
# number of rings (size 3 to 8) (size 9 to 14) (size 15 to 20)
#    0.000    1.500    1.250    1.875    7.000    5.000 
#    0.000    0.000    0.000    0.000    0.000    0.000 
#    0.000    0.000    0.000    0.000    0.000    0.000 
#
# Total GULP energy -89560.827970 kJ/mol
# GULP energy per Si atom -5597.551748 kJ/mol
# Density = 2.557392 g / cm^3
# Si number density = 25.632259 Si / 1000 Ang^3
#
#
#
# Elastic Constant Matrix: (Units=GPa)
#
#
# Indices 1 2 3 4 5 6 
#
# 1 163.2506 30.2757 35.4256 -3.8263 3.8976 19.4313
# 2 30.2757 53.8193 17.9846 -1.8653 9.1711 12.6754
# 3 35.4256 17.9846 120.1920 -14.1419 14.6677 0.4538
# 4 -3.8263 -1.8653 -14.1419 40.2393 -1.7445 -0.8616
# 5 3.8976 9.1711 14.6677 -1.7445 41.6190 -0.9616
# 6 19.4313 12.6754 0.4538 -0.8616 -0.9616 30.5355
#
#
#
# Elastic Compliance Matrix: (Units=1/GPa)
#
#
# Indices 1 2 3 4 5 6 
#
# 1 0.007455 -0.002838 -0.001833 -0.000121 0.000487 -0.003527
# 2 -0.002838 0.023532 -0.002158 -0.000299 -0.004359 -0.008076
# 3 -0.001833 -0.002158 0.009867 0.003119 -0.002655 0.001920
# 4 -0.000121 -0.000299 0.003119 0.025945 0.000086 0.000890
# 5 0.000487 -0.004359 -0.002655 0.000086 0.025936 0.002358
# 6 -0.003527 -0.008076 0.001920 0.000890 0.002358 0.038416
#
#
# Mechanical properties :
#
#
# Convention : Reuss Voigt Hill
#
# Bulk Modulus (GPa) = 36.76781 56.07040 46.41910
# Shear Modulus (GPa) = 32.49400 39.38381 35.93890
#
# Velocity S-wave (km/s) = 3.56434 3.92407 3.74852
# Velocity P-wave (km/s) = 5.59597 6.51563 6.07323
#
# Compressibility (1/GPa) = 0.02719771
#
# Stress axis : x y z
#
# Youngs Moduli (GPa) = 134.13980 42.49445 101.34860
#
# Poissons Ratio (x) = 0.12059 0.18577
# Poissons Ratio (y) = 0.38064 0.21867
# Poissons Ratio (z) = 0.24588 0.09169
#
# Static dielectric constant tensor:
#      x y z
#    x 2.050730 -0.000270 0.038670 
#    y -0.000270 2.051660 0.029540 
#    z 0.038670 0.029540 2.083470 
# 
# From -- ./inp_files/80219.got.cif
#   From: 2010.05.17/outbox.cif.g08.bks.cpg/sg2_41_cif.got.tgz:80219.got - 2010.06.03 11:33:40.
