data_PCOD9107208
_publ_section_title
;
Structure prediction by ZEFSAII (Michael W. Deem and Ramdas Pophale) SiO2 
 PCOD9107208
Probable space group: P -1
;
_chemical_formula_sum "Si O2"
_cell_formula_units_Z 14
_cell_length_a 14.348299
_cell_length_b 10.638399
_cell_length_c 7.092547
_cell_angle_alpha 85.457223
_cell_angle_beta 91.459593
_cell_angle_gamma 30.413321
_cell_volume 536.825286
_symmetry_space_group_name_H-M "P -1"
_symmetry_group_IT_number 2
_symmetry_cell_setting 'triclinic'
loop_
_space_group_symop_operation_xyz
x,y,z
-x,-y,-z
loop_
_atom_site_type_symbol
_atom_site_label
_atom_site_fract_x
_atom_site_fract_y
_atom_site_fract_z
Si Si1 0.811097 0.573772 0.843849
Si Si2 0.841722 0.677566 0.191175
Si Si3 0.446552 0.918515 0.589386
Si Si4 0.046182 0.065945 0.766644
Si Si5 0.523986 0.647542 0.322349
Si Si6 0.388806 0.810411 0.919809
Si Si7 0.817671 0.120709 0.604127
O O1 0.611855 0.804149 0.705311
O O2 0.943894 0.531706 0.783200
O O3 0.909696 0.327559 0.822135
O O4 0.801499 0.606448 0.064675
O O5 0.745785 0.794725 0.377080
O O6 0.735396 0.921989 0.060609
O O7 0.495044 0.816290 0.396449
O O8 0.453499 0.774809 0.719723
O O9 0.956289 0.032795 0.760872
O O10 0.070109 0.071342 0.542784
O O11 0.249988 0.855891 0.888692
O O12 0.549781 0.617521 0.103712
O O13 0.686768 0.379397 0.465142
O O14 0.325094 0.808417 0.318484
#
# Coordination Sequence:
#
# PCOD9107208 Si02
#       7
#     2   2   2   2   2   2   2
#     4  10  16  34  64  78 113 155 178 231 289 328
#     4   8  19  34  59  87 108 146 191 224 282 346
#     4  10  19  36  59  83 114 149 181 232 284 338
#     4  10  19  37  55  82 114 148 196 230 272 343
#     4  11  20  37  58  81 115 149 186 237 283 326
#     4   9  21  36  56  86 114 140 194 235 270 346
#     4  10  21  35  57  80 110 158 189 225 292 328
#
# _framework density 26.079249000000001
#
# number of rings (size 3 to 8) (size 9 to 14) (size 15 to 20)
#    0.857    1.429    2.857    0.429    0.000    1.143 
#    0.000    6.429    0.000    6.857    0.000    0.000 
#    0.000    0.000    0.000    0.000    0.000    0.000 
#
# Total GULP energy -78282.257154 kJ/mol
# GULP energy per Si atom -5591.589797 kJ/mol
# Density = 2.601989 g / cm^3
# Si number density = 26.079249 Si / 1000 Ang^3
#
#
#
# Elastic Constant Matrix: (Units=GPa)
#
#
# Indices 1 2 3 4 5 6 
#
# 1 78.6176 24.0110 23.2343 -12.2965 20.8841 -11.1741
# 2 24.0110 64.5560 29.2586 16.6963 15.0458 8.2614
# 3 23.2343 29.2586 123.7492 4.6562 37.3365 18.4637
# 4 -12.2965 16.6963 4.6562 33.4854 -3.4846 15.8590
# 5 20.8841 15.0458 37.3365 -3.4846 39.3333 1.0099
# 6 -11.1741 8.2614 18.4637 15.8590 1.0099 39.0698
#
#
#
# Elastic Compliance Matrix: (Units=1/GPa)
#
#
# Indices 1 2 3 4 5 6 
#
# 1 0.018816 -0.008054 -0.000966 0.008500 -0.005349 0.004229
# 2 -0.008054 0.024509 -0.002465 -0.015251 -0.004109 -0.000024
# 3 -0.000966 -0.002465 0.012875 0.000772 -0.010547 -0.005880
# 4 0.008500 -0.015251 0.000772 0.047761 0.005185 -0.014230
# 5 -0.005349 -0.004109 -0.010547 0.005185 0.040276 0.001178
# 6 0.004229 -0.000024 -0.005880 -0.014230 0.001178 0.035334
#
#
# Mechanical properties :
#
#
# Convention : Reuss Voigt Hill
#
# Bulk Modulus (GPa) = 30.09283 46.65896 38.37589
# Shear Modulus (GPa) = 23.40621 35.07229 29.23925
#
# Velocity S-wave (km/s) = 2.99909 3.67118 3.35202
# Velocity P-wave (km/s) = 4.85353 5.99167 5.45238
#
# Compressibility (1/GPa) = 0.03323051
#
# Stress axis : x y z
#
# Youngs Moduli (GPa) = 53.14509 40.80187 77.66745
#
# Poissons Ratio (x) = 0.32862 0.07500
# Poissons Ratio (y) = 0.42803 0.19148
# Poissons Ratio (z) = 0.05132 0.10059
#
# Static dielectric constant tensor:
#      x y z
#    x 2.105640 0.017980 -0.099780 
#    y 0.017980 2.016060 -0.026970 
#    z -0.099780 -0.026970 2.076670 
# 
# From -- ./inp_files/110984.got.cif
#   From: 2010.05.17/outbox.cif.g08.bks.cpg/sg2_56_cif.got.tgz:110984.got - 2010.06.03 11:33:40.
