data_PCOD9107805
_publ_section_title
;
Structure prediction by ZEFSAII (Michael W. Deem and Ramdas Pophale) SiO2 
 PCOD9107805
Probable space group: P -1
;
_chemical_formula_sum "Si O2"
_cell_formula_units_Z 14
_cell_length_a 11.765161
_cell_length_b 5.668334
_cell_length_c 11.718672
_cell_angle_alpha 67.233388
_cell_angle_beta 57.153825
_cell_angle_gamma 69.477769
_cell_volume 595.345447
_symmetry_space_group_name_H-M "P -1"
_symmetry_group_IT_number 2
_symmetry_cell_setting 'triclinic'
loop_
_space_group_symop_operation_xyz
x,y,z
-x,-y,-z
loop_
_atom_site_type_symbol
_atom_site_label
_atom_site_fract_x
_atom_site_fract_y
_atom_site_fract_z
Si Si1 0.081590 0.217665 0.463850
Si Si2 0.173600 0.233166 0.169454
Si Si3 0.812549 0.043219 0.985627
Si Si4 0.269895 0.082731 0.595109
Si Si5 0.517807 0.386991 0.381037
Si Si6 0.417825 0.526782 0.919090
Si Si7 0.940111 0.650694 0.155676
O O1 0.175427 0.262268 0.297341
O O2 0.175181 0.080396 0.538751
O O3 0.000000 0.500000 0.500000
O O4 0.000000 0.000000 0.500000
O O5 0.017714 0.362414 0.192714
O O6 0.195461 0.956071 0.147131
O O7 0.298402 0.357495 0.029832
O O8 0.864617 0.752475 0.060824
O O9 0.667097 0.176242 0.090320
O O10 0.931434 0.199188 0.926725
O O11 0.397553 0.218773 0.467944
O O12 0.175224 0.253075 0.707063
O O13 0.333013 0.798511 0.659806
O O14 0.500000 0.500000 0.500000
O O15 0.513803 0.534131 0.232493
O O16 0.500000 0.500000 0.000000
#
# Coordination Sequence:
#
# PCOD9107805 Si02
#       7
#     2   2   2   2   2   2   2
#     4  12  27  46  74 111 153 195 242 306 385 454
#     4  11  24  40  71 101 134 182 233 295 369 434
#     4  10  22  39  65  98 134 174 225 291 369 430
#     4  11  24  45  69  98 146 188 248 302 373 445
#     4  11  27  44  71 102 141 202 254 309 371 446
#     4  11  25  45  67  98 144 184 245 302 365 440
#     4  10  20  40  65  98 135 167 226 293 361 432
#
# _framework density 23.515758999999999
#
# number of rings (size 3 to 8) (size 9 to 14) (size 15 to 20)
#    0.000    1.143    2.857    2.143    6.000    2.857 
#    0.000    0.000    0.000    0.000    0.000    0.000 
#    0.000    0.000    0.000    0.000    0.000    0.000 
#
# Total GULP energy -78107.009919 kJ/mol
# GULP energy per Si atom -5579.072137 kJ/mol
# Density = 2.346224 g / cm^3
# Si number density = 23.515759 Si / 1000 Ang^3
#
#
#
# Elastic Constant Matrix: (Units=GPa)
#
#
# Indices 1 2 3 4 5 6 
#
# 1 145.6149 33.3590 41.4654 1.1674 17.5749 4.2858
# 2 33.3590 46.7028 18.6047 13.7353 9.8160 6.8574
# 3 41.4654 18.6047 139.8077 24.1975 35.6981 -0.6487
# 4 1.1674 13.7353 24.1975 36.1230 5.4953 4.2896
# 5 17.5749 9.8160 35.6981 5.4953 36.1904 8.2977
# 6 4.2858 6.8574 -0.6487 4.2896 8.2977 29.6209
#
#
#
# Elastic Compliance Matrix: (Units=1/GPa)
#
#
# Indices 1 2 3 4 5 6 
#
# 1 0.009089 -0.006501 -0.002245 0.003849 -0.000988 -0.000140
# 2 -0.006501 0.030177 0.000547 -0.010729 -0.003111 -0.003608
# 3 -0.002245 0.000547 0.011632 -0.006851 -0.010497 0.004386
# 4 0.003849 -0.010729 -0.006851 0.036247 0.003303 -0.004398
# 5 -0.000988 -0.003111 -0.010497 0.003303 0.041434 -0.011452
# 6 -0.000140 -0.003608 0.004386 -0.004398 -0.011452 0.038556
#
#
# Mechanical properties :
#
#
# Convention : Reuss Voigt Hill
#
# Bulk Modulus (GPa) = 28.98603 57.66482 43.32542
# Shear Modulus (GPa) = 25.63653 36.29995 30.96824
#
# Velocity S-wave (km/s) = 3.30538 3.93319 3.63287
# Velocity P-wave (km/s) = 5.18848 6.72321 6.00508
#
# Compressibility (1/GPa) = 0.03449938
#
# Stress axis : x y z
#
# Youngs Moduli (GPa) = 110.02782 33.13792 85.96777
#
# Poissons Ratio (x) = 0.21544 0.19299
# Poissons Ratio (y) = 0.71533 -0.04702
# Poissons Ratio (z) = 0.24700 -0.01813
#
# Static dielectric constant tensor:
#      x y z
#    x 2.036830 0.201450 0.210160 
#    y 0.201450 2.242360 0.146260 
#    z 0.210160 0.146260 2.095620 
# 
# From -- ./inp_files/65843.got.cif
#   From: 2010.05.17/outbox.cif.g08.bks.cpg/sg2_33_cif.got.tgz:65843.got - 2010.06.03 11:33:40.
