data_PCOD9107215
_publ_section_title
;
Structure prediction by ZEFSAII (Michael W. Deem and Ramdas Pophale) SiO2 
 PCOD9107215
Probable space group: P -1
;
_chemical_formula_sum "Si O2"
_cell_formula_units_Z 16
_cell_length_a 8.720087
_cell_length_b 11.279263
_cell_length_c 13.661135
_cell_angle_alpha 83.550110
_cell_angle_beta 113.070332
_cell_angle_gamma 141.738461
_cell_volume 719.109515
_symmetry_space_group_name_H-M "P -1"
_symmetry_group_IT_number 2
_symmetry_cell_setting 'triclinic'
loop_
_space_group_symop_operation_xyz
x,y,z
-x,-y,-z
loop_
_atom_site_type_symbol
_atom_site_label
_atom_site_fract_x
_atom_site_fract_y
_atom_site_fract_z
Si Si1 0.508131 0.452666 0.861100
Si Si2 0.872901 0.481878 0.615258
Si Si3 0.444353 0.734218 0.237816
Si Si4 0.968063 0.602805 0.084561
Si Si5 0.012279 0.837008 0.581406
Si Si6 0.285568 0.099279 0.431136
Si Si7 0.586554 0.325545 0.185179
Si Si8 0.084536 0.901360 0.185327
O O1 0.458014 0.337092 0.768538
O O2 0.469823 0.568299 0.817072
O O3 0.254332 0.273625 0.890220
O O4 0.814015 0.596015 0.967788
O O5 0.728188 0.387578 0.694858
O O6 0.626699 0.281530 0.505439
O O7 0.919817 0.647351 0.585617
O O8 0.174392 0.589948 0.690227
O O9 0.222768 0.664217 0.112782
O O10 0.711074 0.973498 0.300767
O O11 0.723757 0.395553 0.105131
O O12 0.111866 0.776378 0.183920
O O13 0.784618 0.803470 0.565513
O O14 0.118369 0.929369 0.489560
O O15 0.178999 0.998186 0.307583
O O16 0.290475 0.086330 0.145002
#
# Coordination Sequence:
#
# PCOD9107215 Si02
#       8
#     2   2   2   2   2   2   2   2
#     4  11  23  40  65  89 120 160 204 250 300 355
#     4  10  22  39  62  90 125 158 199 247 298 357
#     4  10  21  40  65  92 120 156 202 250 300 354
#     4  10  23  42  62  90 122 158 201 252 301 354
#     4  10  20  40  63  92 124 155 197 251 301 354
#     4  10  22  37  63  93 119 160 200 244 301 359
#     4  10  23  40  59  89 124 161 197 245 301 357
#     4  11  22  40  62  89 122 160 199 246 300 359
#
# _framework density 22.249739000000002
#
# number of rings (size 3 to 8) (size 9 to 14) (size 15 to 20)
#    0.000    1.750    1.250    3.000    1.750    5.500 
#    0.000   13.125    0.000    6.000    0.000    0.000 
#    0.000    0.000    0.000    0.000    0.000    0.000 
#
# Total GULP energy -89399.971186 kJ/mol
# GULP energy per Si atom -5587.498199 kJ/mol
# Density = 2.219910 g / cm^3
# Si number density = 22.249739 Si / 1000 Ang^3
#
#
#
# Elastic Constant Matrix: (Units=GPa)
#
#
# Indices 1 2 3 4 5 6 
#
# 1 67.1179 20.8336 8.4743 -3.1164 18.1570 -5.8565
# 2 20.8336 112.9104 11.1292 -0.1737 13.8271 -6.3579
# 3 8.4743 11.1292 59.7503 4.6791 22.2186 -11.3649
# 4 -3.1164 -0.1737 4.6791 13.0198 0.9623 2.5134
# 5 18.1570 13.8271 22.2186 0.9623 42.6363 1.1243
# 6 -5.8565 -6.3579 -11.3649 2.5134 1.1243 20.4437
#
#
#
# Elastic Compliance Matrix: (Units=1/GPa)
#
#
# Indices 1 2 3 4 5 6 
#
# 1 0.018202 -0.002214 0.001626 0.003285 -0.008099 0.005471
# 2 -0.002214 0.009685 -0.000159 -0.000664 -0.002166 0.002490
# 3 0.001626 -0.000159 0.026002 -0.011183 -0.014388 0.017038
# 4 0.003285 -0.000664 -0.011183 0.084466 0.003161 -0.016041
# 5 -0.008099 -0.002166 -0.014388 0.003161 0.035384 -0.013327
# 6 0.005471 0.002490 0.017038 -0.016041 -0.013327 0.063433
#
#
# Mechanical properties :
#
#
# Convention : Reuss Voigt Hill
#
# Bulk Modulus (GPa) = 19.08549 35.62810 27.35679
# Shear Modulus (GPa) = 19.52130 28.50939 24.01535
#
# Velocity S-wave (km/s) = 2.96526 3.58346 3.28892
# Velocity P-wave (km/s) = 4.50779 5.75927 5.17152
#
# Compressibility (1/GPa) = 0.05239584
#
# Stress axis : x y z
#
# Youngs Moduli (GPa) = 54.93896 103.25044 38.45853
#
# Poissons Ratio (x) = 0.22858 -0.06253
# Poissons Ratio (y) = 0.12163 0.00611
# Poissons Ratio (z) = -0.08933 0.01640
#
# Static dielectric constant tensor:
#      x y z
#    x 1.837590 0.014520 0.014200 
#    y 0.014520 1.782640 0.009690 
#    z 0.014200 0.009690 1.875330 
# 
# From -- ./inp_files/258811.got.cif
#   From: 2010.05.17/outbox.cif.g08.bks.cpg/sg2_130_cif.got.tgz:258811.got - 2010.06.03 11:33:40.
