data_PCOD9107825
_publ_section_title
;
Structure prediction by ZEFSAII (Michael W. Deem and Ramdas Pophale) SiO2 
 PCOD9107825
Probable space group: P -1
;
_chemical_formula_sum "Si O2"
_cell_formula_units_Z 14
_cell_length_a 8.890374
_cell_length_b 12.143755
_cell_length_c 8.399714
_cell_angle_alpha 52.968221
_cell_angle_beta 100.999473
_cell_angle_gamma 127.660431
_cell_volume 550.125191
_symmetry_space_group_name_H-M "P -1"
_symmetry_group_IT_number 2
_symmetry_cell_setting 'triclinic'
loop_
_space_group_symop_operation_xyz
x,y,z
-x,-y,-z
loop_
_atom_site_type_symbol
_atom_site_label
_atom_site_fract_x
_atom_site_fract_y
_atom_site_fract_z
Si Si1 0.667170 0.989788 0.982791
Si Si2 0.142561 0.613498 0.581413
Si Si3 0.023168 0.263661 0.988098
Si Si4 0.663526 0.802657 0.845111
Si Si5 0.463647 0.674939 0.406061
Si Si6 0.351891 0.468752 0.254442
Si Si7 0.098891 0.847068 0.601936
O O1 0.884730 0.172037 0.885843
O O2 0.659152 0.850623 0.217567
O O3 0.500000 0.000000 0.000000
O O4 0.637164 0.909187 0.875305
O O5 0.357599 0.725558 0.448762
O O6 0.000000 0.500000 0.500000
O O7 0.130673 0.741420 0.575605
O O8 0.119042 0.467855 0.817990
O O9 0.172874 0.220417 0.058934
O O10 0.879703 0.180293 0.185426
O O11 0.456235 0.601568 0.008713
O O12 0.761603 0.943945 0.596054
O O13 0.335739 0.564559 0.317876
O O14 0.501968 0.562968 0.616333
O O15 0.142232 0.277792 0.347184
#
# Coordination Sequence:
#
# PCOD9107825 Si02
#       7
#     2   2   2   2   2   2   2
#     4  11  24  42  71 103 131 177 236 285 333 408
#     4  12  23  44  70  98 134 183 228 279 341 405
#     4  12  26  45  67 101 142 178 227 284 348 407
#     4  11  24  46  72  99 135 183 231 276 338 412
#     4  10  20  40  66 101 129 172 235 283 327 397
#     4  10  22  41  70 100 133 175 231 281 333 406
#     4  12  26  45  68 103 142 180 224 287 347 402
#
# _framework density 25.448753
#
# number of rings (size 3 to 8) (size 9 to 14) (size 15 to 20)
#    0.000    0.857    2.857    4.714    2.000    0.571 
#    2.571    1.429    0.000    0.000    0.000    0.000 
#    0.000    0.000    0.000    0.000    0.000    0.000 
#
# Total GULP energy -78237.538909 kJ/mol
# GULP energy per Si atom -5588.395636 kJ/mol
# Density = 2.539083 g / cm^3
# Si number density = 25.448753 Si / 1000 Ang^3
#
#
#
# Elastic Constant Matrix: (Units=GPa)
#
#
# Indices 1 2 3 4 5 6 
#
# 1 95.8239 22.6545 9.7838 0.4818 -8.8567 -34.4467
# 2 22.6545 67.9492 4.4259 13.1646 0.6309 -29.7450
# 3 9.7838 4.4259 176.2760 -35.4754 -20.6689 1.9911
# 4 0.4818 13.1646 -35.4754 26.4025 0.5515 2.3605
# 5 -8.8567 0.6309 -20.6689 0.5515 36.7907 -3.1205
# 6 -34.4467 -29.7450 1.9911 2.3605 -3.1205 45.7586
#
#
#
# Elastic Compliance Matrix: (Units=1/GPa)
#
#
# Indices 1 2 3 4 5 6 
#
# 1 0.015307 0.001437 -0.001383 -0.004102 0.004048 0.013005
# 2 0.001437 0.028599 -0.006101 -0.024340 -0.001418 0.021096
# 3 -0.001383 -0.006101 0.009884 0.016789 0.004565 -0.005992
# 4 -0.004102 -0.024340 0.016789 0.074588 0.005785 -0.023093
# 5 0.004048 -0.001418 0.004565 0.005785 0.030975 0.003741
# 6 0.013005 0.021096 -0.005992 -0.023093 0.003741 0.047064
#
#
# Mechanical properties :
#
#
# Convention : Reuss Voigt Hill
#
# Bulk Modulus (GPa) = 23.98332 45.97529 34.97931
# Shear Modulus (GPa) = 21.51367 42.00267 31.75817
#
# Velocity S-wave (km/s) = 2.91068 4.06702 3.53643
# Velocity P-wave (km/s) = 4.55420 6.33713 5.51815
#
# Compressibility (1/GPa) = 0.04169564
#
# Stress axis : x y z
#
# Youngs Moduli (GPa) = 65.32932 34.96629 101.16861
#
# Poissons Ratio (x) = -0.05023 0.13996
# Poissons Ratio (y) = -0.09385 0.61719
# Poissons Ratio (z) = 0.09038 0.21332
#
# Static dielectric constant tensor:
#      x y z
#    x 1.983860 0.035420 0.010550 
#    y 0.035420 2.068130 0.010450 
#    z 0.010550 0.010450 2.038470 
# 
# From -- ./inp_files/168647.got.cif
#   From: 2010.05.17/outbox.cif.g08.bks.cpg/sg2_85_cif.got.tgz:168647.got - 2010.06.03 11:33:40.
