data_PCOD9107925
_publ_section_title
;
Structure prediction by ZEFSAII (Michael W. Deem and Ramdas Pophale) SiO2 
 PCOD9107925
Probable space group: P -1
;
_chemical_formula_sum "Si O2"
_cell_formula_units_Z 16
_cell_length_a 9.098504
_cell_length_b 14.264494
_cell_length_c 14.615023
_cell_angle_alpha 50.733550
_cell_angle_beta 144.072052
_cell_angle_gamma 140.490760
_cell_volume 707.917987
_symmetry_space_group_name_H-M "P -1"
_symmetry_group_IT_number 2
_symmetry_cell_setting 'triclinic'
loop_
_space_group_symop_operation_xyz
x,y,z
-x,-y,-z
loop_
_atom_site_type_symbol
_atom_site_label
_atom_site_fract_x
_atom_site_fract_y
_atom_site_fract_z
Si Si1 0.786450 0.550005 0.394521
Si Si2 0.095382 0.387849 0.086501
Si Si3 0.771391 0.151593 0.505498
Si Si4 0.826223 0.655283 0.057027
Si Si5 0.819991 0.119121 0.255027
Si Si6 0.574109 0.242519 0.184753
Si Si7 0.819491 0.454254 0.666286
Si Si8 0.250540 0.170434 0.602124
O O1 0.458694 0.474157 0.231664
O O2 0.735918 0.508855 0.502393
O O3 0.000000 0.500000 0.500000
O O4 0.991991 0.726039 0.380357
O O5 0.057789 0.338444 0.991584
O O6 0.923829 0.238834 0.153509
O O7 0.000000 0.500000 0.000000
O O8 0.622592 0.217814 0.329589
O O9 0.974342 0.128518 0.554118
O O10 0.500000 0.000000 0.500000
O O11 0.731954 0.763926 0.970065
O O12 0.500000 0.500000 0.000000
O O13 0.056699 0.643261 0.243019
O O14 0.593712 0.133044 0.197016
O O15 0.118707 0.161621 0.439296
O O16 0.672195 0.947814 0.266103
O O17 0.895242 0.402608 0.228395
O O18 0.529008 0.339439 0.650424
#
# Coordination Sequence:
#
# PCOD9107925 Si02
#       8
#     2   2   2   2   2   2   2   2
#     4  11  24  39  67  97 127 170 226 272 315 389
#     4  12  24  39  66 100 135 167 219 279 323 386
#     4  10  23  37  60  93 130 170 212 267 333 390
#     4  10  21  39  61  90 132 167 204 265 335 377
#     4  10  22  39  62  92 126 165 211 268 326 378
#     4   9  20  38  63  89 122 172 210 260 326 387
#     4  10  20  40  66  91 120 166 222 262 315 389
#     4  10  22  39  64  91 128 166 217 265 325 381
#
# _framework density 22.601486999999999
#
# number of rings (size 3 to 8) (size 9 to 14) (size 15 to 20)
#    0.000    1.750    1.250    3.750    7.000    2.500 
#    0.000    2.500    0.000    0.000    0.000    2.625 
#    0.000    0.000    0.000    0.000    0.000    0.000 
#
# Total GULP energy -89324.755982 kJ/mol
# GULP energy per Si atom -5582.797249 kJ/mol
# Density = 2.255004 g / cm^3
# Si number density = 22.601487 Si / 1000 Ang^3
#
#
#
# Elastic Constant Matrix: (Units=GPa)
#
#
# Indices 1 2 3 4 5 6 
#
# 1 94.8620 47.7673 33.1202 -13.8945 17.1189 0.3051
# 2 47.7673 114.7562 24.7437 -21.1027 4.3279 16.6881
# 3 33.1202 24.7437 83.2755 -12.2926 19.7677 -3.6054
# 4 -13.8945 -21.1027 -12.2926 32.5711 -1.5767 6.0834
# 5 17.1189 4.3279 19.7677 -1.5767 37.9718 -9.3854
# 6 0.3051 16.6881 -3.6054 6.0834 -9.3854 39.0598
#
#
#
# Elastic Compliance Matrix: (Units=1/GPa)
#
#
# Indices 1 2 3 4 5 6 
#
# 1 0.015382 -0.005330 -0.003222 0.001576 -0.004450 0.000545
# 2 -0.005330 0.013551 -0.001124 0.007390 0.000021 -0.006997
# 3 -0.003222 -0.001124 0.015674 0.003528 -0.006470 -0.000152
# 4 0.001576 0.007390 0.003528 0.039149 -0.004225 -0.009956
# 5 -0.004450 0.000021 -0.006470 -0.004225 0.033546 0.008147
# 6 0.000545 -0.006997 -0.000152 -0.009956 0.008147 0.032081
#
#
# Mechanical properties :
#
#
# Convention : Reuss Voigt Hill
#
# Bulk Modulus (GPa) = 39.59397 56.01737 47.80567
# Shear Modulus (GPa) = 28.22443 34.40471 31.31457
#
# Velocity S-wave (km/s) = 3.53765 3.90581 3.72628
# Velocity P-wave (km/s) = 5.85175 6.72154 6.30167
#
# Compressibility (1/GPa) = 0.02525637
#
# Stress axis : x y z
#
# Youngs Moduli (GPa) = 65.00934 73.79696 63.80166
#
# Poissons Ratio (x) = 0.39334 0.20555
# Poissons Ratio (y) = 0.34650 0.07168
# Poissons Ratio (z) = 0.20944 0.08291
#
# Static dielectric constant tensor:
#      x y z
#    x 1.895210 -0.023930 0.010140 
#    y -0.023930 1.875600 -0.026950 
#    z 0.010140 -0.026950 1.934000 
# 
# From -- ./inp_files/504037.got.cif
#   From: 2010.05.17/outbox.cif.g08.bks.cpg/sg2_253_cif.got.tgz:504037.got - 2010.06.03 11:33:40.
