data_PCOD9107423
_publ_section_title
;
Structure prediction by ZEFSAII (Michael W. Deem and Ramdas Pophale) SiO2 
 PCOD9107423
Probable space group: P -1
;
_chemical_formula_sum "Si O2"
_cell_formula_units_Z 16
_cell_length_a 12.778892
_cell_length_b 17.657817
_cell_length_c 9.678784
_cell_angle_alpha 57.147710
_cell_angle_beta 132.115238
_cell_angle_gamma 150.850463
_cell_volume 783.461177
_symmetry_space_group_name_H-M "P -1"
_symmetry_group_IT_number 2
_symmetry_cell_setting 'triclinic'
loop_
_space_group_symop_operation_xyz
x,y,z
-x,-y,-z
loop_
_atom_site_type_symbol
_atom_site_label
_atom_site_fract_x
_atom_site_fract_y
_atom_site_fract_z
Si Si1 0.312328 0.808614 0.654874
Si Si2 0.525648 0.113967 0.586290
Si Si3 0.735850 0.837867 0.751337
Si Si4 0.474328 0.369257 0.688522
Si Si5 0.231572 0.302291 0.288453
Si Si6 0.681146 0.848631 0.001779
Si Si7 0.760874 0.162372 0.008353
Si Si8 0.959199 0.565784 0.803607
O O1 0.321427 0.807187 0.498981
O O2 0.549717 0.876999 0.851028
O O3 0.082440 0.638829 0.690760
O O4 0.350805 0.933779 0.603242
O O5 0.371612 0.125419 0.442007
O O6 0.702722 0.194012 0.794003
O O7 0.678730 0.723317 0.717820
O O8 0.641135 0.783959 0.878819
O O9 0.030044 0.996272 0.868508
O O10 0.239764 0.268459 0.486379
O O11 0.589323 0.517222 0.718558
O O12 0.675269 0.441266 0.684082
O O13 0.434064 0.271779 0.861405
O O14 0.955351 0.186568 0.119115
O O15 0.899439 0.285435 0.130826
O O16 0.500000 0.000000 0.000000
O O17 0.000000 0.500000 0.000000
#
# Coordination Sequence:
#
# PCOD9107423 Si02
#       8
#     2   2   2   2   2   2   2   2
#     4  10  20  40  64  91 127 164 205 262 309 372
#     4  10  22  38  63  95 124 161 211 259 314 362
#     4  10  23  38  64  94 125 165 212 260 311 375
#     4  10  23  41  64  89 128 168 211 256 311 385
#     4  10  24  43  60  90 127 165 210 257 315 373
#     4  10  21  40  63  94 125 165 212 257 318 372
#     4  11  23  40  63  93 123 159 213 261 306 373
#     4  11  22  38  64  91 123 165 204 256 318 364
#
# _framework density 20.422198000000002
#
# number of rings (size 3 to 8) (size 9 to 14) (size 15 to 20)
#    0.000    1.750    2.500    0.750    3.500    3.000 
#    0.000    3.125    0.000    0.000    0.000    0.000 
#    0.000    0.000    0.000    0.000    0.000    0.000 
#
# Total GULP energy -89309.175007 kJ/mol
# GULP energy per Si atom -5581.823438 kJ/mol
# Density = 2.037572 g / cm^3
# Si number density = 20.422198 Si / 1000 Ang^3
#
#
#
# Elastic Constant Matrix: (Units=GPa)
#
#
# Indices 1 2 3 4 5 6 
#
# 1 52.9210 9.2590 12.7679 -1.5914 8.8944 12.6720
# 2 9.2590 38.1497 16.8908 -14.7944 -7.7104 27.1845
# 3 12.7679 16.8908 127.6289 -5.2026 -0.1771 22.3919
# 4 -1.5914 -14.7944 -5.2026 34.5506 3.5800 -6.1670
# 5 8.8944 -7.7104 -0.1771 3.5800 32.3818 -1.3698
# 6 12.6720 27.1845 22.3919 -6.1670 -1.3698 23.8279
#
#
#
# Elastic Compliance Matrix: (Units=1/GPa)
#
#
# Indices 1 2 3 4 5 6 
#
# 1 0.024618 0.020797 0.001508 0.003982 -0.003825 -0.037425
# 2 0.020797 0.284319 0.022152 0.061461 0.041015 -0.337982
# 3 0.001508 0.022152 0.011112 0.004652 0.002920 -0.035145
# 4 0.003982 0.061461 0.004652 0.043944 0.005963 -0.064893
# 5 -0.003825 0.041015 0.002920 0.005963 0.039206 -0.043705
# 6 -0.037425 -0.337982 -0.035145 -0.064893 -0.043705 0.461182
#
#
# Mechanical properties :
#
#
# Convention : Reuss Voigt Hill
#
# Bulk Modulus (GPa) = 2.44522 32.94832 17.69677
# Shear Modulus (GPa) = 5.48373 30.13754 17.81063
#
# Velocity S-wave (km/s) = 1.64043 3.84568 2.95637
# Velocity P-wave (km/s) = 2.18814 5.99063 4.50974
#
# Compressibility (1/GPa) = 0.40896140
#
# Stress axis : x y z
#
# Youngs Moduli (GPa) = 40.62114 3.51718 89.98932
#
# Poissons Ratio (x) = -0.07315 -0.13570
# Poissons Ratio (y) = -0.84479 -1.99340
# Poissons Ratio (z) = -0.06126 -0.07791
#
# Static dielectric constant tensor:
#      x y z
#    x 1.795610 0.002610 0.034080 
#    y 0.002610 1.728100 0.000540 
#    z 0.034080 0.000540 1.752660 
# 
# From -- ./inp_files/279239.got.cif
#   From: 2010.05.17/outbox.cif.g08.bks.cpg/sg2_140_cif.got.tgz:279239.got - 2010.06.03 11:33:40.
