data_PCOD9107807
_publ_section_title
;
Structure prediction by ZEFSAII (Michael W. Deem and Ramdas Pophale) SiO2 
 PCOD9107807
Probable space group: P -1
;
_chemical_formula_sum "Si O2"
_cell_formula_units_Z 16
_cell_length_a 28.704594
_cell_length_b 5.311741
_cell_length_c 5.311747
_cell_angle_alpha 92.775745
_cell_angle_beta 94.517513
_cell_angle_gamma 52.625012
_cell_volume 641.602936
_symmetry_space_group_name_H-M "P -1"
_symmetry_group_IT_number 2
_symmetry_cell_setting 'triclinic'
loop_
_space_group_symop_operation_xyz
x,y,z
-x,-y,-z
loop_
_atom_site_type_symbol
_atom_site_label
_atom_site_fract_x
_atom_site_fract_y
_atom_site_fract_z
Si Si1 0.593594 0.608270 0.542568
Si Si2 0.093594 0.176646 0.610948
Si Si3 0.510644 0.190777 0.213263
Si Si4 0.180647 0.773627 0.247045
Si Si5 0.624559 0.114813 0.165489
Si Si6 0.319353 0.288984 0.315574
Si Si7 0.124560 0.460827 0.011511
Si Si8 0.010645 0.754803 0.277290
O O1 0.553002 0.547992 0.678330
O O2 0.646735 0.558871 0.709545
O O3 0.548616 0.971994 0.458811
O O4 0.617218 0.418872 0.283082
O O5 0.048616 0.395341 0.382160
O O6 0.053001 0.162665 0.793004
O O7 0.146734 0.850241 0.500919
O O8 0.117219 0.365251 0.729475
O O9 0.557107 0.234718 0.120014
O O10 0.500000 0.000000 0.000000
O O11 0.250000 0.546249 0.296257
O O12 0.159948 0.601552 0.067033
O O13 0.158289 0.117351 0.149142
O O14 0.658288 0.875996 0.407777
O O15 0.659947 0.953121 0.918599
O O16 0.057108 0.708661 0.093962
O O17 0.000000 0.000000 0.500000
#
# Coordination Sequence:
#
# PCOD9107807 Si02
#       8
#     2   2   2   2   2   2   2   2
#     4  10  23  41  66  97 137 176 223 287 347 420
#     4  10  23  41  66  97 137 176 223 287 347 420
#     4  10  20  40  65  98 137 170 225 283 347 423
#     4  11  27  45  66  99 135 179 238 284 344 421
#     4  11  25  43  70  99 132 182 227 285 355 410
#     4  11  27  45  66  99 135 179 238 284 344 421
#     4  11  25  43  70  99 132 182 227 285 355 410
#     4  10  20  40  65  98 137 170 225 283 347 423
#
# _framework density 24.937543000000002
#
# number of rings (size 3 to 8) (size 9 to 14) (size 15 to 20)
#    0.000    1.500    2.500    0.750    7.000    2.000 
#    0.000    0.000    0.000    0.000    0.000    0.000 
#    0.000    0.000    0.000    0.000    0.000    0.000 
#
# Total GULP energy -89471.135495 kJ/mol
# GULP energy per Si atom -5591.945968 kJ/mol
# Density = 2.488078 g / cm^3
# Si number density = 24.937543 Si / 1000 Ang^3
#
#
#
# Elastic Constant Matrix: (Units=GPa)
#
#
# Indices 1 2 3 4 5 6 
#
# 1 136.7417 78.2008 40.5395 -3.1210 17.3979 -29.3485
# 2 78.2008 119.2636 44.6782 6.7245 5.0565 -32.1270
# 3 40.5395 44.6782 103.6441 16.0923 4.9794 -10.5950
# 4 -3.1210 6.7245 16.0923 43.9798 12.6655 -0.1925
# 5 17.3979 5.0565 4.9794 12.6655 41.5513 -0.8504
# 6 -29.3485 -32.1270 -10.5950 -0.1925 -0.8504 56.5467
#
#
#
# Elastic Compliance Matrix: (Units=1/GPa)
#
#
# Indices 1 2 3 4 5 6 
#
# 1 0.013612 -0.007442 -0.002318 0.004658 -0.005888 0.002329
# 2 -0.007442 0.015680 -0.003124 -0.002461 0.002424 0.004489
# 3 -0.002318 -0.003124 0.012494 -0.004621 0.001249 -0.000634
# 4 0.004658 -0.002461 -0.004621 0.027900 -0.009599 0.000104
# 5 -0.005888 0.002424 0.001249 -0.009599 0.028992 -0.001041
# 6 0.002329 0.004489 -0.000634 0.000104 -0.001041 0.021310
#
#
# Mechanical properties :
#
#
# Convention : Reuss Voigt Hill
#
# Bulk Modulus (GPa) = 62.43053 76.27627 69.35340
# Shear Modulus (GPa) = 33.09143 41.49761 37.29452
#
# Velocity S-wave (km/s) = 3.64671 4.08372 3.87139
# Velocity P-wave (km/s) = 6.54374 7.27248 6.91771
#
# Compressibility (1/GPa) = 0.01601780
#
# Stress axis : x y z
#
# Youngs Moduli (GPa) = 73.46479 63.77514 80.03593
#
# Poissons Ratio (x) = 0.47464 0.18554
# Poissons Ratio (y) = 0.54675 0.25001
# Poissons Ratio (z) = 0.17031 0.19921
#
# Static dielectric constant tensor:
#      x y z
#    x 2.008930 0.104650 -0.088200 
#    y 0.104650 2.028800 -0.091290 
#    z -0.088200 -0.091290 2.077820 
# 
# From -- ./inp_files/10983.got.cif
#   From: 2010.05.17/outbox.cif.g08.bks.cpg/sg2_6_cif.got.tgz:10983.got - 2010.06.03 11:33:40.
