data_PCOD9107904
_publ_section_title
;
Structure prediction by ZEFSAII (Michael W. Deem and Ramdas Pophale) SiO2 
 PCOD9107904
Probable space group: P -1
;
_chemical_formula_sum "Si O2"
_cell_formula_units_Z 16
_cell_length_a 15.171383
_cell_length_b 12.267852
_cell_length_c 8.861448
_cell_angle_alpha 96.251436
_cell_angle_beta 96.809820
_cell_angle_gamma 149.758967
_cell_volume 747.524688
_symmetry_space_group_name_H-M "P -1"
_symmetry_group_IT_number 2
_symmetry_cell_setting 'triclinic'
loop_
_space_group_symop_operation_xyz
x,y,z
-x,-y,-z
loop_
_atom_site_type_symbol
_atom_site_label
_atom_site_fract_x
_atom_site_fract_y
_atom_site_fract_z
Si Si1 0.257076 0.721911 0.323856
Si Si2 0.147624 0.064891 0.987612
Si Si3 0.848909 0.156755 0.627391
Si Si4 0.962568 0.916968 0.644730
Si Si5 0.653717 0.739609 0.657376
Si Si6 0.527598 0.952927 0.853299
Si Si7 0.803175 0.518368 0.464265
Si Si8 0.071352 0.736380 0.009383
O O1 0.236717 0.817280 0.413883
O O2 0.251181 0.620969 0.430473
O O3 0.071506 0.495532 0.147650
O O4 0.426031 0.919824 0.264516
O O5 0.060354 0.847880 0.961794
O O6 0.342810 0.269443 0.160491
O O7 0.144315 0.080848 0.808863
O O8 0.000000 0.000000 0.000000
O O9 0.984454 0.268914 0.534543
O O10 0.681942 0.889695 0.610185
O O11 0.975223 0.307118 0.829026
O O12 0.858750 0.907501 0.693491
O O13 0.815689 0.654047 0.554605
O O14 0.000000 0.000000 0.500000
O O15 0.500000 0.500000 0.500000
O O16 0.350127 0.679881 0.727560
O O17 0.500000 0.000000 0.000000
O O18 0.714878 0.080787 0.932280
#
# Coordination Sequence:
#
# PCOD9107904 Si02
#       8
#     2   2   2   2   2   2   2   2
#     4  11  22  40  66  90 126 169 213 261 324 385
#     4   9  20  40  64  92 121 166 213 260 319 384
#     4  10  21  38  63  92 124 169 212 255 327 383
#     4  11  22  41  65  90 126 167 216 263 327 382
#     4  10  22  40  67  92 126 166 215 267 323 383
#     4  11  24  41  61  96 131 167 211 263 323 384
#     4  12  23  39  63  93 130 164 213 269 318 384
#     4  10  20  40  66  90 124 166 211 263 322 387
#
# _framework density 21.403974999999999
#
# number of rings (size 3 to 8) (size 9 to 14) (size 15 to 20)
#    0.000    1.500    2.500    3.750    5.250    0.000 
#    0.000    0.625    2.750    0.000    0.000    0.000 
#    0.000    0.000    0.000    0.000    0.000    0.000 
#
# Total GULP energy -89165.281869 kJ/mol
# GULP energy per Si atom -5572.830117 kJ/mol
# Density = 2.135526 g / cm^3
# Si number density = 21.403975 Si / 1000 Ang^3
#
#
#
# Elastic Constant Matrix: (Units=GPa)
#
#
# Indices 1 2 3 4 5 6 
#
# 1 88.1161 25.9623 -0.4360 -13.5835 -4.9339 -28.6275
# 2 25.9623 70.7712 37.4091 3.8894 11.1966 -21.8804
# 3 -0.4360 37.4091 96.4690 7.0963 10.4161 -12.4543
# 4 -13.5835 3.8894 7.0963 48.8357 -7.5812 -5.6862
# 5 -4.9339 11.1966 10.4161 -7.5812 29.9178 -8.3885
# 6 -28.6275 -21.8804 -12.4543 -5.6862 -8.3885 42.1461
#
#
#
# Elastic Compliance Matrix: (Units=1/GPa)
#
#
# Indices 1 2 3 4 5 6 
#
# 1 0.020005 -0.006527 0.002605 0.009123 0.011192 0.014428
# 2 -0.006527 0.022770 -0.007443 -0.003220 -0.006873 0.003386
# 3 0.002605 -0.007443 0.013657 -0.000677 -0.001263 0.001598
# 4 0.009123 -0.003220 -0.000677 0.026536 0.012589 0.010411
# 5 0.011192 -0.006873 -0.001263 0.012589 0.045515 0.014418
# 6 0.014428 0.003386 0.001598 0.010411 0.014418 0.040031
#
#
# Mechanical properties :
#
#
# Convention : Reuss Voigt Hill
#
# Bulk Modulus (GPa) = 29.67310 42.35859 36.01584
# Shear Modulus (GPa) = 24.69395 37.00798 30.85096
#
# Velocity S-wave (km/s) = 3.40031 4.16266 3.80065
# Velocity P-wave (km/s) = 5.41384 6.55261 6.01026
#
# Compressibility (1/GPa) = 0.03370056
#
# Stress axis : x y z
#
# Youngs Moduli (GPa) = 49.98726 43.91733 73.22445
#
# Poissons Ratio (x) = 0.28665 -0.19072
# Poissons Ratio (y) = 0.32626 0.54503
# Poissons Ratio (z) = -0.13020 0.32689
#
# Static dielectric constant tensor:
#      x y z
#    x 1.834270 0.059300 0.416110 
#    y 0.059300 1.835740 0.406430 
#    z 0.416110 0.406430 6.455640 
# 
# From -- ./inp_files/307588.got.cif
#   From: 2010.05.17/outbox.cif.g08.bks.cpg/sg2_154_cif.got.tgz:307588.got - 2010.06.03 11:33:40.
