data_PCOD9107806
_publ_section_title
;
Structure prediction by ZEFSAII (Michael W. Deem and Ramdas Pophale) SiO2 
 PCOD9107806
Probable space group: P -1
;
_chemical_formula_sum "Si O2"
_cell_formula_units_Z 15
_cell_length_a 8.323114
_cell_length_b 14.573300
_cell_length_c 9.885510
_cell_angle_alpha 54.719027
_cell_angle_beta 44.937946
_cell_angle_gamma 57.586573
_cell_volume 674.364861
_symmetry_space_group_name_H-M "P -1"
_symmetry_group_IT_number 2
_symmetry_cell_setting 'triclinic'
loop_
_space_group_symop_operation_xyz
x,y,z
-x,-y,-z
loop_
_atom_site_type_symbol
_atom_site_label
_atom_site_fract_x
_atom_site_fract_y
_atom_site_fract_z
Si Si1 0.985655 0.257683 0.233130
Si Si2 0.258800 0.878920 0.702222
Si Si3 0.000000 0.500000 0.000000
Si Si4 0.383150 0.329808 0.238503
Si Si5 0.177397 0.939442 0.154105
Si Si6 0.516682 0.481016 0.792987
Si Si7 0.852120 0.310918 0.548913
Si Si8 0.657724 0.977471 0.728392
O O1 0.875144 0.212370 0.206912
O O2 0.803950 0.294268 0.433677
O O3 0.173807 0.148306 0.272192
O O4 0.113044 0.360403 0.038870
O O5 0.477313 0.801408 0.713810
O O6 0.334613 0.948565 0.472532
O O7 0.062776 0.972262 0.816167
O O8 0.250067 0.524841 0.872790
O O9 0.393881 0.410588 0.293457
O O10 0.111122 0.335963 0.370008
O O11 0.506913 0.389455 0.997028
O O12 0.153524 0.808139 0.271767
O O13 0.240360 0.964713 0.252246
O O14 0.397759 0.964171 0.923001
O O15 0.677394 0.416201 0.633354
#
# Coordination Sequence:
#
# PCOD9107806 Si02
#       8
#     2   2   1   2   2   2   2   2
#     4  11  21  41  67 101 129 166 221 274 322 377
#     4  11  21  43  67  95 134 174 212 267 327 393
#     4  12  22  44  72  98 122 170 226 278 314 378
#     4  11  26  46  63  92 139 180 212 265 332 390
#     4  10  21  36  67 101 126 170 216 270 326 381
#     4  11  26  46  66  95 132 174 221 274 321 386
#     4  12  23  43  68  96 132 171 219 268 326 393
#     4  10  20  40  65  98 136 164 213 278 328 372
#
# _framework density 22.243151999999998
#
# number of rings (size 3 to 8) (size 9 to 14) (size 15 to 20)
#    0.000    1.067    5.333    2.000    0.000    2.133 
#    0.000    1.333    0.000    0.000    0.000    0.000 
#    0.000    0.000    0.000    0.000    0.000    0.000 
#
# Total GULP energy -83674.861139 kJ/mol
# GULP energy per Si atom -5578.324076 kJ/mol
# Density = 2.219253 g / cm^3
# Si number density = 22.243152 Si / 1000 Ang^3
#
#
#
# Elastic Constant Matrix: (Units=GPa)
#
#
# Indices 1 2 3 4 5 6 
#
# 1 39.5945 9.2009 -5.8864 10.8316 -8.5891 -1.3384
# 2 9.2009 78.7325 5.1973 -1.5161 14.1660 6.5695
# 3 -5.8864 5.1973 57.6764 -4.7846 -3.4054 3.4928
# 4 10.8316 -1.5161 -4.7846 48.2984 6.0579 -2.5988
# 5 -8.5891 14.1660 -3.4054 6.0579 21.8985 -9.3727
# 6 -1.3384 6.5695 3.4928 -2.5988 -9.3727 36.7465
#
#
#
# Elastic Compliance Matrix: (Units=1/GPa)
#
#
# Indices 1 2 3 4 5 6 
#
# 1 0.039208 -0.011668 0.005295 -0.012030 0.031434 0.010178
# 2 -0.011668 0.019248 -0.003291 0.005277 -0.022856 -0.009010
# 3 0.005295 -0.003291 0.018537 -0.000356 0.007584 0.000929
# 4 -0.012030 0.005277 -0.000356 0.025442 -0.016874 -0.003852
# 5 0.031434 -0.022856 0.007584 -0.016874 0.089856 0.026236
# 6 0.010178 -0.009010 0.000929 -0.003852 0.026236 0.035526
#
#
# Mechanical properties :
#
#
# Convention : Reuss Voigt Hill
#
# Bulk Modulus (GPa) = 17.34198 21.44745 19.39471
# Shear Modulus (GPa) = 18.77096 32.55480 25.66288
#
# Velocity S-wave (km/s) = 2.90814 3.82984 3.40036
# Velocity P-wave (km/s) = 4.36920 5.40556 4.91477
#
# Compressibility (1/GPa) = 0.05766355
#
# Stress axis : x y z
#
# Youngs Moduli (GPa) = 25.50471 51.95387 53.94574
#
# Poissons Ratio (x) = 0.60621 -0.28563
# Poissons Ratio (y) = 0.29759 0.17756
# Poissons Ratio (z) = -0.13504 0.17100
#
# Static dielectric constant tensor:
#      x y z
#    x 1.846160 0.058020 0.035770 
#    y 0.058020 1.611740 -0.003100 
#    z 0.035770 -0.003100 1.805030 
# 
# From -- ./inp_files/271699.got.cif
#   From: 2010.05.17/outbox.cif.g08.bks.cpg/sg2_136_cif.got.tgz:271699.got - 2010.06.03 11:33:40.
