data_PCOD9107926
_publ_section_title
;
Structure prediction by ZEFSAII (Michael W. Deem and Ramdas Pophale) SiO2 
 PCOD9107926
Probable space group: P -1
;
_chemical_formula_sum "Si O2"
_cell_formula_units_Z 16
_cell_length_a 10.836220
_cell_length_b 20.844685
_cell_length_c 7.679801
_cell_angle_alpha 124.819932
_cell_angle_beta 50.933183
_cell_angle_gamma 153.476918
_cell_volume 601.315160
_symmetry_space_group_name_H-M "P -1"
_symmetry_group_IT_number 2
_symmetry_cell_setting 'triclinic'
loop_
_space_group_symop_operation_xyz
x,y,z
-x,-y,-z
loop_
_atom_site_type_symbol
_atom_site_label
_atom_site_fract_x
_atom_site_fract_y
_atom_site_fract_z
Si Si1 0.645836 0.862211 0.087462
Si Si2 0.661741 0.037200 0.199098
Si Si3 0.296005 0.210226 0.413201
Si Si4 0.298927 0.391001 0.665001
Si Si5 0.410705 0.653079 0.260254
Si Si6 0.798580 0.665441 0.842147
Si Si7 0.921664 0.331696 0.122544
Si Si8 0.302597 0.016709 0.286894
O O1 0.584379 0.928293 0.207694
O O2 0.568115 0.778663 0.854799
O O3 0.962675 0.045539 0.490472
O O4 0.000000 0.000000 0.000000
O O5 0.416897 0.995400 0.280164
O O6 0.919598 0.193043 0.303021
O O7 0.795314 0.059751 0.930590
O O8 0.228420 0.272298 0.523600
O O9 0.485605 0.293047 0.549655
O O10 0.500000 0.500000 0.500000
O O11 0.549715 0.501572 0.760125
O O12 0.037911 0.344942 0.856839
O O13 0.090485 0.481316 0.249952
O O14 0.475697 0.755262 0.238600
O O15 0.622181 0.672568 0.029040
O O16 0.952691 0.685398 0.893994
O O17 0.581613 0.182094 0.234374
#
# Coordination Sequence:
#
# PCOD9107926 Si02
#       8
#     2   2   2   2   2   2   2   2
#     4  12  26  41  68 102 143 172 226 282 336 405
#     4  10  20  39  63  97 132 180 213 273 343 400
#     4  12  22  42  72 106 128 178 231 279 335 409
#     4  11  20  31  61 103 133 161 230 288 325 384
#     4  11  20  40  67 101 133 180 225 279 334 396
#     4  10  16  35  61  91 129 165 216 282 328 369
#     4  10  19  37  65  97 133 173 220 285 340 391
#     4  10  21  40  73  97 131 178 229 274 346 402
#
# _framework density 26.608340999999999
#
# number of rings (size 3 to 8) (size 9 to 14) (size 15 to 20)
#    0.000    1.250    5.000    3.750    0.000    2.000 
#    0.000    1.250   11.000    3.000    0.000    0.000 
#    0.000    0.000    0.000    0.000    0.000    0.000 
#
# Total GULP energy -89484.340605 kJ/mol
# GULP energy per Si atom -5592.771288 kJ/mol
# Density = 2.654778 g / cm^3
# Si number density = 26.608341 Si / 1000 Ang^3
#
#
#
# Elastic Constant Matrix: (Units=GPa)
#
#
# Indices 1 2 3 4 5 6 
#
# 1 101.1185 45.6364 12.6117 9.8228 -7.2641 -34.8985
# 2 45.6364 196.5146 37.6623 21.8168 -2.8417 -14.5657
# 3 12.6117 37.6623 87.2377 -8.7822 1.8775 -20.4119
# 4 9.8228 21.8168 -8.7822 36.9021 -7.1366 -7.7721
# 5 -7.2641 -2.8417 1.8775 -7.1366 43.9515 7.9430
# 6 -34.8985 -14.5657 -20.4119 -7.7721 7.9430 42.6352
#
#
#
# Elastic Compliance Matrix: (Units=1/GPa)
#
#
# Indices 1 2 3 4 5 6 
#
# 1 0.015326 -0.003153 0.002214 0.001004 0.000104 0.012692
# 2 -0.003153 0.006822 -0.003611 -0.004678 -0.000180 -0.002798
# 3 0.002214 -0.003611 0.015682 0.007080 -0.001120 0.009585
# 4 0.001004 -0.004678 0.007080 0.033675 0.003567 0.008088
# 5 0.000104 -0.000180 -0.001120 0.003567 0.024174 -0.004366
# 6 0.012692 -0.002798 0.009585 0.008088 -0.004366 0.039764
#
#
# Mechanical properties :
#
#
# Convention : Reuss Voigt Hill
#
# Bulk Modulus (GPa) = 34.80701 64.07687 49.44194
# Shear Modulus (GPa) = 32.44218 43.96180 38.20199
#
# Velocity S-wave (km/s) = 3.49556 4.06911 3.79319
# Velocity P-wave (km/s) = 5.42232 6.79784 6.14867
#
# Compressibility (1/GPa) = 0.02872985
#
# Stress axis : x y z
#
# Youngs Moduli (GPa) = 65.24733 146.57887 63.76918
#
# Poissons Ratio (x) = 0.46213 -0.14118
# Poissons Ratio (y) = 0.20571 0.23029
# Poissons Ratio (z) = -0.14445 0.52933
#
# Static dielectric constant tensor:
#      x y z
#    x 2.058980 -0.022640 0.025640 
#    y -0.022640 2.206090 -0.011720 
#    z 0.025640 -0.011720 2.143400 
# 
# From -- ./inp_files/285010.got.cif
#   From: 2010.05.17/outbox.cif.g08.bks.cpg/sg2_143_cif.got.tgz:285010.got - 2010.06.03 11:33:40.
