data_PCOD9107712
_publ_section_title
;
Structure prediction by ZEFSAII (Michael W. Deem and Ramdas Pophale) SiO2 
 PCOD9107712
Probable space group: P -1
;
_chemical_formula_sum "Si O2"
_cell_formula_units_Z 16
_cell_length_a 16.992179
_cell_length_b 8.318140
_cell_length_c 9.725878
_cell_angle_alpha 61.458264
_cell_angle_beta 139.781395
_cell_angle_gamma 126.352108
_cell_volume 714.060123
_symmetry_space_group_name_H-M "P -1"
_symmetry_group_IT_number 2
_symmetry_cell_setting 'triclinic'
loop_
_space_group_symop_operation_xyz
x,y,z
-x,-y,-z
loop_
_atom_site_type_symbol
_atom_site_label
_atom_site_fract_x
_atom_site_fract_y
_atom_site_fract_z
Si Si1 0.184026 0.026143 0.070642
Si Si2 0.727277 0.376689 0.445070
Si Si3 0.577212 0.735985 0.490053
Si Si4 0.625571 0.175053 0.663609
Si Si5 0.001749 0.619176 0.090876
Si Si6 0.362676 0.962322 0.764791
Si Si7 0.862693 0.335185 0.240581
Si Si8 0.125725 0.321184 0.670125
O O1 0.299414 0.162051 0.277826
O O2 0.257443 0.902638 0.139610
O O3 0.049131 0.854656 0.025479
O O4 0.143946 0.159649 0.857837
O O5 0.669595 0.346489 0.534127
O O6 0.872897 0.373553 0.656275
O O7 0.654844 0.189248 0.325446
O O8 0.754964 0.581644 0.319749
O O9 0.500000 0.500000 0.500000
O O10 0.446864 0.787162 0.317584
O O11 0.638748 0.837212 0.386416
O O12 0.500000 0.000000 0.500000
O O13 0.873287 0.472681 0.063923
O O14 0.000000 0.500000 0.000000
O O15 0.257547 0.858521 0.786280
O O16 0.500000 0.000000 0.000000
O O17 0.870043 0.496489 0.301785
O O18 0.984175 0.262447 0.431206
#
# Coordination Sequence:
#
# PCOD9107712 Si02
#       8
#     2   2   2   2   2   2   2   2
#     4  10  21  40  65  98 127 169 222 271 323 388
#     4   9  18  39  61  89 131 167 214 264 321 389
#     4  11  24  41  62  99 137 168 227 273 311 391
#     4   9  17  39  64  83 130 177 200 269 324 367
#     4  10  20  40  65  93 125 173 218 264 324 389
#     4  11  22  39  64  93 133 175 213 267 329 393
#     4   9  21  40  61  93 133 164 213 270 332 378
#     4   9  19  37  66  92 125 169 208 269 331 384
#
# _framework density 22.407076
#
# number of rings (size 3 to 8) (size 9 to 14) (size 15 to 20)
#    0.000    2.250    3.750    0.750    3.500    2.500 
#    0.000    7.500    0.000    0.000    0.000    0.000 
#    0.000    0.000    0.000    0.000    0.000    0.000 
#
# Total GULP energy -89089.985251 kJ/mol
# GULP energy per Si atom -5568.124078 kJ/mol
# Density = 2.235608 g / cm^3
# Si number density = 22.407076 Si / 1000 Ang^3
#
#
#
# Elastic Constant Matrix: (Units=GPa)
#
#
# Indices 1 2 3 4 5 6 
#
# 1 70.0954 37.5085 16.2736 -17.6484 -11.9645 35.4009
# 2 37.5085 154.5181 63.3831 -30.7199 -7.3572 47.8111
# 3 16.2736 63.3831 96.0194 -29.4530 -7.3140 17.2647
# 4 -17.6484 -30.7199 -29.4530 46.5408 9.8317 -19.1861
# 5 -11.9645 -7.3572 -7.3140 9.8317 28.5161 -10.3965
# 6 35.4009 47.8111 17.2647 -19.1861 -10.3965 45.2503
#
#
#
# Elastic Compliance Matrix: (Units=1/GPa)
#
#
# Indices 1 2 3 4 5 6 
#
# 1 0.023967 0.000161 -0.000462 0.000967 0.003232 -0.017591
# 2 0.000161 0.012481 -0.006378 0.000090 -0.002545 -0.011427
# 3 -0.000462 -0.006378 0.016307 0.007438 0.001363 0.004346
# 4 0.000967 0.000090 0.007438 0.031176 -0.005389 0.008290
# 5 0.003232 -0.002545 0.001363 -0.005389 0.040395 0.006637
# 6 -0.017591 -0.011427 0.004346 0.008290 0.006637 0.051317
#
#
# Mechanical properties :
#
#
# Convention : Reuss Voigt Hill
#
# Bulk Modulus (GPa) = 25.38275 61.66260 43.52267
# Shear Modulus (GPa) = 24.73618 37.62594 31.18106
#
# Velocity S-wave (km/s) = 3.32617 4.10225 3.73442
# Velocity P-wave (km/s) = 5.10919 7.07226 6.16931
#
# Compressibility (1/GPa) = 0.03939684
#
# Stress axis : x y z
#
# Youngs Moduli (GPa) = 41.72437 80.12023 61.32327
#
# Poissons Ratio (x) = -0.01291 0.02836
# Poissons Ratio (y) = -0.00672 0.39111
# Poissons Ratio (z) = 0.01929 0.51099
#
# Static dielectric constant tensor:
#      x y z
#    x 1.927000 0.033360 -0.078110 
#    y 0.033360 1.899900 -0.014450 
#    z -0.078110 -0.014450 1.916170 
# 
# From -- ./inp_files/328625.got.cif
#   From: 2010.05.17/outbox.cif.g08.bks.cpg/sg2_165_cif.got.tgz:328625.got - 2010.06.03 11:33:40.
