data_PCOD9107553
_publ_section_title
;
Structure prediction by ZEFSAII (Michael W. Deem and Ramdas Pophale) SiO2 
 PCOD9107553
Probable space group: P -1
;
_chemical_formula_sum "Si O2"
_cell_formula_units_Z 14
_cell_length_a 11.459734
_cell_length_b 8.812443
_cell_length_c 12.857874
_cell_angle_alpha 133.212066
_cell_angle_beta 131.156481
_cell_angle_gamma 43.639628
_cell_volume 618.041583
_symmetry_space_group_name_H-M "P -1"
_symmetry_group_IT_number 2
_symmetry_cell_setting 'triclinic'
loop_
_space_group_symop_operation_xyz
x,y,z
-x,-y,-z
loop_
_atom_site_type_symbol
_atom_site_label
_atom_site_fract_x
_atom_site_fract_y
_atom_site_fract_z
Si Si1 0.197635 0.340422 0.854998
Si Si2 0.987870 0.939138 0.297420
Si Si3 0.959082 0.884832 0.021438
Si Si4 0.563669 0.965296 0.833560
Si Si5 0.388037 0.526167 0.342095
Si Si6 0.560100 0.804099 0.530157
Si Si7 0.034274 0.569647 0.437924
O O1 0.147014 0.152082 0.788942
O O2 0.113258 0.399796 0.717499
O O3 0.095715 0.597869 0.971548
O O4 0.410700 0.206337 0.908179
O O5 0.978943 0.984330 0.189949
O O6 0.183085 0.716923 0.332316
O O7 0.961394 0.181901 0.445730
O O8 0.755513 0.942013 0.924017
O O9 0.000000 0.000000 0.000000
O O10 0.589718 0.726928 0.795099
O O11 0.498474 0.936467 0.667070
O O12 0.500000 0.500000 0.500000
O O13 0.471254 0.643628 0.372040
O O14 0.772304 0.637688 0.582357
O O15 0.500000 0.000000 0.500000
O O16 0.000000 0.500000 0.500000
#
# Coordination Sequence:
#
# PCOD9107553 Si02
#       7
#     2   2   2   2   2   2   2
#     4  12  24  47  74 100 136 187 237 287 351 419
#     4  12  25  44  72 103 141 186 233 289 351 415
#     4  12  28  49  69 100 148 185 233 294 351 420
#     4  11  24  45  70  98 140 183 232 287 347 417
#     4  10  20  40  65 100 135 172 225 287 340 400
#     4  11  22  39  67 104 141 178 231 293 346 411
#     4  12  23  42  69 106 140 182 234 291 351 414
#
# _framework density 22.652196
#
# number of rings (size 3 to 8) (size 9 to 14) (size 15 to 20)
#    0.000    0.571    2.857    6.857    2.000    1.143 
#    2.571    0.000    0.000    0.000    0.000    0.000 
#    0.000    0.000    0.000    0.000    0.000    0.000 
#
# Total GULP energy -78396.857423 kJ/mol
# GULP energy per Si atom -5599.775530 kJ/mol
# Density = 2.260064 g / cm^3
# Si number density = 22.652196 Si / 1000 Ang^3
#
#
#
# Elastic Constant Matrix: (Units=GPa)
#
#
# Indices 1 2 3 4 5 6 
#
# 1 111.9960 43.2038 2.2534 -5.4691 19.3046 -10.4361
# 2 43.2038 118.4583 6.5845 2.2989 12.0944 -15.1966
# 3 2.2534 6.5845 49.4643 -2.3421 -1.1408 -5.5650
# 4 -5.4691 2.2989 -2.3421 20.4103 6.5094 -3.7046
# 5 19.3046 12.0944 -1.1408 6.5094 36.3161 -5.1091
# 6 -10.4361 -15.1966 -5.5650 -3.7046 -5.1091 58.7163
#
#
#
# Elastic Compliance Matrix: (Units=1/GPa)
#
#
# Indices 1 2 3 4 5 6 
#
# 1 0.011719 -0.003667 0.000198 0.005629 -0.005871 0.000997
# 2 -0.003667 0.010186 -0.001098 -0.001647 -0.000944 0.001694
# 3 0.000198 -0.001098 0.020716 0.002682 0.000704 0.001945
# 4 0.005629 -0.001647 0.002682 0.055364 -0.011820 0.003293
# 5 -0.005871 -0.000944 0.000704 -0.011820 0.033242 0.000926
# 6 0.000997 0.001694 0.001945 0.003293 0.000926 0.018119
#
#
# Mechanical properties :
#
#
# Convention : Reuss Voigt Hill
#
# Bulk Modulus (GPa) = 29.86328 42.66689 36.26509
# Shear Modulus (GPa) = 29.47354 38.28033 33.87694
#
# Velocity S-wave (km/s) = 3.61104 4.11532 3.87140
# Velocity P-wave (km/s) = 5.53156 6.43876 6.00233
#
# Compressibility (1/GPa) = 0.03348594
#
# Stress axis : x y z
#
# Youngs Moduli (GPa) = 85.32921 98.17402 48.27227
#
# Poissons Ratio (x) = 0.36002 -0.00954
# Poissons Ratio (y) = 0.31292 0.05300
# Poissons Ratio (z) = -0.01686 0.10780
#
# Static dielectric constant tensor:
#      x y z
#    x 1.865620 0.022130 -0.001650 
#    y 0.022130 1.805850 -0.028110 
#    z -0.001650 -0.028110 1.833870 
# 
# From -- ./inp_files/406785.got.cif
#   From: 2010.05.17/outbox.cif.g08.bks.cpg/sg2_204_cif.got.tgz:406785.got - 2010.06.03 11:33:40.
