data_PCOD9107255
_publ_section_title
;
Structure prediction by ZEFSAII (Michael W. Deem and Ramdas Pophale) SiO2 
 PCOD9107255
Probable space group: P -1
;
_chemical_formula_sum "Si O2"
_cell_formula_units_Z 16
_cell_length_a 15.205780
_cell_length_b 10.868201
_cell_length_c 9.779416
_cell_angle_alpha 118.735626
_cell_angle_beta 116.203890
_cell_angle_gamma 117.886438
_cell_volume 639.410722
_symmetry_space_group_name_H-M "P -1"
_symmetry_group_IT_number 2
_symmetry_cell_setting 'triclinic'
loop_
_space_group_symop_operation_xyz
x,y,z
-x,-y,-z
loop_
_atom_site_type_symbol
_atom_site_label
_atom_site_fract_x
_atom_site_fract_y
_atom_site_fract_z
Si Si1 0.704064 0.618853 0.023388
Si Si2 0.662910 0.029024 0.838840
Si Si3 0.274350 0.973871 0.410810
Si Si4 0.272530 0.532822 0.577430
Si Si5 0.343697 0.428617 0.328402
Si Si6 0.063050 0.738078 0.640390
Si Si7 0.445451 0.006303 0.783115
Si Si8 0.960334 0.169818 0.617722
O O1 0.822489 0.621716 0.128225
O O2 0.804228 0.851158 0.319559
O O3 0.471559 0.313935 0.717920
O O4 0.763454 0.744269 0.978132
O O5 0.771712 0.144279 0.833033
O O6 0.449364 0.701541 0.492608
O O7 0.629722 0.143831 0.928760
O O8 0.741612 0.026584 0.010601
O O9 0.334232 0.930313 0.537844
O O10 0.092259 0.827119 0.272809
O O11 0.252065 0.374528 0.377295
O O12 0.082411 0.331755 0.426605
O O13 0.319995 0.737241 0.637475
O O14 0.459861 0.758068 0.927979
O O15 0.500000 0.500000 0.500000
O O16 0.077736 0.778231 0.510875
O O17 0.000000 0.500000 0.500000
#
# Coordination Sequence:
#
# PCOD9107255 Si02
#       8
#     2   2   2   2   2   2   2   2
#     4  10  24  45  64  95 135 171 218 272 324 389
#     4  10  23  40  62  95 132 161 221 269 325 390
#     4  11  23  41  70  92 129 177 212 269 338 379
#     4  10  22  37  65  95 130 170 217 267 333 383
#     4  10  22  42  66  95 128 171 221 273 323 389
#     4  12  23  42  64  99 132 171 220 273 323 390
#     4  10  20  40  63  95 128 171 217 266 324 400
#     4  11  25  44  66  96 132 174 223 268 319 400
#
# _framework density 25.023039000000001
#
# number of rings (size 3 to 8) (size 9 to 14) (size 15 to 20)
#    0.000    1.500    1.250    3.000    7.000    0.000 
#    9.000    2.500    0.000    0.000    0.000    0.000 
#    0.000    0.000    0.000    0.000    0.000    0.000 
#
# Total GULP energy -89449.658389 kJ/mol
# GULP energy per Si atom -5590.603649 kJ/mol
# Density = 2.496609 g / cm^3
# Si number density = 25.023039 Si / 1000 Ang^3
#
#
#
# Elastic Constant Matrix: (Units=GPa)
#
#
# Indices 1 2 3 4 5 6 
#
# 1 113.8903 28.2014 6.8471 -10.6543 -11.3091 33.1156
# 2 28.2014 88.3474 8.6427 -9.0671 -3.9568 10.4520
# 3 6.8471 8.6427 37.3602 -10.1955 -11.1089 -1.1705
# 4 -10.6543 -9.0671 -10.1955 43.3733 5.1887 -1.3052
# 5 -11.3091 -3.9568 -11.1089 5.1887 25.6988 -14.7093
# 6 33.1156 10.4520 -1.1705 -1.3052 -14.7093 41.1468
#
#
#
# Elastic Compliance Matrix: (Units=1/GPa)
#
#
# Indices 1 2 3 4 5 6 
#
# 1 0.012436 -0.002458 -0.002072 0.001987 -0.001976 -0.010087
# 2 -0.002458 0.012664 -0.002590 0.001573 -0.001624 -0.001843
# 3 -0.002072 -0.002590 0.035017 0.005265 0.018557 0.010122
# 4 0.001987 0.001573 0.005265 0.025398 -0.002932 -0.002092
# 5 -0.001976 -0.001624 0.018557 -0.002932 0.060099 0.023922
# 6 -0.010087 -0.001843 0.010122 -0.002092 0.023922 0.041662
#
#
# Mechanical properties :
#
#
# Convention : Reuss Voigt Hill
#
# Bulk Modulus (GPa) = 21.79773 36.33115 29.06444
# Shear Modulus (GPa) = 23.06167 35.10425 29.08296
#
# Velocity S-wave (km/s) = 3.03911 3.74956 3.41287
# Velocity P-wave (km/s) = 4.58747 5.77029 5.21254
#
# Compressibility (1/GPa) = 0.04587634
#
# Stress axis : x y z
#
# Youngs Moduli (GPa) = 80.41042 78.96511 28.55727
#
# Poissons Ratio (x) = 0.19412 0.05917
# Poissons Ratio (y) = 0.19768 0.07397
# Poissons Ratio (z) = 0.16660 0.20454
#
# Static dielectric constant tensor:
#      x y z
#    x 2.001910 0.018140 -0.067900 
#    y 0.018140 2.011510 -0.005700 
#    z -0.067900 -0.005700 2.285730 
# 
# From -- ./inp_files/308348.got.cif
#   From: 2010.05.17/outbox.cif.g08.bks.cpg/sg2_155_cif.got.tgz:308348.got - 2010.06.03 11:33:40.
