data_PCOD9107657
_publ_section_title
;
Structure prediction by ZEFSAII (Michael W. Deem and Ramdas Pophale) SiO2 
 PCOD9107657
Probable space group: P -1
;
_chemical_formula_sum "Si O2"
_cell_formula_units_Z 14
_cell_length_a 8.833824
_cell_length_b 6.218896
_cell_length_c 16.898649
_cell_angle_alpha 98.198817
_cell_angle_beta 111.828963
_cell_angle_gamma 53.583421
_cell_volume 689.697602
_symmetry_space_group_name_H-M "P -1"
_symmetry_group_IT_number 2
_symmetry_cell_setting 'triclinic'
loop_
_space_group_symop_operation_xyz
x,y,z
-x,-y,-z
loop_
_atom_site_type_symbol
_atom_site_label
_atom_site_fract_x
_atom_site_fract_y
_atom_site_fract_z
Si Si1 0.335429 0.712136 0.418036
Si Si2 0.087645 0.184109 0.667065
Si Si3 0.911171 0.275250 0.044314
Si Si4 0.480183 0.272187 0.304171
Si Si5 0.951444 0.004445 0.185756
Si Si6 0.782807 0.567197 0.881567
Si Si7 0.169372 0.212861 0.333788
O O1 0.500000 0.500000 0.500000
O O2 0.422340 0.552469 0.342745
O O3 0.117297 0.776711 0.396449
O O4 0.287034 0.003897 0.416947
O O5 0.021733 0.486661 0.667197
O O6 0.288834 0.967632 0.648411
O O7 0.130555 0.065328 0.758818
O O8 0.828179 0.238735 0.108143
O O9 0.094228 0.303287 0.095577
O O10 0.765024 0.516383 0.967673
O O11 0.000000 0.000000 0.000000
O O12 0.418411 0.285383 0.201574
O O13 0.327512 0.235937 0.319387
O O14 0.087866 0.082840 0.256722
O O15 0.078322 0.725771 0.147923
#
# Coordination Sequence:
#
# PCOD9107657 Si02
#       7
#     2   2   2   2   2   2   2
#     4  10  23  43  63  85 117 152 191 239 294 352
#     4  10  22  35  58  90 119 150 196 241 286 348
#     4   9  18  28  56  85 116 155 199 241 286 336
#     4  11  21  37  60  89 117 153 198 240 287 350
#     4  10  16  35  56  81 116 157 198 236 288 336
#     4  10  17  33  55  86 114 155 202 241 283 340
#     4  10  19  38  59  81 114 155 190 236 295 344
#
# _framework density 20.298750999999999
#
# number of rings (size 3 to 8) (size 9 to 14) (size 15 to 20)
#    0.000    2.000    5.714    0.000    0.000    5.143 
#    0.000    2.143    0.000   12.000    0.000    0.000 
#    0.000    0.000    0.000    0.000    0.000    0.000 
#
# Total GULP energy -77942.982848 kJ/mol
# GULP energy per Si atom -5567.355918 kJ/mol
# Density = 2.025255 g / cm^3
# Si number density = 20.298751 Si / 1000 Ang^3
#
#
#
# Elastic Constant Matrix: (Units=GPa)
#
#
# Indices 1 2 3 4 5 6 
#
# 1 13.2842 40.0708 -1.9187 -6.8014 9.1693 -10.4374
# 2 40.0708 105.3004 4.6269 -15.4442 6.4601 1.3823
# 3 -1.9187 4.6269 59.4151 -32.1269 6.7460 0.9727
# 4 -6.8014 -15.4442 -32.1269 29.6828 5.7790 -1.7380
# 5 9.1693 6.4601 6.7460 5.7790 19.0405 -11.2780
# 6 -10.4374 1.3823 0.9727 -1.7380 -11.2780 36.8309
#
#
#
# Elastic Compliance Matrix: (Units=1/GPa)
#
#
# Indices 1 2 3 4 5 6 
#
# 1 -0.068090 0.009082 -0.065937 -0.098600 0.085069 0.003501
# 2 0.009082 0.015398 0.033803 0.054665 -0.043957 -0.009777
# 3 -0.065937 0.033803 0.047529 0.058278 -0.030755 -0.027877
# 4 -0.098600 0.054665 0.058278 0.109853 -0.049669 -0.041558
# 5 0.085069 -0.043957 -0.030755 -0.049669 0.081585 0.049208
# 6 0.003501 -0.009777 -0.027877 -0.041558 0.049208 0.042353
#
#
# Mechanical properties :
#
#
# Convention : Reuss Voigt Hill
#
# Bulk Modulus (GPa) = -19.50617 29.28418 4.88900
# Shear Modulus (GPa) = 19.40669 26.12556 22.76612
#
# Velocity S-wave (km/s) = 3.09537 3.59144 3.35259
# Velocity P-wave (km/s) = 1.77331 5.62635 4.17136
#
# Compressibility (1/GPa) = -0.05126582
#
# Stress axis : x y z
#
# Youngs Moduli (GPa) = -14.68648 64.94326 21.03957
#
# Poissons Ratio (x) = -0.58979 1.38728
# Poissons Ratio (y) = 0.13338 -0.71121
# Poissons Ratio (z) = -0.96838 -2.19530
#
# Static dielectric constant tensor:
#      x y z
#    x 1.711800 0.039190 -0.034500 
#    y 0.039190 1.725580 -0.037660 
#    z -0.034500 -0.037660 1.835070 
# 
# From -- ./inp_files/41716.got.cif
#   From: 2010.05.17/outbox.cif.g08.bks.cpg/sg2_21_cif.got.tgz:41716.got - 2010.06.03 11:33:40.
