data_PCOD9107008
_publ_section_title
;
Structure prediction by ZEFSAII (Michael W. Deem and Ramdas Pophale) SiO2 
 PCOD9107008
Probable space group: P -1
;
_chemical_formula_sum "Si O2"
_cell_formula_units_Z 16
_cell_length_a 24.447117
_cell_length_b 9.841890
_cell_length_c 9.174128
_cell_angle_alpha 122.645062
_cell_angle_beta 48.977324
_cell_angle_gamma 154.404348
_cell_volume 710.053931
_symmetry_space_group_name_H-M "P -1"
_symmetry_group_IT_number 2
_symmetry_cell_setting 'triclinic'
loop_
_space_group_symop_operation_xyz
x,y,z
-x,-y,-z
loop_
_atom_site_type_symbol
_atom_site_label
_atom_site_fract_x
_atom_site_fract_y
_atom_site_fract_z
Si Si1 0.206783 0.028719 0.927374
Si Si2 0.123410 0.339383 0.062984
Si Si3 0.009866 0.961460 0.296335
Si Si4 0.452622 0.923679 0.873656
Si Si5 0.813580 0.342971 0.126653
Si Si6 0.496217 0.371192 0.068892
Si Si7 0.484145 0.139047 0.527617
Si Si8 0.637977 0.727658 0.495232
O O1 0.357206 0.340671 0.928566
O O2 0.236969 0.050711 0.715347
O O3 0.137230 0.736101 0.951136
O O4 0.119726 0.025131 0.107307
O O5 0.061401 0.215744 0.261657
O O6 0.284049 0.573467 0.930811
O O7 0.144489 0.538356 0.043763
O O8 0.000000 0.000000 0.000000
O O9 0.867577 0.602322 0.274450
O O10 0.000000 0.000000 0.500000
O O11 0.544050 0.970017 0.651532
O O12 0.500000 0.000000 0.000000
O O13 0.482918 0.164597 0.914601
O O14 0.645672 0.018584 0.264022
O O15 0.372601 0.168729 0.290232
O O16 0.500000 0.500000 0.000000
O O17 0.613950 0.512098 0.497530
O O18 0.500000 0.000000 0.500000
O O19 0.500000 0.500000 0.500000
#
# Coordination Sequence:
#
# PCOD9107008 Si02
#       8
#     2   2   2   2   2   2   2   2
#     4  11  23  44  65  93 132 174 220 262 334 404
#     4  10  23  46  64  92 134 179 218 264 329 405
#     4  11  26  45  67  95 126 172 228 286 325 382
#     4  12  24  36  65 102 134 163 217 282 330 369
#     4  11  23  43  68  90 132 178 225 260 327 411
#     4  11  22  38  60 100 136 161 206 277 333 378
#     4  12  22  38  64  99 132 174 218 262 330 399
#     4  10  20  40  62  91 133 171 208 262 325 404
#
# _framework density 22.5335
#
# number of rings (size 3 to 8) (size 9 to 14) (size 15 to 20)
#    0.000    1.000    3.750    4.875    3.500    0.000 
#    0.000    0.625    0.000    0.000    0.000    0.000 
#    0.000    0.000    0.000    0.000    0.000    0.000 
#
# Total GULP energy -89279.182869 kJ/mol
# GULP energy per Si atom -5579.948929 kJ/mol
# Density = 2.248221 g / cm^3
# Si number density = 22.533500 Si / 1000 Ang^3
#
#
#
# Elastic Constant Matrix: (Units=GPa)
#
#
# Indices 1 2 3 4 5 6 
#
# 1 87.8585 34.8322 28.3464 -19.8069 13.6256 -12.1466
# 2 34.8322 76.0088 19.7767 -9.5962 6.9736 -19.3640
# 3 28.3464 19.7767 116.8732 -4.5676 24.5433 -11.9668
# 4 -19.8069 -9.5962 -4.5676 32.0341 -10.0415 5.2434
# 5 13.6256 6.9736 24.5433 -10.0415 40.5969 -4.0607
# 6 -12.1466 -19.3640 -11.9668 5.2434 -4.0607 48.5517
#
#
#
# Elastic Compliance Matrix: (Units=1/GPa)
#
#
# Indices 1 2 3 4 5 6 
#
# 1 0.016382 -0.005728 -0.002441 0.007669 -0.001113 0.000291
# 2 -0.005728 0.017455 -0.001059 0.000770 0.000276 0.005208
# 3 -0.002441 -0.001059 0.010604 -0.002372 -0.005861 0.001346
# 4 0.007669 0.000770 -0.002372 0.038699 0.008114 -0.001860
# 5 -0.001113 0.000276 -0.005861 0.008114 0.030515 0.000063
# 6 0.000291 0.005208 0.001346 -0.001860 0.000063 0.023284
#
#
# Mechanical properties :
#
#
# Convention : Reuss Voigt Hill
#
# Bulk Modulus (GPa) = 38.48295 49.62792 44.05543
# Shear Modulus (GPa) = 30.47729 37.42223 33.94976
#
# Velocity S-wave (km/s) = 3.68167 4.07964 3.88575
# Velocity P-wave (km/s) = 5.93196 6.65305 6.30283
#
# Compressibility (1/GPa) = 0.02598553
#
# Stress axis : x y z
#
# Youngs Moduli (GPa) = 61.04285 57.28869 94.30808
#
# Poissons Ratio (x) = 0.32814 0.23019
# Poissons Ratio (y) = 0.34964 0.09988
# Poissons Ratio (z) = 0.14900 0.06067
#
# Static dielectric constant tensor:
#      x y z
#    x 2.032590 -0.057880 -0.069570 
#    y -0.057880 1.925750 0.000260 
#    z -0.069570 0.000260 1.876460 
# 
# From -- ./inp_files/352340.got.cif
#   From: 2010.05.17/outbox.cif.g08.bks.cpg/sg2_177_cif.got.tgz:352340.got - 2010.06.03 11:33:40.
