data_PCOD9107555
_publ_section_title
;
Structure prediction by ZEFSAII (Michael W. Deem and Ramdas Pophale) SiO2 
 PCOD9107555
Probable space group: P -1
;
_chemical_formula_sum "Si O2"
_cell_formula_units_Z 16
_cell_length_a 9.327672
_cell_length_b 5.114194
_cell_length_c 16.105245
_cell_angle_alpha 74.782881
_cell_angle_beta 80.047870
_cell_angle_gamma 106.104355
_cell_volume 686.792711
_symmetry_space_group_name_H-M "P -1"
_symmetry_group_IT_number 2
_symmetry_cell_setting 'triclinic'
loop_
_space_group_symop_operation_xyz
x,y,z
-x,-y,-z
loop_
_atom_site_type_symbol
_atom_site_label
_atom_site_fract_x
_atom_site_fract_y
_atom_site_fract_z
Si Si1 0.139440 0.416143 0.956844
Si Si2 0.017397 0.969044 0.140665
Si Si3 0.890695 0.169657 0.530960
Si Si4 0.139430 0.702386 0.296598
Si Si5 0.511628 0.280816 0.088637
Si Si6 0.562516 0.336934 0.800552
Si Si7 0.272561 0.094819 0.726719
Si Si8 0.213531 0.660559 0.628083
O O1 0.305243 0.651713 0.923847
O O2 0.131769 0.163420 0.044139
O O3 0.094019 0.293513 0.880333
O O4 0.000000 0.500000 0.000000
O O5 0.118086 0.890220 0.206277
O O6 0.888985 0.063303 0.194696
O O7 0.836124 0.115167 0.635964
O O8 0.761494 0.173504 0.476229
O O9 0.000000 0.500000 0.500000
O O10 0.000000 0.000000 0.500000
O O11 0.281660 0.595337 0.273570
O O12 0.973875 0.443845 0.334493
O O13 0.449395 0.399204 0.166343
O O14 0.442104 0.935821 0.117212
O O15 0.500000 0.500000 0.000000
O O16 0.414723 0.218518 0.764803
O O17 0.250167 0.365496 0.656974
O O18 0.293860 0.871782 0.676618
#
# Coordination Sequence:
#
# PCOD9107555 Si02
#       8
#     2   2   2   2   2   2   2   2
#     4  11  24  38  63  89 121 164 221 269 307 374
#     4  10  22  39  60  91 119 164 218 264 312 366
#     4  10  20  40  65 101 130 163 210 268 320 378
#     4  10  24  41  68  95 129 167 215 264 319 387
#     4  12  27  44  64  89 134 175 215 270 332 380
#     4  12  26  44  63  96 132 172 215 263 333 388
#     4  11  22  42  65  94 130 169 210 265 322 384
#     4  10  22  40  70  95 126 167 216 260 318 380
#
# _framework density 23.296695
#
# number of rings (size 3 to 8) (size 9 to 14) (size 15 to 20)
#    0.000    1.250    1.250    4.875    8.750    4.000 
#    0.000    1.250    0.000    0.000    0.000    0.000 
#    0.000    0.000    0.000    0.000    0.000    0.000 
#
# Total GULP energy -89460.411966 kJ/mol
# GULP energy per Si atom -5591.275748 kJ/mol
# Density = 2.324367 g / cm^3
# Si number density = 23.296695 Si / 1000 Ang^3
#
#
#
# Elastic Constant Matrix: (Units=GPa)
#
#
# Indices 1 2 3 4 5 6 
#
# 1 86.2562 -10.5280 26.7903 -11.2449 -4.2278 -5.3449
# 2 -10.5280 67.0756 11.4755 -0.7535 1.8756 -20.6965
# 3 26.7903 11.4755 111.2001 16.1402 18.8863 -8.2750
# 4 -11.2449 -0.7535 16.1402 29.0988 -7.7207 0.3973
# 5 -4.2278 1.8756 18.8863 -7.7207 30.0743 2.2267
# 6 -5.3449 -20.6965 -8.2750 0.3973 2.2267 31.1599
#
#
#
# Elastic Compliance Matrix: (Units=1/GPa)
#
#
# Indices 1 2 3 4 5 6 
#
# 1 0.017414 0.004988 -0.008412 0.014368 0.010878 0.003105
# 2 0.004988 0.020370 -0.003242 0.004504 0.001634 0.013350
# 3 -0.008412 -0.003242 0.016665 -0.016835 -0.015929 0.002183
# 4 0.014368 0.004504 -0.016835 0.056546 0.026950 -0.001661
# 5 0.010878 0.001634 -0.015929 0.026950 0.051996 -0.005338
# 6 0.003105 0.013350 0.002183 -0.001661 -0.005338 0.042475
#
#
# Mechanical properties :
#
#
# Convention : Reuss Voigt Hill
#
# Bulk Modulus (GPa) = 24.32070 35.55641 29.93855
# Shear Modulus (GPa) = 21.50511 33.85286 27.67899
#
# Velocity S-wave (km/s) = 3.04155 3.81611 3.45063
# Velocity P-wave (km/s) = 4.77461 5.89173 5.36234
#
# Compressibility (1/GPa) = 0.04111724
#
# Stress axis : x y z
#
# Youngs Moduli (GPa) = 57.42661 49.09123 60.00505
#
# Poissons Ratio (x) = -0.24485 0.50476
# Poissons Ratio (y) = -0.28643 0.19452
# Poissons Ratio (z) = 0.48307 0.15914
#
# Static dielectric constant tensor:
#      x y z
#    x 2.263480 -0.115990 -0.150590 
#    y -0.115990 1.931850 -0.077980 
#    z -0.150590 -0.077980 2.135830 
# 
# From -- ./inp_files/488417.got.cif
#   From: 2010.05.17/outbox.cif.g08.bks.cpg/sg2_245_cif.got.tgz:488417.got - 2010.06.03 11:33:40.
