data_PCOD9107256
_publ_section_title
;
Structure prediction by ZEFSAII (Michael W. Deem and Ramdas Pophale) SiO2 
 PCOD9107256
Probable space group: P -1
;
_chemical_formula_sum "Si O2"
_cell_formula_units_Z 14
_cell_length_a 9.201402
_cell_length_b 7.661129
_cell_length_c 9.712009
_cell_angle_alpha 89.532839
_cell_angle_beta 117.291273
_cell_angle_gamma 89.233707
_cell_volume 608.288704
_symmetry_space_group_name_H-M "P -1"
_symmetry_group_IT_number 2
_symmetry_cell_setting 'triclinic'
loop_
_space_group_symop_operation_xyz
x,y,z
-x,-y,-z
loop_
_atom_site_type_symbol
_atom_site_label
_atom_site_fract_x
_atom_site_fract_y
_atom_site_fract_z
Si Si1 0.830222 0.500255 0.336245
Si Si2 0.015116 0.552779 0.162187
Si Si3 0.321690 0.466854 0.470852
Si Si4 0.257204 0.936672 0.011893
Si Si5 0.400596 0.168201 0.840477
Si Si6 0.655803 0.946989 0.473628
Si Si7 0.075028 0.952241 0.216561
O O1 0.714955 0.424078 0.405425
O O2 0.722365 0.673028 0.248818
O O3 0.000000 0.500000 0.500000
O O4 0.894635 0.452541 0.213716
O O5 0.195428 0.516554 0.297840
O O6 0.998778 0.761804 0.167665
O O7 0.000000 0.500000 0.000000
O O8 0.500000 0.500000 0.500000
O O9 0.308956 0.259839 0.489869
O O10 0.346566 0.086876 0.962290
O O11 0.404665 0.792156 0.078364
O O12 0.198958 0.979330 0.141940
O O13 0.080905 0.917210 0.861906
O O14 0.377920 0.033216 0.703690
O O15 0.500000 0.000000 0.500000
O O16 0.817772 0.037037 0.600235
#
# Coordination Sequence:
#
# PCOD9107256 Si02
#       7
#     2   2   2   2   2   2   2
#     4   9  20  42  64  88 127 172 212 261 317 390
#     4  11  24  42  65  90 129 169 214 265 327 381
#     4  10  23  42  66  92 127 170 210 264 324 385
#     4  10  22  37  65  93 133 167 206 271 321 380
#     4  10  20  40  63  95 129 166 214 268 321 373
#     4  11  22  39  66  96 126 168 217 264 316 383
#     4  11  23  41  64  97 131 168 216 261 323 385
#
# _framework density 23.015387
#
# number of rings (size 3 to 8) (size 9 to 14) (size 15 to 20)
#    0.000    1.714    2.857    0.857    6.000    0.571 
#    0.000    3.571    0.000    0.000    0.000    0.000 
#    0.000    0.000    0.000    0.000    0.000    0.000 
#
# Total GULP energy -78015.055160 kJ/mol
# GULP energy per Si atom -5572.503940 kJ/mol
# Density = 2.296300 g / cm^3
# Si number density = 23.015387 Si / 1000 Ang^3
#
#
#
# Elastic Constant Matrix: (Units=GPa)
#
#
# Indices 1 2 3 4 5 6 
#
# 1 185.8563 12.2723 68.4998 -6.2848 7.6324 -15.4586
# 2 12.2723 74.3509 32.5285 -1.6903 6.8968 -16.0613
# 3 68.4998 32.5285 142.3307 -7.4523 -10.3465 -5.8476
# 4 -6.2848 -1.6903 -7.4523 33.2217 -4.4393 9.0500
# 5 7.6324 6.8968 -10.3465 -4.4393 33.6580 -19.3891
# 6 -15.4586 -16.0613 -5.8476 9.0500 -19.3891 26.2135
#
#
#
# Elastic Compliance Matrix: (Units=1/GPa)
#
#
# Indices 1 2 3 4 5 6 
#
# 1 0.006931 0.001260 -0.003576 -0.000516 -0.000967 0.003524
# 2 0.001260 0.017634 -0.004108 -0.003113 0.002040 0.013215
# 3 -0.003576 -0.004108 0.010259 0.001830 0.005815 0.001332
# 4 -0.000516 -0.003113 0.001830 0.034201 -0.003507 -0.016205
# 5 -0.000967 0.002040 0.005815 -0.003507 0.056931 0.045297
# 6 0.003524 0.013215 0.001332 -0.016205 0.045297 0.087720
#
#
# Mechanical properties :
#
#
# Convention : Reuss Voigt Hill
#
# Bulk Modulus (GPa) = 45.50666 69.90437 57.70551
# Shear Modulus (GPa) = 21.38131 37.90112 29.64122
#
# Velocity S-wave (km/s) = 3.05126 4.06245 3.59261
# Velocity P-wave (km/s) = 5.67704 7.24179 6.50662
#
# Compressibility (1/GPa) = 0.02197481
#
# Stress axis : x y z
#
# Youngs Moduli (GPa) = 144.28605 56.70953 97.47492
#
# Poissons Ratio (x) = -0.07144 0.34857
# Poissons Ratio (y) = -0.18177 0.40044
# Poissons Ratio (z) = 0.51596 0.23297
#
# Static dielectric constant tensor:
#      x y z
#    x 1.850120 -0.016460 -0.022810 
#    y -0.016460 1.969650 -0.007670 
#    z -0.022810 -0.007670 1.867460 
# 
# From -- ./inp_files/158959.got.cif
#   From: 2010.05.17/outbox.cif.g08.bks.cpg/sg2_80_cif.got.tgz:158959.got - 2010.06.03 11:33:40.
