data_PCOD9107801
_publ_section_title
;
Structure prediction by ZEFSAII (Michael W. Deem and Ramdas Pophale) SiO2 
 PCOD9107801
Probable space group: P -1
;
_chemical_formula_sum "Si O2"
_cell_formula_units_Z 16
_cell_length_a 7.980877
_cell_length_b 11.389036
_cell_length_c 18.093597
_cell_angle_alpha 36.740991
_cell_angle_beta 83.144922
_cell_angle_gamma 106.932038
_cell_volume 741.103221
_symmetry_space_group_name_H-M "P -1"
_symmetry_group_IT_number 2
_symmetry_cell_setting 'triclinic'
loop_
_space_group_symop_operation_xyz
x,y,z
-x,-y,-z
loop_
_atom_site_type_symbol
_atom_site_label
_atom_site_fract_x
_atom_site_fract_y
_atom_site_fract_z
Si Si1 0.647425 0.448594 0.475234
Si Si2 0.471947 0.257411 0.427493
Si Si3 0.645393 0.093274 0.760613
Si Si4 0.851840 0.292877 0.319489
Si Si5 0.630575 0.778061 0.098964
Si Si6 0.219694 0.713744 0.174059
Si Si7 0.886380 0.315945 0.027927
Si Si8 0.066503 0.022016 0.153938
O O1 0.500000 0.500000 0.500000
O O2 0.513773 0.249666 0.515299
O O3 0.716046 0.328032 0.587605
O O4 0.865734 0.723090 0.293953
O O5 0.641918 0.272610 0.357282
O O6 0.534966 0.532945 0.276807
O O7 0.234289 0.989775 0.552126
O O8 0.709667 0.202803 0.786569
O O9 0.781184 0.993454 0.791199
O O10 0.380789 0.867472 0.874825
O O11 0.997023 0.425858 0.318673
O O12 0.996275 0.493013 0.144971
O O13 0.410846 0.735131 0.112951
O O14 0.766296 0.802192 0.010428
O O15 0.788959 0.075138 0.969341
O O16 0.000000 0.500000 0.000000
O O17 0.950053 0.135049 0.124336
#
# Coordination Sequence:
#
# PCOD9107801 Si02
#       8
#     2   2   2   2   2   2   2   2
#     4  12  24  41  69 103 139 182 229 281 346 404
#     4  11  24  40  67  99 136 178 223 281 339 413
#     4  11  24  46  67 102 139 175 235 280 338 415
#     4  11  24  42  65 101 135 176 226 279 349 399
#     4  10  20  40  65  98 129 168 232 269 336 403
#     4  10  22  41  71  98 133 177 223 290 330 402
#     4  12  25  45  71  98 140 182 226 286 348 411
#     4  11  24  41  71  99 128 186 229 280 338 404
#
# _framework density 21.589435999999999
#
# number of rings (size 3 to 8) (size 9 to 14) (size 15 to 20)
#    0.000    1.000    2.500    5.625    1.750    2.000 
#    0.000    0.000    0.000    0.000    0.000    0.000 
#    0.000    0.000    0.000    0.000    0.000    0.000 
#
# Total GULP energy -89296.214688 kJ/mol
# GULP energy per Si atom -5581.013418 kJ/mol
# Density = 2.154030 g / cm^3
# Si number density = 21.589436 Si / 1000 Ang^3
#
#
#
# Elastic Constant Matrix: (Units=GPa)
#
#
# Indices 1 2 3 4 5 6 
#
# 1 82.0365 14.8987 29.4734 -23.7574 13.8303 7.6915
# 2 14.8987 78.2000 41.9761 -26.8355 6.0553 26.6698
# 3 29.4734 41.9761 116.0754 -14.7485 3.6010 23.9118
# 4 -23.7574 -26.8355 -14.7485 26.5108 13.9572 -7.3813
# 5 13.8303 6.0553 3.6010 13.9572 25.5965 2.0098
# 6 7.6915 26.6698 23.9118 -7.3813 2.0098 26.3732
#
#
#
# Elastic Compliance Matrix: (Units=1/GPa)
#
#
# Indices 1 2 3 4 5 6 
#
# 1 -0.027963 -0.045314 0.004350 -0.108784 0.083496 0.013225
# 2 -0.045314 -0.026308 0.004222 -0.114685 0.092899 -0.003186
# 3 0.004350 0.004222 0.010706 0.019523 -0.014822 -0.008652
# 4 -0.108784 -0.114685 0.019523 -0.277258 0.231616 0.034751
# 5 0.083496 0.092899 -0.014822 0.231616 -0.149988 -0.028602
# 6 0.013225 -0.003186 -0.008652 0.034751 -0.028602 0.057032
#
#
# Mechanical properties :
#
#
# Convention : Reuss Voigt Hill
#
# Bulk Modulus (GPa) = -8.54347 49.88982 20.67317
# Shear Modulus (GPa) = -13.18180 28.36035 7.58928
#
# Velocity S-wave (km/s) = -2.47365 3.62832 1.87694
# Velocity P-wave (km/s) = 3.48201 6.38056 3.78069
#
# Compressibility (1/GPa) = -0.11704843
#
# Stress axis : x y z
#
# Youngs Moduli (GPa) = -35.76107 -38.01127 93.40277
#
# Poissons Ratio (x) = -1.72245 -0.40633
# Poissons Ratio (y) = -1.62048 -0.39436
# Poissons Ratio (z) = 0.15557 0.16049
#
# Static dielectric constant tensor:
#      x y z
#    x 1.821310 -0.000790 -0.010090 
#    y -0.000790 1.816680 -0.000930 
#    z -0.010090 -0.000930 1.836110 
# 
# From -- ./inp_files/588859.got.cif
#   From: 2010.05.17/outbox.cif.g08.bks.cpg/sg2_295_cif.got.tgz:588859.got - 2010.06.03 11:33:40.
