data_PCOD9107343
_publ_section_title
;
Structure prediction by ZEFSAII (Michael W. Deem and Ramdas Pophale) SiO2 
 PCOD9107343
Probable space group: P -1
;
_chemical_formula_sum "Si O2"
_cell_formula_units_Z 14
_cell_length_a 9.666792
_cell_length_b 18.816661
_cell_length_c 13.916952
_cell_angle_alpha 162.388278
_cell_angle_beta 69.674046
_cell_angle_gamma 120.914013
_cell_volume 549.567447
_symmetry_space_group_name_H-M "P -1"
_symmetry_group_IT_number 2
_symmetry_cell_setting 'triclinic'
loop_
_space_group_symop_operation_xyz
x,y,z
-x,-y,-z
loop_
_atom_site_type_symbol
_atom_site_label
_atom_site_fract_x
_atom_site_fract_y
_atom_site_fract_z
Si Si1 0.942084 0.553306 0.716994
Si Si2 0.558565 0.250007 0.500022
Si Si3 0.042058 0.782933 0.416528
Si Si4 0.331903 0.478506 0.893694
Si Si5 0.731432 0.978459 0.893608
Si Si6 0.552605 0.946694 0.282946
Si Si7 0.892648 0.716905 0.583347
O O1 0.789808 0.519356 0.780588
O O2 0.789895 0.233353 0.284047
O O3 0.067811 0.831081 0.970546
O O4 0.100203 0.532861 0.693062
O O5 0.531671 0.980566 0.219305
O O6 0.451539 0.363734 0.720702
O O7 0.444695 0.136351 0.279483
O O8 0.272285 0.032866 0.693206
O O9 0.990780 0.749713 0.499681
O O10 0.000000 0.500000 0.000000
O O11 0.896268 0.802572 0.418496
O O12 0.392572 0.733292 0.284037
O O13 0.376401 0.669028 0.029569
O O14 0.709592 0.697383 0.581515
O O15 0.000000 0.000000 0.000000
#
# Coordination Sequence:
#
# PCOD9107343 Si02
#       7
#     2   2   2   2   2   2   2
#     4  10  23  40  59  86 120 157 199 247 296 355
#     4  12  22  34  64  88 116 150 202 244 302 356
#     4  10  20  40  64  86 120 160 200 246 298 356
#     4  10  23  40  59  86 120 157 199 247 296 355
#     4  10  23  40  59  86 120 157 199 247 296 355
#     4  10  23  40  59  86 120 157 199 247 296 355
#     4  10  20  40  64  86 120 160 200 246 298 356
#
# _framework density 25.474582000000002
#
# number of rings (size 3 to 8) (size 9 to 14) (size 15 to 20)
#    0.000    1.714    2.857    0.857    4.000    0.000 
#    0.000    0.000    0.000   18.857    0.000    0.000 
#    0.000    0.000    0.000    0.000    0.000    0.000 
#
# Total GULP energy -78003.035982 kJ/mol
# GULP energy per Si atom -5571.645427 kJ/mol
# Density = 2.541660 g / cm^3
# Si number density = 25.474582 Si / 1000 Ang^3
#
#
#
# Elastic Constant Matrix: (Units=GPa)
#
#
# Indices 1 2 3 4 5 6 
#
# 1 175.4586 39.8594 30.9440 34.2617 2.3680 -0.2243
# 2 39.8594 60.7204 20.8913 3.2823 1.5668 2.6980
# 3 30.9440 20.8913 72.4167 -6.9617 2.2183 1.5339
# 4 34.2617 3.2823 -6.9617 36.1739 2.8328 2.0575
# 5 2.3680 1.5668 2.2183 2.8328 35.7431 5.3029
# 6 -0.2243 2.6980 1.5339 2.0575 5.3029 40.5723
#
#
#
# Elastic Compliance Matrix: (Units=1/GPa)
#
#
# Indices 1 2 3 4 5 6 
#
# 1 0.009029 -0.004286 -0.003509 -0.008918 0.000385 0.000870
# 2 -0.004286 0.020618 -0.003933 0.001529 -0.000307 -0.001284
# 3 -0.003509 -0.003933 0.017174 0.007110 -0.001133 -0.000620
# 4 -0.008918 0.001529 0.007110 0.037638 -0.002605 -0.001988
# 5 0.000385 -0.000307 -0.001133 -0.002605 0.028771 -0.003563
# 6 0.000870 -0.001284 -0.000620 -0.001988 -0.003563 0.025327
#
#
# Mechanical properties :
#
#
# Convention : Reuss Voigt Hill
#
# Bulk Modulus (GPa) = 42.79945 54.66501 48.73223
# Shear Modulus (GPa) = 29.44590 36.95792 33.20191
#
# Velocity S-wave (km/s) = 3.40353 3.81304 3.61409
# Velocity P-wave (km/s) = 5.68179 6.39460 6.04870
#
# Compressibility (1/GPa) = 0.02336479
#
# Stress axis : x y z
#
# Youngs Moduli (GPa) = 110.75011 48.50103 58.22612
#
# Poissons Ratio (x) = 0.20789 0.20433
# Poissons Ratio (y) = 0.47471 0.22900
# Poissons Ratio (z) = 0.38865 0.19075
#
# Static dielectric constant tensor:
#      x y z
#    x 2.033130 0.005150 0.000470 
#    y 0.005150 2.043060 -0.092320 
#    z 0.000470 -0.092320 2.097480 
# 
# From -- ./inp_files/508182.got.cif
#   From: 2010.05.17/outbox.cif.g08.bks.cpg/sg2_255_cif.got.tgz:508182.got - 2010.06.03 11:33:40.
