data_PCOD9107509
_publ_section_title
;
Structure prediction by ZEFSAII (Michael W. Deem and Ramdas Pophale) SiO2 
 PCOD9107509
Probable space group: P -1
;
_chemical_formula_sum "Si O2"
_cell_formula_units_Z 15
_cell_length_a 19.282176
_cell_length_b 6.753941
_cell_length_c 7.745474
_cell_angle_alpha 123.292438
_cell_angle_beta 47.424567
_cell_angle_gamma 111.572023
_cell_volume 620.874106
_symmetry_space_group_name_H-M "P -1"
_symmetry_group_IT_number 2
_symmetry_cell_setting 'triclinic'
loop_
_space_group_symop_operation_xyz
x,y,z
-x,-y,-z
loop_
_atom_site_type_symbol
_atom_site_label
_atom_site_fract_x
_atom_site_fract_y
_atom_site_fract_z
Si Si1 0.920462 0.428382 0.231612
Si Si2 0.634162 0.116205 0.715258
Si Si3 0.303774 0.925120 0.889352
Si Si4 0.523548 0.225246 0.309342
Si Si5 0.815773 0.427460 0.853991
Si Si6 0.000000 0.500000 0.500000
Si Si7 0.276018 0.437795 0.293820
Si Si8 0.818138 0.956096 0.188475
O O1 0.950989 0.539553 0.414251
O O2 0.815432 0.526001 0.416448
O O3 0.901325 0.145981 0.142818
O O4 0.000000 0.500000 0.000000
O O5 0.645789 0.364456 0.710923
O O6 0.740338 0.005083 0.491389
O O7 0.569444 0.928165 0.636195
O O8 0.585769 0.175672 0.007865
O O9 0.412073 0.846718 0.671239
O O10 0.247202 0.716479 0.978794
O O11 0.245884 0.989579 0.846643
O O12 0.305832 0.169155 0.110927
O O13 0.500000 0.500000 0.500000
O O14 0.852866 0.685565 0.984019
O O15 0.914884 0.303453 0.591823
O O16 0.757320 0.488682 0.809687
#
# Coordination Sequence:
#
# PCOD9107509 Si02
#       8
#     2   2   2   2   2   1   2   2
#     4  10  21  42  63 100 137 170 234 280 327 411
#     4  10  22  45  61  96 135 165 217 282 328 396
#     4  11  22  41  69  94 124 182 216 270 346 391
#     4  11  24  43  70  95 130 174 221 281 335 404
#     4  10  20  40  64  95 133 170 226 269 330 406
#     4  10  22  38  66  94 132 186 212 282 354 376
#     4   9  21  41  65  93 136 173 214 278 330 394
#     4  10  23  42  66  94 134 172 218 283 327 401
#
# _framework density 24.159489000000001
#
# number of rings (size 3 to 8) (size 9 to 14) (size 15 to 20)
#    0.000    1.867    1.333    1.600    1.867    2.667 
#   16.800    4.000    0.000    0.000    0.000    0.000 
#    0.000    0.000    0.000    0.000    0.000    0.000 
#
# Total GULP energy -83594.921400 kJ/mol
# GULP energy per Si atom -5572.994760 kJ/mol
# Density = 2.410450 g / cm^3
# Si number density = 24.159489 Si / 1000 Ang^3
#
#
#
# Elastic Constant Matrix: (Units=GPa)
#
#
# Indices 1 2 3 4 5 6 
#
# 1 84.0290 46.4229 12.7270 -4.6226 -1.7912 14.2823
# 2 46.4229 137.1640 34.2570 -0.0296 -6.0893 34.0972
# 3 12.7270 34.2570 46.5912 -22.7357 10.8804 5.5576
# 4 -4.6226 -0.0296 -22.7357 48.4429 10.5236 -4.9062
# 5 -1.7912 -6.0893 10.8804 10.5236 27.6418 -3.1797
# 6 14.2823 34.0972 5.5576 -4.9062 -3.1797 39.6908
#
#
#
# Elastic Compliance Matrix: (Units=1/GPa)
#
#
# Indices 1 2 3 4 5 6 
#
# 1 0.014820 -0.005274 0.001567 0.002462 -0.001855 -0.000866
# 2 -0.005274 0.018213 -0.022391 -0.015880 0.017242 -0.011195
# 3 0.001567 -0.022391 0.068540 0.043638 -0.047194 0.010688
# 4 0.002462 -0.015880 0.043638 0.050752 -0.038708 0.009819
# 5 -0.001855 0.017242 -0.047194 -0.038708 0.072419 -0.006520
# 6 -0.000866 -0.011195 0.010688 0.009819 -0.006520 0.034318
#
#
# Mechanical properties :
#
#
# Convention : Reuss Voigt Hill
#
# Bulk Modulus (GPa) = 20.25229 50.51090 35.38160
# Shear Modulus (GPa) = 15.25716 34.78024 25.01870
#
# Velocity S-wave (km/s) = 2.51573 3.79834 3.22151
# Velocity P-wave (km/s) = 4.10359 6.33949 5.33988
#
# Compressibility (1/GPa) = 0.04937713
#
# Stress axis : x y z
#
# Youngs Moduli (GPa) = 67.47676 54.90734 14.59010
#
# Poissons Ratio (x) = 0.28957 -0.02287
# Poissons Ratio (y) = 0.35586 0.32669
# Poissons Ratio (z) = -0.10576 1.22943
#
# Static dielectric constant tensor:
#      x y z
#    x 1.993410 -0.021900 0.002370 
#    y -0.021900 1.795070 -0.238470 
#    z 0.002370 -0.238470 1.811410 
# 
# From -- ./inp_files/340603.got.cif
#   From: 2010.05.17/outbox.cif.g08.bks.cpg/sg2_171_cif.got.tgz:340603.got - 2010.06.03 11:33:40.
