data_PCOD9107911
_publ_section_title
;
Structure prediction by ZEFSAII (Michael W. Deem and Ramdas Pophale) SiO2 
 PCOD9107911
Probable space group: P -1
;
_chemical_formula_sum "Si O2"
_cell_formula_units_Z 11
_cell_length_a 15.208712
_cell_length_b 18.579823
_cell_length_c 4.823959
_cell_angle_alpha 108.254178
_cell_angle_beta 66.182078
_cell_angle_gamma 160.573110
_cell_volume 404.401761
_symmetry_space_group_name_H-M "P -1"
_symmetry_group_IT_number 2
_symmetry_cell_setting 'triclinic'
loop_
_space_group_symop_operation_xyz
x,y,z
-x,-y,-z
loop_
_atom_site_type_symbol
_atom_site_label
_atom_site_fract_x
_atom_site_fract_y
_atom_site_fract_z
Si Si1 0.342407 0.165134 0.204991
Si Si2 0.545315 0.459206 0.583927
Si Si3 0.222570 0.791799 0.421394
Si Si4 0.542282 0.155727 0.188142
Si Si5 0.963906 0.868245 0.808591
Si Si6 0.000000 0.500000 0.500000
O O1 0.542089 0.382800 0.303036
O O2 0.443485 0.160647 0.197461
O O3 0.065378 0.975490 0.517941
O O4 0.223496 0.061169 0.924462
O O5 0.500000 0.500000 0.500000
O O6 0.822099 0.682184 0.685737
O O7 0.287148 0.270202 0.901316
O O8 0.972387 0.580295 0.677822
O O9 0.500000 0.000000 0.500000
O O10 0.285207 0.905608 0.266103
O O11 0.239953 0.721089 0.162304
O O12 0.722233 0.297605 0.403195
#
# Coordination Sequence:
#
# PCOD9107911 Si02
#       6
#     2   2   2   2   2   1
#     4  12  27  43  71 104 141 179 233 288 332 409
#     4  11  25  47  71 103 138 187 229 274 352 413
#     4   9  20  41  65  89 126 175 215 272 338 398
#     4  10  23  42  63  96 131 175 225 269 340 399
#     4  11  26  45  71 100 140 183 224 286 345 404
#     4  10  20  40  66  90 126 174 214 274 334 394
#
# _framework density 27.200673999999999
#
# number of rings (size 3 to 8) (size 9 to 14) (size 15 to 20)
#    0.000    1.455    1.818    1.636   10.182    1.455 
#    6.545    1.818    0.000    0.000    0.000    0.000 
#    0.000    0.000    0.000    0.000    0.000    0.000 
#
# Total GULP energy -61326.874395 kJ/mol
# GULP energy per Si atom -5575.170400 kJ/mol
# Density = 2.713876 g / cm^3
# Si number density = 27.200674 Si / 1000 Ang^3
#
#
#
# Elastic Constant Matrix: (Units=GPa)
#
#
# Indices 1 2 3 4 5 6 
#
# 1 185.2932 71.2749 50.8967 20.7964 -2.8763 -33.6922
# 2 71.2749 153.9484 41.3964 52.7007 -9.2556 -42.1968
# 3 50.8967 41.3964 103.1229 26.0487 8.6057 8.2794
# 4 20.7964 52.7007 26.0487 75.0056 -2.3029 6.4021
# 5 -2.8763 -9.2556 8.6057 -2.3029 43.6650 7.4698
# 6 -33.6922 -42.1968 8.2794 6.4021 7.4698 44.9251
#
#
#
# Elastic Compliance Matrix: (Units=1/GPa)
#
#
# Indices 1 2 3 4 5 6 
#
# 1 0.007958 -0.000544 -0.003973 -0.000982 0.000059 0.006319
# 2 -0.000544 0.017173 -0.005225 -0.011625 0.000909 0.018190
# 3 -0.003973 -0.005225 0.014665 0.000478 -0.002481 -0.010246
# 4 -0.000982 -0.011625 0.000478 0.022941 0.001189 -0.015211
# 5 0.000059 0.000909 -0.002481 0.001189 0.024134 -0.002827
# 6 0.006319 0.018190 -0.010246 -0.015211 -0.002827 0.048610
#
#
# Mechanical properties :
#
#
# Convention : Reuss Voigt Hill
#
# Bulk Modulus (GPa) = 49.23632 85.50008 67.36820
# Shear Modulus (GPa) = 30.91483 51.30557 41.11020
#
# Velocity S-wave (km/s) = 3.37493 4.34774 3.89185
# Velocity P-wave (km/s) = 5.77298 7.53028 6.70941
#
# Compressibility (1/GPa) = 0.02031021
#
# Stress axis : x y z
#
# Youngs Moduli (GPa) = 125.66381 58.23202 68.19167
#
# Poissons Ratio (x) = 0.03168 0.27096
# Poissons Ratio (y) = 0.06837 0.35629
# Poissons Ratio (z) = 0.49932 0.30425
#
# Static dielectric constant tensor:
#      x y z
#    x 2.404600 -0.186510 0.027170 
#    y -0.186510 2.692210 -0.581720 
#    z 0.027170 -0.581720 2.759120 
# 
# From -- ./inp_files/99201.got.cif
#   From: 2010.05.17/outbox.cif.g08.bks.cpg/sg2_50_cif.got.tgz:99201.got - 2010.06.03 11:33:40.
