data_PCOD9107922
_publ_section_title
;
Structure prediction by ZEFSAII (Michael W. Deem and Ramdas Pophale) SiO2 
 PCOD9107922
Probable space group: P -1
;
_chemical_formula_sum "Si O2"
_cell_formula_units_Z 14
_cell_length_a 10.687736
_cell_length_b 9.373064
_cell_length_c 16.307200
_cell_angle_alpha 132.311916
_cell_angle_beta 48.035584
_cell_angle_gamma 96.060866
_cell_volume 700.039996
_symmetry_space_group_name_H-M "P -1"
_symmetry_group_IT_number 2
_symmetry_cell_setting 'triclinic'
loop_
_space_group_symop_operation_xyz
x,y,z
-x,-y,-z
loop_
_atom_site_type_symbol
_atom_site_label
_atom_site_fract_x
_atom_site_fract_y
_atom_site_fract_z
Si Si1 0.347562 0.072589 0.173782
Si Si2 0.672920 0.576039 0.567447
Si Si3 0.964767 0.426084 0.899215
Si Si4 0.819846 0.058766 0.040310
Si Si5 0.993213 0.982515 0.766247
Si Si6 0.628385 0.607466 0.987101
Si Si7 0.029621 0.496195 0.728808
O O1 0.275951 0.330953 0.339232
O O2 0.153509 0.069491 0.235324
O O3 0.500000 0.000000 0.000000
O O4 0.477993 0.872017 0.111571
O O5 0.775284 0.617915 0.462441
O O6 0.789628 0.285920 0.408323
O O7 0.416072 0.743840 0.743735
O O8 0.093784 0.438780 0.774031
O O9 0.720429 0.599734 0.034152
O O10 0.029732 0.155215 0.770713
O O11 0.000000 0.500000 0.000000
O O12 0.856484 0.133003 0.965871
O O13 0.879632 0.792185 0.896316
O O14 0.000000 0.000000 0.000000
O O15 0.858538 0.443619 0.773237
O O16 0.500000 0.500000 0.000000
#
# Coordination Sequence:
#
# PCOD9107922 Si02
#       7
#     2   2   2   2   2   2   2
#     4  12  20  40  66  96 131 173 218 271 340 389
#     4  11  22  41  65  98 134 168 215 289 325 390
#     4  10  21  42  66  95 133 178 226 270 322 399
#     4  11  22  41  66  91 127 176 219 273 336 388
#     4  11  23  37  64 101 127 170 226 267 331 401
#     4  10  20  40  66  90 134 178 221 270 327 390
#     4   9  21  40  64  94 128 172 221 268 330 392
#
# _framework density 19.998857000000001
#
# number of rings (size 3 to 8) (size 9 to 14) (size 15 to 20)
#    0.857    0.571    4.286    2.143    0.000    2.286 
#    0.000    7.143    0.000    6.000    0.000    0.000 
#    0.000    0.000    0.000    0.000    0.000    0.000 
#
# Total GULP energy -78013.845753 kJ/mol
# GULP energy per Si atom -5572.417554 kJ/mol
# Density = 1.995334 g / cm^3
# Si number density = 19.998857 Si / 1000 Ang^3
#
#
#
# Elastic Constant Matrix: (Units=GPa)
#
#
# Indices 1 2 3 4 5 6 
#
# 1 101.5409 4.0027 31.6966 0.1987 -15.8876 -7.7279
# 2 4.0027 87.4992 36.2696 6.3596 4.3526 -16.0687
# 3 31.6966 36.2696 120.5520 -16.9574 -13.0093 -5.9571
# 4 0.1987 6.3596 -16.9574 16.7435 -1.6513 5.9286
# 5 -15.8876 4.3526 -13.0093 -1.6513 24.2417 -2.5587
# 6 -7.7279 -16.0687 -5.9571 5.9286 -2.5587 29.1229
#
#
#
# Elastic Compliance Matrix: (Units=1/GPa)
#
#
# Indices 1 2 3 4 5 6 
#
# 1 0.012307 0.002249 -0.003919 -0.006354 0.005706 0.005500
# 2 0.002249 0.020144 -0.010120 -0.023561 -0.007726 0.013759
# 3 -0.003919 -0.010120 0.016325 0.023909 0.008860 -0.007373
# 4 -0.006354 -0.023561 0.023909 0.105154 0.016923 -0.029715
# 5 0.005706 -0.007726 0.008860 0.016923 0.052309 0.000214
# 6 0.005500 0.013759 -0.007373 -0.029715 0.000214 0.047948
#
#
# Mechanical properties :
#
#
# Convention : Reuss Voigt Hill
#
# Bulk Modulus (GPa) = 39.68714 50.39223 45.03968
# Shear Modulus (GPa) = 17.47244 29.86317 23.66780
#
# Velocity S-wave (km/s) = 2.95900 3.86844 3.44387
# Velocity P-wave (km/s) = 5.61801 6.72350 6.19546
#
# Compressibility (1/GPa) = 0.02519708
#
# Stress axis : x y z
#
# Youngs Moduli (GPa) = 81.25660 49.64177 61.25505
#
# Poissons Ratio (x) = -0.11166 0.24004
# Poissons Ratio (y) = -0.18277 0.61991
# Poissons Ratio (z) = 0.31842 0.50239
#
# Static dielectric constant tensor:
#      x y z
#    x 1.765400 0.004340 -0.002710 
#    y 0.004340 1.747880 -0.001330 
#    z -0.002710 -0.001330 1.705910 
# 
# From -- ./inp_files/566195.got.cif
#   From: 2010.05.17/outbox.cif.g08.bks.cpg/sg2_284_cif.got.tgz:566195.got - 2010.06.03 11:33:40.
