data_PCOD9107692
_publ_section_title
;
Structure prediction by ZEFSAII (Michael W. Deem and Ramdas Pophale) SiO2 
 PCOD9107692
Probable space group: P -1
;
_chemical_formula_sum "Si O2"
_cell_formula_units_Z 16
_cell_length_a 16.257283
_cell_length_b 13.401935
_cell_length_c 8.677656
_cell_angle_alpha 83.151137
_cell_angle_beta 84.549162
_cell_angle_gamma 153.743363
_cell_volume 737.483685
_symmetry_space_group_name_H-M "P -1"
_symmetry_group_IT_number 2
_symmetry_cell_setting 'triclinic'
loop_
_space_group_symop_operation_xyz
x,y,z
-x,-y,-z
loop_
_atom_site_type_symbol
_atom_site_label
_atom_site_fract_x
_atom_site_fract_y
_atom_site_fract_z
Si Si1 0.019216 0.896520 0.362033
Si Si2 0.936334 0.537361 0.944096
Si Si3 0.814105 0.326851 0.672900
Si Si4 0.746872 0.780263 0.440354
Si Si5 0.404176 0.283384 0.029400
Si Si6 0.345979 0.650462 0.352526
Si Si7 0.701112 0.912544 0.238340
Si Si8 0.461376 0.781270 0.943230
O O1 0.867735 0.817765 0.351364
O O2 0.870304 0.648401 0.516663
O O3 0.182599 0.127172 0.413087
O O4 0.165147 0.016277 0.180803
O O5 0.910737 0.492069 0.773429
O O6 0.726068 0.360232 0.065619
O O7 0.125987 0.819947 0.903950
O O8 0.000000 0.500000 0.000000
O O9 0.677096 0.258371 0.621945
O O10 0.000000 0.500000 0.500000
O O11 0.670914 0.076112 0.807394
O O12 0.500000 0.500000 0.500000
O O13 0.815680 0.959695 0.313940
O O14 0.518539 0.314762 0.081723
O O15 0.500000 0.500000 0.000000
O O16 0.406365 0.265980 0.849803
O O17 0.526644 0.786009 0.375902
O O18 0.417798 0.731432 0.144907
#
# Coordination Sequence:
#
# PCOD9107692 Si02
#       8
#     2   2   2   2   2   2   2   2
#     4  11  24  40  66  90 132 171 223 272 333 383
#     4  11  22  41  66  96 130 173 218 271 332 401
#     4  11  22  41  69  95 129 167 218 269 336 395
#     4  11  22  40  63  94 124 174 224 271 323 396
#     4  11  25  43  64  94 133 176 222 276 331 385
#     4  10  20  40  65  92 125 174 212 263 332 403
#     4  11  23  41  65  94 132 172 224 271 331 398
#     4  10  22  41  65  94 130 175 217 261 337 404
#
# _framework density 21.695394
#
# number of rings (size 3 to 8) (size 9 to 14) (size 15 to 20)
#    0.000    1.250    1.250    6.750    7.000    0.500 
#    2.250    5.000    0.000    0.000    0.000    0.000 
#    0.000    0.000    0.000    0.000    0.000    0.000 
#
# Total GULP energy -89310.635550 kJ/mol
# GULP energy per Si atom -5581.914722 kJ/mol
# Density = 2.164601 g / cm^3
# Si number density = 21.695394 Si / 1000 Ang^3
#
#
#
# Elastic Constant Matrix: (Units=GPa)
#
#
# Indices 1 2 3 4 5 6 
#
# 1 208.1443 36.5630 48.4575 -15.5844 -1.6145 -7.4704
# 2 36.5630 84.3017 14.7924 -23.3506 1.4272 -9.9014
# 3 48.4575 14.7924 64.1511 -33.2770 -8.5617 -1.4528
# 4 -15.5844 -23.3506 -33.2770 36.9769 -2.0793 5.5768
# 5 -1.6145 1.4272 -8.5617 -2.0793 31.3461 -5.4055
# 6 -7.4704 -9.9014 -1.4528 5.5768 -5.4055 38.9958
#
#
#
# Elastic Compliance Matrix: (Units=1/GPa)
#
#
# Indices 1 2 3 4 5 6 
#
# 1 0.006774 -0.003247 -0.008115 -0.006741 -0.002020 0.000855
# 2 -0.003247 0.016404 0.006733 0.014879 0.002253 0.001979
# 3 -0.008115 0.006733 0.042919 0.040536 0.013308 -0.002199
# 4 -0.006741 0.014879 0.040536 0.071515 0.014052 -0.004283
# 5 -0.002020 0.002253 0.013308 0.014052 0.036916 0.003788
# 6 0.000855 0.001979 -0.002199 -0.004283 0.003788 0.027366
#
#
# Mechanical properties :
#
#
# Convention : Reuss Voigt Hill
#
# Bulk Modulus (GPa) = 17.59311 61.80254 39.69783
# Shear Modulus (GPa) = 21.72984 38.58269 30.15627
#
# Velocity S-wave (km/s) = 3.16822 4.22166 3.73229
# Velocity P-wave (km/s) = 4.63791 7.23267 6.07543
#
# Compressibility (1/GPa) = 0.05684043
#
# Stress axis : x y z
#
# Youngs Moduli (GPa) = 147.61697 60.95977 23.29955
#
# Poissons Ratio (x) = 0.19792 0.18908
# Poissons Ratio (y) = 0.47926 -0.15688
# Poissons Ratio (z) = 1.19796 -0.41046
#
# Static dielectric constant tensor:
#      x y z
#    x 1.898580 0.044640 0.039090 
#    y 0.044640 1.835100 0.009890 
#    z 0.039090 0.009890 1.796350 
# 
# From -- ./inp_files/307535.got.cif
#   From: 2010.05.17/outbox.cif.g08.bks.cpg/sg2_154_cif.got.tgz:307535.got - 2010.06.03 11:33:40.
