data_PCOD9107492
_publ_section_title
;
Structure prediction by ZEFSAII (Michael W. Deem and Ramdas Pophale) SiO2 
 PCOD9107492
Probable space group: P -1
;
_chemical_formula_sum "Si O2"
_cell_formula_units_Z 14
_cell_length_a 22.141681
_cell_length_b 7.393104
_cell_length_c 15.090108
_cell_angle_alpha 104.594300
_cell_angle_beta 161.790423
_cell_angle_gamma 84.657320
_cell_volume 653.856181
_symmetry_space_group_name_H-M "P -1"
_symmetry_group_IT_number 2
_symmetry_cell_setting 'triclinic'
loop_
_space_group_symop_operation_xyz
x,y,z
-x,-y,-z
loop_
_atom_site_type_symbol
_atom_site_label
_atom_site_fract_x
_atom_site_fract_y
_atom_site_fract_z
Si Si1 0.817975 0.486298 0.816936
Si Si2 0.536985 0.059078 0.286032
Si Si3 0.324924 0.052015 0.809438
Si Si4 0.986352 0.056771 0.886774
Si Si5 0.114685 0.268947 0.448515
Si Si6 0.813998 0.333829 0.153913
Si Si7 0.975021 0.584692 0.247292
O O1 0.611697 0.258215 0.480759
O O2 0.000000 0.500000 0.000000
O O3 0.813361 0.706680 0.822661
O O4 0.889686 0.500161 0.020335
O O5 0.759603 0.068267 0.559047
O O6 0.394801 0.084244 0.012797
O O7 0.401691 0.830184 0.115846
O O8 0.090455 0.837867 0.444543
O O9 0.305403 0.242497 0.758761
O O10 0.500000 0.000000 0.000000
O O11 0.968994 0.878176 0.772836
O O12 0.000000 0.000000 0.000000
O O13 0.154679 0.504992 0.510228
O O14 0.917121 0.197119 0.235309
O O15 0.000000 0.500000 0.500000
O O16 0.799098 0.468583 0.066579
#
# Coordination Sequence:
#
# PCOD9107492 Si02
#       7
#     2   2   2   2   2   2   2
#     4  10  20  40  64  94 132 171 211 282 326 378
#     4  11  22  41  66  93 137 174 217 273 331 387
#     4  12  21  40  65  99 129 168 228 277 324 394
#     4  11  22  42  66  99 131 167 227 276 328 395
#     4  10  22  40  68  92 129 178 212 269 338 375
#     4  10  23  45  63  98 136 178 216 273 329 396
#     4  10  22  42  66  88 139 169 215 272 333 379
#
# _framework density 21.411436999999999
#
# number of rings (size 3 to 8) (size 9 to 14) (size 15 to 20)
#    0.857    0.571    4.286    2.571    0.000    1.714 
#    7.714    0.714    0.000    0.000    0.000    0.000 
#    0.000    0.000    0.000    0.000    0.000    0.000 
#
# Total GULP energy -78080.647021 kJ/mol
# GULP energy per Si atom -5577.189073 kJ/mol
# Density = 2.136270 g / cm^3
# Si number density = 21.411437 Si / 1000 Ang^3
#
#
#
# Elastic Constant Matrix: (Units=GPa)
#
#
# Indices 1 2 3 4 5 6 
#
# 1 82.9699 11.9983 35.3901 9.8102 -35.7822 14.6340
# 2 11.9983 71.2603 15.1366 4.5867 -8.9233 16.6742
# 3 35.3901 15.1366 74.1174 22.6721 -31.1811 12.1660
# 4 9.8102 4.5867 22.6721 34.7829 8.7184 -0.6093
# 5 -35.7822 -8.9233 -31.1811 8.7184 41.5157 -6.2427
# 6 14.6340 16.6742 12.1660 -0.6093 -6.2427 39.5043
#
#
#
# Elastic Compliance Matrix: (Units=1/GPa)
#
#
# Indices 1 2 3 4 5 6 
#
# 1 0.026419 0.001102 0.009446 -0.022307 0.033553 -0.008203
# 2 0.001102 0.016153 0.000392 -0.003951 0.004539 -0.006690
# 3 0.009446 0.000392 0.045807 -0.045439 0.050597 -0.010477
# 4 -0.022307 -0.003951 -0.045439 0.082840 -0.069462 0.014226
# 5 0.033553 0.004539 0.050597 -0.069462 0.104390 -0.014503
# 6 -0.008203 -0.006690 -0.010477 0.014226 -0.014503 0.032330
#
#
# Mechanical properties :
#
#
# Convention : Reuss Voigt Hill
#
# Bulk Modulus (GPa) = 9.06965 39.26639 24.16802
# Shear Modulus (GPa) = 15.48887 34.21541 24.85214
#
# Velocity S-wave (km/s) = 2.69251 4.00183 3.41059
# Velocity P-wave (km/s) = 3.72978 6.30331 5.17894
#
# Compressibility (1/GPa) = 0.11025779
#
# Stress axis : x y z
#
# Youngs Moduli (GPa) = 37.85207 61.90985 21.83060
#
# Poissons Ratio (x) = -0.06823 -0.20621
# Poissons Ratio (y) = -0.04171 -0.00855
# Poissons Ratio (z) = -0.35756 -0.02424
#
# Static dielectric constant tensor:
#      x y z
#    x 1.797030 0.004390 0.019300 
#    y 0.004390 1.786870 -0.012410 
#    z 0.019300 -0.012410 1.802510 
# 
# From -- ./inp_files/542418.got.cif
#   From: 2010.05.17/outbox.cif.g08.bks.cpg/sg2_272_cif.got.tgz:542418.got - 2010.06.03 11:33:40.
