data_PCOD9107007
_publ_section_title
;
Structure prediction by ZEFSAII (Michael W. Deem and Ramdas Pophale) SiO2 
 PCOD9107007
Probable space group: P -1
;
_chemical_formula_sum "Si O2"
_cell_formula_units_Z 16
_cell_length_a 8.169409
_cell_length_b 13.660283
_cell_length_c 15.096879
_cell_angle_alpha 28.079589
_cell_angle_beta 71.600059
_cell_angle_gamma 84.121010
_cell_volume 691.535668
_symmetry_space_group_name_H-M "P -1"
_symmetry_group_IT_number 2
_symmetry_cell_setting 'triclinic'
loop_
_space_group_symop_operation_xyz
x,y,z
-x,-y,-z
loop_
_atom_site_type_symbol
_atom_site_label
_atom_site_fract_x
_atom_site_fract_y
_atom_site_fract_z
Si Si1 0.559714 0.761978 0.985512
Si Si2 0.018555 0.305863 0.833116
Si Si3 0.798824 0.504767 0.618358
Si Si4 0.516120 0.757137 0.795995
Si Si5 0.892935 0.623946 0.033918
Si Si6 0.808342 0.166238 0.321668
Si Si7 0.273175 0.186342 0.750596
Si Si8 0.633141 0.161289 0.773243
O O1 0.505797 0.815091 0.854819
O O2 0.676242 0.993250 0.834282
O O3 0.381031 0.615562 0.191918
O O4 0.686773 0.620681 0.063836
O O5 0.045801 0.320256 0.920668
O O6 0.187110 0.272284 0.779560
O O7 0.975038 0.515404 0.637383
O O8 0.834699 0.083525 0.017774
O O9 0.784063 0.721789 0.402466
O O10 0.783241 0.347511 0.660059
O O11 0.109838 0.619576 0.797530
O O12 0.348802 0.788897 0.745956
O O13 0.707138 0.933216 0.577597
O O14 0.500000 0.500000 0.000000
O O15 0.972981 0.191163 0.205118
O O16 0.493944 0.252463 0.672283
O O17 0.500000 0.000000 0.000000
#
# Coordination Sequence:
#
# PCOD9107007 Si02
#       8
#     2   2   2   2   2   2   2   2
#     4  11  23  40  68  94 131 172 221 269 329 399
#     4  11  23  41  62  92 138 169 220 276 324 394
#     4  11  23  41  63  95 131 176 225 268 322 394
#     4  11  23  47  72  99 128 172 221 278 336 399
#     4  11  24  46  66 102 134 175 221 278 337 396
#     4  10  25  46  72  96 134 170 221 282 338 394
#     4  11  23  39  65  92 130 180 217 273 327 382
#     4  10  20  40  62  91 129 166 217 269 317 383
#
# _framework density 23.136913
#
# number of rings (size 3 to 8) (size 9 to 14) (size 15 to 20)
#    0.000    1.250    3.750    3.000    1.750    3.500 
#    2.250    0.000    0.000    0.000    0.000    0.000 
#    0.000    0.000    0.000    0.000    0.000    0.000 
#
# Total GULP energy -89530.688868 kJ/mol
# GULP energy per Si atom -5595.668054 kJ/mol
# Density = 2.308425 g / cm^3
# Si number density = 23.136913 Si / 1000 Ang^3
#
#
#
# Elastic Constant Matrix: (Units=GPa)
#
#
# Indices 1 2 3 4 5 6 
#
# 1 40.1825 27.1293 11.0554 13.0428 9.3381 -4.7251
# 2 27.1293 102.4488 39.7926 35.0370 -0.8798 3.7081
# 3 11.0554 39.7926 136.7656 17.8465 -3.1528 -8.7770
# 4 13.0428 35.0370 17.8465 31.8886 -3.7256 -3.3871
# 5 9.3381 -0.8798 -3.1528 -3.7256 40.8819 3.8443
# 6 -4.7251 3.7081 -8.7770 -3.3871 3.8443 35.0020
#
#
#
# Elastic Compliance Matrix: (Units=1/GPa)
#
#
# Indices 1 2 3 4 5 6 
#
# 1 0.034790 -0.007303 0.000375 -0.006869 -0.009257 0.005916
# 2 -0.007303 0.018640 -0.003037 -0.016266 0.000860 -0.005390
# 3 0.000375 -0.003037 0.008489 -0.001299 0.000164 0.002357
# 4 -0.006869 -0.016266 -0.001299 0.053956 0.005558 0.005081
# 5 -0.009257 0.000860 0.000164 0.005558 0.027468 -0.003779
# 6 0.005916 -0.005390 0.002357 0.005081 -0.003779 0.031437
#
#
# Mechanical properties :
#
#
# Convention : Reuss Voigt Hill
#
# Bulk Modulus (GPa) = 23.81493 48.37240 36.09367
# Shear Modulus (GPa) = 23.95704 34.98246 29.46975
#
# Velocity S-wave (km/s) = 3.22133 3.89263 3.57278
# Velocity P-wave (km/s) = 4.91440 6.41528 5.71433
#
# Compressibility (1/GPa) = 0.04199046
#
# Stress axis : x y z
#
# Youngs Moduli (GPa) = 28.74354 53.64926 117.79269
#
# Poissons Ratio (x) = 0.39181 -0.04419
# Poissons Ratio (y) = 0.20992 0.35768
# Poissons Ratio (z) = -0.01078 0.16291
#
# Static dielectric constant tensor:
#      x y z
#    x 1.906830 -0.002310 -0.016580 
#    y -0.002310 1.833280 -0.019310 
#    z -0.016580 -0.019310 1.898030 
# 
# From -- ./inp_files/502524.got.cif
#   From: 2010.05.17/outbox.cif.g08.bks.cpg/sg2_252_cif.got.tgz:502524.got - 2010.06.03 11:33:40.
