data_PCOD9107292
_publ_section_title
;
Structure prediction by ZEFSAII (Michael W. Deem and Ramdas Pophale) SiO2 
 PCOD9107292
Probable space group: P -1
;
_chemical_formula_sum "Si O2"
_cell_formula_units_Z 15
_cell_length_a 17.817111
_cell_length_b 21.527631
_cell_length_c 8.928309
_cell_angle_alpha 37.015319
_cell_angle_beta 134.750602
_cell_angle_gamma 160.667705
_cell_volume 661.184423
_symmetry_space_group_name_H-M "P -1"
_symmetry_group_IT_number 2
_symmetry_cell_setting 'triclinic'
loop_
_space_group_symop_operation_xyz
x,y,z
-x,-y,-z
loop_
_atom_site_type_symbol
_atom_site_label
_atom_site_fract_x
_atom_site_fract_y
_atom_site_fract_z
Si Si1 0.500000 0.000000 0.000000
Si Si2 0.361696 0.124278 0.189541
Si Si3 0.674156 0.365371 0.419101
Si Si4 0.114401 0.706785 0.562494
Si Si5 0.603979 0.692778 0.700741
Si Si6 0.995486 0.906480 0.298538
Si Si7 0.699522 0.306942 0.974644
Si Si8 0.512543 0.369274 0.667674
O O1 0.538770 0.141948 0.693794
O O2 0.430358 0.878260 0.973581
O O3 0.609832 0.339068 0.210081
O O4 0.288180 0.953331 0.340672
O O5 0.165720 0.970701 0.336317
O O6 0.362009 0.220881 0.890349
O O7 0.569491 0.365341 0.377097
O O8 0.943150 0.574833 0.434497
O O9 0.239486 0.706551 0.765664
O O10 0.937268 0.550045 0.757043
O O11 0.607733 0.689784 0.533757
O O12 0.861113 0.934168 0.662013
O O13 0.500000 0.500000 0.000000
O O14 0.747691 0.639656 0.499116
O O15 0.000000 0.000000 0.000000
O O16 0.574060 0.303957 0.841784
#
# Coordination Sequence:
#
# PCOD9107292 Si02
#       8
#     1   2   2   2   2   2   2   2
#     4  10  16  34  64  90 122 176 216 252 326 380
#     4  11  24  40  66  95 134 165 211 273 326 378
#     4  10  21  38  63  93 131 168 219 264 320 388
#     4  10  19  37  63  88 126 170 210 255 315 379
#     4  11  22  41  67  94 123 175 217 264 326 391
#     4  11  24  44  68  90 128 169 218 266 324 386
#     4  10  20  36  65  93 128 173 217 257 321 385
#     4  12  24  44  65  99 129 169 217 269 327 388
#
# _framework density 22.686558999999999
#
# number of rings (size 3 to 8) (size 9 to 14) (size 15 to 20)
#    0.000    1.333    6.667    0.000    0.000    2.133 
#    0.000    1.333    0.000    0.000    0.000    0.000 
#    0.000    0.000    0.000    0.000    0.000    0.000 
#
# Total GULP energy -83552.871561 kJ/mol
# GULP energy per Si atom -5570.191437 kJ/mol
# Density = 2.263492 g / cm^3
# Si number density = 22.686559 Si / 1000 Ang^3
#
#
#
# Elastic Constant Matrix: (Units=GPa)
#
#
# Indices 1 2 3 4 5 6 
#
# 1 45.2573 22.1564 19.3278 -14.5421 10.9927 -4.8662
# 2 22.1564 135.6691 59.7092 10.7465 1.1903 -30.2433
# 3 19.3278 59.7092 136.4045 -0.5520 -2.0915 -23.4458
# 4 -14.5421 10.7465 -0.5520 42.7550 -0.1959 -0.4286
# 5 10.9927 1.1903 -2.0915 -0.1959 31.6669 -2.3157
# 6 -4.8662 -30.2433 -23.4458 -0.4286 -2.3157 23.2812
#
#
#
# Elastic Compliance Matrix: (Units=1/GPa)
#
#
# Indices 1 2 3 4 5 6 
#
# 1 0.032572 -0.005987 -0.002958 0.012444 -0.011556 -0.004869
# 2 -0.005987 0.012697 -0.002480 -0.005120 0.002348 0.012885
# 3 -0.002958 -0.002480 0.009974 -0.000179 0.002248 0.006425
# 4 0.012444 -0.005120 -0.000179 0.028845 -0.004262 -0.004124
# 5 -0.011556 0.002348 0.002248 -0.004262 0.036093 0.006410
# 6 -0.004869 0.012885 0.006425 -0.004124 0.006410 0.065706
#
#
# Mechanical properties :
#
#
# Convention : Reuss Voigt Hill
#
# Bulk Modulus (GPa) = 30.87077 57.74640 44.30858
# Shear Modulus (GPa) = 22.77541 33.94977 28.36259
#
# Velocity S-wave (km/s) = 3.17190 3.87262 3.53964
# Velocity P-wave (km/s) = 5.20112 6.74578 6.02317
#
# Compressibility (1/GPa) = 0.03239311
#
# Stress axis : x y z
#
# Youngs Moduli (GPa) = 30.70109 78.75721 100.26198
#
# Poissons Ratio (x) = 0.47153 0.29660
# Poissons Ratio (y) = 0.18381 0.24862
# Poissons Ratio (z) = 0.09082 0.19529
#
# Static dielectric constant tensor:
#      x y z
#    x 1.922640 0.016250 -0.032670 
#    y 0.016250 1.873550 0.047910 
#    z -0.032670 0.047910 1.831170 
# 
# From -- ./inp_files/349973.got.cif
#   From: 2010.05.17/outbox.cif.g08.bks.cpg/sg2_175_cif.got.tgz:349973.got - 2010.06.03 11:33:40.
