data_PCOD9107170
_publ_section_title
;
Structure prediction by ZEFSAII (Michael W. Deem and Ramdas Pophale) SiO2 
 PCOD9107170
Probable space group: P -1
;
_chemical_formula_sum "Si O2"
_cell_formula_units_Z 15
_cell_length_a 14.192878
_cell_length_b 9.501787
_cell_length_c 8.446745
_cell_angle_alpha 72.794346
_cell_angle_beta 42.234709
_cell_angle_gamma 51.249050
_cell_volume 565.771752
_symmetry_space_group_name_H-M "P -1"
_symmetry_group_IT_number 2
_symmetry_cell_setting 'triclinic'
loop_
_space_group_symop_operation_xyz
x,y,z
-x,-y,-z
loop_
_atom_site_type_symbol
_atom_site_label
_atom_site_fract_x
_atom_site_fract_y
_atom_site_fract_z
Si Si1 0.578820 0.423629 0.668165
Si Si2 0.814416 0.585012 0.610649
Si Si3 0.269427 0.119003 0.609561
Si Si4 0.695095 0.863346 0.103363
Si Si5 0.998380 0.895380 0.186632
Si Si6 0.723542 0.511742 0.180421
Si Si7 0.752044 0.277033 0.806045
Si Si8 0.500000 0.000000 0.000000
O O1 0.695756 0.454550 0.403836
O O2 0.468594 0.389138 0.700988
O O3 0.697632 0.263414 0.704453
O O4 0.425132 0.614992 0.895346
O O5 0.804007 0.674013 0.424062
O O6 0.794165 0.423492 0.681062
O O7 0.000000 0.500000 0.500000
O O8 0.638435 0.773632 0.851921
O O9 0.224313 0.111838 0.850054
O O10 0.194762 0.054251 0.595028
O O11 0.483738 0.973807 0.371976
O O12 0.776171 0.645984 0.072294
O O13 0.662887 0.949848 0.942281
O O14 0.081254 0.899017 0.244289
O O15 0.133219 0.674952 0.036877
O O16 0.000000 0.000000 0.000000
#
# Coordination Sequence:
#
# PCOD9107170 Si02
#       8
#     2   2   2   2   2   2   2   1
#     4   9  20  36  63  93 110 160 212 249 304 374
#     4  11  21  41  66  91 129 164 212 266 319 374
#     4  10  23  41  64  93 125 165 204 262 320 376
#     4  10  22  41  65  91 122 162 216 258 316 377
#     4  11  24  41  58  91 130 164 201 254 315 376
#     4  10  21  40  64  91 122 161 209 257 312 372
#     4  10  20  40  63  90 120 164 211 251 319 373
#     4  10  22  40  58  94 124 162 210 260 314 372
#
# _framework density 26.512459
#
# number of rings (size 3 to 8) (size 9 to 14) (size 15 to 20)
#    0.000    1.867    1.333    2.400    5.600    0.533 
#    9.600    0.667    0.000    0.000    0.000    0.000 
#    0.000    0.000    0.000    0.000    0.000    0.000 
#
# Total GULP energy -83668.166232 kJ/mol
# GULP energy per Si atom -5577.877749 kJ/mol
# Density = 2.645212 g / cm^3
# Si number density = 26.512459 Si / 1000 Ang^3
#
#
#
# Elastic Constant Matrix: (Units=GPa)
#
#
# Indices 1 2 3 4 5 6 
#
# 1 101.3000 30.1462 15.2381 -9.4417 17.6349 -37.3268
# 2 30.1462 105.2797 27.2258 4.1113 8.2500 -15.0284
# 3 15.2381 27.2258 55.7059 -4.5820 1.2139 -8.3953
# 4 -9.4417 4.1113 -4.5820 44.0094 -14.5350 3.8379
# 5 17.6349 8.2500 1.2139 -14.5350 28.3800 -16.3910
# 6 -37.3268 -15.0284 -8.3953 3.8379 -16.3910 46.0519
#
#
#
# Elastic Compliance Matrix: (Units=1/GPa)
#
#
# Indices 1 2 3 4 5 6 
#
# 1 0.015106 -0.002482 -0.001143 0.001921 -0.001563 0.010509
# 2 -0.002482 0.012001 -0.005391 -0.003351 -0.003447 -0.000026
# 3 -0.001143 -0.005391 0.021510 0.003876 0.004871 0.002646
# 4 0.001921 -0.003351 0.003876 0.029169 0.017403 0.004933
# 5 -0.001563 -0.003447 0.004871 0.017403 0.055647 0.016852
# 6 0.010509 -0.000026 0.002646 0.004933 0.016852 0.036294
#
#
# Mechanical properties :
#
#
# Convention : Reuss Voigt Hill
#
# Bulk Modulus (GPa) = 32.69615 45.27842 38.98728
# Shear Modulus (GPa) = 25.25867 36.33331 30.79599
#
# Velocity S-wave (km/s) = 3.08995 3.70594 3.41187
# Velocity P-wave (km/s) = 5.00894 5.95208 5.50076
#
# Compressibility (1/GPa) = 0.03058464
#
# Stress axis : x y z
#
# Youngs Moduli (GPa) = 66.19988 83.32943 46.48967
#
# Poissons Ratio (x) = 0.20685 0.05314
# Poissons Ratio (y) = 0.16433 0.25061
# Poissons Ratio (z) = 0.07567 0.44919
#
# Static dielectric constant tensor:
#      x y z
#    x 2.218210 -0.074980 0.018070 
#    y -0.074980 2.107180 -0.070400 
#    z 0.018070 -0.070400 2.189700 
# 
# From -- ./inp_files/201401.got.cif
#   From: 2010.05.17/outbox.cif.g08.bks.cpg/sg2_101_cif.got.tgz:201401.got - 2010.06.03 11:33:40.
