data_PCOD9107362
_publ_section_title
;
Structure prediction by ZEFSAII (Michael W. Deem and Ramdas Pophale) SiO2 
 PCOD9107362
Probable space group: P -1
;
_chemical_formula_sum "Si O2"
_cell_formula_units_Z 15
_cell_length_a 8.057690
_cell_length_b 11.784777
_cell_length_c 14.453058
_cell_angle_alpha 64.211018
_cell_angle_beta 125.816977
_cell_angle_gamma 70.354338
_cell_volume 588.781049
_symmetry_space_group_name_H-M "P -1"
_symmetry_group_IT_number 2
_symmetry_cell_setting 'triclinic'
loop_
_space_group_symop_operation_xyz
x,y,z
-x,-y,-z
loop_
_atom_site_type_symbol
_atom_site_label
_atom_site_fract_x
_atom_site_fract_y
_atom_site_fract_z
Si Si1 0.919126 0.242181 0.248646
Si Si2 0.383020 0.034658 0.708986
Si Si3 0.722917 0.245189 0.662891
Si Si4 0.240591 0.502271 0.587431
Si Si5 0.795116 0.791375 0.106445
Si Si6 0.593501 0.801097 0.525020
Si Si7 0.587391 0.268397 0.967644
Si Si8 0.000000 0.000000 0.500000
O O1 0.059060 0.314094 0.276714
O O2 0.838431 0.211366 0.327998
O O3 0.665877 0.327981 0.053474
O O4 0.282235 0.988951 0.427325
O O5 0.437854 0.104082 0.615985
O O6 0.288995 0.943458 0.672518
O O7 0.045190 0.244287 0.585499
O O8 0.709544 0.872878 0.943813
O O9 0.530479 0.328634 0.667399
O O10 0.467606 0.314891 0.476326
O O11 0.870193 0.313187 0.698311
O O12 0.061695 0.986077 0.851013
O O13 0.453579 0.403920 0.786040
O O14 0.000000 0.500000 0.500000
O O15 0.708742 0.687494 0.122729
O O16 0.500000 0.000000 0.000000
#
# Coordination Sequence:
#
# PCOD9107362 Si02
#       8
#     2   2   2   2   2   2   2   1
#     4   9  18  36  63  88 113 158 211 253 288 369
#     4  11  22  39  64  89 124 162 205 258 305 361
#     4  10  21  36  61  89 126 164 202 243 308 376
#     4  12  23  38  60  95 132 158 202 255 312 363
#     4  10  21  37  60  89 123 165 207 245 302 373
#     4   9  19  34  57  93 114 156 206 251 298 357
#     4  10  21  39  61  91 122 166 206 249 301 373
#     4  10  20  40  64  88 118 164 206 254 312 356
#
# _framework density 25.476362999999999
#
# number of rings (size 3 to 8) (size 9 to 14) (size 15 to 20)
#    0.000    1.867    2.667    2.000    3.733    0.000 
#    0.000   10.000    0.000    0.800    0.000    0.000 
#    0.000    0.000    0.000    0.000    0.000    0.000 
#
# Total GULP energy -83571.862428 kJ/mol
# GULP energy per Si atom -5571.457495 kJ/mol
# Density = 2.541838 g / cm^3
# Si number density = 25.476363 Si / 1000 Ang^3
#
#
#
# Elastic Constant Matrix: (Units=GPa)
#
#
# Indices 1 2 3 4 5 6 
#
# 1 38.5815 26.7045 5.0863 6.2501 33.3748 11.6148
# 2 26.7045 163.3543 26.4612 23.8378 19.9565 32.4141
# 3 5.0863 26.4612 109.7805 42.1282 17.1148 9.2358
# 4 6.2501 23.8378 42.1282 56.4443 5.2077 9.7701
# 5 33.3748 19.9565 17.1148 5.2077 48.5115 19.5343
# 6 11.6148 32.4141 9.2358 9.7701 19.5343 42.6710
#
#
#
# Elastic Compliance Matrix: (Units=1/GPa)
#
#
# Indices 1 2 3 4 5 6 
#
# 1 0.077971 -0.008235 0.009884 -0.009191 -0.057271 0.011215
# 2 -0.008235 0.008405 -0.001631 -0.000868 0.005300 -0.006018
# 3 0.009884 -0.001631 0.014741 -0.010887 -0.011396 0.003068
# 4 -0.009191 -0.000868 -0.010887 0.027225 0.009669 -0.005143
# 5 -0.057271 0.005300 -0.011396 0.009669 0.068729 -0.019647
# 6 0.011215 -0.006018 0.003068 -0.005143 -0.019647 0.034461
#
#
# Mechanical properties :
#
#
# Convention : Reuss Voigt Hill
#
# Bulk Modulus (GPa) = 9.88607 47.58006 28.73306
# Shear Modulus (GPa) = 18.85272 46.42297 32.63785
#
# Velocity S-wave (km/s) = 2.72326 4.27335 3.58313
# Velocity P-wave (km/s) = 3.71175 6.56242 5.33116
#
# Compressibility (1/GPa) = 0.10115239
#
# Stress axis : x y z
#
# Youngs Moduli (GPa) = 12.82535 118.97051 67.83824
#
# Poissons Ratio (x) = 0.97974 -0.67054
# Poissons Ratio (y) = 0.10562 0.11068
# Poissons Ratio (z) = -0.12677 0.19410
#
# Static dielectric constant tensor:
#      x y z
#    x 2.118600 0.016030 -0.017000 
#    y 0.016030 2.014510 -0.037290 
#    z -0.017000 -0.037290 2.090660 
# 
# From -- ./inp_files/500310.got.cif
#   From: 2010.05.17/outbox.cif.g08.bks.cpg/sg2_251_cif.got.tgz:500310.got - 2010.06.03 11:33:40.
