data_PCOD9107009
_publ_section_title
;
Structure prediction by ZEFSAII (Michael W. Deem and Ramdas Pophale) SiO2 
 PCOD9107009
Probable space group: P -1
;
_chemical_formula_sum "Si O2"
_cell_formula_units_Z 16
_cell_length_a 14.900020
_cell_length_b 13.289691
_cell_length_c 11.496209
_cell_angle_alpha 131.088414
_cell_angle_beta 29.393884
_cell_angle_gamma 136.016536
_cell_volume 772.836623
_symmetry_space_group_name_H-M "P -1"
_symmetry_group_IT_number 2
_symmetry_cell_setting 'triclinic'
loop_
_space_group_symop_operation_xyz
x,y,z
-x,-y,-z
loop_
_atom_site_type_symbol
_atom_site_label
_atom_site_fract_x
_atom_site_fract_y
_atom_site_fract_z
Si Si1 0.605949 0.894345 0.416309
Si Si2 0.326278 0.779421 0.448139
Si Si3 0.327000 0.721190 0.135804
Si Si4 0.166345 0.853452 0.244377
Si Si5 0.708636 0.306931 0.221836
Si Si6 0.713821 0.723668 0.346505
Si Si7 0.011665 0.434306 0.167266
Si Si8 0.248261 0.181195 0.361596
O O1 0.524908 0.808099 0.322155
O O2 0.403193 0.836617 0.679962
O O3 0.745940 0.842510 0.297881
O O4 0.685068 0.063482 0.430755
O O5 0.336635 0.726980 0.267176
O O6 0.138140 0.669270 0.646776
O O7 0.291482 0.856807 0.221265
O O8 0.136912 0.586289 0.201019
O O9 0.531379 0.720506 0.854543
O O10 0.929959 0.798048 0.488989
O O11 0.226220 0.014837 0.248720
O O12 0.215156 0.750653 0.019250
O O13 0.527478 0.354824 0.434902
O O14 0.874331 0.425035 0.203025
O O15 0.779971 0.793009 0.450788
O O16 0.830251 0.627247 0.104808
#
# Coordination Sequence:
#
# PCOD9107009 Si02
#       8
#     2   2   2   2   2   2   2   2
#     4   8  18  36  67  86 110 152 199 255 289 337
#     4  10  20  41  60  89 115 161 203 241 297 345
#     4  12  24  40  60  87 128 163 190 241 301 358
#     4  11  22  40  63  94 118 152 196 250 307 350
#     4   9  19  39  61  87 121 155 192 253 292 347
#     4  10  20  40  62  92 115 157 196 252 297 344
#     4  11  24  39  60  85 124 163 206 235 284 363
#     4  11  23  39  65  94 118 147 200 254 299 358
#
# _framework density 20.702953999999998
#
# number of rings (size 3 to 8) (size 9 to 14) (size 15 to 20)
#    0.750    1.000    2.500    2.250    0.000    2.500 
#    2.250    0.625    0.000    0.000    0.000    0.000 
#    0.000    0.000    0.000    0.000    0.000    0.000 
#
# Total GULP energy -89307.344434 kJ/mol
# GULP energy per Si atom -5581.709027 kJ/mol
# Density = 2.065583 g / cm^3
# Si number density = 20.702954 Si / 1000 Ang^3
#
#
#
# Elastic Constant Matrix: (Units=GPa)
#
#
# Indices 1 2 3 4 5 6 
#
# 1 91.3898 -3.5211 26.8543 -4.2619 18.8398 9.7514
# 2 -3.5211 51.7899 -10.2226 -12.3568 11.5279 8.9331
# 3 26.8543 -10.2226 32.1154 -3.0728 1.1258 5.0592
# 4 -4.2619 -12.3568 -3.0728 21.8645 6.3039 5.2364
# 5 18.8398 11.5279 1.1258 6.3039 38.3586 0.9223
# 6 9.7514 8.9331 5.0592 5.2364 0.9223 18.7273
#
#
#
# Elastic Compliance Matrix: (Units=1/GPa)
#
#
# Indices 1 2 3 4 5 6 
#
# 1 0.019101 0.009041 -0.008689 0.015363 -0.013995 -0.015518
# 2 0.009041 0.052891 0.023516 0.055351 -0.028912 -0.050343
# 3 -0.008689 0.023516 0.053407 0.028367 -0.008340 -0.028642
# 4 0.015363 0.055351 0.028367 0.113244 -0.041901 -0.071667
# 5 -0.013995 -0.028912 -0.008340 -0.041901 0.047977 0.032685
# 6 -0.015518 -0.050343 -0.028642 -0.071667 0.032685 0.111659
#
#
# Mechanical properties :
#
#
# Convention : Reuss Voigt Hill
#
# Bulk Modulus (GPa) = 5.77585 22.39069 14.08327
# Shear Modulus (GPa) = 12.24723 26.60236 19.42480
#
# Velocity S-wave (km/s) = 2.43486 3.58852 3.06643
# Velocity P-wave (km/s) = 3.27118 5.29232 4.39939
#
# Compressibility (1/GPa) = 0.17313483
#
# Stress axis : x y z
#
# Youngs Moduli (GPa) = 52.35354 18.90683 18.72414
#
# Poissons Ratio (x) = -0.17093 0.16269
# Poissons Ratio (y) = -0.47332 -0.44032
# Poissons Ratio (z) = 0.45490 -0.44461
#
# Static dielectric constant tensor:
#      x y z
#    x 1.762000 -0.011460 -0.007680 
#    y -0.011460 1.780160 -0.015260 
#    z -0.007680 -0.015260 1.693510 
# 
# From -- ./inp_files/455046.got.cif
#   From: 2010.05.17/outbox.cif.g08.bks.cpg/sg2_228_cif.got.tgz:455046.got - 2010.06.03 11:33:40.
