data_PCOD9107704
_publ_section_title
;
Structure prediction by ZEFSAII (Michael W. Deem and Ramdas Pophale) SiO2 
 PCOD9107704
Probable space group: P -1
;
_chemical_formula_sum "Si O2"
_cell_formula_units_Z 10
_cell_length_a 9.481442
_cell_length_b 7.135748
_cell_length_c 9.567923
_cell_angle_alpha 113.538448
_cell_angle_beta 74.620890
_cell_angle_gamma 129.659479
_cell_volume 456.838636
_symmetry_space_group_name_H-M "P -1"
_symmetry_group_IT_number 2
_symmetry_cell_setting 'triclinic'
loop_
_space_group_symop_operation_xyz
x,y,z
-x,-y,-z
loop_
_atom_site_type_symbol
_atom_site_label
_atom_site_fract_x
_atom_site_fract_y
_atom_site_fract_z
Si Si1 0.339888 0.968511 0.447412
Si Si2 0.618300 0.960940 0.856350
Si Si3 0.973044 0.028363 0.854203
Si Si4 0.943850 0.738205 0.520650
Si Si5 0.685737 0.591509 0.319997
O O1 0.356588 0.923165 0.268498
O O2 0.360959 0.229214 0.546983
O O3 0.500000 0.000000 0.500000
O O4 0.126475 0.755433 0.479471
O O5 0.494580 0.658011 0.770172
O O6 0.816813 0.068005 0.892994
O O7 0.500000 0.000000 0.000000
O O8 0.162655 0.253845 0.796236
O O9 0.904247 0.782228 0.700204
O O10 0.000000 0.000000 0.000000
O O11 0.778272 0.532699 0.402259
O O12 0.000000 0.000000 0.500000
#
# Coordination Sequence:
#
# PCOD9107704 Si02
#       5
#     2   2   2   2   2
#     4  10  20  40  65  93 121 154 211 255 294 370
#     4  12  25  39  62  94 126 161 203 255 306 357
#     4  10  21  40  62  92 125 157 204 255 302 365
#     4   8  16  38  64  80 116 165 198 240 299 362
#     4  10  21  44  67  81 123 175 199 243 313 359
#
# _framework density 21.889569000000002
#
# number of rings (size 3 to 8) (size 9 to 14) (size 15 to 20)
#    0.000    2.400    6.000    0.600    5.600    1.600 
#    0.000    1.000    0.000    0.000    0.000    0.000 
#    0.000    0.000    0.000    0.000    0.000    0.000 
#
# Total GULP energy -55836.225661 kJ/mol
# GULP energy per Si atom -5583.622566 kJ/mol
# Density = 2.183975 g / cm^3
# Si number density = 21.889569 Si / 1000 Ang^3
#
#
#
# Elastic Constant Matrix: (Units=GPa)
#
#
# Indices 1 2 3 4 5 6 
#
# 1 183.5005 2.2179 72.9325 -25.9452 13.9693 26.9443
# 2 2.2179 50.4191 6.3903 -9.4452 0.8488 13.3779
# 3 72.9325 6.3903 185.1691 -34.2705 7.8648 3.3537
# 4 -25.9452 -9.4452 -34.2705 28.2609 2.1639 -7.3297
# 5 13.9693 0.8488 7.8648 2.1639 52.7842 -1.7442
# 6 26.9443 13.3779 3.3537 -7.3297 -1.7442 17.4379
#
#
#
# Elastic Compliance Matrix: (Units=1/GPa)
#
#
# Indices 1 2 3 4 5 6 
#
# 1 0.009830 0.005219 -0.003128 0.002583 -0.002913 -0.017796
# 2 0.005219 0.028122 -0.001365 0.005675 -0.002764 -0.027267
# 3 -0.003128 -0.001365 0.008156 0.008647 -0.000459 0.007900
# 4 0.002583 0.005675 0.008647 0.053580 -0.003859 0.012127
# 5 -0.002913 -0.002764 -0.000459 -0.003859 0.020222 0.007111
# 6 -0.017796 -0.027267 0.007900 0.012127 0.007111 0.110052
#
#
# Mechanical properties :
#
#
# Convention : Reuss Voigt Hill
#
# Bulk Modulus (GPa) = 21.02543 64.68556 42.85549
# Shear Modulus (GPa) = 20.46148 42.19981 31.33065
#
# Velocity S-wave (km/s) = 3.06070 4.39549 3.78736
# Velocity P-wave (km/s) = 4.70283 7.44147 6.22463
#
# Compressibility (1/GPa) = 0.04756146
#
# Stress axis : x y z
#
# Youngs Moduli (GPa) = 101.73211 35.55975 122.60542
#
# Poissons Ratio (x) = -0.18559 0.38346
# Poissons Ratio (y) = -0.53094 0.16730
# Poissons Ratio (z) = 0.31817 0.04852
#
# Static dielectric constant tensor:
#      x y z
#    x 1.828220 -0.020720 0.026750 
#    y -0.020720 1.955250 -0.002500 
#    z 0.026750 -0.002500 1.786190 
# 
# From -- ./inp_files/146465.got.cif
#   From: 2010.05.17/outbox.cif.g08.bks.cpg/sg2_74_cif.got.tgz:146465.got - 2010.06.03 11:33:40.
