data_PCOD9107144
_publ_section_title
;
Structure prediction by ZEFSAII (Michael W. Deem and Ramdas Pophale) SiO2 
 PCOD9107144
Probable space group: P -1
;
_chemical_formula_sum "Si O2"
_cell_formula_units_Z 16
_cell_length_a 14.779565
_cell_length_b 17.808864
_cell_length_c 8.991319
_cell_angle_alpha 142.204079
_cell_angle_beta 141.013898
_cell_angle_gamma 33.075684
_cell_volume 743.137953
_symmetry_space_group_name_H-M "P -1"
_symmetry_group_IT_number 2
_symmetry_cell_setting 'triclinic'
loop_
_space_group_symop_operation_xyz
x,y,z
-x,-y,-z
loop_
_atom_site_type_symbol
_atom_site_label
_atom_site_fract_x
_atom_site_fract_y
_atom_site_fract_z
Si Si1 0.695535 0.360606 0.578021
Si Si2 0.446155 0.502394 0.102452
Si Si3 0.180043 0.058960 0.342220
Si Si4 0.803951 0.609145 0.358110
Si Si5 0.822769 0.564082 0.967240
Si Si6 0.432667 0.107216 0.937702
Si Si7 0.334416 0.075250 0.292704
Si Si8 0.787471 0.208126 0.179247
O O1 0.500000 0.500000 0.500000
O O2 0.666629 0.352808 0.705520
O O3 0.806266 0.427935 0.776645
O O4 0.765026 0.214110 0.338514
O O5 0.640630 0.380805 0.225584
O O6 0.500000 0.500000 0.000000
O O7 0.322406 0.443850 0.862920
O O8 0.299410 0.079881 0.637605
O O9 0.173664 0.115328 0.254451
O O10 0.985926 0.144596 0.294109
O O11 0.256346 0.887226 0.128771
O O12 0.710888 0.767108 0.569943
O O13 0.000000 0.500000 0.500000
O O14 0.815179 0.627059 0.222091
O O15 0.668649 0.711480 0.907993
O O16 0.000000 0.500000 0.000000
O O17 0.601669 0.037599 0.937047
O O18 0.500000 0.000000 0.000000
O O19 0.500000 0.000000 0.500000
#
# Coordination Sequence:
#
# PCOD9107144 Si02
#       8
#     2   2   2   2   2   2   2   2
#     4   9  21  38  62  89 124 169 212 264 320 396
#     4  10  22  39  61  94 131 169 212 270 332 395
#     4  10  21  40  69  88 124 175 220 276 328 405
#     4  11  24  39  65  98 133 170 222 274 327 396
#     4  11  23  41  65  98 132 171 216 274 337 388
#     4  11  24  41  65  98 133 170 218 277 340 402
#     4  10  20  40  63  88 126 173 221 263 333 391
#     4  10  21  41  64  91 123 173 229 259 331 404
#
# _framework density 21.530322999999999
#
# number of rings (size 3 to 8) (size 9 to 14) (size 15 to 20)
#    0.000    1.750    2.500    2.250    7.000    1.000 
#    4.500    0.000    0.000    3.000    0.000    0.000 
#    0.000    0.000    0.000    0.000    0.000    0.000 
#
# Total GULP energy -89076.369705 kJ/mol
# GULP energy per Si atom -5567.273107 kJ/mol
# Density = 2.148132 g / cm^3
# Si number density = 21.530323 Si / 1000 Ang^3
#
#
#
# Elastic Constant Matrix: (Units=GPa)
#
#
# Indices 1 2 3 4 5 6 
#
# 1 160.3583 26.0490 34.9461 3.7389 -28.6600 -17.2914
# 2 26.0490 72.7945 16.6049 5.9381 -14.2314 -7.9793
# 3 34.9461 16.6049 46.3248 3.2415 -9.8488 -10.5173
# 4 3.7389 5.9381 3.2415 21.6588 -4.2316 -12.1576
# 5 -28.6600 -14.2314 -9.8488 -4.2316 24.0595 -0.4984
# 6 -17.2914 -7.9793 -10.5173 -12.1576 -0.4984 34.2117
#
#
#
# Elastic Compliance Matrix: (Units=1/GPa)
#
#
# Indices 1 2 3 4 5 6 
#
# 1 0.009419 -0.000227 -0.003983 0.003836 0.010234 0.004996
# 2 -0.000227 0.016508 -0.003432 -0.001061 0.007953 0.002419
# 3 -0.003983 -0.003432 0.028342 0.002235 0.005361 0.006772
# 4 0.003836 -0.001061 0.002235 0.062628 0.016387 0.024873
# 5 0.010234 0.007953 0.005361 0.016387 0.063855 0.015429
# 6 0.004996 0.002419 0.006772 0.024873 0.015429 0.043464
#
#
# Mechanical properties :
#
#
# Convention : Reuss Voigt Hill
#
# Bulk Modulus (GPa) = 25.64978 48.29752 36.97365
# Shear Modulus (GPa) = 19.80243 29.44451 24.62347
#
# Velocity S-wave (km/s) = 3.03602 3.70210 3.38548
# Velocity P-wave (km/s) = 4.92231 6.38397 5.70018
#
# Compressibility (1/GPa) = 0.03898669
#
# Stress axis : x y z
#
# Youngs Moduli (GPa) = 106.16757 60.57731 35.28321
#
# Poissons Ratio (x) = 0.01373 0.14052
# Poissons Ratio (y) = 0.02406 0.12108
# Poissons Ratio (z) = 0.42284 0.20789
#
# Static dielectric constant tensor:
#      x y z
#    x 1.776190 0.080600 0.052010 
#    y 0.080600 1.782610 0.021740 
#    z 0.052010 0.021740 1.854110 
# 
# From -- ./inp_files/318167.got.cif
#   From: 2010.05.17/outbox.cif.g08.bks.cpg/sg2_160_cif.got.tgz:318167.got - 2010.06.03 11:33:40.
