data_PCOD9107885
_publ_section_title
;
Structure prediction by ZEFSAII (Michael W. Deem and Ramdas Pophale) SiO2 
 PCOD9107885
Probable space group: P -1
;
_chemical_formula_sum "Si O2"
_cell_formula_units_Z 15
_cell_length_a 12.234009
_cell_length_b 9.267825
_cell_length_c 12.817821
_cell_angle_alpha 42.030580
_cell_angle_beta 49.752025
_cell_angle_gamma 38.902973
_cell_volume 603.013476
_symmetry_space_group_name_H-M "P -1"
_symmetry_group_IT_number 2
_symmetry_cell_setting 'triclinic'
loop_
_space_group_symop_operation_xyz
x,y,z
-x,-y,-z
loop_
_atom_site_type_symbol
_atom_site_label
_atom_site_fract_x
_atom_site_fract_y
_atom_site_fract_z
Si Si1 0.594321 0.802325 0.950689
Si Si2 0.500000 0.500000 0.000000
Si Si3 0.962662 0.320011 0.050954
Si Si4 0.698820 0.607243 0.660870
Si Si5 0.706368 0.974278 0.144793
Si Si6 0.259709 0.903532 0.406685
Si Si7 0.067557 0.826804 0.394821
Si Si8 0.508706 0.199186 0.516533
O O1 0.448352 0.813509 0.960809
O O2 0.666540 0.938503 0.767080
O O3 0.760282 0.516913 0.035439
O O4 0.500000 0.000000 0.000000
O O5 0.337895 0.505057 0.156621
O O6 0.654863 0.212683 0.123176
O O7 0.106918 0.195545 0.935114
O O8 0.000000 0.500000 0.000000
O O9 0.001061 0.086335 0.228038
O O10 0.878401 0.398488 0.601463
O O11 0.656234 0.888741 0.564882
O O12 0.563654 0.662491 0.622362
O O13 0.642665 0.805442 0.324741
O O14 0.392898 0.717362 0.516007
O O15 0.076024 0.111623 0.465010
O O16 0.224886 0.777146 0.399457
#
# Coordination Sequence:
#
# PCOD9107885 Si02
#       8
#     2   1   2   2   2   2   2   2
#     4  11  22  40  64  92 127 174 216 260 324 395
#     4  10  20  40  66  88 132 168 214 278 316 372
#     4  12  22  39  65  93 132 172 213 268 332 386
#     4  10  21  40  67  91 128 171 218 265 327 385
#     4  10  21  39  64  93 126 168 218 265 319 389
#     4  10  23  41  60  96 131 163 213 269 330 388
#     4  11  23  40  62  97 133 167 213 278 324 386
#     4   9  22  41  64  94 124 177 214 260 330 400
#
# _framework density 24.875063999999998
#
# number of rings (size 3 to 8) (size 9 to 14) (size 15 to 20)
#    0.000    1.600    4.000    0.000    1.867    2.133 
#    0.000    0.667    0.000    0.000    0.000    0.000 
#    0.000    0.000    0.000    0.000    0.000    0.000 
#
# Total GULP energy -83698.827099 kJ/mol
# GULP energy per Si atom -5579.921807 kJ/mol
# Density = 2.481845 g / cm^3
# Si number density = 24.875064 Si / 1000 Ang^3
#
#
#
# Elastic Constant Matrix: (Units=GPa)
#
#
# Indices 1 2 3 4 5 6 
#
# 1 105.9831 29.2387 3.5221 -1.3365 14.1795 -10.6873
# 2 29.2387 147.8283 29.1089 36.0986 5.8615 19.7181
# 3 3.5221 29.1089 73.4687 22.7767 13.6629 1.2042
# 4 -1.3365 36.0986 22.7767 34.3645 1.2633 16.4367
# 5 14.1795 5.8615 13.6629 1.2633 32.2082 -4.0388
# 6 -10.6873 19.7181 1.2042 16.4367 -4.0388 40.3620
#
#
#
# Elastic Compliance Matrix: (Units=1/GPa)
#
#
# Indices 1 2 3 4 5 6 
#
# 1 0.011196 -0.003059 0.000952 0.001580 -0.004419 0.003345
# 2 -0.003059 0.010041 -0.001003 -0.009050 0.000049 -0.001995
# 3 0.000952 -0.001003 0.019624 -0.014118 -0.007359 0.005170
# 4 0.001580 -0.009050 -0.014118 0.056249 0.002554 -0.017390
# 5 -0.004419 0.000049 -0.007359 0.002554 0.036208 0.001609
# 6 0.003345 -0.001995 0.005170 -0.017390 0.001609 0.033725
#
#
# Mechanical properties :
#
#
# Convention : Reuss Voigt Hill
#
# Bulk Modulus (GPa) = 28.86605 50.11328 39.48966
# Shear Modulus (GPa) = 27.05507 39.08095 33.06801
#
# Velocity S-wave (km/s) = 3.30151 3.96800 3.65000
# Velocity P-wave (km/s) = 5.11497 6.41740 5.80284
#
# Compressibility (1/GPa) = 0.03464277
#
# Stress axis : x y z
#
# Youngs Moduli (GPa) = 89.31697 99.59113 50.95891
#
# Poissons Ratio (x) = 0.30462 -0.04853
# Poissons Ratio (y) = 0.27320 0.05109
# Poissons Ratio (z) = -0.08506 0.09985
#
# Static dielectric constant tensor:
#      x y z
#    x 1.774220 -0.272400 0.057260 
#    y -0.272400 1.844340 0.051570 
#    z 0.057260 0.051570 1.900010 
# 
# From -- ./inp_files/531627.got.cif
#   From: 2010.05.17/outbox.cif.g08.bks.cpg/sg2_266_cif.got.tgz:531627.got - 2010.06.03 11:33:40.
