data_PCOD9107132
_publ_section_title
;
Structure prediction by ZEFSAII (Michael W. Deem and Ramdas Pophale) SiO2 
 PCOD9107132
Probable space group: P -1
;
_chemical_formula_sum "Si O2"
_cell_formula_units_Z 16
_cell_length_a 5.939808
_cell_length_b 16.875364
_cell_length_c 8.234020
_cell_angle_alpha 105.607511
_cell_angle_beta 56.968307
_cell_angle_gamma 113.695017
_cell_volume 632.269504
_symmetry_space_group_name_H-M "P -1"
_symmetry_group_IT_number 2
_symmetry_cell_setting 'triclinic'
loop_
_space_group_symop_operation_xyz
x,y,z
-x,-y,-z
loop_
_atom_site_type_symbol
_atom_site_label
_atom_site_fract_x
_atom_site_fract_y
_atom_site_fract_z
Si Si1 0.276832 0.255997 0.087883
Si Si2 0.729582 0.694764 0.251281
Si Si3 0.603427 0.498591 0.199453
Si Si4 0.181650 0.707521 0.516276
Si Si5 0.506027 0.905133 0.392141
Si Si6 0.908042 0.463141 0.747495
Si Si7 0.038681 0.920534 0.035319
Si Si8 0.683365 0.165897 0.918624
O O1 0.096781 0.306483 0.275500
O O2 0.351480 0.285967 0.890424
O O3 0.531185 0.236066 0.067825
O O4 0.071765 0.159002 0.087310
O O5 0.762303 0.601425 0.178413
O O6 0.467139 0.693786 0.467181
O O7 0.011888 0.770309 0.218068
O O8 0.276331 0.497419 0.287467
O O9 0.769395 0.482366 0.289128
O O10 0.712735 0.453734 0.981852
O O11 0.303132 0.811884 0.486578
O O12 0.092474 0.629995 0.374520
O O13 0.442859 0.890654 0.218237
O O14 0.835588 0.909880 0.267910
O O15 0.500000 0.000000 0.500000
O O16 0.317273 0.902864 0.980496
O O17 0.000000 0.000000 0.000000
#
# Coordination Sequence:
#
# PCOD9107132 Si02
#       8
#     2   2   2   2   2   2   2   2
#     4  10  22  38  58  91 121 157 208 252 315 372
#     4  10  20  40  63  87 124 163 207 255 314 378
#     4   9  18  34  63  92 126 164 210 265 312 381
#     4  11  20  41  62  88 126 162 205 261 308 382
#     4  11  22  37  59  89 119 154 209 251 308 373
#     4   9  19  35  60  96 123 165 214 257 321 377
#     4  10  21  41  58  83 123 154 203 260 313 369
#     4  10  20  41  61  85 122 165 199 256 319 371
#
# _framework density 25.305662999999999
#
# number of rings (size 3 to 8) (size 9 to 14) (size 15 to 20)
#    0.000    2.000    3.750    1.500    1.750    2.500 
#   13.500    0.625    0.000    0.750    0.000    0.000 
#    0.000    0.000    0.000    0.000    0.000    0.000 
#
# Total GULP energy -89091.994843 kJ/mol
# GULP energy per Si atom -5568.249678 kJ/mol
# Density = 2.524807 g / cm^3
# Si number density = 25.305663 Si / 1000 Ang^3
#
#
#
# Elastic Constant Matrix: (Units=GPa)
#
#
# Indices 1 2 3 4 5 6 
#
# 1 115.1418 26.8017 39.0079 -0.9848 -19.0315 -0.3011
# 2 26.8017 127.4150 37.6217 31.6378 5.5424 -17.3777
# 3 39.0079 37.6217 127.7944 36.2996 -33.5065 -2.8571
# 4 -0.9848 31.6378 36.2996 45.0184 -4.8939 4.0188
# 5 -19.0315 5.5424 -33.5065 -4.8939 30.4988 10.3955
# 6 -0.3011 -17.3777 -2.8571 4.0188 10.3955 35.4859
#
#
#
# Elastic Compliance Matrix: (Units=1/GPa)
#
#
# Indices 1 2 3 4 5 6 
#
# 1 0.012061 -0.004936 -0.001746 0.006728 0.009644 -0.006043
# 2 -0.004936 0.015145 -0.003951 -0.010499 -0.016295 0.013019
# 3 -0.001746 -0.003951 0.016469 -0.008123 0.018127 -0.005014
# 4 0.006728 -0.010499 -0.008123 0.038197 0.007490 -0.012258
# 5 0.009644 -0.016295 0.018127 0.007490 0.072619 -0.028560
# 6 -0.006043 0.013019 -0.005014 -0.012258 -0.028560 0.043856
#
#
# Mechanical properties :
#
#
# Convention : Reuss Voigt Hill
#
# Bulk Modulus (GPa) = 44.62450 64.13487 54.37969
# Shear Modulus (GPa) = 22.01845 39.99528 31.00686
#
# Velocity S-wave (km/s) = 2.95295 3.97985 3.50422
# Velocity P-wave (km/s) = 5.41285 6.82041 6.15699
#
# Compressibility (1/GPa) = 0.02240921
#
# Stress axis : x y z
#
# Youngs Moduli (GPa) = 82.91034 66.03006 60.71929
#
# Poissons Ratio (x) = 0.32591 0.10603
# Poissons Ratio (y) = 0.40923 0.23990
# Poissons Ratio (z) = 0.14477 0.26088
#
# Static dielectric constant tensor:
#      x y z
#    x 2.249850 0.053130 -0.078340 
#    y 0.053130 2.383130 -0.212230 
#    z -0.078340 -0.212230 2.074140 
# 
# From -- ./inp_files/141485.got.cif
#   From: 2010.05.17/outbox.cif.g08.bks.cpg/sg2_71_cif.got.tgz:141485.got - 2010.06.03 11:33:40.
