data_PCOD9107977
_publ_section_title
;
Structure prediction by ZEFSAII (Michael W. Deem and Ramdas Pophale) SiO2 
 PCOD9107977
Probable space group: P -1
;
_chemical_formula_sum "Si O2"
_cell_formula_units_Z 16
_cell_length_a 9.038587
_cell_length_b 12.746039
_cell_length_c 8.204747
_cell_angle_alpha 69.941473
_cell_angle_beta 105.922493
_cell_angle_gamma 81.139792
_cell_volume 820.995199
_symmetry_space_group_name_H-M "P -1"
_symmetry_group_IT_number 2
_symmetry_cell_setting 'triclinic'
loop_
_space_group_symop_operation_xyz
x,y,z
-x,-y,-z
loop_
_atom_site_type_symbol
_atom_site_label
_atom_site_fract_x
_atom_site_fract_y
_atom_site_fract_z
Si Si1 0.537001 0.365771 0.134388
Si Si2 0.626931 0.987878 0.689014
Si Si3 0.587665 0.374500 0.525874
Si Si4 0.068378 0.722830 0.216118
Si Si5 0.504112 0.168913 0.816080
Si Si6 0.728923 0.745831 0.024892
Si Si7 0.040673 0.960448 0.223570
Si Si8 0.209026 0.821860 0.890649
O O1 0.548501 0.359311 0.335151
O O2 0.699265 0.277193 0.155760
O O3 0.500000 0.500000 0.000000
O O4 0.386745 0.325292 0.043235
O O5 0.500000 0.000000 0.500000
O O6 0.524524 0.059542 0.766561
O O7 0.776001 0.043154 0.679303
O O8 0.708010 0.856560 0.840860
O O9 0.500000 0.500000 0.500000
O O10 0.775443 0.361674 0.613756
O O11 0.536390 0.275574 0.666393
O O12 0.021435 0.831463 0.270955
O O13 0.914045 0.682442 0.143703
O O14 0.130682 0.763596 0.042301
O O15 0.342271 0.207471 0.845959
O O16 0.646719 0.137761 0.006546
O O17 0.925502 0.057878 0.251085
O O18 0.000000 0.000000 0.000000
#
# Coordination Sequence:
#
# PCOD9107977 Si02
#       8
#     2   2   2   2   2   2   2   2
#     4  11  24  43  63  91 122 157 209 258 312 368
#     4  12  21  34  59  96 132 161 202 253 306 365
#     4  11  22  43  67  87 117 169 207 252 311 366
#     4  10  19  38  64  91 123 165 204 247 308 362
#     4  10  20  38  59  86 125 166 204 247 302 361
#     4  11  22  37  64  93 122 163 210 248 303 370
#     4  10  16  35  62  85 129 167 198 238 310 371
#     4   9  17  36  64  83 117 168 197 244 304 366
#
# _framework density 19.488544000000001
#
# number of rings (size 3 to 8) (size 9 to 14) (size 15 to 20)
#    0.000    1.500    6.250    3.375    0.000    1.000 
#    2.250    5.625    0.000    0.000    0.000    0.000 
#    0.000    0.000    0.000    0.000    0.000    0.000 
#
# Total GULP energy -89246.186600 kJ/mol
# GULP energy per Si atom -5577.886663 kJ/mol
# Density = 1.944419 g / cm^3
# Si number density = 19.488544 Si / 1000 Ang^3
#
#
#
# Elastic Constant Matrix: (Units=GPa)
#
#
# Indices 1 2 3 4 5 6 
#
# 1 102.1515 29.6893 26.3776 8.7325 25.8477 -9.1916
# 2 29.6893 108.6322 27.8185 8.1027 10.7184 -20.6184
# 3 26.3776 27.8185 63.0575 5.2482 22.1206 -7.5182
# 4 8.7325 8.1027 5.2482 30.2895 -0.2216 -0.3713
# 5 25.8477 10.7184 22.1206 -0.2216 28.7566 -0.0982
# 6 -9.1916 -20.6184 -7.5182 -0.3713 -0.0982 33.6927
#
#
#
# Elastic Compliance Matrix: (Units=1/GPa)
#
#
# Indices 1 2 3 4 5 6 
#
# 1 0.013849 -0.001819 -0.000363 -0.003497 -0.011509 0.002512
# 2 -0.001819 0.011907 -0.003611 -0.001962 -0.000021 0.005963
# 3 -0.000363 -0.003611 0.024168 -0.003204 -0.016933 0.003000
# 4 -0.003497 -0.001962 -0.003204 0.035121 0.006601 -0.002464
# 5 -0.011509 -0.000021 -0.016933 0.006601 0.058181 -0.006689
# 6 0.002512 0.005963 0.003000 -0.002464 -0.006689 0.034637
#
#
# Mechanical properties :
#
#
# Convention : Reuss Voigt Hill
#
# Bulk Modulus (GPa) = 26.08279 49.06801 37.57540
# Shear Modulus (GPa) = 24.72463 31.21148 27.96806
#
# Velocity S-wave (km/s) = 3.56571 4.00625 3.79238
# Velocity P-wave (km/s) = 5.51045 6.82881 6.20474
#
# Compressibility (1/GPa) = 0.03833946
#
# Stress axis : x y z
#
# Youngs Moduli (GPa) = 72.20808 83.98212 41.37761
#
# Poissons Ratio (x) = 0.15275 0.01501
# Poissons Ratio (y) = 0.13134 0.14940
# Poissons Ratio (z) = 0.02619 0.30323
#
# Static dielectric constant tensor:
#      x y z
#    x 1.710480 -0.014860 -0.021380 
#    y -0.014860 1.706880 -0.018460 
#    z -0.021380 -0.018460 1.696890 
# 
# From -- ./inp_files/186905.got.cif
#   From: 2010.05.17/outbox.cif.g08.bks.cpg/sg2_94_cif.got.tgz:186905.got - 2010.06.03 11:33:40.
