data_PCOD9107161
_publ_section_title
;
Structure prediction by ZEFSAII (Michael W. Deem and Ramdas Pophale) SiO2 
 PCOD9107161
Probable space group: P -1
;
_chemical_formula_sum "Si O2"
_cell_formula_units_Z 16
_cell_length_a 9.159209
_cell_length_b 9.135900
_cell_length_c 14.662307
_cell_angle_alpha 131.793593
_cell_angle_beta 99.674750
_cell_angle_gamma 109.727793
_cell_volume 713.349200
_symmetry_space_group_name_H-M "P -1"
_symmetry_group_IT_number 2
_symmetry_cell_setting 'triclinic'
loop_
_space_group_symop_operation_xyz
x,y,z
-x,-y,-z
loop_
_atom_site_type_symbol
_atom_site_label
_atom_site_fract_x
_atom_site_fract_y
_atom_site_fract_z
Si Si1 0.885189 0.554581 0.124821
Si Si2 0.883330 0.106918 0.543596
Si Si3 0.125265 0.378827 0.515992
Si Si4 0.854969 0.188177 0.246563
Si Si5 0.500593 0.224899 0.054178
Si Si6 0.838868 0.679815 0.788843
Si Si7 0.557358 0.617098 0.366496
Si Si8 0.990138 0.777630 0.035416
O O1 0.689058 0.421166 0.099941
O O2 0.045794 0.737820 0.291367
O O3 0.900349 0.338933 0.009466
O O4 0.910500 0.706518 0.099970
O O5 0.959789 0.269698 0.528622
O O6 0.667092 0.873889 0.428925
O O7 0.000000 0.000000 0.500000
O O8 0.218469 0.668043 0.658384
O O9 0.281174 0.341540 0.534592
O O10 0.012268 0.246776 0.358245
O O11 0.979964 0.297734 0.213389
O O12 0.680026 0.913492 0.087456
O O13 0.500414 0.385154 0.201071
O O14 0.500000 0.000000 0.000000
O O15 0.632933 0.457728 0.640567
O O16 0.836320 0.657209 0.888675
O O17 0.884628 0.934994 0.862128
#
# Coordination Sequence:
#
# PCOD9107161 Si02
#       8
#     2   2   2   2   2   2   2   2
#     4  11  22  42  68  96 134 176 222 267 334 399
#     4  10  20  40  63  89 126 166 211 276 319 384
#     4  10  22  43  62  96 129 169 221 263 338 392
#     4  11  24  39  67  95 132 169 215 282 320 386
#     4  12  20  38  69  95 122 174 222 269 317 391
#     4  11  23  43  63  95 137 170 219 278 329 382
#     4  11  23  39  67  93 125 174 220 256 335 393
#     4  10  24  41  63  97 138 172 213 280 335 383
#
# _framework density 22.429407000000001
#
# number of rings (size 3 to 8) (size 9 to 14) (size 15 to 20)
#    0.000    1.250    3.750    3.750    3.500    1.500 
#    0.000    5.625    0.000    0.000    0.000    0.000 
#    0.000    0.000    0.000    0.000    0.000    0.000 
#
# Total GULP energy -89288.285314 kJ/mol
# GULP energy per Si atom -5580.517832 kJ/mol
# Density = 2.237836 g / cm^3
# Si number density = 22.429407 Si / 1000 Ang^3
#
#
#
# Elastic Constant Matrix: (Units=GPa)
#
#
# Indices 1 2 3 4 5 6 
#
# 1 45.4928 -2.3271 -5.9723 11.4489 11.3864 11.0533
# 2 -2.3271 90.8782 19.8145 -10.9937 5.0141 2.4368
# 3 -5.9723 19.8145 97.0283 -0.7070 11.2433 4.1376
# 4 11.4489 -10.9937 -0.7070 35.8239 2.0316 3.8499
# 5 11.3864 5.0141 11.2433 2.0316 42.2184 6.5939
# 6 11.0533 2.4368 4.1376 3.8499 6.5939 25.4469
#
#
#
# Elastic Compliance Matrix: (Units=1/GPa)
#
#
# Indices 1 2 3 4 5 6 
#
# 1 0.028296 -0.000207 0.002900 -0.007617 -0.006464 -0.009915
# 2 -0.000207 0.012042 -0.002308 0.003875 -0.000779 -0.001073
# 3 0.002900 -0.002308 0.011400 -0.001024 -0.003197 -0.001909
# 4 -0.007617 0.003875 -0.001024 0.031681 0.000632 -0.001853
# 5 -0.006464 -0.000779 -0.003197 0.000632 0.026916 -0.003668
# 6 -0.009915 -0.001073 -0.001909 -0.001853 -0.003668 0.045248
#
#
# Mechanical properties :
#
#
# Convention : Reuss Voigt Hill
#
# Bulk Modulus (GPa) = 19.04407 28.49216 23.76812
# Shear Modulus (GPa) = 29.01661 35.49011 32.25336
#
# Velocity S-wave (km/s) = 3.60069 3.98213 3.79620
# Velocity P-wave (km/s) = 5.07895 5.82012 5.46212
#
# Compressibility (1/GPa) = 0.05250978
#
# Stress axis : x y z
#
# Youngs Moduli (GPa) = 35.34126 83.04172 87.71601
#
# Poissons Ratio (x) = 0.01717 -0.25440
# Poissons Ratio (y) = 0.00731 0.20242
# Poissons Ratio (z) = -0.10250 0.19163
#
# Static dielectric constant tensor:
#      x y z
#    x 1.876860 -0.033420 -0.050060 
#    y -0.033420 1.928780 0.023700 
#    z -0.050060 0.023700 1.863860 
# 
# From -- ./inp_files/495745.got.cif
#   From: 2010.05.17/outbox.cif.g08.bks.cpg/sg2_248_cif.got.tgz:495745.got - 2010.06.03 11:33:40.
