data_PCOD9107727
_publ_section_title
;
Structure prediction by ZEFSAII (Michael W. Deem and Ramdas Pophale) SiO2 
 PCOD9107727
Probable space group: P -1
;
_chemical_formula_sum "Si O2"
_cell_formula_units_Z 14
_cell_length_a 16.245022
_cell_length_b 7.330527
_cell_length_c 11.174391
_cell_angle_alpha 70.544544
_cell_angle_beta 33.116372
_cell_angle_gamma 67.247215
_cell_volume 670.329956
_symmetry_space_group_name_H-M "P -1"
_symmetry_group_IT_number 2
_symmetry_cell_setting 'triclinic'
loop_
_space_group_symop_operation_xyz
x,y,z
-x,-y,-z
loop_
_atom_site_type_symbol
_atom_site_label
_atom_site_fract_x
_atom_site_fract_y
_atom_site_fract_z
Si Si1 0.883983 0.500926 0.250240
Si Si2 0.651114 0.363418 0.400628
Si Si3 0.097630 0.218560 0.516228
Si Si4 0.087378 0.672700 0.502111
Si Si5 0.958040 0.187754 0.924981
Si Si6 0.584473 0.052078 0.728262
Si Si7 0.572675 0.272131 0.932995
O O1 0.724915 0.470521 0.395788
O O2 0.942180 0.339132 0.317281
O O3 0.898721 0.704076 0.249546
O O4 0.000000 0.500000 0.000000
O O5 0.500000 0.500000 0.500000
O O6 0.609238 0.168941 0.553287
O O7 0.791685 0.306629 0.146763
O O8 0.113715 0.444914 0.471759
O O9 0.046533 0.209488 0.443586
O O10 0.966599 0.168373 0.776112
O O11 0.252610 0.068002 0.394260
O O12 0.245449 0.743897 0.279760
O O13 0.000000 0.000000 0.000000
O O14 0.524109 0.210398 0.872785
O O15 0.481263 0.887894 0.880784
O O16 0.500000 0.500000 0.000000
#
# Coordination Sequence:
#
# PCOD9107727 Si02
#       7
#     2   2   2   2   2   2   2
#     4   9  20  41  63  89 125 173 208 270 333 383
#     4  11  23  43  65  93 131 175 224 274 326 398
#     4  10  21  39  67  99 123 172 224 266 332 397
#     4  10  20  40  65  93 132 167 212 277 326 394
#     4  10  20  40  68  91 130 168 217 277 332 391
#     4  11  23  42  65  93 130 178 224 268 334 402
#     4  11  23  41  64  91 136 174 208 275 342 390
#
# _framework density 20.885238000000001
#
# number of rings (size 3 to 8) (size 9 to 14) (size 15 to 20)
#    0.000    1.714    4.286    0.000    0.000    1.714 
#   15.429    0.714    0.000    0.000    0.000    0.000 
#    0.000    0.000    0.000    0.000    0.000    0.000 
#
# Total GULP energy -78101.806020 kJ/mol
# GULP energy per Si atom -5578.700430 kJ/mol
# Density = 2.083770 g / cm^3
# Si number density = 20.885238 Si / 1000 Ang^3
#
#
#
# Elastic Constant Matrix: (Units=GPa)
#
#
# Indices 1 2 3 4 5 6 
#
# 1 108.5674 42.0483 52.1542 -16.0844 7.6392 -28.3443
# 2 42.0483 108.7712 50.3789 -11.5672 -5.1765 -11.3472
# 3 52.1542 50.3789 123.7650 -30.2397 -3.0347 -14.3791
# 4 -16.0844 -11.5672 -30.2397 42.6492 5.2168 1.1128
# 5 7.6392 -5.1765 -3.0347 5.2168 22.3426 -2.2808
# 6 -28.3443 -11.3472 -14.3791 1.1128 -2.2808 40.9247
#
#
#
# Elastic Compliance Matrix: (Units=1/GPa)
#
#
# Indices 1 2 3 4 5 6 
#
# 1 0.015150 -0.003389 -0.003549 0.002844 -0.006307 0.007877
# 2 -0.003389 0.012304 -0.003748 -0.001056 0.003745 -0.000015
# 3 -0.003549 -0.003748 0.012843 0.006652 0.000625 0.000869
# 4 0.002844 -0.001056 0.006652 0.029728 -0.006967 0.002817
# 5 -0.006307 0.003745 0.000625 -0.006967 0.049477 -0.000163
# 6 0.007877 -0.000015 0.000869 0.002817 -0.000163 0.030106
#
#
# Mechanical properties :
#
#
# Convention : Reuss Voigt Hill
#
# Bulk Modulus (GPa) = 52.84341 70.02960 61.43651
# Shear Modulus (GPa) = 28.20252 34.28478 31.24365
#
# Velocity S-wave (km/s) = 3.67871 4.05604 3.87197
# Velocity P-wave (km/s) = 6.58791 7.45243 7.03347
#
# Compressibility (1/GPa) = 0.01892383
#
# Stress axis : x y z
#
# Youngs Moduli (GPa) = 66.00622 81.27399 77.86444
#
# Poissons Ratio (x) = 0.27541 0.27638
# Poissons Ratio (y) = 0.22367 0.29187
# Poissons Ratio (z) = 0.23429 0.30465
#
# Static dielectric constant tensor:
#      x y z
#    x 1.863230 0.091410 0.063350 
#    y 0.091410 1.809800 0.008140 
#    z 0.063350 0.008140 1.789260 
# 
# From -- ./inp_files/461047.got.cif
#   From: 2010.05.17/outbox.cif.g08.bks.cpg/sg2_231_cif.got.tgz:461047.got - 2010.06.03 11:33:40.
