data_PCOD9107687
_publ_section_title
;
Structure prediction by ZEFSAII (Michael W. Deem and Ramdas Pophale) SiO2 
 PCOD9107687
Probable space group: P -1
;
_chemical_formula_sum "Si O2"
_cell_formula_units_Z 14
_cell_length_a 8.025387
_cell_length_b 9.411552
_cell_length_c 8.144765
_cell_angle_alpha 115.905272
_cell_angle_beta 95.248016
_cell_angle_gamma 77.312820
_cell_volume 539.851502
_symmetry_space_group_name_H-M "P -1"
_symmetry_group_IT_number 2
_symmetry_cell_setting 'triclinic'
loop_
_space_group_symop_operation_xyz
x,y,z
-x,-y,-z
loop_
_atom_site_type_symbol
_atom_site_label
_atom_site_fract_x
_atom_site_fract_y
_atom_site_fract_z
Si Si1 0.422558 0.486507 0.257686
Si Si2 0.073201 0.260602 0.264235
Si Si3 0.698277 0.974679 0.333555
Si Si4 0.827557 0.631713 0.025831
Si Si5 0.615660 0.137082 0.097857
Si Si6 0.246383 0.505047 0.581721
Si Si7 0.698887 0.044852 0.725378
O O1 0.501371 0.303288 0.230520
O O2 0.299633 0.555931 0.431088
O O3 0.589580 0.562139 0.325024
O O4 0.322137 0.467623 0.074216
O O5 0.142965 0.367211 0.463868
O O6 0.875525 0.342181 0.272833
O O7 0.150382 0.083727 0.242171
O O8 0.150818 0.287279 0.108012
O O9 0.777811 0.783065 0.221617
O O10 0.489995 0.999795 0.328231
O O11 0.742219 0.062164 0.216347
O O12 0.748787 0.055994 0.545819
O O13 0.000000 0.500000 0.000000
O O14 0.669360 0.173528 0.935431
O O15 0.500000 0.000000 0.000000
#
# Coordination Sequence:
#
# PCOD9107687 Si02
#       7
#     2   2   2   2   2   2   2
#     4  10  19  37  58  84 119 154 190 241 293 339
#     4  10  20  38  60  87 113 151 199 239 288 350
#     4  10  19  32  55  88 111 149 196 236 281 344
#     4  11  21  34  57  86 119 153 193 239 287 345
#     4  10  16  35  57  82 112 150 197 229 281 349
#     4   9  20  34  58  89 110 151 198 233 296 348
#     4  10  19  32  58  86 111 146 201 234 280 347
#
# _framework density 25.933056000000001
#
# number of rings (size 3 to 8) (size 9 to 14) (size 15 to 20)
#    0.000    2.000    4.286    2.571    6.000    0.000 
#    0.000    1.429    0.000    4.286    0.000    0.000 
#    0.000    0.000    0.000    0.000    0.000    0.000 
#
# Total GULP energy -78151.936778 kJ/mol
# GULP energy per Si atom -5582.281198 kJ/mol
# Density = 2.587403 g / cm^3
# Si number density = 25.933056 Si / 1000 Ang^3
#
#
#
# Elastic Constant Matrix: (Units=GPa)
#
#
# Indices 1 2 3 4 5 6 
#
# 1 64.1398 11.6293 15.8875 2.8497 1.1858 -25.4552
# 2 11.6293 61.4596 24.0837 -10.9210 -8.4818 -10.8019
# 3 15.8875 24.0837 167.9313 -27.0605 -18.4420 8.9017
# 4 2.8497 -10.9210 -27.0605 43.8056 -4.3705 -0.6528
# 5 1.1858 -8.4818 -18.4420 -4.3705 35.0301 0.4338
# 6 -25.4552 -10.8019 8.9017 -0.6528 0.4338 35.7785
#
#
#
# Elastic Compliance Matrix: (Units=1/GPa)
#
#
# Indices 1 2 3 4 5 6 
#
# 1 0.024274 -0.001161 -0.004291 -0.004667 -0.004167 0.017952
# 2 -0.001161 0.019540 -0.001818 0.004334 0.004286 0.005553
# 3 -0.004291 -0.001818 0.008313 0.005358 0.004820 -0.005631
# 4 -0.004667 0.004334 0.005358 0.028236 0.007587 -0.002922
# 5 -0.004167 0.004286 0.004820 0.007587 0.033248 -0.003134
# 6 0.017952 0.005553 -0.005631 -0.002922 -0.003134 0.043784
#
#
# Mechanical properties :
#
#
# Convention : Reuss Voigt Hill
#
# Bulk Modulus (GPa) = 26.60477 44.08127 35.34302
# Shear Modulus (GPa) = 27.10563 39.05152 33.07858
#
# Velocity S-wave (km/s) = 3.23649 3.88475 3.57534
# Velocity P-wave (km/s) = 4.92420 6.09563 5.54096
#
# Compressibility (1/GPa) = 0.03758724
#
# Stress axis : x y z
#
# Youngs Moduli (GPa) = 41.19716 51.17597 120.29847
#
# Poissons Ratio (x) = 0.05939 0.51624
# Poissons Ratio (y) = 0.04781 0.21868
# Poissons Ratio (z) = 0.17679 0.09303
#
# Static dielectric constant tensor:
#      x y z
#    x 2.205770 0.015090 0.012840 
#    y 0.015090 2.019980 0.005000 
#    z 0.012840 0.005000 2.070100 
# 
# From -- ./inp_files/185106.got.cif
#   From: 2010.05.17/outbox.cif.g08.bks.cpg/sg2_93_cif.got.tgz:185106.got - 2010.06.03 11:33:40.
