data_PCOD9107428
_publ_section_title
;
Structure prediction by ZEFSAII (Michael W. Deem and Ramdas Pophale) SiO2 
 PCOD9107428
Probable space group: P -1
;
_chemical_formula_sum "Si O2"
_cell_formula_units_Z 16
_cell_length_a 13.951326
_cell_length_b 15.842948
_cell_length_c 12.503603
_cell_angle_alpha 27.992138
_cell_angle_beta 131.812958
_cell_angle_gamma 148.691193
_cell_volume 628.943516
_symmetry_space_group_name_H-M "P -1"
_symmetry_group_IT_number 2
_symmetry_cell_setting 'triclinic'
loop_
_space_group_symop_operation_xyz
x,y,z
-x,-y,-z
loop_
_atom_site_type_symbol
_atom_site_label
_atom_site_fract_x
_atom_site_fract_y
_atom_site_fract_z
Si Si1 0.798141 0.539359 0.752904
Si Si2 0.281443 0.325837 0.058792
Si Si3 0.145680 0.918056 0.153084
Si Si4 0.091911 0.310634 0.567981
Si Si5 0.103902 0.729146 0.100257
Si Si6 0.286379 0.727837 0.602876
Si Si7 0.428642 0.466285 0.237091
Si Si8 0.772465 0.087433 0.241538
O O1 0.658988 0.514292 0.750882
O O2 0.796503 0.614395 0.545935
O O3 0.026301 0.762899 0.715388
O O4 0.735187 0.261504 0.025909
O O5 0.288866 0.369410 0.142277
O O6 0.123431 0.004518 0.275023
O O7 0.500000 0.500000 0.000000
O O8 0.274264 0.514335 0.790147
O O9 0.960705 0.779788 0.243885
O O10 0.116094 0.859098 0.070470
O O11 0.210619 0.794557 0.388690
O O12 0.343828 0.247729 0.937175
O O13 0.176232 0.604052 0.312544
O O14 0.872654 0.436089 0.235703
O O15 0.194416 0.913760 0.858107
O O16 0.500000 0.000000 0.500000
O O17 0.402819 0.225973 0.500528
#
# Coordination Sequence:
#
# PCOD9107428 Si02
#       8
#     2   2   2   2   2   2   2   2
#     4  10  22  38  66 101 131 170 227 284 337 396
#     4  12  22  37  63 104 137 158 218 294 336 385
#     4  11  24  45  65  96 141 178 217 278 341 400
#     4  10  20  40  64  91 132 168 215 283 336 380
#     4  10  23  44  67  92 139 181 220 269 341 410
#     4  11  21  38  67  98 123 172 225 273 333 393
#     4  12  23  39  67 100 137 172 226 280 336 399
#     4  10  22  39  65  96 135 181 219 277 342 394
#
# _framework density 25.439487
#
# number of rings (size 3 to 8) (size 9 to 14) (size 15 to 20)
#    0.000    1.250    3.750    3.375    1.750    2.500 
#    0.000    5.000    0.000    0.000    0.000    0.000 
#    0.000    0.000    0.000    0.000    0.000    0.000 
#
# Total GULP energy -89242.403828 kJ/mol
# GULP energy per Si atom -5577.650239 kJ/mol
# Density = 2.538159 g / cm^3
# Si number density = 25.439487 Si / 1000 Ang^3
#
#
#
# Elastic Constant Matrix: (Units=GPa)
#
#
# Indices 1 2 3 4 5 6 
#
# 1 93.0792 23.5075 28.4025 13.2613 -3.6147 -21.6456
# 2 23.5075 93.3375 26.5691 -3.7705 0.2738 -31.8732
# 3 28.4025 26.5691 166.0306 -0.0466 -2.3224 -0.2867
# 4 13.2613 -3.7705 -0.0466 27.4272 1.7960 -5.6122
# 5 -3.6147 0.2738 -2.3224 1.7960 29.9512 15.0148
# 6 -21.6456 -31.8732 -0.2867 -5.6122 15.0148 38.5866
#
#
#
# Elastic Compliance Matrix: (Units=1/GPa)
#
#
# Indices 1 2 3 4 5 6 
#
# 1 0.013963 -0.000572 -0.002312 -0.005221 -0.001834 0.007297
# 2 -0.000572 0.019440 -0.003138 0.008103 -0.011733 0.021458
# 3 -0.002312 -0.003138 0.006951 -0.000513 0.002833 -0.005014
# 4 -0.005221 0.008103 -0.000513 0.043688 -0.010478 0.014192
# 5 -0.001834 -0.011733 0.002833 -0.010478 0.050003 -0.031681
# 6 0.007297 0.021458 -0.005014 0.014192 -0.031681 0.062088
#
#
# Mechanical properties :
#
#
# Convention : Reuss Voigt Hill
#
# Bulk Modulus (GPa) = 35.32168 56.60061 45.96114
# Shear Modulus (GPa) = 22.97645 37.45755 30.21700
#
# Velocity S-wave (km/s) = 3.00856 3.84137 3.45018
# Velocity P-wave (km/s) = 5.09738 6.47860 5.82905
#
# Compressibility (1/GPa) = 0.02831122
#
# Stress axis : x y z
#
# Youngs Moduli (GPa) = 71.61813 51.43941 143.85642
#
# Poissons Ratio (x) = 0.02944 0.33253
# Poissons Ratio (y) = 0.04099 0.45140
# Poissons Ratio (z) = 0.16555 0.16141
#
# Static dielectric constant tensor:
#      x y z
#    x 2.094940 0.098710 0.086760 
#    y 0.098710 2.247660 0.105590 
#    z 0.086760 0.105590 2.029550 
# 
# From -- ./inp_files/455412.got.cif
#   From: 2010.05.17/outbox.cif.g08.bks.cpg/sg2_228_cif.got.tgz:455412.got - 2010.06.03 11:33:40.
