data_PCOD9107102
_publ_section_title
;
Structure prediction by ZEFSAII (Michael W. Deem and Ramdas Pophale) SiO2 
 PCOD9107102
Probable space group: P -1
;
_chemical_formula_sum "Si O2"
_cell_formula_units_Z 14
_cell_length_a 5.183447
_cell_length_b 9.317116
_cell_length_c 16.974106
_cell_angle_alpha 89.226720
_cell_angle_beta 60.593387
_cell_angle_gamma 53.234741
_cell_volume 523.888892
_symmetry_space_group_name_H-M "P -1"
_symmetry_group_IT_number 2
_symmetry_cell_setting 'triclinic'
loop_
_space_group_symop_operation_xyz
x,y,z
-x,-y,-z
loop_
_atom_site_type_symbol
_atom_site_label
_atom_site_fract_x
_atom_site_fract_y
_atom_site_fract_z
Si Si1 0.549637 0.635811 0.531713
Si Si2 0.104775 0.580187 0.154878
Si Si3 0.661338 0.312489 0.265129
Si Si4 0.215312 0.270005 0.644535
Si Si5 0.474053 0.185388 0.076656
Si Si6 0.702595 0.814112 0.077325
Si Si7 0.943715 0.937423 0.242025
O O1 0.500000 0.500000 0.500000
O O2 0.280699 0.725209 0.649085
O O3 0.507407 0.764346 0.466667
O O4 0.000000 0.500000 0.500000
O O5 0.763953 0.658277 0.272867
O O6 0.023236 0.608787 0.073641
O O7 0.137125 0.737809 0.168197
O O8 0.467321 0.348750 0.110779
O O9 0.029167 0.273420 0.170008
O O10 0.246131 0.533637 0.309791
O O11 0.640619 0.149671 0.245280
O O12 0.250952 0.088146 0.657246
O O13 0.775103 0.961527 0.062788
O O14 0.441655 0.181067 0.987335
O O15 0.333468 0.909118 0.192894
#
# Coordination Sequence:
#
# PCOD9107102 Si02
#       7
#     2   2   2   2   2   2   2
#     4  10  21  40  67  95 128 166 215 260 320 385
#     4  10  21  35  59  82 118 152 201 249 310 363
#     4  10  20  40  63  84 126 155 209 252 315 371
#     4   9  21  37  61  89 118 157 204 251 321 366
#     4  10  21  37  60  84 118 166 195 260 311 369
#     4  10  21  40  55  86 123 152 211 250 309 375
#     4   9  22  37  58  89 116 158 202 255 300 381
#
# _framework density 26.723224999999999
#
# number of rings (size 3 to 8) (size 9 to 14) (size 15 to 20)
#    0.857    1.429    0.000    2.143    2.000    2.286 
#    5.143    2.143    0.000    8.571    0.000    0.000 
#    0.000    0.000    0.000    0.000    0.000    0.000 
#
# Total GULP energy -78102.921051 kJ/mol
# GULP energy per Si atom -5578.780075 kJ/mol
# Density = 2.666240 g / cm^3
# Si number density = 26.723225 Si / 1000 Ang^3
#
#
#
# Elastic Constant Matrix: (Units=GPa)
#
#
# Indices 1 2 3 4 5 6 
#
# 1 46.1536 20.5351 17.1620 -4.0940 10.0673 5.0190
# 2 20.5351 118.9809 15.4846 -15.9493 21.4815 -5.3630
# 3 17.1620 15.4846 151.5907 -29.5789 20.2780 -4.9988
# 4 -4.0940 -15.9493 -29.5789 62.8637 1.5084 5.9722
# 5 10.0673 21.4815 20.2780 1.5084 29.9691 0.3649
# 6 5.0190 -5.3630 -4.9988 5.9722 0.3649 36.4092
#
#
#
# Elastic Compliance Matrix: (Units=1/GPa)
#
#
# Indices 1 2 3 4 5 6 
#
# 1 0.025456 -0.003425 -0.001965 0.000386 -0.004733 -0.004299
# 2 -0.003425 0.010660 0.000897 0.002911 -0.007265 0.001761
# 3 -0.001965 0.000897 0.008334 0.004072 -0.005838 0.000938
# 4 0.000386 0.002911 0.004072 0.018929 -0.005898 -0.002111
# 5 -0.004733 -0.007265 -0.005838 -0.005898 0.044421 -0.000697
# 6 -0.004299 0.001761 0.000938 -0.002111 -0.000697 0.028800
#
#
# Mechanical properties :
#
#
# Convention : Reuss Voigt Hill
#
# Bulk Modulus (GPa) = 28.19861 47.00984 37.60423
# Shear Modulus (GPa) = 31.76453 43.41796 37.59124
#
# Velocity S-wave (km/s) = 3.45142 4.03516 3.75465
# Velocity P-wave (km/s) = 5.14374 6.27213 5.73575
#
# Compressibility (1/GPa) = 0.03546274
#
# Stress axis : x y z
#
# Youngs Moduli (GPa) = 39.28380 93.80490 119.99074
#
# Poissons Ratio (x) = 0.32129 0.23582
# Poissons Ratio (y) = 0.13455 -0.10760
# Poissons Ratio (z) = 0.07720 -0.08411
#
# Static dielectric constant tensor:
#      x y z
#    x 2.184810 -0.031390 -0.002620 
#    y -0.031390 2.175310 0.033110 
#    z -0.002620 0.033110 2.172850 
# 
# From -- ./inp_files/547263.got.cif
#   From: 2010.05.17/outbox.cif.g08.bks.cpg/sg2_274_cif.got.tgz:547263.got - 2010.06.03 11:33:40.
