data_PCOD9107964
_publ_section_title
;
Structure prediction by ZEFSAII (Michael W. Deem and Ramdas Pophale) SiO2 
 PCOD9107964
Probable space group: P -1
;
_chemical_formula_sum "Si O2"
_cell_formula_units_Z 16
_cell_length_a 8.484033
_cell_length_b 7.881419
_cell_length_c 22.324761
_cell_angle_alpha 49.584715
_cell_angle_beta 49.986337
_cell_angle_gamma 34.339516
_cell_volume 620.656577
_symmetry_space_group_name_H-M "P -1"
_symmetry_group_IT_number 2
_symmetry_cell_setting 'triclinic'
loop_
_space_group_symop_operation_xyz
x,y,z
-x,-y,-z
loop_
_atom_site_type_symbol
_atom_site_label
_atom_site_fract_x
_atom_site_fract_y
_atom_site_fract_z
Si Si1 0.421753 0.230956 0.517829
Si Si2 0.606251 0.515051 0.790290
Si Si3 0.215185 0.650490 0.653426
Si Si4 0.915486 0.803260 0.575202
Si Si5 0.306755 0.362152 0.972767
Si Si6 0.659901 0.714538 0.883978
Si Si7 0.318471 0.813362 0.263930
Si Si8 0.828388 0.885534 0.180353
O O1 0.562496 0.355683 0.432755
O O2 0.093371 0.523829 0.547708
O O3 0.500000 0.000000 0.500000
O O4 0.586863 0.041167 0.581745
O O5 0.629389 0.440679 0.731524
O O6 0.917753 0.226558 0.809808
O O7 0.451030 0.867039 0.763218
O O8 0.394852 0.496092 0.877657
O O9 0.032019 0.659919 0.645647
O O10 0.420703 0.352562 0.714469
O O11 0.981140 0.962639 0.678106
O O12 0.000000 0.000000 0.500000
O O13 0.324321 0.411092 0.027025
O O14 0.000000 0.500000 0.000000
O O15 0.500000 0.000000 0.000000
O O16 0.939714 0.446130 0.836951
O O17 0.675634 0.971159 0.827570
O O18 0.360475 0.889541 0.883167
#
# Coordination Sequence:
#
# PCOD9107964 Si02
#       8
#     2   2   2   2   2   2   2   2
#     4  11  22  41  68 100 132 163 209 267 316 367
#     4  11  24  43  65  94 129 177 209 283 328 390
#     4  11  23  40  65  99 125 173 215 258 316 392
#     4  10  20  40  66  92 130 163 208 255 307 371
#     4  12  24  39  68  99 125 161 236 274 331 371
#     4  11  24  43  65  93 125 173 216 283 316 399
#     4  12  24  42  68  90 130 172 225 258 321 385
#     4  10  24  43  63  91 128 161 215 265 353 381
#
# _framework density 25.779150999999999
#
# number of rings (size 3 to 8) (size 9 to 14) (size 15 to 20)
#    0.000    1.000    1.250    7.125    1.750    3.000 
#    0.000   12.500    0.000    0.000    0.000    0.000 
#    0.000    0.000    0.000    0.000    0.000    0.000 
#
# Total GULP energy -89371.206675 kJ/mol
# GULP energy per Si atom -5585.700417 kJ/mol
# Density = 2.572048 g / cm^3
# Si number density = 25.779151 Si / 1000 Ang^3
#
#
#
# Elastic Constant Matrix: (Units=GPa)
#
#
# Indices 1 2 3 4 5 6 
#
# 1 78.2441 41.8732 11.0432 -6.4461 21.8466 -0.8777
# 2 41.8732 182.5310 23.5168 6.5418 7.6735 -9.6675
# 3 11.0432 23.5168 101.9261 3.1233 7.2889 -4.3159
# 4 -6.4461 6.5418 3.1233 26.0342 2.6232 5.1565
# 5 21.8466 7.6735 7.2889 2.6232 32.1577 9.6909
# 6 -0.8777 -9.6675 -4.3159 5.1565 9.6909 66.8184
#
#
#
# Elastic Compliance Matrix: (Units=1/GPa)
#
#
# Indices 1 2 3 4 5 6 
#
# 1 0.019128 -0.003993 -0.000405 0.006885 -0.012805 0.000973
# 2 -0.003993 0.006623 -0.001069 -0.002830 0.001346 0.000860
# 3 -0.000405 -0.001069 0.010312 -0.001042 -0.001986 0.000875
# 4 0.006885 -0.002830 -0.001042 0.042133 -0.006386 -0.002712
# 5 -0.012805 0.001346 -0.001986 -0.006386 0.042171 -0.005725
# 6 0.000973 0.000860 0.000875 -0.002712 -0.005725 0.016199
#
#
# Mechanical properties :
#
#
# Convention : Reuss Voigt Hill
#
# Bulk Modulus (GPa) = 39.79320 57.28529 48.53925
# Shear Modulus (GPa) = 32.07693 44.08661 38.08177
#
# Velocity S-wave (km/s) = 3.53129 4.13990 3.84765
# Velocity P-wave (km/s) = 5.66536 6.71725 6.21361
#
# Compressibility (1/GPa) = 0.02512992
#
# Stress axis : x y z
#
# Youngs Moduli (GPa) = 52.27958 150.99994 96.97030
#
# Poissons Ratio (x) = 0.60290 0.03930
# Poissons Ratio (y) = 0.20874 0.10361
# Poissons Ratio (z) = 0.02119 0.16134
#
# Static dielectric constant tensor:
#      x y z
#    x 2.265110 0.140340 -0.264020 
#    y 0.140340 1.994570 -0.125490 
#    z -0.264020 -0.125490 2.341870 
# 
# From -- ./inp_files/606664.got.cif
#   From: 2010.05.17/outbox.cif.g08.bks.cpg/sg2_304_cif.got.tgz:606664.got - 2010.06.03 11:33:40.
