data_PCOD9107764
_publ_section_title
;
Structure prediction by ZEFSAII (Michael W. Deem and Ramdas Pophale) SiO2 
 PCOD9107764
Probable space group: P -1
;
_chemical_formula_sum "Si O2"
_cell_formula_units_Z 16
_cell_length_a 8.106099
_cell_length_b 16.534553
_cell_length_c 9.602693
_cell_angle_alpha 44.428264
_cell_angle_beta 102.867729
_cell_angle_gamma 76.779394
_cell_volume 722.791916
_symmetry_space_group_name_H-M "P -1"
_symmetry_group_IT_number 2
_symmetry_cell_setting 'triclinic'
loop_
_space_group_symop_operation_xyz
x,y,z
-x,-y,-z
loop_
_atom_site_type_symbol
_atom_site_label
_atom_site_fract_x
_atom_site_fract_y
_atom_site_fract_z
Si Si1 0.725930 0.421184 0.950410
Si Si2 0.298815 0.657719 0.258141
Si Si3 0.505983 0.739552 0.540392
Si Si4 0.179213 0.284299 0.158323
Si Si5 0.083808 0.341072 0.745848
Si Si6 0.765263 0.174463 0.383647
Si Si7 0.502708 0.169172 0.869198
Si Si8 0.247298 0.008425 0.619400
O O1 0.677684 0.339043 0.150910
O O2 0.952264 0.385751 0.058344
O O3 0.760910 0.332730 0.925967
O O4 0.562398 0.586425 0.693756
O O5 0.500000 0.500000 0.500000
O O6 0.372681 0.758024 0.177203
O O7 0.103186 0.679263 0.275613
O O8 0.665491 0.698998 0.745585
O O9 0.290233 0.840986 0.451978
O O10 0.522577 0.819928 0.315346
O O11 0.255805 0.124447 0.395451
O O12 0.159709 0.313526 0.954480
O O13 0.275900 0.250511 0.791857
O O14 0.000000 0.500000 0.500000
O O15 0.681847 0.120463 0.314621
O O16 0.008588 0.082196 0.520727
O O17 0.631374 0.035660 0.158272
#
# Coordination Sequence:
#
# PCOD9107764 Si02
#       8
#     2   2   2   2   2   2   2   2
#     4  10  20  40  65  95 128 169 217 279 339 391
#     4  11  20  40  67  99 134 171 227 271 327 403
#     4  12  24  39  63 101 137 167 215 282 348 391
#     4  10  24  43  65  96 131 173 223 272 329 403
#     4  11  23  41  68  98 131 176 223 274 332 391
#     4  10  22  40  67  93 124 174 227 274 329 389
#     4  12  24  42  66  99 137 178 223 277 328 397
#     4  10  23  46  68  89 130 182 232 267 314 409
#
# _framework density 22.136384
#
# number of rings (size 3 to 8) (size 9 to 14) (size 15 to 20)
#    0.000    1.250    3.750    2.250    1.750    3.000 
#    6.750    0.000    0.000    0.000    0.000    0.000 
#    0.000    0.000    0.000    0.000    0.000    0.000 
#
# Total GULP energy -89324.660510 kJ/mol
# GULP energy per Si atom -5582.791282 kJ/mol
# Density = 2.208600 g / cm^3
# Si number density = 22.136384 Si / 1000 Ang^3
#
#
#
# Elastic Constant Matrix: (Units=GPa)
#
#
# Indices 1 2 3 4 5 6 
#
# 1 123.2123 42.9909 23.8362 9.1074 -10.9454 -6.9987
# 2 42.9909 74.0130 29.8520 5.0019 -19.6865 -13.7329
# 3 23.8362 29.8520 133.7481 15.3703 -19.3294 -21.6514
# 4 9.1074 5.0019 15.3703 28.9870 -5.7369 -14.1617
# 5 -10.9454 -19.6865 -19.3294 -5.7369 31.2578 9.6618
# 6 -6.9987 -13.7329 -21.6514 -14.1617 9.6618 22.4961
#
#
#
# Elastic Compliance Matrix: (Units=1/GPa)
#
#
# Indices 1 2 3 4 5 6 
#
# 1 0.010478 -0.006284 -0.000635 -0.003534 -0.000317 -0.003276
# 2 -0.006284 0.021396 -0.001536 0.005344 0.008406 0.009382
# 3 -0.000635 -0.001536 0.009419 -0.000990 0.002531 0.006220
# 4 -0.003534 0.005344 -0.000990 0.051693 0.000658 0.033469
# 5 -0.000317 0.008406 0.002531 0.000658 0.042000 -0.010156
# 6 -0.003276 0.009382 0.006220 0.033469 -0.010156 0.080578
#
#
# Mechanical properties :
#
#
# Convention : Reuss Voigt Hill
#
# Bulk Modulus (GPa) = 41.01009 58.25906 49.63458
# Shear Modulus (GPa) = 20.78116 32.16779 26.47448
#
# Velocity S-wave (km/s) = 3.06727 3.81617 3.46203
# Velocity P-wave (km/s) = 5.57768 6.76705 6.20095
#
# Compressibility (1/GPa) = 0.02438424
#
# Stress axis : x y z
#
# Youngs Moduli (GPa) = 95.43455 46.73729 106.16636
#
# Poissons Ratio (x) = 0.29368 0.06740
# Poissons Ratio (y) = 0.59968 0.16309
# Poissons Ratio (z) = 0.06059 0.07180
#
# Static dielectric constant tensor:
#      x y z
#    x 1.844420 0.021680 0.007350 
#    y 0.021680 1.859870 0.015210 
#    z 0.007350 0.015210 1.832520 
# 
# From -- ./inp_files/205640.got.cif
#   From: 2010.05.17/outbox.cif.g08.bks.cpg/sg2_103_cif.got.tgz:205640.got - 2010.06.03 11:33:40.
