data_PCOD9107411
_publ_section_title
;
Structure prediction by ZEFSAII (Michael W. Deem and Ramdas Pophale) SiO2 
 PCOD9107411
Probable space group: P -1
;
_chemical_formula_sum "Si O2"
_cell_formula_units_Z 15
_cell_length_a 24.715734
_cell_length_b 13.972848
_cell_length_c 16.335555
_cell_angle_alpha 161.512968
_cell_angle_beta 23.968834
_cell_angle_gamma 161.042168
_cell_volume 573.355403
_symmetry_space_group_name_H-M "P -1"
_symmetry_group_IT_number 2
_symmetry_cell_setting 'triclinic'
loop_
_space_group_symop_operation_xyz
x,y,z
-x,-y,-z
loop_
_atom_site_type_symbol
_atom_site_label
_atom_site_fract_x
_atom_site_fract_y
_atom_site_fract_z
Si Si1 0.151370 0.877125 0.488432
Si Si2 0.759972 0.518075 0.478666
Si Si3 0.260175 0.850014 0.020634
Si Si4 0.582327 0.797857 0.743180
Si Si5 0.458366 0.065850 0.402900
Si Si6 0.103687 0.222043 0.118063
Si Si7 0.185185 0.700670 0.602481
Si Si8 0.000000 0.500000 0.000000
O O1 0.186440 0.649335 0.318350
O O2 0.044080 0.955751 0.754891
O O3 0.012525 0.593427 0.382007
O O4 0.318821 0.194946 0.465919
O O5 0.581163 0.280020 0.486271
O O6 0.760217 0.383068 0.458617
O O7 0.875792 0.474945 0.225792
O O8 0.813182 0.950291 0.764116
O O9 0.105585 0.428505 0.865554
O O10 0.289028 0.964090 0.166473
O O11 0.433397 0.991446 0.854232
O O12 0.451008 0.377253 0.620379
O O13 0.500000 0.000000 0.000000
O O14 0.285891 0.713080 0.394781
O O15 0.223987 0.111165 0.881885
O O16 0.000000 0.000000 0.000000
#
# Coordination Sequence:
#
# PCOD9107411 Si02
#       8
#     2   2   2   2   2   2   2   1
#     4  10  22  39  63  92 119 159 208 254 309 367
#     4  10  22  38  61  90 124 162 207 254 309 370
#     4  10  23  40  60  91 127 163 207 258 310 367
#     4  11  24  42  65  92 125 165 209 256 310 373
#     4  10  24  41  60  89 127 165 203 254 312 370
#     4   9  21  39  60  88 122 153 199 256 304 362
#     4  11  22  38  63  91 122 162 206 254 308 368
#     4  10  20  40  64  90 126 164 206 258 310 364
#
# _framework density 26.161784000000001
#
# number of rings (size 3 to 8) (size 9 to 14) (size 15 to 20)
#    0.000    1.867    0.000    2.400    0.000   16.000 
#    0.000    0.000    0.000    0.000    0.000    0.000 
#    0.000    0.000    0.000    0.000    0.000    0.000 
#
# Total GULP energy -83803.821782 kJ/mol
# GULP energy per Si atom -5586.921452 kJ/mol
# Density = 2.610224 g / cm^3
# Si number density = 26.161784 Si / 1000 Ang^3
#
#
#
# Elastic Constant Matrix: (Units=GPa)
#
#
# Indices 1 2 3 4 5 6 
#
# 1 157.5977 37.3792 43.6600 7.0410 -12.3998 -33.9042
# 2 37.3792 103.8697 30.4249 -14.8492 -8.7053 -10.8673
# 3 43.6600 30.4249 126.5029 -20.5779 -5.3580 -25.3512
# 4 7.0410 -14.8492 -20.5779 29.0776 -1.9409 8.3442
# 5 -12.3998 -8.7053 -5.3580 -1.9409 48.2878 -2.8962
# 6 -33.9042 -10.8673 -25.3512 8.3442 -2.8962 40.3392
#
#
#
# Elastic Compliance Matrix: (Units=1/GPa)
#
#
# Indices 1 2 3 4 5 6 
#
# 1 0.009844 -0.002995 -0.002286 -0.007627 0.001892 0.007744
# 2 -0.002995 0.011922 -0.000930 0.006582 0.001473 -0.001145
# 3 -0.002286 -0.000930 0.010705 0.006791 0.000899 0.003215
# 4 -0.007627 0.006582 0.006791 0.047383 0.001282 -0.010078
# 5 0.001892 0.001473 0.000899 0.001282 0.021843 0.003855
# 6 0.007744 -0.001145 0.003215 -0.010078 0.003855 0.035372
#
#
# Mechanical properties :
#
#
# Convention : Reuss Voigt Hill
#
# Bulk Modulus (GPa) = 49.87594 67.87762 58.87678
# Shear Modulus (GPa) = 32.01550 41.97468 36.99509
#
# Velocity S-wave (km/s) = 3.50201 4.00988 3.76452
# Velocity P-wave (km/s) = 5.95465 6.88770 6.43810
#
# Compressibility (1/GPa) = 0.02004975
#
# Stress axis : x y z
#
# Youngs Moduli (GPa) = 101.57986 83.87727 93.41593
#
# Poissons Ratio (x) = 0.25118 0.21354
# Poissons Ratio (y) = 0.30419 0.08691
# Poissons Ratio (z) = 0.23221 0.07803
#
# Static dielectric constant tensor:
#      x y z
#    x 1.629270 -0.536080 -0.315010 
#    y -0.536080 1.194210 -0.374010 
#    z -0.315010 -0.374010 1.799550 
# 
# From -- ./inp_files/53472.got.cif
#   From: 2010.05.17/outbox.cif.g08.bks.cpg/sg2_27_cif.got.tgz:53472.got - 2010.06.03 11:33:40.
