data_PCOD9107147
_publ_section_title
;
Structure prediction by ZEFSAII (Michael W. Deem and Ramdas Pophale) SiO2 
 PCOD9107147
Probable space group: P -1
;
_chemical_formula_sum "Si O2"
_cell_formula_units_Z 16
_cell_length_a 16.568961
_cell_length_b 9.179157
_cell_length_c 20.029326
_cell_angle_alpha 129.967826
_cell_angle_beta 19.399110
_cell_angle_gamma 121.950776
_cell_volume 739.411999
_symmetry_space_group_name_H-M "P -1"
_symmetry_group_IT_number 2
_symmetry_cell_setting 'triclinic'
loop_
_space_group_symop_operation_xyz
x,y,z
-x,-y,-z
loop_
_atom_site_type_symbol
_atom_site_label
_atom_site_fract_x
_atom_site_fract_y
_atom_site_fract_z
Si Si1 0.042222 0.855009 0.986540
Si Si2 0.825012 0.540741 0.018708
Si Si3 0.610151 0.699779 0.510126
Si Si4 0.223590 0.942396 0.484562
Si Si5 0.892934 0.926253 0.864615
Si Si6 0.553982 0.682464 0.698957
Si Si7 0.977335 0.184768 0.619277
Si Si8 0.319779 0.399538 0.005119
O O1 0.330564 0.703474 0.704989
O O2 0.839982 0.732320 0.104332
O O3 0.000000 0.000000 0.000000
O O4 0.026134 0.973264 0.103116
O O5 0.784087 0.588958 0.986578
O O6 0.107167 0.385405 0.765950
O O7 0.599967 0.452776 0.188816
O O8 0.623560 0.610704 0.547773
O O9 0.582649 0.935459 0.608971
O O10 0.086134 0.900710 0.645303
O O11 0.042771 0.089303 0.614514
O O12 0.388817 0.737701 0.262355
O O13 0.832260 0.724327 0.871296
O O14 0.638147 0.094259 0.089115
O O15 0.809010 0.710843 0.537748
O O16 0.724763 0.372281 0.871652
O O17 0.000000 0.000000 0.500000
#
# Coordination Sequence:
#
# PCOD9107147 Si02
#       8
#     2   2   2   2   2   2   2   2
#     4  11  22  40  61 102 140 184 242 282 317 389
#     4  12  22  40  67  98 136 188 234 272 338 397
#     4  10  20  40  63  88 141 180 222 283 325 392
#     4  11  22  45  69  97 138 183 221 276 351 409
#     4  11  22  42  69  96 143 185 225 280 337 400
#     4  10  21  43  68  93 133 181 219 278 354 398
#     4  11  25  49  76 103 135 171 227 291 347 427
#     4  12  23  43  72  98 139 185 221 278 357 404
#
# _framework density 21.638817
#
# number of rings (size 3 to 8) (size 9 to 14) (size 15 to 20)
#    0.000    1.000    8.750    0.375    1.750    2.500 
#    2.250    4.375    0.000    0.000    0.000    0.000 
#    0.000    0.000    0.000    0.000    0.000    0.000 
#
# Total GULP energy -89339.712866 kJ/mol
# GULP energy per Si atom -5583.732054 kJ/mol
# Density = 2.158957 g / cm^3
# Si number density = 21.638817 Si / 1000 Ang^3
#
#
#
# Elastic Constant Matrix: (Units=GPa)
#
#
# Indices 1 2 3 4 5 6 
#
# 1 26.9327 21.3434 8.4354 -4.7318 15.7322 -11.8035
# 2 21.3434 104.7844 57.9538 -5.3744 18.1746 -25.7372
# 3 8.4354 57.9538 69.9007 -5.6170 18.3050 -17.2249
# 4 -4.7318 -5.3744 -5.6170 47.1365 -3.7054 6.7174
# 5 15.7322 18.1746 18.3050 -3.7054 25.0767 1.8500
# 6 -11.8035 -25.7372 -17.2249 6.7174 1.8500 26.8817
#
#
#
# Elastic Compliance Matrix: (Units=1/GPa)
#
#
# Indices 1 2 3 4 5 6 
#
# 1 0.140988 -0.011177 0.045746 -0.003981 -0.120959 0.089837
# 2 -0.011177 0.021457 -0.015760 -0.001175 0.002374 0.005667
# 3 0.045746 -0.015760 0.044960 -0.001409 -0.053094 0.037813
# 4 -0.003981 -0.001175 -0.001409 0.022604 0.008456 -0.010006
# 5 -0.120959 0.002374 -0.053094 0.008456 0.161284 -0.098073
# 6 0.089837 0.005667 0.037813 -0.010006 -0.098073 0.115551
#
#
# Mechanical properties :
#
#
# Convention : Reuss Voigt Hill
#
# Bulk Modulus (GPa) = 4.08126 41.89810 22.98968
# Shear Modulus (GPa) = 9.07605 27.41132 18.24368
#
# Velocity S-wave (km/s) = 2.05023 3.56303 2.90677
# Velocity P-wave (km/s) = 2.73766 6.02755 4.68114
#
# Compressibility (1/GPa) = 0.24502252
#
# Stress axis : x y z
#
# Youngs Moduli (GPa) = 7.09282 46.60583 22.24175
#
# Poissons Ratio (x) = 0.52091 -1.01747
# Poissons Ratio (y) = 0.07928 0.35053
# Poissons Ratio (z) = -0.32447 0.73451
#
# Static dielectric constant tensor:
#      x y z
#    x 1.810410 0.034470 -0.000420 
#    y 0.034470 1.812940 0.019730 
#    z -0.000420 0.019730 1.901110 
# 
# From -- ./inp_files/599538.got.cif
#   From: 2010.05.17/outbox.cif.g08.bks.cpg/sg2_300_cif.got.tgz:599538.got - 2010.06.03 11:33:40.
