data_PCOD9107043
_publ_section_title
;
Structure prediction by ZEFSAII (Michael W. Deem and Ramdas Pophale) SiO2 
 PCOD9107043
Probable space group: P -1
;
_chemical_formula_sum "Si O2"
_cell_formula_units_Z 16
_cell_length_a 15.732440
_cell_length_b 12.661545
_cell_length_c 6.936500
_cell_angle_alpha 49.272011
_cell_angle_beta 48.402882
_cell_angle_gamma 53.657876
_cell_volume 751.423561
_symmetry_space_group_name_H-M "P -1"
_symmetry_group_IT_number 2
_symmetry_cell_setting 'triclinic'
loop_
_space_group_symop_operation_xyz
x,y,z
-x,-y,-z
loop_
_atom_site_type_symbol
_atom_site_label
_atom_site_fract_x
_atom_site_fract_y
_atom_site_fract_z
Si Si1 0.672303 0.002951 0.214597
Si Si2 0.430517 0.132338 0.811329
Si Si3 0.482917 0.579984 0.638709
Si Si4 0.776049 0.865950 0.618172
Si Si5 0.945401 0.555340 0.715939
Si Si6 0.666477 0.329437 0.897496
Si Si7 0.098429 0.077935 0.303834
Si Si8 0.898214 0.369842 0.308548
O O1 0.588997 0.931719 0.293241
O O2 0.699457 0.939754 0.464140
O O3 0.635397 0.178013 0.080900
O O4 0.798196 0.957786 0.966248
O O5 0.484309 0.267233 0.587428
O O6 0.302775 0.182226 0.044361
O O7 0.500000 0.000000 0.000000
O O8 0.500000 0.500000 0.500000
O O9 0.577331 0.462253 0.763129
O O10 0.358111 0.624219 0.894579
O O11 0.874022 0.721002 0.588215
O O12 0.840411 0.964345 0.528092
O O13 0.000000 0.500000 0.500000
O O14 0.058277 0.538863 0.703621
O O15 0.866095 0.466452 0.049651
O O16 0.795044 0.314754 0.627672
O O17 0.018446 0.243710 0.232566
O O18 0.000000 0.000000 0.500000
#
# Coordination Sequence:
#
# PCOD9107043 Si02
#       8
#     2   2   2   2   2   2   2   2
#     4  11  23  42  68  99 132 168 223 267 329 399
#     4  11  24  44  69  93 127 174 217 277 329 387
#     4  11  26  45  64  93 130 168 221 276 331 393
#     4  10  23  38  63  96 124 171 217 260 325 389
#     4  10  21  39  60  91 129 170 210 256 321 388
#     4  11  24  42  65  95 125 171 214 273 331 379
#     4  10  20  40  62  93 134 165 208 266 322 383
#     4  10  21  39  62  92 127 165 215 264 317 389
#
# _framework density 21.292918
#
# number of rings (size 3 to 8) (size 9 to 14) (size 15 to 20)
#    0.000    1.500    1.250    3.000    0.000   10.500 
#    2.250    0.000    0.000    0.000    0.000    0.000 
#    0.000    0.000    0.000    0.000    0.000    0.000 
#
# Total GULP energy -89223.074898 kJ/mol
# GULP energy per Si atom -5576.442181 kJ/mol
# Density = 2.124445 g / cm^3
# Si number density = 21.292918 Si / 1000 Ang^3
#
#
#
# Elastic Constant Matrix: (Units=GPa)
#
#
# Indices 1 2 3 4 5 6 
#
# 1 79.8405 25.7119 49.6855 -4.6408 12.4097 21.2480
# 2 25.7119 113.5599 60.2921 8.2730 5.5140 15.4341
# 3 49.6855 60.2921 114.8823 5.5762 10.8616 26.9610
# 4 -4.6408 8.2730 5.5762 47.8115 -2.8747 2.4778
# 5 12.4097 5.5140 10.8616 -2.8747 37.1069 4.9099
# 6 21.2480 15.4341 26.9610 2.4778 4.9099 36.4280
#
#
#
# Elastic Compliance Matrix: (Units=1/GPa)
#
#
# Indices 1 2 3 4 5 6 
#
# 1 0.018874 -0.000008 -0.006595 0.002702 -0.003397 -0.005850
# 2 -0.000008 0.012304 -0.006274 -0.001376 -0.000034 -0.000466
# 3 -0.006595 -0.006274 0.016250 -0.001236 -0.001013 -0.005301
# 4 0.002702 -0.001376 -0.001236 0.021747 0.001582 -0.001771
# 5 -0.003397 -0.000034 -0.001013 0.001582 0.028672 -0.001227
# 6 -0.005850 -0.000466 -0.005301 -0.001771 -0.001227 0.035270
#
#
# Mechanical properties :
#
#
# Convention : Reuss Voigt Hill
#
# Bulk Modulus (GPa) = 46.14416 64.40687 55.27552
# Shear Modulus (GPa) = 30.10292 35.77550 32.93921
#
# Velocity S-wave (km/s) = 3.76407 4.10342 3.93740
# Velocity P-wave (km/s) = 6.37253 7.26391 6.83277
#
# Compressibility (1/GPa) = 0.02167121
#
# Stress axis : x y z
#
# Youngs Moduli (GPa) = 52.98302 81.27185 61.53965
#
# Poissons Ratio (x) = 0.00069 0.40588
# Poissons Ratio (y) = 0.00045 0.38613
# Poissons Ratio (z) = 0.34945 0.50994
#
# Static dielectric constant tensor:
#      x y z
#    x 1.808790 0.042020 -0.021030 
#    y 0.042020 1.854970 0.020500 
#    z -0.021030 0.020500 1.818990 
# 
# From -- ./inp_files/94379.got.cif
#   From: 2010.05.17/outbox.cif.g08.bks.cpg/sg2_48_cif.got.tgz:94379.got - 2010.06.03 11:33:40.
