data_PCOD9107917
_publ_section_title
;
Structure prediction by ZEFSAII (Michael W. Deem and Ramdas Pophale) SiO2 
 PCOD9107917
Probable space group: P -1
;
_chemical_formula_sum "Si O2"
_cell_formula_units_Z 16
_cell_length_a 15.354044
_cell_length_b 11.945529
_cell_length_c 8.152324
_cell_angle_alpha 36.375305
_cell_angle_beta 129.724175
_cell_angle_gamma 128.802966
_cell_volume 661.141849
_symmetry_space_group_name_H-M "P -1"
_symmetry_group_IT_number 2
_symmetry_cell_setting 'triclinic'
loop_
_space_group_symop_operation_xyz
x,y,z
-x,-y,-z
loop_
_atom_site_type_symbol
_atom_site_label
_atom_site_fract_x
_atom_site_fract_y
_atom_site_fract_z
Si Si1 0.657022 0.083410 0.656130
Si Si2 0.079874 0.579812 0.759546
Si Si3 0.918012 0.215190 0.832555
Si Si4 0.489368 0.655508 0.665940
Si Si5 0.965838 0.067215 0.556773
Si Si6 0.303369 0.113970 0.564943
Si Si7 0.404583 0.309335 0.778879
Si Si8 0.342961 0.747532 0.909310
O O1 0.784499 0.178844 0.768715
O O2 0.564955 0.176976 0.527203
O O3 0.659778 0.144917 0.397224
O O4 0.626652 0.854129 0.924002
O O5 0.075069 0.698104 0.443810
O O6 0.216338 0.595664 0.944305
O O7 0.004046 0.367047 0.875198
O O8 0.028574 0.705304 0.682556
O O9 0.952770 0.011242 0.126117
O O10 0.614111 0.743596 0.630517
O O11 0.402344 0.521175 0.589076
O O12 0.500000 0.500000 0.000000
O O13 0.831508 0.955924 0.561703
O O14 0.000000 0.000000 0.500000
O O15 0.322061 0.219698 0.636384
O O16 0.348439 0.915347 0.852928
O O17 0.539001 0.324150 0.869594
#
# Coordination Sequence:
#
# PCOD9107917 Si02
#       8
#     2   2   2   2   2   2   2   2
#     4  11  23  41  64  98 127 167 216 261 321 375
#     4   9  22  41  65  96 118 166 222 263 318 369
#     4  10  22  41  68  90 126 167 214 270 310 375
#     4  12  25  41  66  97 130 166 212 265 317 383
#     4  11  24  43  64  93 132 168 214 262 320 377
#     4  11  25  42  63  97 130 174 211 259 324 381
#     4  12  23  41  64  91 135 170 208 259 318 383
#     4  10  20  40  66  90 129 168 209 264 317 379
#
# _framework density 24.200557
#
# number of rings (size 3 to 8) (size 9 to 14) (size 15 to 20)
#    0.000    1.250    2.500    3.000    1.750    3.500 
#    0.000    0.000    0.000    0.000    0.000    0.000 
#    0.000    0.000    0.000    0.000    0.000    0.000 
#
# Total GULP energy -89642.618203 kJ/mol
# GULP energy per Si atom -5602.663638 kJ/mol
# Density = 2.414548 g / cm^3
# Si number density = 24.200557 Si / 1000 Ang^3
#
#
#
# Elastic Constant Matrix: (Units=GPa)
#
#
# Indices 1 2 3 4 5 6 
#
# 1 70.4990 9.2223 4.9434 -11.4755 -1.4983 -1.6676
# 2 9.2223 112.8692 -1.9343 -10.3441 0.4365 -0.2264
# 3 4.9434 -1.9343 62.4968 -5.6411 -1.8001 5.9874
# 4 -11.4755 -10.3441 -5.6411 34.0653 1.0991 2.4084
# 5 -1.4983 0.4365 -1.8001 1.0991 27.4040 4.5338
# 6 -1.6676 -0.2264 5.9874 2.4084 4.5338 37.1110
#
#
#
# Elastic Compliance Matrix: (Units=1/GPa)
#
#
# Indices 1 2 3 4 5 6 
#
# 1 0.015131 -0.000824 -0.000829 0.004661 0.000526 0.000442
# 2 -0.000824 0.009179 0.000602 0.002632 -0.000221 -0.000222
# 3 -0.000829 0.000602 0.016678 0.002837 0.001437 -0.003084
# 4 0.004661 0.002632 0.002837 0.032372 -0.000524 -0.002269
# 5 0.000526 -0.000221 0.001437 -0.000524 0.037424 -0.004748
# 6 0.000442 -0.000222 -0.003084 -0.002269 -0.004748 0.028190
#
#
# Mechanical properties :
#
#
# Convention : Reuss Voigt Hill
#
# Bulk Modulus (GPa) = 25.71682 30.03643 27.87663
# Shear Modulus (GPa) = 32.45945 35.29162 33.87554
#
# Velocity S-wave (km/s) = 3.66631 3.82291 3.74543
# Velocity P-wave (km/s) = 5.34528 5.65019 5.49985
#
# Compressibility (1/GPa) = 0.03888505
#
# Stress axis : x y z
#
# Youngs Moduli (GPa) = 66.08966 108.94300 59.95951
#
# Poissons Ratio (x) = 0.08982 0.04969
# Poissons Ratio (y) = 0.05449 -0.03608
# Poissons Ratio (z) = 0.05477 -0.06556
#
# Static dielectric constant tensor:
#      x y z
#    x 1.914880 -0.034280 -0.027990 
#    y -0.034280 1.933010 0.029050 
#    z -0.027990 0.029050 1.958820 
# 
# From -- ./inp_files/270807.got.cif
#   From: 2010.05.17/outbox.cif.g08.bks.cpg/sg2_136_cif.got.tgz:270807.got - 2010.06.03 11:33:40.
