data_PCOD9107965
_publ_section_title
;
Structure prediction by ZEFSAII (Michael W. Deem and Ramdas Pophale) SiO2 
 PCOD9107965
Probable space group: P -1
;
_chemical_formula_sum "Si O2"
_cell_formula_units_Z 14
_cell_length_a 15.958917
_cell_length_b 5.345373
_cell_length_c 18.227864
_cell_angle_alpha 83.955414
_cell_angle_beta 155.909209
_cell_angle_gamma 106.880087
_cell_volume 554.221483
_symmetry_space_group_name_H-M "P -1"
_symmetry_group_IT_number 2
_symmetry_cell_setting 'triclinic'
loop_
_space_group_symop_operation_xyz
x,y,z
-x,-y,-z
loop_
_atom_site_type_symbol
_atom_site_label
_atom_site_fract_x
_atom_site_fract_y
_atom_site_fract_z
Si Si1 0.478417 0.854369 0.665384
Si Si2 0.148050 0.122607 0.771578
Si Si3 0.309707 0.358418 0.643661
Si Si4 0.501257 0.243313 0.935495
Si Si5 0.079275 0.884362 0.266209
Si Si6 0.274588 0.729653 0.029170
Si Si7 0.621421 0.807149 0.625038
O O1 0.291501 0.605709 0.577250
O O2 0.323071 0.985382 0.500744
O O3 0.588099 0.773383 0.686453
O O4 0.681941 0.064909 0.875270
O O5 0.324546 0.060017 0.863823
O O6 0.080884 0.051932 0.806826
O O7 0.279108 0.469004 0.867633
O O8 0.903297 0.943767 0.540044
O O9 0.348494 0.363361 0.761713
O O10 0.560630 0.412437 0.812783
O O11 0.584590 0.120715 0.937690
O O12 0.131064 0.028743 0.223786
O O13 0.969669 0.542362 0.176612
O O14 0.500000 0.500000 0.500000
O O15 0.500000 0.000000 0.500000
#
# Coordination Sequence:
#
# PCOD9107965 Si02
#       7
#     2   2   2   2   2   2   2
#     4  11  22  38  62  85 122 156 200 258 311 361
#     4  10  16  35  62  79 118 160 195 247 314 358
#     4  10  20  34  59  84 116 152 198 247 301 368
#     4   8  19  33  57  88 113 155 201 248 300 379
#     4  10  20  40  61  86 121 161 202 251 309 367
#     4   9  21  38  57  87 122 151 204 245 306 372
#     4  10  23  41  66  95 124 165 216 256 313 381
#
# _framework density 25.260659
#
# number of rings (size 3 to 8) (size 9 to 14) (size 15 to 20)
#    0.857    1.429    1.429    1.286    2.000    1.714 
#    5.143    3.571    0.000    5.143    0.000    0.000 
#    0.000    0.000    0.000    0.000    0.000    0.000 
#
# Total GULP energy -78036.814870 kJ/mol
# GULP energy per Si atom -5574.058205 kJ/mol
# Density = 2.520317 g / cm^3
# Si number density = 25.260659 Si / 1000 Ang^3
#
#
#
# Elastic Constant Matrix: (Units=GPa)
#
#
# Indices 1 2 3 4 5 6 
#
# 1 221.2117 40.4124 47.1033 8.4423 -8.0277 0.8679
# 2 40.4124 49.1599 18.6379 7.0934 -7.5783 3.3536
# 3 47.1033 18.6379 107.0609 13.0294 -22.1643 0.6951
# 4 8.4423 7.0934 13.0294 30.6678 -7.8779 -0.3472
# 5 -8.0277 -7.5783 -22.1643 -7.8779 49.4009 0.1578
# 6 0.8679 3.3536 0.6951 -0.3472 0.1578 47.3535
#
#
#
# Elastic Compliance Matrix: (Units=1/GPa)
#
#
# Indices 1 2 3 4 5 6 
#
# 1 0.005637 -0.004019 -0.001901 0.000047 -0.000546 0.000211
# 2 -0.004019 0.025239 -0.001803 -0.003508 0.001856 -0.001719
# 3 -0.001901 -0.001803 0.011721 -0.002961 0.004201 -0.000045
# 4 0.000047 -0.003508 -0.002961 0.035652 0.003825 0.000540
# 5 -0.000546 0.001856 0.004201 0.003825 0.022934 -0.000231
# 6 0.000211 -0.001719 -0.000045 0.000540 -0.000231 0.021241
#
#
# Mechanical properties :
#
#
# Convention : Reuss Voigt Hill
#
# Bulk Modulus (GPa) = 36.83100 65.52662 51.17881
# Shear Modulus (GPa) = 34.03207 43.56971 38.80089
#
# Velocity S-wave (km/s) = 3.67445 4.15758 3.92346
# Velocity P-wave (km/s) = 5.71088 7.00313 6.38976
#
# Compressibility (1/GPa) = 0.02715104
#
# Stress axis : x y z
#
# Youngs Moduli (GPa) = 177.39925 39.62168 85.31652
#
# Poissons Ratio (x) = 0.15923 0.16216
# Poissons Ratio (y) = 0.71294 0.15385
# Poissons Ratio (z) = 0.33719 0.07145
#
# Static dielectric constant tensor:
#      x y z
#    x 2.015600 -0.031090 0.047340 
#    y -0.031090 2.192520 -0.098540 
#    z 0.047340 -0.098540 1.929290 
# 
# From -- ./inp_files/598819.got.cif
#   From: 2010.05.17/outbox.cif.g08.bks.cpg/sg2_300_cif.got.tgz:598819.got - 2010.06.03 11:33:40.
