data_PCOD9107650
_publ_section_title
;
Structure prediction by ZEFSAII (Michael W. Deem and Ramdas Pophale) SiO2 
 PCOD9107650
Probable space group: P -1
;
_chemical_formula_sum "Si O2"
_cell_formula_units_Z 16
_cell_length_a 10.536266
_cell_length_b 14.483890
_cell_length_c 10.572740
_cell_angle_alpha 42.917098
_cell_angle_beta 62.952455
_cell_angle_gamma 43.304118
_cell_volume 742.905513
_symmetry_space_group_name_H-M "P -1"
_symmetry_group_IT_number 2
_symmetry_cell_setting 'triclinic'
loop_
_space_group_symop_operation_xyz
x,y,z
-x,-y,-z
loop_
_atom_site_type_symbol
_atom_site_label
_atom_site_fract_x
_atom_site_fract_y
_atom_site_fract_z
Si Si1 0.196522 0.407323 0.930745
Si Si2 0.294230 0.998781 0.601549
Si Si3 0.292534 0.290524 0.261907
Si Si4 0.247707 0.758460 0.252323
Si Si5 0.864217 0.889791 0.176096
Si Si6 0.342080 0.601643 0.633146
Si Si7 0.881093 0.146849 0.296998
Si Si8 0.043478 0.307958 0.916946
O O1 0.223163 0.537470 0.728563
O O2 0.204126 0.285531 0.946243
O O3 0.336484 0.320051 0.072853
O O4 0.000000 0.500000 0.000000
O O5 0.225629 0.176928 0.384494
O O6 0.272448 0.053779 0.702340
O O7 0.509563 0.839221 0.627688
O O8 0.182511 0.931254 0.691318
O O9 0.136056 0.479631 0.208673
O O10 0.275925 0.740185 0.409848
O O11 0.439347 0.570472 0.305330
O O12 0.065665 0.791850 0.249960
O O13 0.213811 0.928680 0.041648
O O14 0.893358 0.761547 0.183245
O O15 0.290733 0.686143 0.710674
O O16 0.981806 0.207610 0.117108
O O17 0.000000 0.000000 0.500000
#
# Coordination Sequence:
#
# PCOD9107650 Si02
#       8
#     2   2   2   2   2   2   2   2
#     4  10  20  40  65  90 124 166 213 271 318 380
#     4  11  25  41  67  93 137 170 214 276 324 384
#     4  10  23  44  62  98 129 169 219 268 332 385
#     4  10  24  41  63  95 136 171 211 276 333 383
#     4  11  23  43  63  93 136 173 213 270 331 390
#     4  11  22  42  66  95 132 171 223 270 327 389
#     4  12  23  38  69  98 123 171 224 273 316 388
#     4  11  24  39  67  96 126 171 223 257 331 393
#
# _framework density 21.537058999999999
#
# number of rings (size 3 to 8) (size 9 to 14) (size 15 to 20)
#    0.000    1.250    2.500    4.500    7.000    1.000 
#    0.000    3.750    0.000    0.000    0.000    0.000 
#    0.000    0.000    0.000    0.000    0.000    0.000 
#
# Total GULP energy -89344.003153 kJ/mol
# GULP energy per Si atom -5584.000197 kJ/mol
# Density = 2.148804 g / cm^3
# Si number density = 21.537059 Si / 1000 Ang^3
#
#
#
# Elastic Constant Matrix: (Units=GPa)
#
#
# Indices 1 2 3 4 5 6 
#
# 1 42.8645 21.4847 12.3912 -11.3802 -3.3319 10.4434
# 2 21.4847 107.1086 13.6686 -1.3447 9.8002 21.2926
# 3 12.3912 13.6686 88.4607 -9.7836 1.9037 -3.1546
# 4 -11.3802 -1.3447 -9.7836 34.3514 0.3242 6.0720
# 5 -3.3319 9.8002 1.9037 0.3242 31.1483 -2.8973
# 6 10.4434 21.2926 -3.1546 6.0720 -2.8973 44.9331
#
#
#
# Elastic Compliance Matrix: (Units=1/GPa)
#
#
# Indices 1 2 3 4 5 6 
#
# 1 0.031237 -0.004940 -0.002776 0.010426 0.004376 -0.006241
# 2 -0.004940 0.011853 -0.001282 -0.000652 -0.004616 -0.004768
# 3 -0.002776 -0.001282 0.012209 0.002197 -0.000497 0.001781
# 4 0.010426 -0.000652 0.002197 0.034327 0.000216 -0.006585
# 5 0.004376 -0.004616 -0.000497 0.000216 0.034362 0.003322
# 6 -0.006241 -0.004768 0.001781 -0.006585 0.003322 0.027194
#
#
# Mechanical properties :
#
#
# Convention : Reuss Voigt Hill
#
# Bulk Modulus (GPa) = 26.80852 37.05808 31.93330
# Shear Modulus (GPa) = 27.53116 34.81255 31.17186
#
# Velocity S-wave (km/s) = 3.57923 4.02481 3.80854
# Velocity P-wave (km/s) = 5.43653 6.23240 5.84802
#
# Compressibility (1/GPa) = 0.03730157
#
# Stress axis : x y z
#
# Youngs Moduli (GPa) = 32.01367 84.36681 81.90948
#
# Poissons Ratio (x) = 0.41681 0.22736
# Poissons Ratio (y) = 0.15816 0.10502
# Poissons Ratio (z) = 0.08886 0.10817
#
# Static dielectric constant tensor:
#      x y z
#    x 1.812130 -0.012630 0.039520 
#    y -0.012630 1.791900 -0.011160 
#    z 0.039520 -0.011160 1.810140 
# 
# From -- ./inp_files/433708.got.cif
#   From: 2010.05.17/outbox.cif.g08.bks.cpg/sg2_217_cif.got.tgz:433708.got - 2010.06.03 11:33:40.
