data_PCOD9107804
_publ_section_title
;
Structure prediction by ZEFSAII (Michael W. Deem and Ramdas Pophale) SiO2 
 PCOD9107804
Probable space group: P -1
;
_chemical_formula_sum "Si O2"
_cell_formula_units_Z 16
_cell_length_a 28.525053
_cell_length_b 5.479856
_cell_length_c 5.068203
_cell_angle_alpha 86.097677
_cell_angle_beta 126.498345
_cell_angle_gamma 96.344499
_cell_volume 632.947554
_symmetry_space_group_name_H-M "P -1"
_symmetry_group_IT_number 2
_symmetry_cell_setting 'triclinic'
loop_
_space_group_symop_operation_xyz
x,y,z
-x,-y,-z
loop_
_atom_site_type_symbol
_atom_site_label
_atom_site_fract_x
_atom_site_fract_y
_atom_site_fract_z
Si Si1 0.591862 0.056565 0.373738
Si Si2 0.679950 0.215521 0.269093
Si Si3 0.182233 0.751018 0.200601
Si Si4 0.625141 0.692244 0.878327
Si Si5 0.012372 0.713782 0.312149
Si Si6 0.904705 0.883480 0.127311
Si Si7 0.490033 0.283114 0.199186
Si Si8 0.877630 0.459458 0.494776
O O1 0.645130 0.227056 0.426836
O O2 0.554365 0.187061 0.457238
O O3 0.545440 0.970710 0.000731
O O4 0.615528 0.798784 0.549945
O O5 0.748875 0.226777 0.537699
O O6 0.661939 0.459625 0.044110
O O7 0.656915 0.945393 0.096230
O O8 0.153401 0.545551 0.324658
O O9 0.163357 0.711642 0.834252
O O10 0.151359 0.991070 0.169497
O O11 0.557901 0.633739 0.761682
O O12 0.057089 0.633802 0.247133
O O13 0.000000 0.500000 0.500000
O O14 0.948402 0.804749 0.048170
O O15 0.053032 0.915349 0.591931
O O16 0.886646 0.691132 0.312435
O O17 0.500000 0.500000 0.000000
#
# Coordination Sequence:
#
# PCOD9107804 Si02
#       8
#     2   2   2   2   2   2   2   2
#     4  10  23  41  66  96 134 173 218 282 345 409
#     4  11  27  44  64  97 132 176 235 280 336 417
#     4  11  26  43  66  96 133 180 232 282 341 412
#     4  11  25  43  68  97 130 179 224 279 350 404
#     4   8  16  37  65  99 131 172 219 280 345 415
#     4   9  19  39  67  95 136 174 221 282 348 408
#     4  10  20  40  65  98 135 165 222 278 341 420
#     4  10  23  42  66  98 132 173 229 282 347 411
#
# _framework density 25.278555000000001
#
# number of rings (size 3 to 8) (size 9 to 14) (size 15 to 20)
#    0.000    2.000    1.250    0.375    5.250    4.000 
#    0.000   21.250    0.000    0.000    0.000    0.000 
#    0.000    0.000    0.000    0.000    0.000    0.000 
#
# Total GULP energy -89365.228183 kJ/mol
# GULP energy per Si atom -5585.326761 kJ/mol
# Density = 2.522102 g / cm^3
# Si number density = 25.278555 Si / 1000 Ang^3
#
#
#
# Elastic Constant Matrix: (Units=GPa)
#
#
# Indices 1 2 3 4 5 6 
#
# 1 117.4816 32.5497 70.8625 -3.1493 32.2574 4.3672
# 2 32.5497 114.7617 39.7973 -19.0513 17.5769 -6.3429
# 3 70.8625 39.7973 105.4340 -22.6052 34.3453 -0.7482
# 4 -3.1493 -19.0513 -22.6052 40.4196 -6.6850 -1.8194
# 5 32.2574 17.5769 34.3453 -6.6850 64.8913 -1.9316
# 6 4.3672 -6.3429 -0.7482 -1.8194 -1.9316 42.7267
#
#
#
# Elastic Compliance Matrix: (Units=1/GPa)
#
#
# Indices 1 2 3 4 5 6 
#
# 1 0.015986 -0.001587 -0.010596 -0.005967 -0.002595 -0.002426
# 2 -0.001587 0.010661 -0.001922 0.003804 -0.000635 0.001844
# 3 -0.010596 -0.001922 0.020671 0.009202 -0.004164 0.001363
# 4 -0.005967 0.003804 0.009202 0.031399 0.000380 0.002690
# 5 -0.002595 -0.000635 -0.004164 0.000380 0.019145 0.000980
# 6 -0.002426 0.001844 0.001363 0.002690 0.000980 0.024109
#
#
# Mechanical properties :
#
#
# Convention : Reuss Voigt Hill
#
# Bulk Modulus (GPa) = 52.33557 69.34406 60.83981
# Shear Modulus (GPa) = 31.93862 42.57204 37.25533
#
# Velocity S-wave (km/s) = 3.55838 4.10825 3.84316
# Velocity P-wave (km/s) = 6.13443 7.07073 6.61916
#
# Compressibility (1/GPa) = 0.01910747
#
# Stress axis : x y z
#
# Youngs Moduli (GPa) = 62.55484 93.79961 48.37693
#
# Poissons Ratio (x) = 0.14882 0.51262
# Poissons Ratio (y) = 0.09925 0.09299
# Poissons Ratio (z) = 0.66286 0.18031
#
# Static dielectric constant tensor:
#      x y z
#    x 2.034660 -0.110510 -0.093820 
#    y -0.110510 2.146510 0.080990 
#    z -0.093820 0.080990 2.050610 
# 
# From -- ./inp_files/13160.got.cif
#   From: 2010.05.17/outbox.cif.g08.bks.cpg/sg2_7_cif.got.tgz:13160.got - 2010.06.03 11:33:40.
