data_PCOD9107450
_publ_section_title
;
Structure prediction by ZEFSAII (Michael W. Deem and Ramdas Pophale) SiO2 
 PCOD9107450
Probable space group: P -1
;
_chemical_formula_sum "Si O2"
_cell_formula_units_Z 15
_cell_length_a 11.830642
_cell_length_b 11.427121
_cell_length_c 6.710025
_cell_angle_alpha 100.140291
_cell_angle_beta 131.937402
_cell_angle_gamma 75.180499
_cell_volume 652.328800
_symmetry_space_group_name_H-M "P -1"
_symmetry_group_IT_number 2
_symmetry_cell_setting 'triclinic'
loop_
_space_group_symop_operation_xyz
x,y,z
-x,-y,-z
loop_
_atom_site_type_symbol
_atom_site_label
_atom_site_fract_x
_atom_site_fract_y
_atom_site_fract_z
Si Si1 0.000000 0.000000 0.000000
Si Si2 0.649225 0.326334 0.514254
Si Si3 0.562909 0.915323 0.234881
Si Si4 0.891002 0.621355 0.827850
Si Si5 0.682589 0.547321 0.842323
Si Si6 0.037465 0.802572 0.312332
Si Si7 0.838020 0.706104 0.360870
Si Si8 0.330539 0.899103 0.288672
O O1 0.851040 0.093735 0.937647
O O2 0.969260 0.067502 0.757298
O O3 0.711296 0.405781 0.783758
O O4 0.493071 0.410602 0.279594
O O5 0.597944 0.211763 0.520724
O O6 0.788053 0.275057 0.513533
O O7 0.681882 0.799845 0.262594
O O8 0.416279 0.890252 0.178072
O O9 0.651563 0.981412 0.527457
O O10 0.500000 0.000000 0.000000
O O11 0.719759 0.606976 0.692174
O O12 0.904982 0.639569 0.618116
O O13 0.937502 0.737505 0.019684
O O14 0.000000 0.500000 0.000000
O O15 0.793220 0.603263 0.134992
O O16 0.952493 0.782217 0.411066
#
# Coordination Sequence:
#
# PCOD9107450 Si02
#       8
#     1   2   2   2   2   2   2   2
#     4  10  20  40  64  92 130 166 206 266 324 376
#     4  10  20  42  62  91 131 170 205 263 329 375
#     4  11  22  41  65  96 124 167 217 264 315 385
#     4  11  22  43  66  89 125 173 221 268 318 377
#     4  10  22  41  65  90 130 165 216 266 317 387
#     4  10  22  41  64  94 130 172 214 268 323 387
#     4  11  24  40  68  98 126 171 224 265 320 388
#     4  10  22  40  66  86 127 169 208 259 319 381
#
# _framework density 22.994541000000002
#
# number of rings (size 3 to 8) (size 9 to 14) (size 15 to 20)
#    0.000    1.600    1.333    3.200    0.000    6.400 
#    0.000   27.333    0.000    0.000    0.000    0.000 
#    0.000    0.000    0.000    0.000    0.000    0.000 
#
# Total GULP energy -83553.507806 kJ/mol
# GULP energy per Si atom -5570.233854 kJ/mol
# Density = 2.294220 g / cm^3
# Si number density = 22.994541 Si / 1000 Ang^3
#
#
#
# Elastic Constant Matrix: (Units=GPa)
#
#
# Indices 1 2 3 4 5 6 
#
# 1 124.1116 21.5751 33.9708 -14.0142 -26.5317 0.0414
# 2 21.5751 47.8926 15.8614 -7.6788 -2.4986 -14.7961
# 3 33.9708 15.8614 64.4359 -17.6410 -22.3306 2.0930
# 4 -14.0142 -7.6788 -17.6410 31.6067 2.4554 4.9241
# 5 -26.5317 -2.4986 -22.3306 2.4554 31.0386 -6.6374
# 6 0.0414 -14.7961 2.0930 4.9241 -6.6374 35.9443
#
#
#
# Elastic Compliance Matrix: (Units=1/GPa)
#
#
# Indices 1 2 3 4 5 6 
#
# 1 0.011090 -0.003808 -0.001464 0.002631 0.007823 -0.000411
# 2 -0.003808 0.028039 -0.006330 0.000070 -0.003135 0.011326
# 3 -0.001464 -0.006330 0.026724 0.011938 0.015910 -0.002857
# 4 0.002631 0.000070 0.011938 0.039729 0.006656 -0.004883
# 5 0.007823 -0.003135 0.015910 0.006656 0.050912 0.006264
# 6 -0.000411 0.011326 -0.002857 -0.004883 0.006264 0.034476
#
#
# Mechanical properties :
#
#
# Convention : Reuss Voigt Hill
#
# Bulk Modulus (GPa) = 23.44731 42.13941 32.79336
# Shear Modulus (GPa) = 21.89246 30.72009 26.30628
#
# Velocity S-wave (km/s) = 3.08891 3.65906 3.38601
# Velocity P-wave (km/s) = 4.78967 6.01808 5.43867
#
# Compressibility (1/GPa) = 0.04264882
#
# Stress axis : x y z
#
# Youngs Moduli (GPa) = 90.17441 35.66522 37.41916
#
# Poissons Ratio (x) = 0.13580 0.05480
# Poissons Ratio (y) = 0.34336 0.23685
# Poissons Ratio (z) = 0.13205 0.22575
#
# Static dielectric constant tensor:
#      x y z
#    x 1.920500 0.040910 0.036580 
#    y 0.040910 1.869030 0.036620 
#    z 0.036580 0.036620 1.888450 
# 
# From -- ./inp_files/70842.got.cif
#   From: 2010.05.17/outbox.cif.g08.bks.cpg/sg2_36_cif.got.tgz:70842.got - 2010.06.03 11:33:40.
