data_PCOD9107172
_publ_section_title
;
Structure prediction by ZEFSAII (Michael W. Deem and Ramdas Pophale) SiO2 
 PCOD9107172
Probable space group: P -1
;
_chemical_formula_sum "Si O2"
_cell_formula_units_Z 16
_cell_length_a 15.093210
_cell_length_b 12.722373
_cell_length_c 8.188463
_cell_angle_alpha 103.713708
_cell_angle_beta 130.174257
_cell_angle_gamma 39.419030
_cell_volume 642.803542
_symmetry_space_group_name_H-M "P -1"
_symmetry_group_IT_number 2
_symmetry_cell_setting 'triclinic'
loop_
_space_group_symop_operation_xyz
x,y,z
-x,-y,-z
loop_
_atom_site_type_symbol
_atom_site_label
_atom_site_fract_x
_atom_site_fract_y
_atom_site_fract_z
Si Si1 0.634028 0.142209 0.891227
Si Si2 0.235349 0.350132 0.360728
Si Si3 0.990792 0.241446 0.371285
Si Si4 0.729702 0.162401 0.370650
Si Si5 0.135851 0.327777 0.730973
Si Si6 0.162242 0.156540 0.224520
Si Si7 0.639127 0.458567 0.276367
Si Si8 0.437856 0.243239 0.242902
O O1 0.437296 0.211383 0.668955
O O2 0.519281 0.336943 0.745993
O O3 0.822409 0.938036 0.942867
O O4 0.700205 0.133810 0.143814
O O5 0.207035 0.244514 0.262698
O O6 0.274981 0.379905 0.248797
O O7 0.022743 0.557579 0.264221
O O8 0.162837 0.188055 0.637541
O O9 0.973315 0.292164 0.181302
O O10 0.795149 0.401610 0.320202
O O11 0.068814 0.057346 0.399932
O O12 0.750138 0.275521 0.438284
O O13 0.528482 0.278345 0.276226
O O14 0.000000 0.500000 0.500000
O O15 0.335761 0.240035 0.991487
O O16 0.363598 0.963063 0.501802
O O17 0.500000 0.500000 0.000000
#
# Coordination Sequence:
#
# PCOD9107172 Si02
#       8
#     2   2   2   2   2   2   2   2
#     4  10  20  40  63  90 121 165 206 247 312 359
#     4  11  21  39  59  92 134 162 198 252 308 377
#     4  11  23  40  63  91 123 159 211 251 310 362
#     4  10  23  39  66  87 122 164 209 256 295 368
#     4  12  23  37  62  92 129 167 202 252 306 376
#     4  10  23  39  62  93 134 157 196 258 309 376
#     4  10  22  42  67  86 117 163 213 256 302 361
#     4  10  23  38  58  94 125 162 203 246 311 363
#
# _framework density 24.890964
#
# number of rings (size 3 to 8) (size 9 to 14) (size 15 to 20)
#    0.000    1.500    2.500    3.000    5.250    1.000 
#    0.000    8.125    0.000    0.000    0.000    0.000 
#    0.000    0.000    0.000    0.000    0.000    0.000 
#
# Total GULP energy -89451.821137 kJ/mol
# GULP energy per Si atom -5590.738821 kJ/mol
# Density = 2.483431 g / cm^3
# Si number density = 24.890964 Si / 1000 Ang^3
#
#
#
# Elastic Constant Matrix: (Units=GPa)
#
#
# Indices 1 2 3 4 5 6 
#
# 1 132.5848 46.2660 14.9212 17.3990 -9.5753 -11.2026
# 2 46.2660 118.1538 -16.2030 28.0376 -5.8213 6.5776
# 3 14.9212 -16.2030 65.5372 5.9909 0.2087 2.7085
# 4 17.3990 28.0376 5.9909 29.4829 -1.2472 1.4788
# 5 -9.5753 -5.8213 0.2087 -1.2472 33.1127 -5.5556
# 6 -11.2026 6.5776 2.7085 1.4788 -5.5556 43.3249
#
#
#
# Elastic Compliance Matrix: (Units=1/GPa)
#
#
# Indices 1 2 3 4 5 6 
#
# 1 0.010081 -0.004156 -0.003364 -0.001388 0.002800 0.003855
# 2 -0.004156 0.013794 0.005546 -0.011628 0.000232 -0.003089
# 3 -0.003364 0.005546 0.018139 -0.006874 -0.000827 -0.002717
# 4 -0.001388 -0.011628 -0.006874 0.047159 -0.000601 0.000149
# 5 0.002800 0.000232 -0.000827 -0.000601 0.031846 0.004845
# 6 0.003855 -0.003089 -0.002717 0.000149 0.004845 0.025333
#
#
# Mechanical properties :
#
#
# Convention : Reuss Voigt Hill
#
# Bulk Modulus (GPa) = 26.26947 45.13825 35.70386
# Shear Modulus (GPa) = 30.67699 39.27020 34.97360
#
# Velocity S-wave (km/s) = 3.51444 3.97632 3.75250
# Velocity P-wave (km/s) = 5.20049 6.26540 5.75762
#
# Compressibility (1/GPa) = 0.03806700
#
# Stress axis : x y z
#
# Youngs Moduli (GPa) = 99.19329 72.49445 55.12983
#
# Poissons Ratio (x) = 0.30129 0.18546
# Poissons Ratio (y) = 0.41226 -0.30578
# Poissons Ratio (z) = 0.33370 -0.40209
#
# Static dielectric constant tensor:
#      x y z
#    x 2.080990 -0.000400 -0.037210 
#    y -0.000400 2.048040 -0.055280 
#    z -0.037210 -0.055280 1.998160 
# 
# From -- ./inp_files/200962.got.cif
#   From: 2010.05.17/outbox.cif.g08.bks.cpg/sg2_101_cif.got.tgz:200962.got - 2010.06.03 11:33:40.
