data_PCOD9107149
_publ_section_title
;
Structure prediction by ZEFSAII (Michael W. Deem and Ramdas Pophale) SiO2 
 PCOD9107149
Probable space group: P -1
;
_chemical_formula_sum "Si O2"
_cell_formula_units_Z 14
_cell_length_a 9.257256
_cell_length_b 14.649767
_cell_length_c 17.633604
_cell_angle_alpha 158.779096
_cell_angle_beta 126.319305
_cell_angle_gamma 54.422336
_cell_volume 693.821995
_symmetry_space_group_name_H-M "P -1"
_symmetry_group_IT_number 2
_symmetry_cell_setting 'triclinic'
loop_
_space_group_symop_operation_xyz
x,y,z
-x,-y,-z
loop_
_atom_site_type_symbol
_atom_site_label
_atom_site_fract_x
_atom_site_fract_y
_atom_site_fract_z
Si Si1 0.338093 0.658466 0.715093
Si Si2 0.656957 0.403099 0.164099
Si Si3 0.647506 0.182449 0.561870
Si Si4 0.703517 0.902984 0.062738
Si Si5 0.670748 0.630595 0.187150
Si Si6 0.527944 0.865510 0.694074
Si Si7 0.976514 0.465688 0.877241
O O1 0.261520 0.588200 0.719115
O O2 0.358683 0.407530 0.475882
O O3 0.240781 0.905255 0.835650
O O4 0.540986 0.744267 0.859323
O O5 0.462492 0.570924 0.243378
O O6 0.732746 0.519776 0.202669
O O7 0.638629 0.108574 0.916842
O O8 0.564793 0.141105 0.421696
O O9 0.850584 0.239166 0.655834
O O10 0.627184 0.933292 0.411075
O O11 0.614125 0.076049 0.237254
O O12 0.863478 0.709678 0.993706
O O13 0.833413 0.582896 0.141869
O O14 0.500000 0.500000 0.000000
O O15 0.000000 0.500000 0.000000
#
# Coordination Sequence:
#
# PCOD9107149 Si02
#       7
#     2   2   2   2   2   2   2
#     4   9  19  34  63  87 122 155 204 251 299 357
#     4  10  20  37  60  90 119 160 204 250 298 367
#     4  11  21  41  62  88 124 157 205 255 302 355
#     4  10  19  36  58  93 119 158 201 252 302 354
#     4  12  24  38  62  89 123 170 201 242 315 364
#     4  10  16  34  63  88 121 151 205 247 301 352
#     4  12  24  41  62  93 127 157 205 258 295 365
#
# _framework density 20.178087999999999
#
# number of rings (size 3 to 8) (size 9 to 14) (size 15 to 20)
#    0.000    1.429    5.714    3.000    0.000    0.000 
#    0.000    0.714    0.000    0.857    0.000    0.000 
#    0.000    0.000    0.000    0.000    0.000    0.000 
#
# Total GULP energy -78140.404339 kJ/mol
# GULP energy per Si atom -5581.457453 kJ/mol
# Density = 2.013216 g / cm^3
# Si number density = 20.178088 Si / 1000 Ang^3
#
#
#
# Elastic Constant Matrix: (Units=GPa)
#
#
# Indices 1 2 3 4 5 6 
#
# 1 83.6385 8.6807 18.8704 5.1862 0.4382 16.6250
# 2 8.6807 80.7010 23.3539 30.2828 8.2667 16.8945
# 3 18.8704 23.3539 108.9910 27.1849 -2.7556 -0.8457
# 4 5.1862 30.2828 27.1849 29.6178 10.0948 8.5077
# 5 0.4382 8.2667 -2.7556 10.0948 23.3451 4.3467
# 6 16.6250 16.8945 -0.8457 8.5077 4.3467 32.0908
#
#
#
# Elastic Compliance Matrix: (Units=1/GPa)
#
#
# Indices 1 2 3 4 5 6 
#
# 1 0.014130 0.000077 -0.003271 0.002943 -0.000430 -0.008168
# 2 0.000077 0.021274 0.000974 -0.022090 0.003211 -0.005793
# 3 -0.003271 0.000974 0.014185 -0.017674 0.008075 0.005147
# 4 0.002943 -0.022090 -0.017674 0.084555 -0.029241 -0.008817
# 5 -0.000430 0.003211 0.008075 -0.029241 0.055494 -0.001019
# 6 -0.008168 -0.005793 0.005147 -0.008817 -0.001019 0.041054
#
#
# Mechanical properties :
#
#
# Convention : Reuss Voigt Hill
#
# Bulk Modulus (GPa) = 22.14928 41.68227 31.91577
# Shear Modulus (GPa) = 19.98547 31.83912 25.91229
#
# Velocity S-wave (km/s) = 3.15056 3.97660 3.58743
# Velocity P-wave (km/s) = 4.92295 6.46424 5.74552
#
# Compressibility (1/GPa) = 0.04514820
#
# Stress axis : x y z
#
# Youngs Moduli (GPa) = 70.77281 47.00535 70.49681
#
# Poissons Ratio (x) = -0.00360 0.23060
# Poissons Ratio (y) = -0.00541 -0.06868
# Poissons Ratio (z) = 0.23150 -0.04579
#
# Static dielectric constant tensor:
#      x y z
#    x 1.720440 0.023970 -0.000020 
#    y 0.023970 1.756010 0.002930 
#    z -0.000020 0.002930 1.739070 
# 
# From -- ./inp_files/74781.got.cif
#   From: 2010.05.17/outbox.cif.g08.bks.cpg/sg2_38_cif.got.tgz:74781.got - 2010.06.03 11:33:40.
