data_PCOD9107890
_publ_section_title
;
Structure prediction by ZEFSAII (Michael W. Deem and Ramdas Pophale) SiO2 
 PCOD9107890
Probable space group: P -1
;
_chemical_formula_sum "Si O2"
_cell_formula_units_Z 16
_cell_length_a 14.790632
_cell_length_b 11.751509
_cell_length_c 9.915012
_cell_angle_alpha 116.358460
_cell_angle_beta 27.779932
_cell_angle_gamma 114.781046
_cell_volume 718.273945
_symmetry_space_group_name_H-M "P -1"
_symmetry_group_IT_number 2
_symmetry_cell_setting 'triclinic'
loop_
_space_group_symop_operation_xyz
x,y,z
-x,-y,-z
loop_
_atom_site_type_symbol
_atom_site_label
_atom_site_fract_x
_atom_site_fract_y
_atom_site_fract_z
Si Si1 0.346576 0.606385 0.881904
Si Si2 0.923583 0.306423 0.488173
Si Si3 0.177779 0.937594 0.661237
Si Si4 0.366616 0.209013 0.554083
Si Si5 0.326120 0.321848 0.116004
Si Si6 0.965913 0.597275 0.899808
Si Si7 0.364280 0.516743 0.394165
Si Si8 0.506359 0.141697 0.623209
O O1 0.454482 0.725104 0.728514
O O2 0.509266 0.509466 0.656085
O O3 0.254327 0.648772 0.167242
O O4 0.174326 0.530336 0.990151
O O5 0.890807 0.157162 0.416860
O O6 0.119311 0.336094 0.328817
O O7 0.953270 0.378362 0.345674
O O8 0.279129 0.848947 0.590794
O O9 0.318272 0.060835 0.503211
O O10 0.000000 0.000000 0.000000
O O11 0.426944 0.214465 0.636135
O O12 0.175422 0.288838 0.824424
O O13 0.324146 0.381935 0.297875
O O14 0.499613 0.397386 0.842541
O O15 0.375609 0.177113 0.942511
O O16 0.158574 0.576237 0.720069
O O17 0.500000 0.000000 0.500000
#
# Coordination Sequence:
#
# PCOD9107890 Si02
#       8
#     2   2   2   2   2   2   2   2
#     4  12  25  42  62 100 141 168 209 271 337 380
#     4  12  21  40  71  93 131 171 220 275 308 390
#     4  11  22  42  70  99 121 169 226 267 318 387
#     4  11  25  43  65  96 136 171 212 274 329 382
#     4  11  20  39  65  99 122 164 227 269 311 372
#     4  12  22  42  67  97 129 177 223 261 316 389
#     4  11  23  37  65  96 130 170 213 271 320 379
#     4  10  20  40  66  89 122 165 215 265 315 375
#
# _framework density 22.275623
#
# number of rings (size 3 to 8) (size 9 to 14) (size 15 to 20)
#    0.000    0.750    5.000    4.500    0.000    1.000 
#    2.250    0.000    0.000    4.500    0.000    0.000 
#    0.000    0.000    0.000    0.000    0.000    0.000 
#
# Total GULP energy -89437.952032 kJ/mol
# GULP energy per Si atom -5589.872002 kJ/mol
# Density = 2.222492 g / cm^3
# Si number density = 22.275623 Si / 1000 Ang^3
#
#
#
# Elastic Constant Matrix: (Units=GPa)
#
#
# Indices 1 2 3 4 5 6 
#
# 1 64.8568 13.3431 35.2716 -1.1934 -28.8787 7.8184
# 2 13.3431 128.2367 44.5152 -5.8694 1.8429 17.0398
# 3 35.2716 44.5152 122.6554 -0.3485 -18.2977 -6.4256
# 4 -1.1934 -5.8694 -0.3485 44.5935 -0.3119 -0.4313
# 5 -28.8787 1.8429 -18.2977 -0.3119 48.4259 3.1508
# 6 7.8184 17.0398 -6.4256 -0.4313 3.1508 28.4335
#
#
#
# Elastic Compliance Matrix: (Units=1/GPa)
#
#
# Indices 1 2 3 4 5 6 
#
# 1 0.026145 0.000680 -0.006242 0.000736 0.013897 -0.010536
# 2 0.000680 0.010326 -0.004499 0.001264 -0.001208 -0.007239
# 3 -0.006242 -0.004499 0.012028 -0.000593 0.000530 0.007063
# 4 0.000736 0.001264 -0.000593 0.022601 0.000364 -0.000791
# 5 0.013897 -0.001208 0.000530 0.000364 0.029593 -0.006251
# 6 -0.010536 -0.007239 0.007063 -0.000791 -0.006251 0.044682
#
#
# Mechanical properties :
#
#
# Convention : Reuss Voigt Hill
#
# Bulk Modulus (GPa) = 35.23877 55.77874 45.50875
# Shear Modulus (GPa) = 28.57844 39.13187 33.85516
#
# Velocity S-wave (km/s) = 3.58571 4.19586 3.90273
# Velocity P-wave (km/s) = 5.74429 6.96910 6.38612
#
# Compressibility (1/GPa) = 0.02837783
#
# Stress axis : x y z
#
# Youngs Moduli (GPa) = 38.24815 96.84068 83.13745
#
# Poissons Ratio (x) = -0.06589 0.51895
# Poissons Ratio (y) = -0.02603 0.37405
# Poissons Ratio (z) = 0.23875 0.43571
#
# Static dielectric constant tensor:
#      x y z
#    x 1.855630 0.018490 -0.016760 
#    y 0.018490 1.912130 0.023490 
#    z -0.016760 0.023490 1.841210 
# 
# From -- ./inp_files/465113.got.cif
#   From: 2010.05.17/outbox.cif.g08.bks.cpg/sg2_233_cif.got.tgz:465113.got - 2010.06.03 11:33:40.
