data_PCOD9107997
_publ_section_title
;
Structure prediction by ZEFSAII (Michael W. Deem and Ramdas Pophale) SiO2 
 PCOD9107997
Probable space group: P -1
;
_chemical_formula_sum "Si O2"
_cell_formula_units_Z 14
_cell_length_a 11.802112
_cell_length_b 7.141688
_cell_length_c 14.976061
_cell_angle_alpha 49.188486
_cell_angle_beta 35.906570
_cell_angle_gamma 51.092545
_cell_volume 546.273270
_symmetry_space_group_name_H-M "P -1"
_symmetry_group_IT_number 2
_symmetry_cell_setting 'triclinic'
loop_
_space_group_symop_operation_xyz
x,y,z
-x,-y,-z
loop_
_atom_site_type_symbol
_atom_site_label
_atom_site_fract_x
_atom_site_fract_y
_atom_site_fract_z
Si Si1 0.650012 0.371270 0.149267
Si Si2 0.909051 0.619580 0.377849
Si Si3 0.799629 0.126093 0.645820
Si Si4 0.034015 0.347057 0.198607
Si Si5 0.681206 0.177646 0.382185
Si Si6 0.528742 0.018157 0.703538
Si Si7 0.657533 0.470187 0.826696
O O1 0.606228 0.310675 0.296685
O O2 0.652101 0.118827 0.164240
O O3 0.475930 0.590711 0.149498
O O4 0.845665 0.472846 0.982914
O O5 0.847068 0.402588 0.545361
O O6 0.929329 0.501828 0.302740
O O7 0.125397 0.676213 0.242023
O O8 0.754294 0.881911 0.404279
O O9 0.822920 0.913506 0.774740
O O10 0.599784 0.141698 0.708399
O O11 0.000000 0.000000 0.500000
O O12 0.869718 0.279355 0.261601
O O13 0.549932 0.185993 0.552212
O O14 0.688885 0.749356 0.693032
O O15 0.500000 0.500000 0.000000
#
# Coordination Sequence:
#
# PCOD9107997 Si02
#       7
#     2   2   2   2   2   2   2
#     4  10  22  39  62  87 126 167 191 245 316 359
#     4  11  21  38  65  96 113 156 213 251 290 356
#     4  10  16  35  62  88 110 159 201 248 290 348
#     4  11  20  41  63  85 126 157 204 248 304 353
#     4  12  24  37  64  93 123 159 201 248 301 365
#     4  10  19  36  65  83 120 163 199 241 303 353
#     4  10  18  37  65  84 118 165 195 245 305 346
#
# _framework density 25.6282
#
# number of rings (size 3 to 8) (size 9 to 14) (size 15 to 20)
#    0.857    0.571    7.143    0.857    0.000    2.857 
#    0.000    1.429    6.286    0.000    0.000    0.000 
#    0.000    0.000    0.000    0.000    0.000    0.000 
#
# Total GULP energy -78159.971791 kJ/mol
# GULP energy per Si atom -5582.855128 kJ/mol
# Density = 2.556987 g / cm^3
# Si number density = 25.628200 Si / 1000 Ang^3
#
#
#
# Elastic Constant Matrix: (Units=GPa)
#
#
# Indices 1 2 3 4 5 6 
#
# 1 183.9732 26.8565 64.1685 -15.7978 -1.4680 9.7628
# 2 26.8565 82.6823 10.9892 -15.2606 -2.1271 10.8900
# 3 64.1685 10.9892 151.8230 -15.6898 -21.5154 -4.2587
# 4 -15.7978 -15.2606 -15.6898 19.9237 8.8031 -2.3843
# 5 -1.4680 -2.1271 -21.5154 8.8031 52.4331 -13.1448
# 6 9.7628 10.8900 -4.2587 -2.3843 -13.1448 31.3044
#
#
#
# Elastic Compliance Matrix: (Units=1/GPa)
#
#
# Indices 1 2 3 4 5 6 
#
# 1 0.007034 -0.000967 -0.002995 0.003158 -0.002357 -0.003014
# 2 -0.000967 0.015123 -0.000034 0.011330 -0.002635 -0.005207
# 3 -0.002995 -0.000034 0.008883 0.003303 0.004033 0.004099
# 4 0.003158 0.011330 0.003303 0.068158 -0.010462 -0.003679
# 5 -0.002357 -0.002635 0.004033 -0.010462 0.025329 0.012039
# 6 -0.003014 -0.005207 0.004099 -0.003679 0.012039 0.040029
#
#
# Mechanical properties :
#
#
# Convention : Reuss Voigt Hill
#
# Bulk Modulus (GPa) = 43.39215 69.16743 56.27979
# Shear Modulus (GPa) = 27.74246 41.82986 34.78616
#
# Velocity S-wave (km/s) = 3.29370 4.04441 3.68821
# Velocity P-wave (km/s) = 5.60650 6.98978 6.33600
#
# Compressibility (1/GPa) = 0.02304564
#
# Stress axis : x y z
#
# Youngs Moduli (GPa) = 142.17155 66.12631 112.57749
#
# Poissons Ratio (x) = 0.06397 0.33717
# Poissons Ratio (y) = 0.13753 0.00387
# Poissons Ratio (z) = 0.42580 0.00227
#
# Static dielectric constant tensor:
#      x y z
#    x 2.103710 0.052060 0.048490 
#    y 0.052060 2.172830 0.074600 
#    z 0.048490 0.074600 2.055950 
# 
# From -- ./inp_files/565107.got.cif
#   From: 2010.05.17/outbox.cif.g08.bks.cpg/sg2_283_cif.got.tgz:565107.got - 2010.06.03 11:33:40.
