data_PCOD9107476
_publ_section_title
;
Structure prediction by ZEFSAII (Michael W. Deem and Ramdas Pophale) SiO2 
 PCOD9107476
Probable space group: P -1
;
_chemical_formula_sum "Si O2"
_cell_formula_units_Z 16
_cell_length_a 14.006752
_cell_length_b 8.653319
_cell_length_c 11.141131
_cell_angle_alpha 139.548837
_cell_angle_beta 103.403833
_cell_angle_gamma 55.650397
_cell_volume 672.338492
_symmetry_space_group_name_H-M "P -1"
_symmetry_group_IT_number 2
_symmetry_cell_setting 'triclinic'
loop_
_space_group_symop_operation_xyz
x,y,z
-x,-y,-z
loop_
_atom_site_type_symbol
_atom_site_label
_atom_site_fract_x
_atom_site_fract_y
_atom_site_fract_z
Si Si1 0.871246 0.223004 0.960314
Si Si2 0.776230 0.397403 0.606872
Si Si3 0.490933 0.267090 0.220899
Si Si4 0.884544 0.951702 0.198890
Si Si5 0.260765 0.478259 0.672403
Si Si6 0.745480 0.701415 0.022502
Si Si7 0.443245 0.553005 0.880302
Si Si8 0.779678 0.836548 0.720034
O O1 0.756844 0.519931 0.034012
O O2 0.990784 0.141199 0.879187
O O3 0.859777 0.953835 0.790998
O O4 0.853682 0.341991 0.160589
O O5 0.630914 0.556039 0.627551
O O6 0.759881 0.495520 0.796376
O O7 0.833571 0.536067 0.633032
O O8 0.864005 0.051399 0.390708
O O9 0.482786 0.468547 0.228589
O O10 0.500000 0.000000 0.000000
O O11 0.623266 0.051546 0.199194
O O12 0.777310 0.259622 0.278592
O O13 0.858021 0.715450 0.041891
O O14 0.381392 0.394036 0.729654
O O15 0.268913 0.217977 0.448588
O O16 0.500000 0.500000 0.000000
O O17 0.328005 0.907987 0.071848
#
# Coordination Sequence:
#
# PCOD9107476 Si02
#       8
#     2   2   2   2   2   2   2   2
#     4  11  25  39  67  94 129 175 210 276 319 365
#     4  10  23  39  66  93 124 172 214 262 321 386
#     4  10  20  40  64  94 125 171 203 257 330 379
#     4  11  23  44  64  94 127 170 227 262 316 382
#     4  10  23  42  63  94 125 171 214 269 319 381
#     4  11  22  42  64  92 133 165 213 265 324 384
#     4  11  22  40  67  94 132 166 212 269 322 380
#     4  10  22  42  61  94 130 166 221 259 319 385
#
# _framework density 23.797537999999999
#
# number of rings (size 3 to 8) (size 9 to 14) (size 15 to 20)
#    0.000    1.500    3.750    1.500    7.000    5.500 
#    0.000    0.000    0.000    0.000    0.000    0.000 
#    0.000    0.000    0.000    0.000    0.000    0.000 
#
# Total GULP energy -89251.685469 kJ/mol
# GULP energy per Si atom -5578.230342 kJ/mol
# Density = 2.374337 g / cm^3
# Si number density = 23.797538 Si / 1000 Ang^3
#
#
#
# Elastic Constant Matrix: (Units=GPa)
#
#
# Indices 1 2 3 4 5 6 
#
# 1 138.5422 13.9590 39.8711 -6.6246 -9.6344 10.9616
# 2 13.9590 70.8760 1.6447 -11.7984 -0.4663 8.1454
# 3 39.8711 1.6447 120.2387 -28.7046 -5.3367 0.5381
# 4 -6.6246 -11.7984 -28.7046 13.1787 -9.5713 -18.5221
# 5 -9.6344 -0.4663 -5.3367 -9.5713 17.0713 -32.3647
# 6 10.9616 8.1454 0.5381 -18.5221 -32.3647 -15.0386
#
#
#
# Elastic Compliance Matrix: (Units=1/GPa)
#
#
# Indices 1 2 3 4 5 6 
#
# 1 0.008396 -0.001820 -0.002971 -0.001466 0.003128 0.000100
# 2 -0.001820 0.017277 0.003614 0.013813 -0.001666 -0.005267
# 3 -0.002971 0.003614 0.012578 0.014628 -0.004555 -0.007971
# 4 -0.001466 0.013813 0.014628 0.062910 -0.018572 -0.030576
# 5 0.003128 -0.001666 -0.004555 -0.018572 0.018529 -0.015788
# 6 0.000100 -0.005267 -0.007971 -0.030576 -0.015788 0.002075
#
#
# Mechanical properties :
#
#
# Convention : Reuss Voigt Hill
#
# Bulk Modulus (GPa) = 27.85558 48.95627 38.40592
# Shear Modulus (GPa) = 36.74194 21.32109 29.03151
#
# Velocity S-wave (km/s) = 3.93356 2.99647 3.49655
# Velocity P-wave (km/s) = 5.68869 5.70863 5.69867
#
# Compressibility (1/GPa) = 0.03589946
#
# Stress axis : x y z
#
# Youngs Moduli (GPa) = 119.10704 57.87897 79.50326
#
# Poissons Ratio (x) = 0.10532 0.23618
# Poissons Ratio (y) = 0.21673 -0.28735
# Poissons Ratio (z) = 0.35383 -0.20919
#
# Static dielectric constant tensor:
#      x y z
#    x 1.963420 -0.153610 0.014840 
#    y -0.153610 2.159400 0.005880 
#    z 0.014840 0.005880 1.890580 
# 
# From -- ./inp_files/448364.got.cif
#   From: 2010.05.17/outbox.cif.g08.bks.cpg/sg2_225_cif.got.tgz:448364.got - 2010.06.03 11:33:40.
