data_PCOD9107206
_publ_section_title
;
Structure prediction by ZEFSAII (Michael W. Deem and Ramdas Pophale) SiO2 
 PCOD9107206
Probable space group: P -1
;
_chemical_formula_sum "Si O2"
_cell_formula_units_Z 16
_cell_length_a 23.753676
_cell_length_b 5.014642
_cell_length_c 5.526920
_cell_angle_alpha 97.268372
_cell_angle_beta 96.871749
_cell_angle_gamma 114.369722
_cell_volume 584.011558
_symmetry_space_group_name_H-M "P -1"
_symmetry_group_IT_number 2
_symmetry_cell_setting 'triclinic'
loop_
_space_group_symop_operation_xyz
x,y,z
-x,-y,-z
loop_
_atom_site_type_symbol
_atom_site_label
_atom_site_fract_x
_atom_site_fract_y
_atom_site_fract_z
Si Si1 0.633391 0.641568 0.607113
Si Si2 0.481637 0.734822 0.267246
Si Si3 0.715992 0.119666 0.348204
Si Si4 0.242702 0.204037 0.024121
Si Si5 0.399666 0.885401 0.856814
Si Si6 0.042360 0.819147 0.683262
Si Si7 0.185067 0.591832 0.205516
Si Si8 0.929742 0.966800 0.768999
O O1 0.565758 0.578951 0.677849
O O2 0.618260 0.373171 0.381963
O O3 0.666827 0.946057 0.514037
O O4 0.687058 0.640673 0.812385
O O5 0.500000 0.000000 0.500000
O O6 0.547237 0.798049 0.180243
O O7 0.435974 0.796907 0.067906
O O8 0.668198 0.129008 0.120678
O O9 0.771418 0.389755 0.537856
O O10 0.748545 0.922088 0.240242
O O11 0.203155 0.918750 0.145579
O O12 0.208459 0.415785 0.008561
O O13 0.000000 0.500000 0.500000
O O14 0.998479 0.987161 0.742479
O O15 0.090396 0.972030 0.502888
O O16 0.067882 0.827733 0.972638
O O17 0.114539 0.370972 0.212475
#
# Coordination Sequence:
#
# PCOD9107206 Si02
#       8
#     2   2   2   2   2   2   2   2
#     4  10  21  41  60  93 128 172 224 289 353 431
#     4   9  20  36  64  91 127 167 225 285 361 431
#     4  11  25  41  70  94 134 180 234 287 365 426
#     4  11  26  43  70 100 141 186 237 293 359 428
#     4  10  20  40  63  91 129 171 222 290 357 436
#     4  10  22  44  74 107 150 197 244 301 367 424
#     4  11  27  46  68 109 141 189 242 295 355 428
#     4  10  24  43  71 108 149 193 250 302 360 434
#
# _framework density 27.396716000000001
#
# number of rings (size 3 to 8) (size 9 to 14) (size 15 to 20)
#    0.000    1.750    1.250    1.125    7.000    2.500 
#    0.000    8.750    0.000    0.000    0.000    0.000 
#    0.000    0.000    0.000    0.000    0.000    0.000 
#
# Total GULP energy -89545.302241 kJ/mol
# GULP energy per Si atom -5596.581390 kJ/mol
# Density = 2.733436 g / cm^3
# Si number density = 27.396716 Si / 1000 Ang^3
#
#
#
# Elastic Constant Matrix: (Units=GPa)
#
#
# Indices 1 2 3 4 5 6 
#
# 1 72.5947 12.1159 29.6584 5.1560 4.0980 8.0926
# 2 12.1159 120.2622 44.3754 -4.2731 8.5419 28.1121
# 3 29.6584 44.3754 159.9629 2.2887 -20.7653 11.9317
# 4 5.1560 -4.2731 2.2887 37.9420 -1.7480 -2.9471
# 5 4.0980 8.5419 -20.7653 -1.7480 31.3116 4.8409
# 6 8.0926 28.1121 11.9317 -2.9471 4.8409 46.8153
#
#
#
# Elastic Compliance Matrix: (Units=1/GPa)
#
#
# Indices 1 2 3 4 5 6 
#
# 1 0.015697 0.000291 -0.003380 -0.002226 -0.004232 -0.001730
# 2 0.000291 0.011104 -0.003315 0.000792 -0.004392 -0.005370
# 3 -0.003380 -0.003315 0.008768 -0.000143 0.007218 -0.000415
# 4 -0.002226 0.000792 -0.000143 0.026931 0.001250 0.001512
# 5 -0.004232 -0.004392 0.007218 0.001250 0.038919 -0.002416
# 6 -0.001730 -0.005370 -0.000415 0.001512 -0.002416 0.025335
#
#
# Mechanical properties :
#
#
# Convention : Reuss Voigt Hill
#
# Bulk Modulus (GPa) = 43.93336 58.34658 51.13997
# Shear Modulus (GPa) = 33.97924 40.99180 37.48552
#
# Velocity S-wave (km/s) = 3.52556 3.87231 3.70300
# Velocity P-wave (km/s) = 5.71346 6.42932 6.08193
#
# Compressibility (1/GPa) = 0.02276174
#
# Stress axis : x y z
#
# Youngs Moduli (GPa) = 63.70624 90.05439 114.05445
#
# Poissons Ratio (x) = -0.02625 0.38548
# Poissons Ratio (y) = -0.01857 0.37814
# Poissons Ratio (z) = 0.21531 0.29857
#
# Static dielectric constant tensor:
#      x y z
#    x 2.126270 -0.015510 0.032020 
#    y -0.015510 2.183960 -0.106400 
#    z 0.032020 -0.106400 2.233800 
# 
# From -- ./inp_files/10814.got.cif
#   From: 2010.05.17/outbox.cif.g08.bks.cpg/sg2_6_cif.got.tgz:10814.got - 2010.06.03 11:33:40.
