data_PCOD9107787
_publ_section_title
;
Structure prediction by ZEFSAII (Michael W. Deem and Ramdas Pophale) SiO2 
 PCOD9107787
Probable space group: P -1
;
_chemical_formula_sum "Si O2"
_cell_formula_units_Z 16
_cell_length_a 21.022872
_cell_length_b 9.445039
_cell_length_c 8.362452
_cell_angle_alpha 93.315331
_cell_angle_beta 70.041415
_cell_angle_gamma 32.543414
_cell_volume 612.885755
_symmetry_space_group_name_H-M "P -1"
_symmetry_group_IT_number 2
_symmetry_cell_setting 'triclinic'
loop_
_space_group_symop_operation_xyz
x,y,z
-x,-y,-z
loop_
_atom_site_type_symbol
_atom_site_label
_atom_site_fract_x
_atom_site_fract_y
_atom_site_fract_z
Si Si1 0.654393 0.797631 0.282220
Si Si2 0.218138 0.170855 0.653851
Si Si3 0.158248 0.741846 0.696128
Si Si4 0.977692 0.190037 0.443262
Si Si5 0.668684 0.339383 0.959790
Si Si6 0.480005 0.176846 0.137576
Si Si7 0.192115 0.199946 0.319922
Si Si8 0.834857 0.997465 0.112500
O O1 0.684813 0.881573 0.361056
O O2 0.805692 0.398291 0.170057
O O3 0.500000 0.000000 0.500000
O O4 0.627268 0.890295 0.128417
O O5 0.269088 0.037755 0.421304
O O6 0.243945 0.984723 0.728232
O O7 0.012062 0.600921 0.854016
O O8 0.072713 0.773181 0.683193
O O9 0.314247 0.476259 0.417614
O O10 0.105986 0.001178 0.806740
O O11 0.844107 0.562190 0.650957
O O12 0.000000 0.000000 0.500000
O O13 0.158005 0.920561 0.271137
O O14 0.536446 0.664844 0.968501
O O15 0.695427 0.118904 0.908809
O O16 0.692653 0.324810 0.127563
O O17 0.500000 0.000000 0.000000
O O18 0.000000 0.500000 0.500000
#
# Coordination Sequence:
#
# PCOD9107787 Si02
#       8
#     2   2   2   2   2   2   2   2
#     4  10  23  45  67  91 133 186 231 275 327 395
#     4  11  22  42  65 103 137 182 218 278 348 411
#     4  11  22  42  65  98 130 176 223 287 348 405
#     4  11  21  36  68 103 130 172 218 287 349 398
#     4  11  22  42  64 100 135 178 222 284 341 405
#     4  11  24  43  66  91 130 179 236 280 327 401
#     4  10  20  40  65  96 141 172 219 271 349 411
#     4  11  24  38  67 102 141 167 220 286 360 410
#
# _framework density 26.106007999999999
#
# number of rings (size 3 to 8) (size 9 to 14) (size 15 to 20)
#    0.000    1.250    5.000    1.500    1.750    3.000 
#    2.250    6.250    0.000    0.000    0.000    0.000 
#    0.000    0.000    0.000    0.000    0.000    0.000 
#
# Total GULP energy -89418.190910 kJ/mol
# GULP energy per Si atom -5588.636932 kJ/mol
# Density = 2.604659 g / cm^3
# Si number density = 26.106008 Si / 1000 Ang^3
#
#
#
# Elastic Constant Matrix: (Units=GPa)
#
#
# Indices 1 2 3 4 5 6 
#
# 1 167.8621 47.1971 27.0472 -9.5331 21.7158 21.7853
# 2 47.1971 165.8421 26.8102 -33.7157 8.5591 13.0729
# 3 27.0472 26.8102 99.7534 -10.5920 12.5606 6.2511
# 4 -9.5331 -33.7157 -10.5920 45.0621 6.1111 12.6897
# 5 21.7158 8.5591 12.5606 6.1111 48.6250 -5.7437
# 6 21.7853 13.0729 6.2511 12.6897 -5.7437 49.3509
#
#
#
# Elastic Compliance Matrix: (Units=1/GPa)
#
#
# Indices 1 2 3 4 5 6 
#
# 1 0.007497 -0.001052 -0.000802 0.002218 -0.003699 -0.003930
# 2 -0.001052 0.008306 -0.000677 0.007181 -0.002162 -0.003748
# 3 -0.000802 -0.000677 0.011244 0.002941 -0.003033 -0.002000
# 4 0.002218 0.007181 0.002941 0.033545 -0.008754 -0.012898
# 5 -0.003699 -0.002162 -0.003033 -0.008754 0.025403 0.007797
# 6 -0.003930 -0.003748 -0.002000 -0.012898 0.007797 0.027468
#
#
# Mechanical properties :
#
#
# Convention : Reuss Voigt Hill
#
# Bulk Modulus (GPa) = 45.49020 70.61851 58.05435
# Shear Modulus (GPa) = 39.72885 50.76780 45.24833
#
# Velocity S-wave (km/s) = 3.90529 4.41464 4.16775
# Velocity P-wave (km/s) = 6.14802 7.28661 6.74140
#
# Compressibility (1/GPa) = 0.02198276
#
# Stress axis : x y z
#
# Youngs Moduli (GPa) = 133.38861 120.39783 88.93826
#
# Poissons Ratio (x) = 0.12668 0.07136
# Poissons Ratio (y) = 0.14034 0.06024
# Poissons Ratio (z) = 0.10703 0.08155
#
# Static dielectric constant tensor:
#      x y z
#    x 2.104350 -0.167540 -0.129340 
#    y -0.167540 2.267760 0.039020 
#    z -0.129340 0.039020 2.195700 
# 
# From -- ./inp_files/342811.got.cif
#   From: 2010.05.17/outbox.cif.g08.bks.cpg/sg2_172_cif.got.tgz:342811.got - 2010.06.03 11:33:40.
