data_PCOD9107068
_publ_section_title
;
Structure prediction by ZEFSAII (Michael W. Deem and Ramdas Pophale) SiO2 
 PCOD9107068
Probable space group: P -1
;
_chemical_formula_sum "Si O2"
_cell_formula_units_Z 14
_cell_length_a 5.999807
_cell_length_b 18.085066
_cell_length_c 9.236011
_cell_angle_alpha 123.686183
_cell_angle_beta 51.239383
_cell_angle_gamma 121.803667
_cell_volume 624.789447
_symmetry_space_group_name_H-M "P -1"
_symmetry_group_IT_number 2
_symmetry_cell_setting 'triclinic'
loop_
_space_group_symop_operation_xyz
x,y,z
-x,-y,-z
loop_
_atom_site_type_symbol
_atom_site_label
_atom_site_fract_x
_atom_site_fract_y
_atom_site_fract_z
Si Si1 0.829828 0.404320 0.155916
Si Si2 0.081371 0.832118 0.550506
Si Si3 0.200699 0.804380 0.136841
Si Si4 0.433701 0.235006 0.637382
Si Si5 0.657595 0.655671 0.489999
Si Si6 0.733393 0.954636 0.941651
Si Si7 0.775103 0.415265 0.869435
O O1 0.622302 0.405773 0.378342
O O2 0.144282 0.483188 0.125453
O O3 0.843702 0.299728 0.014850
O O4 0.688911 0.420949 0.077070
O O5 0.186639 0.812657 0.325833
O O6 0.369523 0.836511 0.532971
O O7 0.846879 0.738875 0.603931
O O8 0.921816 0.911978 0.704579
O O9 0.889037 0.821851 0.237143
O O10 0.499370 0.872205 0.031760
O O11 0.424911 0.286201 0.544432
O O12 0.566943 0.325029 0.781450
O O13 0.897853 0.604247 0.287138
O O14 0.500000 0.000000 0.000000
O O15 0.000000 0.000000 0.000000
#
# Coordination Sequence:
#
# PCOD9107068 Si02
#       7
#     2   2   2   2   2   2   2
#     4  11  20  39  64  92 142 185 233 285 339 414
#     4  10  23  46  71  99 138 180 225 290 356 430
#     4  11  24  46  71  99 137 188 226 287 363 417
#     4  10  21  42  69  96 143 183 232 282 351 412
#     4  10  20  40  62  95 136 184 232 287 339 409
#     4  12  31  50  77 111 137 177 240 299 362 444
#     4  10  22  39  57 101 139 184 236 287 330 404
#
# _framework density 22.407551000000002
#
# number of rings (size 3 to 8) (size 9 to 14) (size 15 to 20)
#    0.000    1.429    5.714    0.429    6.000    2.286 
#    5.143    0.000    0.000    0.000    0.000    0.000 
#    0.000    0.000    0.000    0.000    0.000    0.000 
#
# Total GULP energy -77967.375081 kJ/mol
# GULP energy per Si atom -5569.098220 kJ/mol
# Density = 2.235655 g / cm^3
# Si number density = 22.407551 Si / 1000 Ang^3
#
#
#
# Elastic Constant Matrix: (Units=GPa)
#
#
# Indices 1 2 3 4 5 6 
#
# 1 100.1204 37.4259 33.0348 4.3762 -26.2380 8.0661
# 2 37.4259 79.6582 31.1305 -1.4456 -21.5738 5.2070
# 3 33.0348 31.1305 81.4848 -5.1131 -10.7251 -4.7702
# 4 4.3762 -1.4456 -5.1131 33.6144 -5.0711 -9.5832
# 5 -26.2380 -21.5738 -10.7251 -5.0711 21.7679 -2.0516
# 6 8.0661 5.2070 -4.7702 -9.5832 -2.0516 25.9103
#
#
#
# Elastic Compliance Matrix: (Units=1/GPa)
#
#
# Indices 1 2 3 4 5 6 
#
# 1 0.016580 -0.001596 -0.004559 -0.002135 0.015163 -0.005269
# 2 -0.001596 0.019511 -0.004816 0.001938 0.015268 -0.002385
# 3 -0.004559 -0.004816 0.016670 0.004964 -0.000212 0.007275
# 4 -0.002135 0.001938 0.004964 0.037201 0.011957 0.015895
# 5 0.015163 0.015268 -0.000212 0.011957 0.082322 0.003113
# 6 -0.005269 -0.002385 0.007275 0.015895 0.003113 0.048179
#
#
# Mechanical properties :
#
#
# Convention : Reuss Voigt Hill
#
# Bulk Modulus (GPa) = 32.44595 51.60510 42.02552
# Shear Modulus (GPa) = 19.78804 26.90333 23.34569
#
# Velocity S-wave (km/s) = 2.97492 3.46878 3.23130
# Velocity P-wave (km/s) = 5.12948 6.25488 5.71992
#
# Compressibility (1/GPa) = 0.03082049
#
# Stress axis : x y z
#
# Youngs Moduli (GPa) = 60.31236 51.25189 59.98946
#
# Poissons Ratio (x) = 0.08180 0.27348
# Poissons Ratio (y) = 0.09626 0.28889
# Poissons Ratio (z) = 0.27495 0.24681
#
# Static dielectric constant tensor:
#      x y z
#    x 1.984030 0.010160 -0.011680 
#    y 0.010160 1.889960 0.043780 
#    z -0.011680 0.043780 1.842850 
# 
# From -- ./inp_files/112271.got.cif
#   From: 2010.05.17/outbox.cif.g08.bks.cpg/sg2_57_cif.got.tgz:112271.got - 2010.06.03 11:33:40.
