data_PCOD9107741
_publ_section_title
;
Structure prediction by ZEFSAII (Michael W. Deem and Ramdas Pophale) SiO2 
 PCOD9107741
Probable space group: P -1
;
_chemical_formula_sum "Si O2"
_cell_formula_units_Z 14
_cell_length_a 11.616749
_cell_length_b 28.250704
_cell_length_c 14.252843
_cell_angle_alpha 18.315967
_cell_angle_beta 149.138167
_cell_angle_gamma 157.589422
_cell_volume 553.134378
_symmetry_space_group_name_H-M "P -1"
_symmetry_group_IT_number 2
_symmetry_cell_setting 'triclinic'
loop_
_space_group_symop_operation_xyz
x,y,z
-x,-y,-z
loop_
_atom_site_type_symbol
_atom_site_label
_atom_site_fract_x
_atom_site_fract_y
_atom_site_fract_z
Si Si1 0.267288 0.677144 0.417735
Si Si2 0.628083 0.023618 0.216953
Si Si3 0.132396 0.170249 0.693905
Si Si4 0.185288 0.471222 0.452063
Si Si5 0.847117 0.301298 0.358217
Si Si6 0.167822 0.154196 0.430335
Si Si7 0.244079 0.154670 0.120269
O O1 0.531250 0.674514 0.622068
O O2 0.000000 0.500000 0.500000
O O3 0.094602 0.642905 0.456649
O O4 0.411884 0.880308 0.076616
O O5 0.953671 0.194604 0.175936
O O6 0.359438 0.896907 0.342633
O O7 0.694562 0.886838 0.478986
O O8 0.502016 0.324015 0.667672
O O9 0.038629 0.291350 0.437887
O O10 0.941797 0.041952 0.708798
O O11 0.000000 0.000000 0.000000
O O12 0.073487 0.483802 0.249194
O O13 0.244207 0.319740 0.765190
O O14 0.584182 0.265751 0.182410
O O15 0.954756 0.945879 0.734569
#
# Coordination Sequence:
#
# PCOD9107741 Si02
#       7
#     2   2   2   2   2   2   2
#     4  12  24  37  65 100 136 169 214 272 334 396
#     4  10  21  39  67  95 125 171 212 262 329 393
#     4  12  27  46  69  98 138 175 229 284 331 393
#     4  12  25  45  68 101 134 178 228 277 330 400
#     4  11  24  45  71  99 134 181 224 272 336 398
#     4  10  20  40  65  94 129 166 214 261 325 401
#     4  11  24  46  71  98 136 180 223 275 336 396
#
# _framework density 25.310305
#
# number of rings (size 3 to 8) (size 9 to 14) (size 15 to 20)
#    0.000    0.857    4.286    3.000    2.000    1.143 
#    2.571    0.000    0.000    0.000    0.000    0.000 
#    0.000    0.000    0.000    0.000    0.000    0.000 
#
# Total GULP energy -78308.602442 kJ/mol
# GULP energy per Si atom -5593.471603 kJ/mol
# Density = 2.525270 g / cm^3
# Si number density = 25.310305 Si / 1000 Ang^3
#
#
#
# Elastic Constant Matrix: (Units=GPa)
#
#
# Indices 1 2 3 4 5 6 
#
# 1 96.9662 34.9612 19.0821 5.1986 -12.3848 -11.0727
# 2 34.9612 211.1403 39.9638 27.8271 -6.2372 -5.6370
# 3 19.0821 39.9638 52.6918 -5.5650 -21.0343 -0.4141
# 4 5.1986 27.8271 -5.5650 39.5644 -1.5043 -2.8543
# 5 -12.3848 -6.2372 -21.0343 -1.5043 25.7383 -2.0931
# 6 -11.0727 -5.6370 -0.4141 -2.8543 -2.0931 53.5190
#
#
#
# Elastic Compliance Matrix: (Units=1/GPa)
#
#
# Indices 1 2 3 4 5 6 
#
# 1 0.011996 -0.001442 -0.001548 -0.000437 0.004332 0.002464
# 2 -0.001442 0.007077 -0.007765 -0.006109 -0.005695 -0.000161
# 3 -0.001548 -0.007765 0.038596 0.012294 0.029714 0.000978
# 4 -0.000437 -0.006109 0.012294 0.031857 0.010338 0.001465
# 5 0.004332 -0.005695 0.029714 0.010338 0.064738 0.003610
# 6 0.002464 -0.000161 0.000978 0.001465 0.003610 0.019405
#
#
# Mechanical properties :
#
#
# Convention : Reuss Voigt Hill
#
# Bulk Modulus (GPa) = 27.65592 60.97918 44.31755
# Shear Modulus (GPa) = 24.12752 41.55042 32.83897
#
# Velocity S-wave (km/s) = 3.09085 4.05611 3.60593
# Velocity P-wave (km/s) = 4.86706 6.78830 5.90632
#
# Compressibility (1/GPa) = 0.03615862
#
# Stress axis : x y z
#
# Youngs Moduli (GPa) = 83.36442 141.29669 25.90924
#
# Poissons Ratio (x) = 0.20373 0.04010
# Poissons Ratio (y) = 0.12020 0.20120
# Poissons Ratio (z) = 0.12904 1.09724
#
# Static dielectric constant tensor:
#      x y z
#    x 2.054810 -0.141220 0.024650 
#    y -0.141220 2.179600 -0.010690 
#    z 0.024650 -0.010690 2.023470 
# 
# From -- ./inp_files/285745.got.cif
#   From: 2010.05.17/outbox.cif.g08.bks.cpg/sg2_143_cif.got.tgz:285745.got - 2010.06.03 11:33:40.
