data_PCOD9107342
_publ_section_title
;
Structure prediction by ZEFSAII (Michael W. Deem and Ramdas Pophale) SiO2 
 PCOD9107342
Probable space group: P -1
;
_chemical_formula_sum "Si O2"
_cell_formula_units_Z 12
_cell_length_a 6.917790
_cell_length_b 13.369776
_cell_length_c 15.393758
_cell_angle_alpha 26.273653
_cell_angle_beta 124.886790
_cell_angle_gamma 119.405054
_cell_volume 516.034868
_symmetry_space_group_name_H-M "P -1"
_symmetry_group_IT_number 2
_symmetry_cell_setting 'triclinic'
loop_
_space_group_symop_operation_xyz
x,y,z
-x,-y,-z
loop_
_atom_site_type_symbol
_atom_site_label
_atom_site_fract_x
_atom_site_fract_y
_atom_site_fract_z
Si Si1 0.880485 0.733773 0.578984
Si Si2 0.849420 0.904775 0.112877
Si Si3 0.850251 0.148959 0.610024
Si Si4 0.616944 0.807425 0.617593
Si Si5 0.914606 0.661568 0.964902
Si Si6 0.619534 0.317688 0.846531
O O1 0.770007 0.876254 0.520221
O O2 0.681285 0.560946 0.633907
O O3 0.978083 0.849896 0.430019
O O4 0.091828 0.569260 0.802734
O O5 0.644516 0.745744 0.155238
O O6 0.019935 0.781742 0.324281
O O7 0.725207 0.122624 0.960601
O O8 0.000000 0.000000 0.000000
O O9 0.612313 0.288288 0.412006
O O10 0.802517 0.881813 0.815806
O O11 0.788122 0.663868 0.838261
O O12 0.500000 0.000000 0.500000
O O13 0.198675 0.690200 0.018915
#
# Coordination Sequence:
#
# PCOD9107342 Si02
#       6
#     2   2   2   2   2   2
#     4  10  21  40  61  90 126 160 200 246 298 367
#     4  10  20  40  64  86 118 158 204 253 299 356
#     4  10  22  38  61  92 121 160 201 249 308 348
#     4  10  21  38  61  95 124 157 205 244 297 359
#     4   8  19  40  58  85 125 161 198 235 299 358
#     4   8  20  38  59  88 117 163 199 238 307 355
#
# _framework density 23.254242999999999
#
# number of rings (size 3 to 8) (size 9 to 14) (size 15 to 20)
#    1.000    1.667    0.000    0.500    0.000    9.333 
#    0.000    6.667    0.000    0.000    0.000    0.000 
#    0.000    0.000    0.000    0.000    0.000    0.000 
#
# Total GULP energy -66844.809973 kJ/mol
# GULP energy per Si atom -5570.400831 kJ/mol
# Density = 2.320132 g / cm^3
# Si number density = 23.254243 Si / 1000 Ang^3
#
#
#
# Elastic Constant Matrix: (Units=GPa)
#
#
# Indices 1 2 3 4 5 6 
#
# 1 94.1041 37.5627 48.5035 20.2878 -9.2394 6.3505
# 2 37.5627 105.7915 37.1590 16.3609 12.2810 1.9589
# 3 48.5035 37.1590 86.4205 28.1409 -4.7310 2.5359
# 4 20.2878 16.3609 28.1409 46.9303 -1.2462 9.7115
# 5 -9.2394 12.2810 -4.7310 -1.2462 28.0847 10.2525
# 6 6.3505 1.9589 2.5359 9.7115 10.2525 32.2193
#
#
#
# Elastic Compliance Matrix: (Units=1/GPa)
#
#
# Indices 1 2 3 4 5 6 
#
# 1 0.017289 -0.004469 -0.007041 -0.000419 0.008298 -0.005096
# 2 -0.004469 0.013520 -0.003339 -0.001833 -0.009442 0.003879
# 3 -0.007041 -0.003339 0.019543 -0.007888 0.001356 0.001999
# 4 -0.000419 -0.001833 -0.007888 0.028854 0.003952 -0.009140
# 5 0.008298 -0.009442 0.001356 0.003952 0.049478 -0.018104
# 6 -0.005096 0.003879 0.001999 -0.009140 -0.018104 0.040164
#
#
# Mechanical properties :
#
#
# Convention : Reuss Voigt Hill
#
# Bulk Modulus (GPa) = 48.42041 59.19628 53.80834
# Shear Modulus (GPa) = 24.33896 32.31958 28.32927
#
# Velocity S-wave (km/s) = 3.23870 3.73209 3.49412
# Velocity P-wave (km/s) = 5.90364 6.63948 6.28234
#
# Compressibility (1/GPa) = 0.02065245
#
# Stress axis : x y z
#
# Youngs Moduli (GPa) = 57.84119 73.96487 51.16877
#
# Poissons Ratio (x) = 0.33058 0.36030
# Poissons Ratio (y) = 0.25852 0.17084
# Poissons Ratio (z) = 0.40728 0.24695
#
# Static dielectric constant tensor:
#      x y z
#    x 1.895980 0.020390 0.054710 
#    y 0.020390 1.937650 -0.040600 
#    z 0.054710 -0.040600 1.937770 
# 
# From -- ./inp_files/27987.got.cif
#   From: 2010.05.17/outbox.cif.g08.bks.cpg/sg2_14_cif.got.tgz:27987.got - 2010.06.03 11:33:40.
