data_PCOD9107036
_publ_section_title
;
Structure prediction by ZEFSAII (Michael W. Deem and Ramdas Pophale) SiO2 
 PCOD9107036
Probable space group: P -1
;
_chemical_formula_sum "Si O2"
_cell_formula_units_Z 12
_cell_length_a 9.380402
_cell_length_b 8.206458
_cell_length_c 6.778971
_cell_angle_alpha 96.725385
_cell_angle_beta 114.789682
_cell_angle_gamma 107.078923
_cell_volume 435.165296
_symmetry_space_group_name_H-M "P -1"
_symmetry_group_IT_number 2
_symmetry_cell_setting 'triclinic'
loop_
_space_group_symop_operation_xyz
x,y,z
-x,-y,-z
loop_
_atom_site_type_symbol
_atom_site_label
_atom_site_fract_x
_atom_site_fract_y
_atom_site_fract_z
Si Si1 0.074095 0.050948 0.332152
Si Si2 0.746236 0.459997 0.787625
Si Si3 0.254175 0.644382 0.682416
Si Si4 0.624510 0.010293 0.392950
Si Si5 0.081227 0.741309 0.921011
Si Si6 0.380155 0.358506 0.690447
O O1 0.220391 0.250899 0.439126
O O2 0.928418 0.069989 0.111541
O O3 0.191953 0.937457 0.377972
O O4 0.000000 0.000000 0.500000
O O5 0.756102 0.406607 0.560588
O O6 0.563983 0.467448 0.721450
O O7 0.917115 0.632855 0.943717
O O8 0.766171 0.303418 0.906759
O O9 0.375207 0.850486 0.752369
O O10 0.091618 0.657119 0.697986
O O11 0.321658 0.498388 0.791959
O O12 0.500000 0.000000 0.500000
O O13 0.603100 0.822856 0.250486
#
# Coordination Sequence:
#
# PCOD9107036 Si02
#       6
#     2   2   2   2   2   2
#     4  10  20  40  62  93 128 164 216 265 307 390
#     4  11  23  40  63 100 131 163 223 265 313 393
#     4  12  21  42  72  88 129 181 204 263 336 372
#     4  10  21  36  66  96 120 167 221 258 310 389
#     4  11  24  39  65 100 132 163 218 275 312 379
#     4  10  23  39  67  94 126 172 219 252 324 394
#
# _framework density 27.575726
#
# number of rings (size 3 to 8) (size 9 to 14) (size 15 to 20)
#    1.000    0.333    5.000    1.000    2.333    0.667 
#    0.000    4.167    0.000    0.000    0.000    0.000 
#    0.000    0.000    0.000    0.000    0.000    0.000 
#
# Total GULP energy -66834.843386 kJ/mol
# GULP energy per Si atom -5569.570282 kJ/mol
# Density = 2.751296 g / cm^3
# Si number density = 27.575726 Si / 1000 Ang^3
#
#
#
# Elastic Constant Matrix: (Units=GPa)
#
#
# Indices 1 2 3 4 5 6 
#
# 1 155.2909 14.9499 -13.9575 -4.3482 35.5157 -13.4628
# 2 14.9499 148.0587 -2.9575 -19.9752 8.8766 -31.4551
# 3 -13.9575 -2.9575 86.0692 -31.4239 18.9964 -2.1325
# 4 -4.3482 -19.9752 -31.4239 45.8555 -5.0524 6.9956
# 5 35.5157 8.8766 18.9964 -5.0524 29.7180 1.9657
# 6 -13.4628 -31.4551 -2.1325 6.9956 1.9657 60.0841
#
#
#
# Elastic Compliance Matrix: (Units=1/GPa)
#
#
# Indices 1 2 3 4 5 6 
#
# 1 0.011866 0.001547 0.007982 0.004564 -0.019225 0.003850
# 2 0.001547 0.008775 0.004030 0.005306 -0.006454 0.004677
# 3 0.007982 0.004030 0.024194 0.015914 -0.023746 0.003681
# 4 0.004564 0.005306 0.015914 0.034076 -0.011470 0.000773
# 5 -0.019225 -0.006454 -0.023746 -0.011470 0.072414 -0.009563
# 6 0.003850 0.004677 0.003681 0.000773 -0.009563 0.020308
#
#
# Mechanical properties :
#
#
# Convention : Reuss Voigt Hill
#
# Bulk Modulus (GPa) = 13.89765 42.83206 28.36485
# Shear Modulus (GPa) = 29.67387 53.22378 41.44883
#
# Velocity S-wave (km/s) = 3.28393 4.39805 3.88118
# Velocity P-wave (km/s) = 4.40792 6.43092 5.51300
#
# Compressibility (1/GPa) = 0.07195463
#
# Stress axis : x y z
#
# Youngs Moduli (GPa) = 84.27222 113.96367 41.33244
#
# Poissons Ratio (x) = -0.17636 -0.32992
# Poissons Ratio (y) = -0.13041 -0.16657
# Poissons Ratio (z) = -0.67268 -0.45928
#
# Static dielectric constant tensor:
#      x y z
#    x 2.029740 0.006480 -0.022470 
#    y 0.006480 2.255000 0.002570 
#    z -0.022470 0.002570 2.440890 
# 
# From -- ./inp_files/158282.got.cif
#   From: 2010.05.17/outbox.cif.g08.bks.cpg/sg2_80_cif.got.tgz:158282.got - 2010.06.03 11:33:40.
