data_PCOD9107435
_publ_section_title
;
Structure prediction by ZEFSAII (Michael W. Deem and Ramdas Pophale) SiO2 
 PCOD9107435
Probable space group: P -1
;
_chemical_formula_sum "Si O2"
_cell_formula_units_Z 16
_cell_length_a 15.126754
_cell_length_b 7.294282
_cell_length_c 13.274248
_cell_angle_alpha 82.840817
_cell_angle_beta 130.417354
_cell_angle_gamma 127.143860
_cell_volume 798.332596
_symmetry_space_group_name_H-M "P -1"
_symmetry_group_IT_number 2
_symmetry_cell_setting 'triclinic'
loop_
_space_group_symop_operation_xyz
x,y,z
-x,-y,-z
loop_
_atom_site_type_symbol
_atom_site_label
_atom_site_fract_x
_atom_site_fract_y
_atom_site_fract_z
Si Si1 0.450293 0.037500 0.063051
Si Si2 0.239677 0.169205 0.859186
Si Si3 0.132453 0.327460 0.371813
Si Si4 0.334800 0.476436 0.703809
Si Si5 0.686875 0.716717 0.657375
Si Si6 0.167943 0.718053 0.250140
Si Si7 0.800429 0.281037 0.944064
Si Si8 0.316699 0.273054 0.117902
O O1 0.325722 0.796612 0.059869
O O2 0.602386 0.256615 0.228953
O O3 0.500000 0.000000 0.000000
O O4 0.364326 0.136548 0.962808
O O5 0.264753 0.311122 0.972149
O O6 0.275338 0.309728 0.771838
O O7 0.058727 0.897852 0.747347
O O8 0.204743 0.349155 0.530173
O O9 0.204498 0.277053 0.340836
O O10 0.180325 0.587486 0.358366
O O11 0.745791 0.994852 0.682628
O O12 0.493158 0.557081 0.766083
O O13 0.500000 0.500000 0.500000
O O14 0.710277 0.678535 0.794041
O O15 0.236888 0.703599 0.198929
O O16 0.978912 0.532063 0.093744
O O17 0.777032 0.029948 0.935914
#
# Coordination Sequence:
#
# PCOD9107435 Si02
#       8
#     2   2   2   2   2   2   2   2
#     4  10  20  40  64  92 121 161 223 261 307 382
#     4  10  21  41  63  89 126 169 216 262 310 370
#     4  12  23  42  65  94 132 173 206 260 333 375
#     4  10  21  40  62  88 132 170 204 269 317 365
#     4  11  24  41  62  99 128 165 212 255 323 398
#     4  10  20  41  64  88 133 163 205 267 313 375
#     4   8  17  38  62  89 124 161 204 272 308 363
#     4   9  17  40  64  87 130 160 214 265 302 384
#
# _framework density 20.041772000000002
#
# number of rings (size 3 to 8) (size 9 to 14) (size 15 to 20)
#    0.000    2.250    3.750    1.875    0.000    2.000 
#    6.750    0.625    0.000    0.000    0.000    0.000 
#    0.000    0.000    0.000    0.000    0.000    0.000 
#
# Total GULP energy -89251.843621 kJ/mol
# GULP energy per Si atom -5578.240226 kJ/mol
# Density = 1.999616 g / cm^3
# Si number density = 20.041772 Si / 1000 Ang^3
#
#
#
# Elastic Constant Matrix: (Units=GPa)
#
#
# Indices 1 2 3 4 5 6 
#
# 1 94.0651 29.4961 32.6306 11.9162 -27.3994 14.0608
# 2 29.4961 91.3435 36.5753 3.3093 -7.3958 14.8715
# 3 32.6306 36.5753 119.1719 -6.6669 -22.7711 6.7080
# 4 11.9162 3.3093 -6.6669 32.0471 8.0324 -7.5163
# 5 -27.3994 -7.3958 -22.7711 8.0324 27.9830 -4.1874
# 6 14.0608 14.8715 6.7080 -7.5163 -4.1874 28.1310
#
#
#
# Elastic Compliance Matrix: (Units=1/GPa)
#
#
# Indices 1 2 3 4 5 6 
#
# 1 0.022343 -0.002522 -0.001206 -0.016635 0.023432 -0.010503
# 2 -0.002522 0.014239 -0.003861 -0.002271 -0.002135 -0.006271
# 3 -0.001206 -0.003861 0.011187 0.001865 0.006585 0.001455
# 4 -0.016635 -0.002271 0.001865 0.048969 -0.026706 0.018179
# 5 0.023432 -0.002135 0.006585 -0.026706 0.069808 -0.008898
# 6 -0.010503 -0.006271 0.001455 0.018179 -0.008898 0.047299
#
#
# Mechanical properties :
#
#
# Convention : Reuss Voigt Hill
#
# Bulk Modulus (GPa) = 30.68417 55.77608 43.23012
# Shear Modulus (GPa) = 20.84322 31.35747 26.10034
#
# Velocity S-wave (km/s) = 3.22838 3.95980 3.61265
# Velocity P-wave (km/s) = 5.40740 6.98549 6.24648
#
# Compressibility (1/GPa) = 0.03259009
#
# Stress axis : x y z
#
# Youngs Moduli (GPa) = 44.75733 70.23153 89.38842
#
# Poissons Ratio (x) = 0.17713 0.10777
# Poissons Ratio (y) = 0.11288 0.34517
# Poissons Ratio (z) = 0.05396 0.27120
#
# Static dielectric constant tensor:
#      x y z
#    x 1.727370 -0.016370 -0.015590 
#    y -0.016370 1.819890 -0.021780 
#    z -0.015590 -0.021780 1.691440 
# 
# From -- ./inp_files/526628.got.cif
#   From: 2010.05.17/outbox.cif.g08.bks.cpg/sg2_264_cif.got.tgz:526628.got - 2010.06.03 11:33:40.
