data_PCOD9107740
_publ_section_title
;
Structure prediction by ZEFSAII (Michael W. Deem and Ramdas Pophale) SiO2 
 PCOD9107740
Probable space group: P -1
;
_chemical_formula_sum "Si O2"
_cell_formula_units_Z 16
_cell_length_a 8.328576
_cell_length_b 13.694345
_cell_length_c 10.968991
_cell_angle_alpha 100.140645
_cell_angle_beta 122.950050
_cell_angle_gamma 43.359354
_cell_volume 666.474201
_symmetry_space_group_name_H-M "P -1"
_symmetry_group_IT_number 2
_symmetry_cell_setting 'triclinic'
loop_
_space_group_symop_operation_xyz
x,y,z
-x,-y,-z
loop_
_atom_site_type_symbol
_atom_site_label
_atom_site_fract_x
_atom_site_fract_y
_atom_site_fract_z
Si Si1 0.345309 0.632883 0.870740
Si Si2 0.596853 0.846111 0.847338
Si Si3 0.833350 0.859346 0.559254
Si Si4 0.326144 0.864804 0.494201
Si Si5 0.044407 0.194270 0.665732
Si Si6 0.777092 0.368915 0.837371
Si Si7 0.324465 0.866196 0.979605
Si Si8 0.362491 0.797426 0.237276
O O1 0.562509 0.543680 0.823300
O O2 0.296425 0.759630 0.932355
O O3 0.023982 0.731493 0.712467
O O4 0.500000 0.500000 0.000000
O O5 0.507234 0.822472 0.681472
O O6 0.516325 0.822458 0.934189
O O7 0.377967 0.027502 0.799987
O O8 0.938211 0.740160 0.979720
O O9 0.925113 0.776587 0.450646
O O10 0.500000 0.000000 0.500000
O O11 0.893390 0.954425 0.582709
O O12 0.491589 0.786454 0.415339
O O13 0.147305 0.832575 0.423908
O O14 0.896997 0.317855 0.737539
O O15 0.600883 0.335601 0.778537
O O16 0.453966 0.821721 0.160201
O O17 0.999091 0.044517 0.875296
#
# Coordination Sequence:
#
# PCOD9107740 Si02
#       8
#     2   2   2   2   2   2   2   2
#     4  12  25  42  64  98 145 177 218 273 362 394
#     4  11  21  37  68  99 134 165 235 280 327 393
#     4  11  24  40  68 100 131 176 230 278 326 406
#     4  10  20  40  65  94 128 175 223 273 322 400
#     4  10  21  41  67  95 132 177 228 271 332 401
#     4  11  24  40  66 101 136 177 214 291 337 396
#     4  11  21  38  65  94 133 178 228 269 332 415
#     4  10  21  39  65  94 127 185 227 267 334 406
#
# _framework density 24.006930000000001
#
# number of rings (size 3 to 8) (size 9 to 14) (size 15 to 20)
#    0.000    1.250    5.000    2.625    3.500    2.000 
#    0.000    0.000    0.000    6.750    0.000    0.000 
#    0.000    0.000    0.000    0.000    0.000    0.000 
#
# Total GULP energy -89408.376726 kJ/mol
# GULP energy per Si atom -5588.023545 kJ/mol
# Density = 2.395229 g / cm^3
# Si number density = 24.006930 Si / 1000 Ang^3
#
#
#
# Elastic Constant Matrix: (Units=GPa)
#
#
# Indices 1 2 3 4 5 6 
#
# 1 72.3736 -0.1093 53.4743 6.2024 -24.0180 -14.0299
# 2 -0.1093 68.4878 28.4717 11.1663 3.2474 -21.1299
# 3 53.4743 28.4717 144.0697 21.6110 -21.7992 -19.1837
# 4 6.2024 11.1663 21.6110 40.5754 -9.4482 -7.6812
# 5 -24.0180 3.2474 -21.7992 -9.4482 43.1691 9.4123
# 6 -14.0299 -21.1299 -19.1837 -7.6812 9.4123 31.5631
#
#
#
# Elastic Compliance Matrix: (Units=1/GPa)
#
#
# Indices 1 2 3 4 5 6 
#
# 1 0.023333 0.004726 -0.007862 0.002439 0.007649 0.007070
# 2 0.004726 0.021692 -0.004432 -0.002711 -0.005055 0.014776
# 3 -0.007862 -0.004432 0.011323 -0.003501 0.001075 -0.000752
# 4 0.002439 -0.002711 -0.003501 0.028636 0.005523 0.002463
# 5 0.007649 -0.005055 0.001075 0.005523 0.031138 -0.007272
# 6 0.007070 0.014776 -0.000752 0.002463 -0.007272 0.047028
#
#
# Mechanical properties :
#
#
# Convention : Reuss Voigt Hill
#
# Bulk Modulus (GPa) = 24.26408 49.84495 37.05451
# Shear Modulus (GPa) = 26.03885 36.60114 31.31999
#
# Velocity S-wave (km/s) = 3.29696 3.90886 3.61588
# Velocity P-wave (km/s) = 4.96209 6.41717 5.73595
#
# Compressibility (1/GPa) = 0.04121319
#
# Stress axis : x y z
#
# Youngs Moduli (GPa) = 42.85799 46.10069 88.31906
#
# Poissons Ratio (x) = -0.21789 0.69434
# Poissons Ratio (y) = -0.20257 0.39141
# Poissons Ratio (z) = 0.33694 0.20431
#
# Static dielectric constant tensor:
#      x y z
#    x 1.978470 -0.019910 -0.023580 
#    y -0.019910 1.891720 0.080530 
#    z -0.023580 0.080530 2.002140 
# 
# From -- ./inp_files/397496.got.cif
#   From: 2010.05.17/outbox.cif.g08.bks.cpg/sg2_199_cif.got.tgz:397496.got - 2010.06.03 11:33:40.
