data_PCOD9107719
_publ_section_title
;
Structure prediction by ZEFSAII (Michael W. Deem and Ramdas Pophale) SiO2 
 PCOD9107719
Probable space group: P -1
;
_chemical_formula_sum "Si O2"
_cell_formula_units_Z 16
_cell_length_a 11.592697
_cell_length_b 10.441775
_cell_length_c 12.813047
_cell_angle_alpha 108.543456
_cell_angle_beta 128.059336
_cell_angle_gamma 112.162517
_cell_volume 741.554268
_symmetry_space_group_name_H-M "P -1"
_symmetry_group_IT_number 2
_symmetry_cell_setting 'triclinic'
loop_
_space_group_symop_operation_xyz
x,y,z
-x,-y,-z
loop_
_atom_site_type_symbol
_atom_site_label
_atom_site_fract_x
_atom_site_fract_y
_atom_site_fract_z
Si Si1 0.813472 0.444921 0.788509
Si Si2 0.724438 0.529248 0.978929
Si Si3 0.683893 0.535075 0.555028
Si Si4 0.217184 0.911970 0.931670
Si Si5 0.466999 0.616785 0.810082
Si Si6 0.190072 0.808761 0.392772
Si Si7 0.356190 0.816228 0.144895
Si Si8 0.903603 0.465355 0.324175
O O1 0.746040 0.484314 0.861223
O O2 0.696268 0.421556 0.614203
O O3 0.757261 0.248087 0.691988
O O4 0.089975 0.641532 0.985836
O O5 0.562338 0.542552 0.886142
O O6 0.647190 0.337696 0.947567
O O7 0.974894 0.745604 0.218437
O O8 0.500000 0.500000 0.500000
O O9 0.609671 0.454645 0.373245
O O10 0.953249 0.769158 0.767026
O O11 0.198398 0.753098 0.822335
O O12 0.371256 0.966736 0.128298
O O13 0.345242 0.130718 0.013458
O O14 0.262551 0.527688 0.742800
O O15 0.086504 0.645416 0.387794
O O16 0.422255 0.036722 0.621157
O O17 0.000000 0.500000 0.500000
#
# Coordination Sequence:
#
# PCOD9107719 Si02
#       8
#     2   2   2   2   2   2   2   2
#     4  10  20  40  65  93 129 169 218 258 317 383
#     4  11  24  42  60  97 135 166 211 264 324 381
#     4  11  21  42  63  96 136 163 205 274 316 377
#     4  11  23  44  68  98 123 171 221 257 322 386
#     4  12  26  41  67  98 132 169 211 271 326 367
#     4  11  22  42  64  95 126 171 219 260 314 383
#     4  10  21  41  69  91 126 173 213 259 318 381
#     4  12  22  44  72  92 127 168 222 268 312 381
#
# _framework density 21.576302999999999
#
# number of rings (size 3 to 8) (size 9 to 14) (size 15 to 20)
#    0.000    1.000    6.250    3.375    0.000    4.000 
#    2.250    0.625    0.000    0.000    0.000    0.000 
#    0.000    0.000    0.000    0.000    0.000    0.000 
#
# Total GULP energy -89106.687712 kJ/mol
# GULP energy per Si atom -5569.167982 kJ/mol
# Density = 2.152719 g / cm^3
# Si number density = 21.576303 Si / 1000 Ang^3
#
#
#
# Elastic Constant Matrix: (Units=GPa)
#
#
# Indices 1 2 3 4 5 6 
#
# 1 151.3318 39.5181 48.3605 -11.8850 14.8870 -25.2748
# 2 39.5181 79.3316 19.3534 -9.8273 15.9835 -22.1262
# 3 48.3605 19.3534 138.2183 -12.9955 10.2350 -13.8802
# 4 -11.8850 -9.8273 -12.9955 34.1540 -6.2663 2.6083
# 5 14.8870 15.9835 10.2350 -6.2663 27.7619 -19.1812
# 6 -25.2748 -22.1262 -13.8802 2.6083 -19.1812 33.7839
#
#
#
# Elastic Compliance Matrix: (Units=1/GPa)
#
#
# Indices 1 2 3 4 5 6 
#
# 1 0.008731 -0.002633 -0.002199 0.001283 0.000927 0.004332
# 2 -0.002633 0.016881 -0.000254 0.002824 -0.002503 0.007343
# 3 -0.002199 -0.000254 0.008401 0.002185 -0.000431 0.001226
# 4 0.001283 0.002824 0.002185 0.032438 0.008282 0.005906
# 5 0.000927 -0.002503 -0.000431 0.008282 0.062159 0.033529
# 6 0.004332 0.007343 0.001226 0.005906 0.033529 0.056734
#
#
# Mechanical properties :
#
#
# Convention : Reuss Voigt Hill
#
# Bulk Modulus (GPa) = 41.94568 64.81618 53.38093
# Shear Modulus (GPa) = 24.57454 36.58329 30.57892
#
# Velocity S-wave (km/s) = 3.37851 4.12215 3.76872
# Velocity P-wave (km/s) = 5.89083 7.26373 6.61301
#
# Compressibility (1/GPa) = 0.02384035
#
# Stress axis : x y z
#
# Youngs Moduli (GPa) = 114.53016 59.23884 119.03989
#
# Poissons Ratio (x) = 0.15595 0.26181
# Poissons Ratio (y) = 0.30150 0.03027
# Poissons Ratio (z) = 0.25189 0.01507
#
# Static dielectric constant tensor:
#      x y z
#    x 1.813340 0.064380 -0.039170 
#    y 0.064380 1.877950 -0.072330 
#    z -0.039170 -0.072330 1.823920 
# 
# From -- ./inp_files/519062.got.cif
#   From: 2010.05.17/outbox.cif.g08.bks.cpg/sg2_260_cif.got.tgz:519062.got - 2010.06.03 11:33:40.
