data_PCOD9107284
_publ_section_title
;
Structure prediction by ZEFSAII (Michael W. Deem and Ramdas Pophale) SiO2 
 PCOD9107284
Probable space group: P -1
;
_chemical_formula_sum "Si O2"
_cell_formula_units_Z 14
_cell_length_a 11.963440
_cell_length_b 10.711859
_cell_length_c 5.362021
_cell_angle_alpha 113.981841
_cell_angle_beta 106.349423
_cell_angle_gamma 94.152273
_cell_volume 588.604428
_symmetry_space_group_name_H-M "P -1"
_symmetry_group_IT_number 2
_symmetry_cell_setting 'triclinic'
loop_
_space_group_symop_operation_xyz
x,y,z
-x,-y,-z
loop_
_atom_site_type_symbol
_atom_site_label
_atom_site_fract_x
_atom_site_fract_y
_atom_site_fract_z
Si Si1 0.461030 0.318205 0.935728
Si Si2 0.126282 0.083520 0.560397
Si Si3 0.704255 0.497298 0.220344
Si Si4 0.941976 0.421005 0.150213
Si Si5 0.522227 0.883025 0.609826
Si Si6 0.872640 0.748024 0.812895
Si Si7 0.660721 0.986743 0.178361
O O1 0.365889 0.415779 0.937931
O O2 0.483416 0.267805 0.626946
O O3 0.404790 0.168917 0.896480
O O4 0.590065 0.391446 0.178691
O O5 0.125088 0.149873 0.340995
O O6 0.217832 0.982475 0.574591
O O7 0.161666 0.197941 0.897880
O O8 0.000000 0.000000 0.500000
O O9 0.801860 0.423507 0.088487
O O10 0.779593 0.607519 0.552698
O O11 0.000000 0.500000 0.500000
O O12 0.994559 0.281390 0.087203
O O13 0.000000 0.500000 0.000000
O O14 0.500000 0.000000 0.500000
O O15 0.415084 0.895180 0.738656
O O16 0.653039 0.951143 0.853170
#
# Coordination Sequence:
#
# PCOD9107284 Si02
#       7
#     2   2   2   2   2   2   2
#     4  10  20  40  63  97 134 171 221 268 339 410
#     4  12  26  44  70  99 129 181 234 284 340 402
#     4  10  21  40  66  99 132 175 218 271 339 411
#     4  10  22  42  66  93 130 179 221 270 333 393
#     4   9  20  40  63  91 131 174 218 278 338 392
#     4  11  23  46  67  95 138 174 224 290 339 401
#     4  10  21  40  65  93 134 173 223 282 337 397
#
# _framework density 23.785073000000001
#
# number of rings (size 3 to 8) (size 9 to 14) (size 15 to 20)
#    0.000    1.714    1.429    3.000    2.000    1.143 
#   15.429    2.143    0.000    0.000    0.000    0.000 
#    0.000    0.000    0.000    0.000    0.000    0.000 
#
# Total GULP energy -78044.204810 kJ/mol
# GULP energy per Si atom -5574.586058 kJ/mol
# Density = 2.373094 g / cm^3
# Si number density = 23.785073 Si / 1000 Ang^3
#
#
#
# Elastic Constant Matrix: (Units=GPa)
#
#
# Indices 1 2 3 4 5 6 
#
# 1 161.4123 47.0760 36.0484 -9.3308 29.6240 -27.4707
# 2 47.0760 58.9830 26.2170 -26.0000 9.5322 -18.4221
# 3 36.0484 26.2170 69.7724 -14.2767 3.0370 -0.3316
# 4 -9.3308 -26.0000 -14.2767 37.1367 -1.5360 9.7174
# 5 29.6240 9.5322 3.0370 -1.5360 41.8248 -0.3272
# 6 -27.4707 -18.4221 -0.3316 9.7174 -0.3272 48.7855
#
#
#
# Elastic Compliance Matrix: (Units=1/GPa)
#
#
# Indices 1 2 3 4 5 6 
#
# 1 0.010418 -0.006497 -0.003628 -0.004685 -0.005773 0.004283
# 2 -0.006497 0.035461 -0.005889 0.019310 -0.002298 0.005831
# 3 -0.003628 -0.005889 0.019031 0.003659 0.002627 -0.004849
# 4 -0.004685 0.019310 0.003659 0.041628 0.000152 -0.003612
# 5 -0.005773 -0.002298 0.002627 0.000152 0.028306 -0.003941
# 6 0.004283 0.005831 -0.004849 -0.003612 -0.003941 0.025771
#
#
# Mechanical properties :
#
#
# Convention : Reuss Voigt Hill
#
# Bulk Modulus (GPa) = 30.41195 56.53898 43.47546
# Shear Modulus (GPa) = 24.55735 37.60451 31.08093
#
# Velocity S-wave (km/s) = 3.21669 3.98051 3.61881
# Velocity P-wave (km/s) = 5.15849 6.70435 5.98157
#
# Compressibility (1/GPa) = 0.03288181
#
# Stress axis : x y z
#
# Youngs Moduli (GPa) = 95.98662 28.19981 52.54547
#
# Poissons Ratio (x) = 0.18321 0.19066
# Poissons Ratio (y) = 0.62360 0.30945
# Poissons Ratio (z) = 0.34828 0.16607
#
# Static dielectric constant tensor:
#      x y z
#    x 2.093460 0.037750 -0.102510 
#    y 0.037750 1.942090 -0.112250 
#    z -0.102510 -0.112250 2.130040 
# 
# From -- ./inp_files/72004.got.cif
#   From: 2010.05.17/outbox.cif.g08.bks.cpg/sg2_37_cif.got.tgz:72004.got - 2010.06.03 11:33:40.
