data_PCOD9107770
_publ_section_title
;
Structure prediction by ZEFSAII (Michael W. Deem and Ramdas Pophale) SiO2 
 PCOD9107770
Probable space group: P -1
;
_chemical_formula_sum "Si O2"
_cell_formula_units_Z 14
_cell_length_a 19.289336
_cell_length_b 12.270021
_cell_length_c 9.880236
_cell_angle_alpha 49.899747
_cell_angle_beta 140.924451
_cell_angle_gamma 154.274753
_cell_volume 626.635994
_symmetry_space_group_name_H-M "P -1"
_symmetry_group_IT_number 2
_symmetry_cell_setting 'triclinic'
loop_
_space_group_symop_operation_xyz
x,y,z
-x,-y,-z
loop_
_atom_site_type_symbol
_atom_site_label
_atom_site_fract_x
_atom_site_fract_y
_atom_site_fract_z
Si Si1 0.462106 0.432274 0.152674
Si Si2 0.413048 0.079294 0.484640
Si Si3 0.190071 0.307944 0.030728
Si Si4 0.083637 0.790699 0.433776
Si Si5 0.199259 0.213658 0.398393
Si Si6 0.115997 0.414844 0.194603
Si Si7 0.913479 0.449122 0.695199
O O1 0.387453 0.191975 0.262289
O O2 0.656722 0.651307 0.365637
O O3 0.500000 0.500000 0.000000
O O4 0.317042 0.392080 0.030379
O O5 0.645557 0.313634 0.677304
O O6 0.278395 0.964231 0.504760
O O7 0.311405 0.835060 0.454357
O O8 0.097019 0.361683 0.819208
O O9 0.297869 0.389333 0.270766
O O10 0.000000 0.000000 0.000000
O O11 0.020816 0.606041 0.593963
O O12 0.118523 0.974116 0.424420
O O13 0.056139 0.189286 0.245432
O O14 0.073958 0.410350 0.289700
O O15 0.010175 0.416543 0.939455
#
# Coordination Sequence:
#
# PCOD9107770 Si02
#       7
#     2   2   2   2   2   2   2
#     4  11  24  39  66 103 131 172 223 276 344 389
#     4  11  23  45  67  94 138 178 223 278 331 409
#     4  10  20  40  65  95 133 172 212 279 337 389
#     4  11  24  41  70 102 129 176 232 269 343 396
#     4  10  22  43  67  97 134 171 218 286 329 400
#     4  10  25  42  69  91 137 182 224 272 348 383
#     4  11  25  46  64  98 135 185 223 276 327 414
#
# _framework density 22.341519000000002
#
# number of rings (size 3 to 8) (size 9 to 14) (size 15 to 20)
#    0.000    1.429    2.857    2.143    8.000    3.429 
#    2.571    0.000    0.000    0.000    0.000    0.000 
#    0.000    0.000    0.000    0.000    0.000    0.000 
#
# Total GULP energy -78244.399656 kJ/mol
# GULP energy per Si atom -5588.885690 kJ/mol
# Density = 2.229067 g / cm^3
# Si number density = 22.341519 Si / 1000 Ang^3
#
#
#
# Elastic Constant Matrix: (Units=GPa)
#
#
# Indices 1 2 3 4 5 6 
#
# 1 106.4130 14.4798 22.4702 -4.6791 -14.5965 -3.0527
# 2 14.4798 50.0613 18.8374 -9.5129 -16.0114 0.8019
# 3 22.4702 18.8374 79.0735 10.0584 -21.8096 13.5566
# 4 -4.6791 -9.5129 10.0584 25.0008 5.6036 0.6857
# 5 -14.5965 -16.0114 -21.8096 5.6036 43.5371 -1.6595
# 6 -3.0527 0.8019 13.5566 0.6857 -1.6595 37.8714
#
#
#
# Elastic Compliance Matrix: (Units=1/GPa)
#
#
# Indices 1 2 3 4 5 6 
#
# 1 0.010528 -0.001039 -0.002998 0.002411 0.001410 0.001962
# 2 -0.001039 0.026310 -0.006381 0.011276 0.004742 0.001647
# 3 -0.002998 -0.006381 0.019989 -0.012649 0.008035 -0.006681
# 4 0.002411 0.011276 -0.012649 0.051510 -0.007889 0.003205
# 5 0.001410 0.004742 0.008035 -0.007889 0.030173 -0.001398
# 6 0.001962 0.001647 -0.006681 0.003205 -0.001398 0.028801
#
#
# Mechanical properties :
#
#
# Convention : Reuss Voigt Hill
#
# Bulk Modulus (GPa) = 27.78559 38.56916 33.17737
# Shear Modulus (GPa) = 24.98195 33.26589 29.12392
#
# Velocity S-wave (km/s) = 3.34755 3.86291 3.61443
# Velocity P-wave (km/s) = 5.23500 6.09893 5.68341
#
# Compressibility (1/GPa) = 0.03598988
#
# Stress axis : x y z
#
# Youngs Moduli (GPa) = 94.98871 38.00775 50.02702
#
# Poissons Ratio (x) = 0.03949 0.15000
# Poissons Ratio (y) = 0.09870 0.31924
# Poissons Ratio (z) = 0.28481 0.24254
#
# Static dielectric constant tensor:
#      x y z
#    x 1.865910 -0.047240 -0.014260 
#    y -0.047240 1.821060 0.036310 
#    z -0.014260 0.036310 1.842550 
# 
# From -- ./inp_files/279140.got.cif
#   From: 2010.05.17/outbox.cif.g08.bks.cpg/sg2_140_cif.got.tgz:279140.got - 2010.06.03 11:33:40.
