data_PCOD9107514
_publ_section_title
;
Structure prediction by ZEFSAII (Michael W. Deem and Ramdas Pophale) SiO2 
 PCOD9107514
Probable space group: P -1
;
_chemical_formula_sum "Si O2"
_cell_formula_units_Z 14
_cell_length_a 13.085439
_cell_length_b 8.309591
_cell_length_c 9.359985
_cell_angle_alpha 133.194194
_cell_angle_beta 78.722157
_cell_angle_gamma 121.844370
_cell_volume 607.358902
_symmetry_space_group_name_H-M "P -1"
_symmetry_group_IT_number 2
_symmetry_cell_setting 'triclinic'
loop_
_space_group_symop_operation_xyz
x,y,z
-x,-y,-z
loop_
_atom_site_type_symbol
_atom_site_label
_atom_site_fract_x
_atom_site_fract_y
_atom_site_fract_z
Si Si1 0.238233 0.699793 0.805989
Si Si2 0.271017 0.369371 0.375294
Si Si3 0.820319 0.472438 0.962493
Si Si4 0.940794 0.146243 0.028975
Si Si5 0.439100 0.284642 0.105033
Si Si6 0.350017 0.847105 0.435076
Si Si7 0.678121 0.710541 0.158283
O O1 0.248213 0.476628 0.590951
O O2 0.189047 0.620559 0.931538
O O3 0.143588 0.775247 0.811594
O O4 0.374567 0.971900 0.932117
O O5 0.393755 0.364028 0.305768
O O6 0.284737 0.582677 0.386281
O O7 0.156894 0.076423 0.190722
O O8 0.802507 0.716245 0.120359
O O9 0.948005 0.588033 0.913769
O O10 0.704731 0.242664 0.762621
O O11 0.000000 0.000000 0.000000
O O12 0.583465 0.464553 0.137531
O O13 0.378799 0.338673 0.015528
O O14 0.500000 0.000000 0.500000
O O15 0.314565 0.040518 0.627078
#
# Coordination Sequence:
#
# PCOD9107514 Si02
#       7
#     2   2   2   2   2   2   2
#     4  11  26  42  67  97 139 173 209 280 345 378
#     4  11  22  41  69  96 130 171 223 267 326 392
#     4  12  26  44  63 103 136 170 218 279 334 384
#     4  11  24  46  70  96 128 173 231 272 313 403
#     4  10  20  40  64  96 130 169 222 267 312 394
#     4  12  22  41  71  99 129 178 226 267 319 396
#     4  11  21  37  67  95 127 173 223 266 314 388
#
# _framework density 23.050619000000001
#
# number of rings (size 3 to 8) (size 9 to 14) (size 15 to 20)
#    0.000    0.857    5.714    2.143    0.000    5.143 
#    0.000    1.429    0.000    0.000    0.000    0.000 
#    0.000    0.000    0.000    0.000    0.000    0.000 
#
# Total GULP energy -78276.971778 kJ/mol
# GULP energy per Si atom -5591.212270 kJ/mol
# Density = 2.299815 g / cm^3
# Si number density = 23.050619 Si / 1000 Ang^3
#
#
#
# Elastic Constant Matrix: (Units=GPa)
#
#
# Indices 1 2 3 4 5 6 
#
# 1 66.8108 6.7102 41.1299 -5.7689 -7.2615 10.8988
# 2 6.7102 79.3317 22.9278 -1.8222 11.6883 20.1131
# 3 41.1299 22.9278 136.5870 -0.1884 -23.6789 13.5928
# 4 -5.7689 -1.8222 -0.1884 34.0166 -7.9530 -0.5367
# 5 -7.2615 11.6883 -23.6789 -7.9530 27.3323 -4.6471
# 6 10.8988 20.1131 13.5928 -0.5367 -4.6471 31.0147
#
#
#
# Elastic Compliance Matrix: (Units=1/GPa)
#
#
# Indices 1 2 3 4 5 6 
#
# 1 0.019371 0.001428 -0.005592 0.003182 -0.000279 -0.005269
# 2 0.001428 0.019511 -0.005044 -0.002534 -0.015330 -0.013285
# 3 -0.005592 -0.005044 0.011671 0.001579 0.011562 0.001881
# 4 0.003182 -0.002534 0.001579 0.032956 0.013294 0.002396
# 5 -0.000279 -0.015330 0.011562 0.013294 0.059350 0.014095
# 6 -0.005269 -0.013285 0.001881 0.002396 0.014095 0.044039
#
#
# Mechanical properties :
#
#
# Convention : Reuss Voigt Hill
#
# Bulk Modulus (GPa) = 31.11800 47.14058 39.12929
# Shear Modulus (GPa) = 23.14524 32.60350 27.87437
#
# Velocity S-wave (km/s) = 3.17220 3.76497 3.48123
# Velocity P-wave (km/s) = 5.19098 6.27657 5.75941
#
# Compressibility (1/GPa) = 0.03213574
#
# Stress axis : x y z
#
# Youngs Moduli (GPa) = 51.62364 51.25320 85.67889
#
# Poissons Ratio (x) = -0.07318 0.47915
# Poissons Ratio (y) = -0.07371 0.43218
# Poissons Ratio (z) = 0.28870 0.25853
#
# Static dielectric constant tensor:
#      x y z
#    x 1.926710 -0.039950 -0.008860 
#    y -0.039950 1.873390 -0.030510 
#    z -0.008860 -0.030510 1.862480 
# 
# From -- ./inp_files/187212.got.cif
#   From: 2010.05.17/outbox.cif.g08.bks.cpg/sg2_94_cif.got.tgz:187212.got - 2010.06.03 11:33:40.
