data_PCOD9107093
_publ_section_title
;
Structure prediction by ZEFSAII (Michael W. Deem and Ramdas Pophale) SiO2 
 PCOD9107093
Probable space group: P -1
;
_chemical_formula_sum "Si O2"
_cell_formula_units_Z 16
_cell_length_a 18.422940
_cell_length_b 9.222048
_cell_length_c 14.906685
_cell_angle_alpha 141.985410
_cell_angle_beta 148.287006
_cell_angle_gamma 38.031970
_cell_volume 764.041081
_symmetry_space_group_name_H-M "P -1"
_symmetry_group_IT_number 2
_symmetry_cell_setting 'triclinic'
loop_
_space_group_symop_operation_xyz
x,y,z
-x,-y,-z
loop_
_atom_site_type_symbol
_atom_site_label
_atom_site_fract_x
_atom_site_fract_y
_atom_site_fract_z
Si Si1 0.330870 0.961612 0.000432
Si Si2 0.151979 0.646419 0.734724
Si Si3 0.152848 0.878072 0.322585
Si Si4 0.337208 0.121783 0.733567
Si Si5 0.838349 0.606020 0.835974
Si Si6 0.779563 0.082773 0.331288
Si Si7 0.058022 0.619723 0.431000
Si Si8 0.987822 0.242673 0.048747
O O1 0.277521 0.204757 0.126868
O O2 0.503403 0.873831 0.118969
O O3 0.277740 0.756612 0.893664
O O4 0.246880 0.013829 0.841899
O O5 0.221027 0.411542 0.759586
O O6 0.110535 0.534317 0.544718
O O7 0.007172 0.891061 0.727061
O O8 0.184695 0.659277 0.325516
O O9 0.277252 0.994527 0.527624
O O10 0.141824 0.740207 0.150567
O O11 0.337372 0.957085 0.742072
O O12 0.868943 0.759611 0.859567
O O13 0.000000 0.500000 0.000000
O O14 0.806335 0.340916 0.461346
O O15 0.934038 0.897825 0.445459
O O16 0.980892 0.460015 0.217503
O O17 0.000000 0.000000 0.000000
#
# Coordination Sequence:
#
# PCOD9107093 Si02
#       8
#     2   2   2   2   2   2   2   2
#     4  11  23  41  62  92 127 169 200 253 325 371
#     4  11  22  41  63  91 125 166 205 255 311 368
#     4  11  22  40  63  91 125 164 208 254 305 366
#     4  12  24  37  62  96 130 159 208 260 308 369
#     4  10  20  40  63  81 122 163 208 246 305 369
#     4  10  21  37  63  91 122 158 211 262 304 358
#     4  10  21  37  63  93 119 162 211 256 308 357
#     4  11  22  34  60  94 120 153 207 261 300 354
#
# _framework density 20.941282999999999
#
# number of rings (size 3 to 8) (size 9 to 14) (size 15 to 20)
#    0.000    1.250    3.750    4.125    3.500    0.500 
#    0.000    0.000    0.000    3.000    0.000    0.000 
#    0.000    0.000    0.000    0.000    0.000    0.000 
#
# Total GULP energy -89187.520705 kJ/mol
# GULP energy per Si atom -5574.220044 kJ/mol
# Density = 2.089362 g / cm^3
# Si number density = 20.941283 Si / 1000 Ang^3
#
#
#
# Elastic Constant Matrix: (Units=GPa)
#
#
# Indices 1 2 3 4 5 6 
#
# 1 79.9468 32.8777 25.0931 3.3521 3.0239 9.0113
# 2 32.8777 74.4856 23.4713 17.5499 4.4608 14.1014
# 3 25.0931 23.4713 87.3729 17.7364 9.9164 -1.3572
# 4 3.3521 17.5499 17.7364 29.1285 -4.2204 4.5873
# 5 3.0239 4.4608 9.9164 -4.2204 39.5757 3.9493
# 6 9.0113 14.1014 -1.3572 4.5873 3.9493 31.5162
#
#
#
# Elastic Compliance Matrix: (Units=1/GPa)
#
#
# Indices 1 2 3 4 5 6 
#
# 1 0.016712 -0.006862 -0.004275 0.005475 0.001438 -0.002869
# 2 -0.006862 0.020417 -0.001319 -0.010127 -0.001977 -0.005508
# 3 -0.004275 -0.001319 0.015612 -0.009641 -0.004914 0.004504
# 4 0.005475 -0.010127 -0.009641 0.047814 0.008788 -0.005510
# 5 0.001438 -0.001977 -0.004914 0.008788 0.028001 -0.004526
# 6 -0.002869 -0.005508 0.004504 -0.005510 -0.004526 0.036578
#
#
# Mechanical properties :
#
#
# Convention : Reuss Voigt Hill
#
# Bulk Modulus (GPa) = 35.93542 44.96552 40.45047
# Shear Modulus (GPa) = 25.08485 30.73495 27.90990
#
# Velocity S-wave (km/s) = 3.46478 3.83518 3.65467
# Velocity P-wave (km/s) = 5.76225 6.41329 6.09647
#
# Compressibility (1/GPa) = 0.02782770
#
# Stress axis : x y z
#
# Youngs Moduli (GPa) = 59.83834 48.97761 64.05242
#
# Poissons Ratio (x) = 0.33609 0.27384
# Poissons Ratio (y) = 0.41062 0.08451
# Poissons Ratio (z) = 0.25582 0.06462
#
# Static dielectric constant tensor:
#      x y z
#    x 1.885090 0.000820 -0.033170 
#    y 0.000820 1.837560 0.094310 
#    z -0.033170 0.094310 1.803600 
# 
# From -- ./inp_files/419900.got.cif
#   From: 2010.05.17/outbox.cif.g08.bks.cpg/sg2_210_cif.got.tgz:419900.got - 2010.06.03 11:33:40.
