data_PCOD9107482
_publ_section_title
;
Structure prediction by ZEFSAII (Michael W. Deem and Ramdas Pophale) SiO2 
 PCOD9107482
Probable space group: P -1
;
_chemical_formula_sum "Si O2"
_cell_formula_units_Z 14
_cell_length_a 9.229758
_cell_length_b 16.510005
_cell_length_c 11.085204
_cell_angle_alpha 129.592328
_cell_angle_beta 122.564809
_cell_angle_gamma 32.404797
_cell_volume 697.575303
_symmetry_space_group_name_H-M "P -1"
_symmetry_group_IT_number 2
_symmetry_cell_setting 'triclinic'
loop_
_space_group_symop_operation_xyz
x,y,z
-x,-y,-z
loop_
_atom_site_type_symbol
_atom_site_label
_atom_site_fract_x
_atom_site_fract_y
_atom_site_fract_z
Si Si1 0.103996 0.284482 0.801880
Si Si2 0.651563 0.191275 0.266266
Si Si3 0.788298 0.893649 0.080425
Si Si4 0.221242 0.479589 0.539957
Si Si5 0.169520 0.673587 0.518760
Si Si6 0.580570 0.671645 0.972872
Si Si7 0.309106 0.602651 0.896560
O O1 0.176215 0.169332 0.830052
O O2 0.982633 0.286324 0.632208
O O3 0.852637 0.473819 0.914315
O O4 0.348272 0.251842 0.858039
O O5 0.444023 0.318362 0.401918
O O6 0.857109 0.190963 0.342809
O O7 0.487557 0.266346 0.137476
O O8 0.800461 0.013566 0.193882
O O9 0.009132 0.740054 0.944913
O O10 0.500000 0.000000 0.000000
O O11 0.076799 0.638417 0.546981
O O12 0.353372 0.485592 0.712607
O O13 0.000000 0.500000 0.500000
O O14 0.500000 0.500000 0.500000
O O15 0.362114 0.691858 0.944457
O O16 0.500000 0.500000 0.000000
#
# Coordination Sequence:
#
# PCOD9107482 Si02
#       7
#     2   2   2   2   2   2   2
#     4  11  22  39  70  96 135 180 229 266 333 413
#     4  11  22  44  67  94 134 179 220 273 344 389
#     4  12  26  44  68 104 141 173 218 286 347 387
#     4  11  23  39  67  98 132 172 227 275 325 395
#     4  10  20  40  64  94 129 180 224 266 329 404
#     4  11  21  41  70  97 128 186 230 266 323 415
#     4  12  26  43  69 102 136 173 231 277 327 406
#
# _framework density 20.069517000000001
#
# number of rings (size 3 to 8) (size 9 to 14) (size 15 to 20)
#    0.000    0.857    7.143    1.714    2.000    1.143 
#    0.000    0.000    0.000    4.286    0.000    0.000 
#    0.000    0.000    0.000    0.000    0.000    0.000 
#
# Total GULP energy -78159.791585 kJ/mol
# GULP energy per Si atom -5582.842256 kJ/mol
# Density = 2.002384 g / cm^3
# Si number density = 20.069517 Si / 1000 Ang^3
#
#
#
# Elastic Constant Matrix: (Units=GPa)
#
#
# Indices 1 2 3 4 5 6 
#
# 1 113.6813 18.6450 33.1413 -21.9368 12.7465 21.1039
# 2 18.6450 59.0879 32.0081 -21.8316 -8.5062 17.2469
# 3 33.1413 32.0081 116.3305 -35.3931 4.9746 18.0175
# 4 -21.9368 -21.8316 -35.3931 32.3667 4.4984 -0.9155
# 5 12.7465 -8.5062 4.9746 4.4984 37.6047 2.8759
# 6 21.1039 17.2469 18.0175 -0.9155 2.8759 46.8749
#
#
#
# Elastic Compliance Matrix: (Units=1/GPa)
#
#
# Indices 1 2 3 4 5 6 
#
# 1 0.011891 0.000242 0.000288 0.009048 -0.004707 -0.005088
# 2 0.000242 0.026956 -0.001417 0.015829 0.005034 -0.009482
# 3 0.000288 -0.001417 0.014504 0.015501 -0.003836 -0.004645
# 4 0.009048 0.015829 0.015501 0.065409 -0.008285 -0.014070
# 5 -0.004707 0.005034 -0.003836 -0.008285 0.030849 -0.000313
# 6 -0.005088 -0.009482 -0.004645 -0.014070 -0.000313 0.028643
#
#
# Mechanical properties :
#
#
# Convention : Reuss Voigt Hill
#
# Bulk Modulus (GPa) = 19.38843 50.74316 35.06579
# Shear Modulus (GPa) = 25.35288 37.05630 31.20459
#
# Velocity S-wave (km/s) = 3.55808 4.30163 3.94740
# Velocity P-wave (km/s) = 5.15379 7.07182 6.18758
#
# Compressibility (1/GPa) = 0.05157716
#
# Stress axis : x y z
#
# Youngs Moduli (GPa) = 84.09674 37.09778 68.94884
#
# Poissons Ratio (x) = -0.00899 -0.01983
# Poissons Ratio (y) = -0.02037 0.09767
# Poissons Ratio (z) = -0.02419 0.05255
#
# Static dielectric constant tensor:
#      x y z
#    x 1.759110 -0.019030 0.016600 
#    y -0.019030 1.698700 -0.000280 
#    z 0.016600 -0.000280 1.728180 
# 
# From -- ./inp_files/402257.got.cif
#   From: 2010.05.17/outbox.cif.g08.bks.cpg/sg2_202_cif.got.tgz:402257.got - 2010.06.03 11:33:40.
