data_PCOD9107587
_publ_section_title
;
Structure prediction by ZEFSAII (Michael W. Deem and Ramdas Pophale) SiO2 
 PCOD9107587
Probable space group: P -1
;
_chemical_formula_sum "Si O2"
_cell_formula_units_Z 16
_cell_length_a 16.305207
_cell_length_b 13.057487
_cell_length_c 10.151558
_cell_angle_alpha 34.945131
_cell_angle_beta 33.261415
_cell_angle_gamma 44.412485
_cell_volume 676.104800
_symmetry_space_group_name_H-M "P -1"
_symmetry_group_IT_number 2
_symmetry_cell_setting 'triclinic'
loop_
_space_group_symop_operation_xyz
x,y,z
-x,-y,-z
loop_
_atom_site_type_symbol
_atom_site_label
_atom_site_fract_x
_atom_site_fract_y
_atom_site_fract_z
Si Si1 0.307734 0.825484 0.449737
Si Si2 0.350757 0.330786 0.483958
Si Si3 0.680169 0.195857 0.102827
Si Si4 0.105030 0.484812 0.498585
Si Si5 0.766295 0.285260 0.627217
Si Si6 0.369076 0.215980 0.854063
Si Si7 0.086015 0.330742 0.249930
Si Si8 0.852076 0.996347 0.291505
O O1 0.272446 0.748664 0.435555
O O2 0.463549 0.732017 0.398173
O O3 0.182661 0.855680 0.701099
O O4 0.344165 0.029525 0.154458
O O5 0.517324 0.295950 0.241279
O O6 0.232429 0.328316 0.526828
O O7 0.308829 0.522658 0.415064
O O8 0.341381 0.195455 0.759040
O O9 0.715890 0.038214 0.327001
O O10 0.802950 0.338185 0.816598
O O11 0.707061 0.152615 0.958469
O O12 0.000000 0.500000 0.500000
O O13 0.992300 0.492225 0.765626
O O14 0.948183 0.267959 0.415504
O O15 0.235670 0.350722 0.949110
O O16 0.128380 0.191862 0.458735
O O17 0.000000 0.000000 0.000000
#
# Coordination Sequence:
#
# PCOD9107587 Si02
#       8
#     2   2   2   2   2   2   2   2
#     4  10  23  39  62  90 122 158 204 250 302 357
#     4  10  21  41  63  86 124 166 200 246 301 365
#     4  10  20  40  65  86 121 162 202 251 299 356
#     4  10  21  38  58  91 120 156 201 251 303 352
#     4  10  21  39  61  92 116 157 210 247 295 361
#     4  10  21  40  57  85 129 157 192 251 311 350
#     4   9  21  38  58  82 126 159 191 253 308 347
#     4  11  18  39  64  84 115 158 203 246 299 358
#
# _framework density 23.66497
#
# number of rings (size 3 to 8) (size 9 to 14) (size 15 to 20)
#    0.000    2.250    3.750    1.500    0.000    6.500 
#    9.000    0.625    0.000    0.000    0.000    0.000 
#    0.000    0.000    0.000    0.000    0.000    0.000 
#
# Total GULP energy -89250.177456 kJ/mol
# GULP energy per Si atom -5578.136091 kJ/mol
# Density = 2.361111 g / cm^3
# Si number density = 23.664970 Si / 1000 Ang^3
#
#
#
# Elastic Constant Matrix: (Units=GPa)
#
#
# Indices 1 2 3 4 5 6 
#
# 1 169.6802 67.8608 54.4623 30.0453 19.3031 -20.8413
# 2 67.8608 82.4175 39.8937 34.3064 -10.5896 -16.6313
# 3 54.4623 39.8937 102.1501 38.1152 15.9751 -5.2174
# 4 30.0453 34.3064 38.1152 41.5743 -4.4003 -1.3206
# 5 19.3031 -10.5896 15.9751 -4.4003 22.2670 9.1755
# 6 -20.8413 -16.6313 -5.2174 -1.3206 9.1755 40.3349
#
#
#
# Elastic Compliance Matrix: (Units=1/GPa)
#
#
# Indices 1 2 3 4 5 6 
#
# 1 0.015657 -0.014253 0.004612 -0.006531 -0.028712 0.009128
# 2 -0.014253 0.035194 -0.009451 -0.006384 0.035593 -0.002381
# 3 0.004612 -0.009451 0.024971 -0.021782 -0.034345 0.008816
# 4 -0.006531 -0.006384 -0.021782 0.057321 0.035799 -0.015092
# 5 -0.028712 0.035593 -0.034345 0.035799 0.132252 -0.033515
# 6 0.009128 -0.002381 0.008816 -0.015092 -0.033515 0.036797
#
#
# Mechanical properties :
#
#
# Convention : Reuss Voigt Hill
#
# Bulk Modulus (GPa) = 26.56937 75.40904 50.98921
# Shear Modulus (GPa) = 14.16744 33.63731 23.90237
#
# Velocity S-wave (km/s) = 2.44942 3.77423 3.18155
# Velocity P-wave (km/s) = 4.38762 7.13635 5.92363
#
# Compressibility (1/GPa) = 0.03763733
#
# Stress axis : x y z
#
# Youngs Moduli (GPa) = 63.86830 28.41404 40.04705
#
# Poissons Ratio (x) = 0.40498 -0.18469
# Poissons Ratio (y) = 0.91030 0.37850
# Poissons Ratio (z) = -0.29455 0.26855
#
# Static dielectric constant tensor:
#      x y z
#    x 1.932760 0.008130 0.031370 
#    y 0.008130 1.992400 -0.043180 
#    z 0.031370 -0.043180 1.945850 
# 
# From -- ./inp_files/266759.got.cif
#   From: 2010.05.17/outbox.cif.g08.bks.cpg/sg2_134_cif.got.tgz:266759.got - 2010.06.03 11:33:40.
