data_PCOD9107975
_publ_section_title
;
Structure prediction by ZEFSAII (Michael W. Deem and Ramdas Pophale) SiO2 
 PCOD9107975
Probable space group: P -1
;
_chemical_formula_sum "Si O2"
_cell_formula_units_Z 12
_cell_length_a 10.756759
_cell_length_b 11.922047
_cell_length_c 9.137257
_cell_angle_alpha 54.010276
_cell_angle_beta 36.559444
_cell_angle_gamma 40.086657
_cell_volume 448.355822
_symmetry_space_group_name_H-M "P -1"
_symmetry_group_IT_number 2
_symmetry_cell_setting 'triclinic'
loop_
_space_group_symop_operation_xyz
x,y,z
-x,-y,-z
loop_
_atom_site_type_symbol
_atom_site_label
_atom_site_fract_x
_atom_site_fract_y
_atom_site_fract_z
Si Si1 0.414969 0.165792 0.770641
Si Si2 0.027432 0.099583 0.527483
Si Si3 0.400148 0.273102 0.376628
Si Si4 0.518276 0.599332 0.272819
Si Si5 0.811161 0.402440 0.855779
Si Si6 0.886602 0.937510 0.016527
O O1 0.437137 0.244471 0.538090
O O2 0.411496 0.279988 0.814469
O O3 0.180769 0.154209 0.969891
O O4 0.676635 0.967612 0.700662
O O5 0.773752 0.295077 0.601482
O O6 0.000000 0.000000 0.500000
O O7 0.991707 0.025050 0.763265
O O8 0.373961 0.439063 0.206756
O O9 0.107843 0.328362 0.586048
O O10 0.613284 0.089200 0.235908
O O11 0.500000 0.500000 0.500000
O O12 0.715652 0.499320 0.028850
O O13 0.888653 0.213313 0.974355
#
# Coordination Sequence:
#
# PCOD9107975 Si02
#       6
#     2   2   2   2   2   2
#     4  10  23  42  69  97 127 181 220 256 349 384
#     4  10  22  42  63  93 134 169 217 275 319 387
#     4  10  22  42  65 101 133 169 221 273 321 398
#     4  11  23  44  62  98 138 169 221 282 318 392
#     4  10  20  40  66  92 137 168 213 275 321 379
#     4  11  22  44  70  95 136 171 217 278 322 393
#
# _framework density 26.764455000000002
#
# number of rings (size 3 to 8) (size 9 to 14) (size 15 to 20)
#    0.000    1.667    1.667    4.000    0.000    6.000 
#   12.000    3.333    0.000    0.000    0.000    0.000 
#    0.000    0.000    0.000    0.000    0.000    0.000 
#
# Total GULP energy -67166.444445 kJ/mol
# GULP energy per Si atom -5597.203704 kJ/mol
# Density = 2.670354 g / cm^3
# Si number density = 26.764455 Si / 1000 Ang^3
#
#
#
# Elastic Constant Matrix: (Units=GPa)
#
#
# Indices 1 2 3 4 5 6 
#
# 1 119.8189 55.5102 -6.7799 14.3313 7.0233 -15.7405
# 2 55.5102 147.7813 38.8081 9.2168 16.1971 -48.2640
# 3 -6.7799 38.8081 55.6092 2.5009 20.3068 -5.3946
# 4 14.3313 9.2168 2.5009 65.9307 0.6667 3.2596
# 5 7.0233 16.1971 20.3068 0.6667 34.5359 10.8629
# 6 -15.7405 -48.2640 -5.3946 3.2596 10.8629 74.3287
#
#
#
# Elastic Compliance Matrix: (Units=1/GPa)
#
#
# Indices 1 2 3 4 5 6 
#
# 1 0.011848 -0.005770 0.006895 -0.001988 -0.003684 -0.000111
# 2 -0.005770 0.014104 -0.008780 -0.000739 -0.002695 0.007725
# 3 0.006895 -0.008780 0.030650 -0.001293 -0.015372 0.000287
# 4 -0.001988 -0.000739 -0.001293 0.015830 0.001820 -0.001955
# 5 -0.003684 -0.002695 -0.015372 0.001820 0.043126 -0.010028
# 6 -0.000111 0.007725 0.000287 -0.001955 -0.010028 0.020019
#
#
# Mechanical properties :
#
#
# Convention : Reuss Voigt Hill
#
# Bulk Modulus (GPa) = 24.21698 55.36513 39.79105
# Shear Modulus (GPa) = 30.36756 50.67045 40.51901
#
# Velocity S-wave (km/s) = 3.37207 4.35581 3.89512
# Velocity P-wave (km/s) = 4.92229 6.78443 5.92695
#
# Compressibility (1/GPa) = 0.04129335
#
# Stress axis : x y z
#
# Youngs Moduli (GPa) = 84.40114 70.90156 32.62691
#
# Poissons Ratio (x) = 0.40908 -0.22497
# Poissons Ratio (y) = 0.48697 0.28645
# Poissons Ratio (z) = -0.58195 0.62249
#
# Static dielectric constant tensor:
#      x y z
#    x 2.130860 -0.006650 -0.065280 
#    y -0.006650 2.128790 -0.003290 
#    z -0.065280 -0.003290 2.099920 
# 
# From -- ./inp_files/166790.got.cif
#   From: 2010.05.17/outbox.cif.g08.bks.cpg/sg2_84_cif.got.tgz:166790.got - 2010.06.03 11:33:40.
