data_PCOD9107380
_publ_section_title
;
Structure prediction by ZEFSAII (Michael W. Deem and Ramdas Pophale) SiO2 
 PCOD9107380
Probable space group: P -1
;
_chemical_formula_sum "Si O2"
_cell_formula_units_Z 12
_cell_length_a 5.036747
_cell_length_b 16.053584
_cell_length_c 7.740499
_cell_angle_alpha 129.076524
_cell_angle_beta 93.441237
_cell_angle_gamma 66.636707
_cell_volume 429.900653
_symmetry_space_group_name_H-M "P -1"
_symmetry_group_IT_number 2
_symmetry_cell_setting 'triclinic'
loop_
_space_group_symop_operation_xyz
x,y,z
-x,-y,-z
loop_
_atom_site_type_symbol
_atom_site_label
_atom_site_fract_x
_atom_site_fract_y
_atom_site_fract_z
Si Si1 0.263037 0.594583 0.745039
Si Si2 0.071807 0.915814 0.671438
Si Si3 0.619592 0.187296 0.962991
Si Si4 0.107240 0.441551 0.738323
Si Si5 0.266070 0.188926 0.285464
Si Si6 0.619606 0.300306 0.792244
O O1 0.500000 0.500000 0.500000
O O2 0.033440 0.542756 0.722072
O O3 0.235793 0.724616 0.862498
O O4 0.368644 0.599658 0.953919
O O5 0.418335 0.876956 0.679288
O O6 0.080477 0.817684 0.403184
O O7 0.903400 0.891021 0.793123
O O8 0.875872 0.050931 0.777874
O O9 0.472199 0.240814 0.840476
O O10 0.385549 0.193876 0.105779
O O11 0.058482 0.329491 0.520918
O O12 0.459031 0.360594 0.688971
O O13 0.000000 0.500000 0.000000
#
# Coordination Sequence:
#
# PCOD9107380 Si02
#       6
#     2   2   2   2   2   2
#     4  10  20  40  64  88 138 166 227 269 333 393
#     4  11  23  46  70 100 133 177 226 274 338 390
#     4  10  22  42  65 100 134 175 224 278 334 396
#     4  11  21  41  61  99 134 178 224 269 340 394
#     4  11  24  44  70  99 136 178 220 282 328 401
#     4   9  22  40  67  94 132 178 219 281 325 399
#
# _framework density 27.913428
#
# number of rings (size 3 to 8) (size 9 to 14) (size 15 to 20)
#    1.000    0.667    1.667    3.000    0.000    1.333 
#    6.000    4.167    0.000    0.000    0.000    0.000 
#    0.000    0.000    0.000    0.000    0.000    0.000 
#
# Total GULP energy -67022.634509 kJ/mol
# GULP energy per Si atom -5585.219542 kJ/mol
# Density = 2.784990 g / cm^3
# Si number density = 27.913428 Si / 1000 Ang^3
#
#
#
# Elastic Constant Matrix: (Units=GPa)
#
#
# Indices 1 2 3 4 5 6 
#
# 1 101.9122 34.3644 16.8589 8.1265 -8.4521 2.4217
# 2 34.3644 160.7800 32.4305 31.1638 -11.8549 26.9285
# 3 16.8589 32.4305 169.1385 26.1676 -24.7483 0.9010
# 4 8.1265 31.1638 26.1676 67.0303 -3.5954 -1.7936
# 5 -8.4521 -11.8549 -24.7483 -3.5954 39.2109 -7.8097
# 6 2.4217 26.9285 0.9010 -1.7936 -7.8097 32.0616
#
#
#
# Elastic Compliance Matrix: (Units=1/GPa)
#
#
# Indices 1 2 3 4 5 6 
#
# 1 0.010777 -0.002389 -0.000392 0.000091 0.001684 0.001619
# 2 -0.002389 0.008865 -0.000882 -0.003701 -0.000225 -0.007503
# 3 -0.000392 -0.000882 0.007041 -0.002026 0.004202 0.001483
# 4 0.000091 -0.003701 -0.002026 0.017533 0.000057 0.004153
# 5 0.001684 -0.000225 0.004202 0.000057 0.029895 0.007229
# 6 0.001619 -0.007503 0.001483 0.004153 0.007229 0.039321
#
#
# Mechanical properties :
#
#
# Convention : Reuss Voigt Hill
#
# Bulk Modulus (GPa) = 51.66269 66.57093 59.11681
# Shear Modulus (GPa) = 39.30469 50.87235 45.08852
#
# Velocity S-wave (km/s) = 3.75653 4.27371 4.02344
# Velocity P-wave (km/s) = 6.11258 6.94649 6.54283
#
# Compressibility (1/GPa) = 0.01935633
#
# Stress axis : x y z
#
# Youngs Moduli (GPa) = 92.79275 112.79706 142.02562
#
# Poissons Ratio (x) = 0.26944 0.05574
# Poissons Ratio (y) = 0.22166 0.12529
# Poissons Ratio (z) = 0.03642 0.09951
#
# Static dielectric constant tensor:
#      x y z
#    x 2.332290 -0.033430 0.047610 
#    y -0.033430 2.246250 -0.017850 
#    z 0.047610 -0.017850 2.217960 
# 
# From -- ./inp_files/103314.got.cif
#   From: 2010.05.17/outbox.cif.g08.bks.cpg/sg2_52_cif.got.tgz:103314.got - 2010.06.03 11:33:40.
