data_PCOD9107396
_publ_section_title
;
Structure prediction by ZEFSAII (Michael W. Deem and Ramdas Pophale) SiO2 
 PCOD9107396
Probable space group: P -1
;
_chemical_formula_sum "Si O2"
_cell_formula_units_Z 16
_cell_length_a 25.785345
_cell_length_b 8.959974
_cell_length_c 8.341146
_cell_angle_alpha 126.247454
_cell_angle_beta 126.551223
_cell_angle_gamma 32.999707
_cell_volume 824.372177
_symmetry_space_group_name_H-M "P -1"
_symmetry_group_IT_number 2
_symmetry_cell_setting 'triclinic'
loop_
_space_group_symop_operation_xyz
x,y,z
-x,-y,-z
loop_
_atom_site_type_symbol
_atom_site_label
_atom_site_fract_x
_atom_site_fract_y
_atom_site_fract_z
Si Si1 0.027204 0.246881 0.465706
Si Si2 0.089130 0.812759 0.918723
Si Si3 0.436916 0.760563 0.429677
Si Si4 0.073921 0.185196 0.879881
Si Si5 0.226699 0.727894 0.313576
Si Si6 0.569079 0.679693 0.384101
Si Si7 0.277611 0.796296 0.125050
Si Si8 0.411127 0.211012 0.845774
O O1 0.046268 0.194364 0.655418
O O2 0.000000 0.500000 0.500000
O O3 0.932497 0.324927 0.305076
O O4 0.130464 0.972837 0.397608
O O5 0.073994 0.015479 0.897590
O O6 0.190495 0.624844 0.080664
O O7 0.000000 0.000000 0.000000
O O8 0.500000 0.500000 0.500000
O O9 0.510543 0.644858 0.344761
O O10 0.348092 0.819750 0.254599
O O11 0.402854 0.026738 0.624872
O O12 0.000000 0.500000 0.000000
O O13 0.183130 0.028249 0.990119
O O14 0.324325 0.513912 0.464046
O O15 0.245903 0.837520 0.278748
O O16 0.573535 0.674502 0.197483
O O17 0.500000 0.000000 0.500000
O O18 0.325777 0.495975 0.970067
O O19 0.500000 0.000000 0.000000
#
# Coordination Sequence:
#
# PCOD9107396 Si02
#       8
#     2   2   2   2   2   2   2   2
#     4  11  22  42  64  93 126 166 208 263 324 382
#     4   9  20  39  64  90 119 161 205 259 316 377
#     4  11  21  42  66  92 129 169 212 262 321 377
#     4  11  23  43  65  92 131 164 211 269 319 385
#     4  10  20  40  64  89 128 161 210 263 312 379
#     4  10  21  39  62  91 126 168 206 260 313 374
#     4  11  22  42  64  96 128 167 215 266 317 383
#     4  11  22  40  64  90 131 170 213 262 317 374
#
# _framework density 19.408709999999999
#
# number of rings (size 3 to 8) (size 9 to 14) (size 15 to 20)
#    0.000    1.500    2.500    4.125    0.000    0.500 
#   24.750    0.000    0.000    0.000    0.000    0.000 
#    0.000    0.000    0.000    0.000    0.000    0.000 
#
# Total GULP energy -89132.661779 kJ/mol
# GULP energy per Si atom -5570.791361 kJ/mol
# Density = 1.936454 g / cm^3
# Si number density = 19.408710 Si / 1000 Ang^3
#
#
#
# Elastic Constant Matrix: (Units=GPa)
#
#
# Indices 1 2 3 4 5 6 
#
# 1 122.3045 18.0915 55.1131 -15.2672 7.6619 4.6897
# 2 18.0915 86.1122 44.5609 -11.9422 16.2657 -7.8358
# 3 55.1131 44.5609 116.5879 -20.7428 11.7391 -5.9537
# 4 -15.2672 -11.9422 -20.7428 44.2121 -4.4746 -0.9654
# 5 7.6619 16.2657 11.7391 -4.4746 48.0016 -5.3136
# 6 4.6897 -7.8358 -5.9537 -0.9654 -5.3136 34.2888
#
#
#
# Elastic Compliance Matrix: (Units=1/GPa)
#
#
# Indices 1 2 3 4 5 6 
#
# 1 0.010676 0.000482 -0.005035 0.001326 -0.000768 -0.002306
# 2 0.000482 0.015358 -0.005370 0.001473 -0.003610 0.001993
# 3 -0.005035 -0.005370 0.013709 0.003262 -0.000215 0.001900
# 4 0.001326 0.001473 0.003262 0.025142 0.001010 0.001586
# 5 -0.000768 -0.003610 -0.000215 0.001010 0.022633 0.002779
# 6 -0.002306 0.001993 0.001900 0.001586 0.002779 0.030740
#
#
# Mechanical properties :
#
#
# Convention : Reuss Voigt Hill
#
# Bulk Modulus (GPa) = 50.26258 62.28172 56.27215
# Shear Modulus (GPa) = 34.54519 39.11646 36.83082
#
# Velocity S-wave (km/s) = 4.22344 4.49420 4.36092
# Velocity P-wave (km/s) = 7.05240 7.68698 7.37652
#
# Compressibility (1/GPa) = 0.01989552
#
# Stress axis : x y z
#
# Youngs Moduli (GPa) = 93.66610 65.11202 72.94338
#
# Poissons Ratio (x) = -0.03137 0.36731
# Poissons Ratio (y) = -0.04513 0.39173
# Poissons Ratio (z) = 0.47166 0.34968
#
# Static dielectric constant tensor:
#      x y z
#    x 1.728930 -0.034370 -0.001720 
#    y -0.034370 1.643510 0.018500 
#    z -0.001720 0.018500 1.720160 
# 
# From -- ./inp_files/356545.got.cif
#   From: 2010.05.17/outbox.cif.g08.bks.cpg/sg2_179_cif.got.tgz:356545.got - 2010.06.03 11:33:40.
