data_PCOD9107288
_publ_section_title
;
Structure prediction by ZEFSAII (Michael W. Deem and Ramdas Pophale) SiO2 
 PCOD9107288
Probable space group: P -1
;
_chemical_formula_sum "Si O2"
_cell_formula_units_Z 16
_cell_length_a 9.656208
_cell_length_b 14.687926
_cell_length_c 13.606642
_cell_angle_alpha 50.275807
_cell_angle_beta 128.908526
_cell_angle_gamma 149.265676
_cell_volume 743.177018
_symmetry_space_group_name_H-M "P -1"
_symmetry_group_IT_number 2
_symmetry_cell_setting 'triclinic'
loop_
_space_group_symop_operation_xyz
x,y,z
-x,-y,-z
loop_
_atom_site_type_symbol
_atom_site_label
_atom_site_fract_x
_atom_site_fract_y
_atom_site_fract_z
Si Si1 0.823291 0.958936 0.170917
Si Si2 0.622982 0.084265 0.341396
Si Si3 0.801428 0.464312 0.511013
Si Si4 0.761762 0.606796 0.970330
Si Si5 0.708226 0.415034 0.897105
Si Si6 0.264902 0.075222 0.613835
Si Si7 0.072891 0.830649 0.378525
Si Si8 0.982404 0.471162 0.222497
O O1 0.559454 0.806653 0.084784
O O2 0.719703 0.905685 0.275119
O O3 0.996679 0.926489 0.262375
O O4 0.030880 0.175526 0.097900
O O5 0.797267 0.126578 0.484823
O O6 0.692662 0.255397 0.231317
O O7 0.712278 0.051030 0.313320
O O8 0.306924 0.911184 0.350439
O O9 0.503136 0.257975 0.529655
O O10 0.000000 0.500000 0.500000
O O11 0.815124 0.611910 0.400725
O O12 0.932541 0.503664 0.646771
O O13 0.664422 0.500714 0.894483
O O14 0.500000 0.500000 0.000000
O O15 0.942747 0.589087 0.104297
O O16 0.797109 0.487048 0.775106
O O17 0.000000 0.500000 0.000000
O O18 0.000000 0.000000 0.500000
#
# Coordination Sequence:
#
# PCOD9107288 Si02
#       8
#     2   2   2   2   2   2   2   2
#     4  12  25  45  71 105 142 187 242 298 361 425
#     4  10  20  40  63  98 136 183 227 275 355 422
#     4  11  23  42  68 103 140 181 234 283 356 425
#     4  11  26  47  72 103 139 184 242 302 359 424
#     4  10  24  47  68  99 136 188 243 299 352 417
#     4  12  24  41  69 108 141 184 234 294 359 432
#     4  10  22  38  65  95 141 181 225 285 348 427
#     4  10  22  43  69  94 138 183 230 289 348 418
#
# _framework density 21.529191000000001
#
# number of rings (size 3 to 8) (size 9 to 14) (size 15 to 20)
#    0.000    1.250    3.750    1.500    0.000    7.000 
#    4.500    0.000    0.000    0.000    0.000    0.000 
#    0.000    0.000    0.000    0.000    0.000    0.000 
#
# Total GULP energy -89259.443359 kJ/mol
# GULP energy per Si atom -5578.715210 kJ/mol
# Density = 2.148019 g / cm^3
# Si number density = 21.529191 Si / 1000 Ang^3
#
#
#
# Elastic Constant Matrix: (Units=GPa)
#
#
# Indices 1 2 3 4 5 6 
#
# 1 159.5649 60.9424 41.8938 2.0444 -11.1637 -4.4763
# 2 60.9424 153.4927 47.3213 -24.1212 3.8423 2.3179
# 3 41.8938 47.3213 72.6154 -13.7690 11.9412 -12.0315
# 4 2.0444 -24.1212 -13.7690 36.0289 -8.8081 1.3820
# 5 -11.1637 3.8423 11.9412 -8.8081 39.7668 -5.8263
# 6 -4.4763 2.3179 -12.0315 1.3820 -5.8263 29.3750
#
#
#
# Elastic Compliance Matrix: (Units=1/GPa)
#
#
# Indices 1 2 3 4 5 6 
#
# 1 0.008740 -0.002729 -0.004325 -0.003167 0.003402 0.000600
# 2 -0.002729 0.009822 -0.004410 0.005242 0.000304 -0.003183
# 3 -0.004325 -0.004410 0.022043 0.004110 -0.005405 0.007452
# 4 -0.003167 0.005242 0.004110 0.034225 0.004975 0.000164
# 5 0.003402 0.000304 -0.005405 0.004975 0.029364 0.003871
# 6 0.000600 -0.003183 0.007452 0.000164 0.003871 0.038197
#
#
# Mechanical properties :
#
#
# Convention : Reuss Voigt Hill
#
# Bulk Modulus (GPa) = 56.56711 76.22086 66.39398
# Shear Modulus (GPa) = 29.20352 36.73518 32.96935
#
# Velocity S-wave (km/s) = 3.68701 4.13522 3.91753
# Velocity P-wave (km/s) = 6.66761 7.63416 7.16720
#
# Compressibility (1/GPa) = 0.01767812
#
# Stress axis : x y z
#
# Youngs Moduli (GPa) = 114.41473 101.81029 45.36590
#
# Poissons Ratio (x) = 0.27781 0.19620
# Poissons Ratio (y) = 0.31221 0.20007
# Poissons Ratio (z) = 0.49482 0.44899
#
# Static dielectric constant tensor:
#      x y z
#    x 2.999370 0.014770 0.704900 
#    y 0.014770 1.810730 0.023120 
#    z 0.704900 0.023120 2.253090 
# 
# From -- ./inp_files/505386.got.cif
#   From: 2010.05.17/outbox.cif.g08.bks.cpg/sg2_253_cif.got.tgz:505386.got - 2010.06.03 11:33:40.
