data_PCOD9107186
_publ_section_title
;
Structure prediction by ZEFSAII (Michael W. Deem and Ramdas Pophale) SiO2 
 PCOD9107186
Probable space group: P -1
;
_chemical_formula_sum "Si O2"
_cell_formula_units_Z 14
_cell_length_a 8.970211
_cell_length_b 9.313472
_cell_length_c 10.041234
_cell_angle_alpha 114.310193
_cell_angle_beta 67.885947
_cell_angle_gamma 109.781203
_cell_volume 691.337960
_symmetry_space_group_name_H-M "P -1"
_symmetry_group_IT_number 2
_symmetry_cell_setting 'triclinic'
loop_
_space_group_symop_operation_xyz
x,y,z
-x,-y,-z
loop_
_atom_site_type_symbol
_atom_site_label
_atom_site_fract_x
_atom_site_fract_y
_atom_site_fract_z
Si Si1 0.386676 0.893298 0.888309
Si Si2 0.078954 0.658870 0.617591
Si Si3 0.516194 0.093989 0.672454
Si Si4 0.153716 0.960482 0.509117
Si Si5 0.006008 0.816369 0.964644
Si Si6 0.627218 0.424008 0.346568
Si Si7 0.275173 0.282306 0.762230
O O1 0.192790 0.832000 0.963456
O O2 0.454633 0.735391 0.768383
O O3 0.398752 0.995115 0.786169
O O4 0.500000 0.000000 0.000000
O O5 0.103811 0.813859 0.573200
O O6 0.986059 0.705632 0.796924
O O7 0.249318 0.630295 0.610871
O O8 0.000000 0.500000 0.500000
O O9 0.703748 0.092018 0.647391
O O10 0.456446 0.261242 0.741652
O O11 0.500000 0.000000 0.500000
O O12 0.224628 0.126845 0.625119
O O13 0.000000 0.000000 0.500000
O O14 0.861603 0.742978 0.087051
O O15 0.000000 0.000000 0.000000
O O16 0.500000 0.500000 0.500000
O O17 0.717651 0.557812 0.263704
#
# Coordination Sequence:
#
# PCOD9107186 Si02
#       7
#     2   2   2   2   2   2   2
#     4  11  25  41  64  97 133 174 220 277 336 395
#     4  11  24  42  63  98 133 171 220 277 331 393
#     4  10  20  40  63  90 127 171 222 266 328 398
#     4  11  22  37  64  96 127 170 225 271 323 401
#     4  11  21  43  68  91 136 174 218 275 335 393
#     4  11  23  44  69  94 134 176 219 275 330 398
#     4  11  21  40  69  94 126 178 220 266 339 390
#
# _framework density 20.250588
#
# number of rings (size 3 to 8) (size 9 to 14) (size 15 to 20)
#    0.000    1.143    2.857    6.000    2.000    3.429 
#    2.571    0.714    0.000    0.000    0.000    0.000 
#    0.000    0.000    0.000    0.000    0.000    0.000 
#
# Total GULP energy -78158.667522 kJ/mol
# GULP energy per Si atom -5582.761966 kJ/mol
# Density = 2.020450 g / cm^3
# Si number density = 20.250588 Si / 1000 Ang^3
#
#
#
# Elastic Constant Matrix: (Units=GPa)
#
#
# Indices 1 2 3 4 5 6 
#
# 1 110.0272 35.0710 54.4577 3.4777 -11.6583 -18.4748
# 2 35.0710 111.3218 34.0683 -0.6963 22.7253 -17.1273
# 3 54.4577 34.0683 111.3580 11.2178 -3.5477 3.1700
# 4 3.4777 -0.6963 11.2178 46.6349 10.8716 4.6309
# 5 -11.6583 22.7253 -3.5477 10.8716 33.0816 8.8567
# 6 -18.4748 -17.1273 3.1700 4.6309 8.8567 32.4654
#
#
#
# Elastic Compliance Matrix: (Units=1/GPa)
#
#
# Indices 1 2 3 4 5 6 
#
# 1 0.014722 -0.002900 -0.006165 -0.001524 0.005359 0.006205
# 2 -0.002900 0.017092 -0.005212 0.004747 -0.018134 0.012145
# 3 -0.006165 -0.005212 0.014429 -0.003735 0.006573 -0.008927
# 4 -0.001524 0.004747 -0.003735 0.025377 -0.013058 0.001944
# 5 0.005359 -0.018134 0.006573 -0.013058 0.055005 -0.020302
# 6 0.006205 0.012145 -0.008927 0.001944 -0.020302 0.046873
#
#
# Mechanical properties :
#
#
# Convention : Reuss Voigt Hill
#
# Bulk Modulus (GPa) = 56.53338 64.43343 60.48341
# Shear Modulus (GPa) = 24.04420 36.37704 30.21062
#
# Velocity S-wave (km/s) = 3.44951 4.24293 3.86662
# Velocity P-wave (km/s) = 6.62140 7.47599 7.06164
#
# Compressibility (1/GPa) = 0.01768866
#
# Stress axis : x y z
#
# Youngs Moduli (GPa) = 67.92411 58.50699 69.30401
#
# Poissons Ratio (x) = 0.16969 0.42724
# Poissons Ratio (y) = 0.19700 0.36123
# Poissons Ratio (z) = 0.41874 0.30495
#
# Static dielectric constant tensor:
#      x y z
#    x 1.837290 -0.015980 -0.001150 
#    y -0.015980 1.704900 -0.012190 
#    z -0.001150 -0.012190 1.727980 
# 
# From -- ./inp_files/159551.got.cif
#   From: 2010.05.17/outbox.cif.g08.bks.cpg/sg2_80_cif.got.tgz:159551.got - 2010.06.03 11:33:40.
