data_PCOD9107985
_publ_section_title
;
Structure prediction by ZEFSAII (Michael W. Deem and Ramdas Pophale) SiO2 
 PCOD9107985
Probable space group: P -1
;
_chemical_formula_sum "Si O2"
_cell_formula_units_Z 16
_cell_length_a 11.552675
_cell_length_b 11.422530
_cell_length_c 14.208274
_cell_angle_alpha 44.498689
_cell_angle_beta 149.196520
_cell_angle_gamma 118.263392
_cell_volume 620.351425
_symmetry_space_group_name_H-M "P -1"
_symmetry_group_IT_number 2
_symmetry_cell_setting 'triclinic'
loop_
_space_group_symop_operation_xyz
x,y,z
-x,-y,-z
loop_
_atom_site_type_symbol
_atom_site_label
_atom_site_fract_x
_atom_site_fract_y
_atom_site_fract_z
Si Si1 0.844272 0.438887 0.149177
Si Si2 0.490788 0.615107 0.198730
Si Si3 0.698878 0.936251 0.324267
Si Si4 0.400452 0.662854 0.412113
Si Si5 0.979126 0.647153 0.479131
Si Si6 0.802467 0.042309 0.129398
Si Si7 0.403267 0.047217 0.560193
Si Si8 0.133376 0.186265 0.103147
O O1 0.084808 0.259581 0.400371
O O2 0.843628 0.447358 0.256557
O O3 0.608810 0.421189 0.948667
O O4 0.875021 0.610770 0.024722
O O5 0.622954 0.430065 0.453357
O O6 0.696264 0.698964 0.285565
O O7 0.256713 0.742012 0.024658
O O8 0.670459 0.031095 0.352188
O O9 0.776220 0.016175 0.239915
O O10 0.432461 0.940715 0.108790
O O11 0.500000 0.500000 0.500000
O O12 0.573006 0.769378 0.492718
O O13 0.133798 0.802690 0.115131
O O14 0.000000 0.500000 0.500000
O O15 0.992488 0.838884 0.351075
O O16 0.215585 0.095690 0.314474
O O17 0.661876 0.923829 0.766409
#
# Coordination Sequence:
#
# PCOD9107985 Si02
#       8
#     2   2   2   2   2   2   2   2
#     4  11  23  40  67  95 129 170 213 271 318 382
#     4  12  22  42  67  94 130 165 220 267 312 390
#     4  10  20  40  66  93 126 167 217 265 325 370
#     4  12  25  41  70  97 129 173 220 268 324 385
#     4  11  24  43  66  93 130 173 208 268 331 379
#     4  10  20  43  65  93 126 163 220 260 319 381
#     4  11  25  42  67  95 129 177 214 269 332 385
#     4  11  24  44  62  96 138 168 217 268 328 393
#
# _framework density 25.791834000000001
#
# number of rings (size 3 to 8) (size 9 to 14) (size 15 to 20)
#    0.000    1.000    6.250    1.875    3.500    3.500 
#    0.000    1.250    0.000    0.000    0.000    0.000 
#    0.000    0.000    0.000    0.000    0.000    0.000 
#
# Total GULP energy -89495.526156 kJ/mol
# GULP energy per Si atom -5593.470385 kJ/mol
# Density = 2.573313 g / cm^3
# Si number density = 25.791834 Si / 1000 Ang^3
#
#
#
# Elastic Constant Matrix: (Units=GPa)
#
#
# Indices 1 2 3 4 5 6 
#
# 1 65.6984 17.6877 44.3832 9.6198 -2.1499 -26.4620
# 2 17.6877 95.4780 47.0495 30.5024 -15.2386 -3.9527
# 3 44.3832 47.0495 133.1035 23.6536 -23.2798 -19.7533
# 4 9.6198 30.5024 23.6536 41.9354 -7.5170 -6.4976
# 5 -2.1499 -15.2386 -23.2798 -7.5170 36.4032 2.7352
# 6 -26.4620 -3.9527 -19.7533 -6.4976 2.7352 54.8374
#
#
#
# Elastic Compliance Matrix: (Units=1/GPa)
#
#
# Indices 1 2 3 4 5 6 
#
# 1 0.023716 -0.001335 -0.006826 0.000039 -0.004200 0.009103
# 2 -0.001335 0.015543 -0.003277 -0.008975 0.002621 -0.001899
# 3 -0.006826 -0.003277 0.012346 -0.001931 0.005691 0.000404
# 4 0.000039 -0.008975 -0.001931 0.032088 0.001455 0.002406
# 5 -0.004200 0.002621 0.005691 0.001455 0.032352 -0.001229
# 6 0.009103 -0.001899 0.000404 0.002406 -0.001229 0.022983
#
#
# Mechanical properties :
#
#
# Convention : Reuss Voigt Hill
#
# Bulk Modulus (GPa) = 34.81106 56.94672 45.87889
# Shear Modulus (GPa) = 29.15757 38.97916 34.06837
#
# Velocity S-wave (km/s) = 3.36593 3.89176 3.63836
# Velocity P-wave (km/s) = 5.35091 6.50551 5.95625
#
# Compressibility (1/GPa) = 0.02872650
#
# Stress axis : x y z
#
# Youngs Moduli (GPa) = 42.16635 64.33793 80.99608
#
# Poissons Ratio (x) = 0.08592 0.55292
# Poissons Ratio (y) = 0.05631 0.26545
# Poissons Ratio (z) = 0.28785 0.21085
#
# Static dielectric constant tensor:
#      x y z
#    x 2.254290 0.059630 -0.000500 
#    y 0.059630 2.055640 -0.021560 
#    z -0.000500 -0.021560 2.043930 
# 
# From -- ./inp_files/531746.got.cif
#   From: 2010.05.17/outbox.cif.g08.bks.cpg/sg2_266_cif.got.tgz:531746.got - 2010.06.03 11:33:40.
