data_PCOD9107760
_publ_section_title
;
Structure prediction by ZEFSAII (Michael W. Deem and Ramdas Pophale) SiO2 
 PCOD9107760
Probable space group: P -1
;
_chemical_formula_sum "Si O2"
_cell_formula_units_Z 16
_cell_length_a 16.241260
_cell_length_b 8.109990
_cell_length_c 10.567615
_cell_angle_alpha 107.554482
_cell_angle_beta 64.598318
_cell_angle_gamma 146.858851
_cell_volume 682.717107
_symmetry_space_group_name_H-M "P -1"
_symmetry_group_IT_number 2
_symmetry_cell_setting 'triclinic'
loop_
_space_group_symop_operation_xyz
x,y,z
-x,-y,-z
loop_
_atom_site_type_symbol
_atom_site_label
_atom_site_fract_x
_atom_site_fract_y
_atom_site_fract_z
Si Si1 0.066711 0.430940 0.509374
Si Si2 0.307438 0.592330 0.752611
Si Si3 0.523433 0.470077 0.754199
Si Si4 0.981559 0.156356 0.976075
Si Si5 0.350733 0.492707 0.976068
Si Si6 0.821461 0.150859 0.266678
Si Si7 0.367149 0.709777 0.256481
Si Si8 0.758557 0.814147 0.474213
O O1 0.125662 0.588375 0.643339
O O2 0.215629 0.582004 0.371665
O O3 0.000000 0.500000 0.500000
O O4 0.916932 0.068618 0.514655
O O5 0.329370 0.511565 0.847522
O O6 0.286830 0.444397 0.607624
O O7 0.140580 0.429461 0.853194
O O8 0.469757 0.951766 0.723317
O O9 0.496895 0.586947 0.894087
O O10 0.630299 0.481669 0.738287
O O11 0.611984 0.667485 0.613901
O O12 0.348163 0.120229 0.755843
O O13 0.954203 0.270087 0.117683
O O14 0.810361 0.857876 0.954035
O O15 0.000000 0.000000 0.000000
O O16 0.371721 0.689393 0.097508
O O17 0.795584 0.980317 0.362286
#
# Coordination Sequence:
#
# PCOD9107760 Si02
#       8
#     2   2   2   2   2   2   2   2
#     4  10  25  38  64  93 128 163 210 272 307 371
#     4  11  22  37  69  96 123 168 215 259 314 375
#     4  11  24  41  67  91 134 172 204 259 322 380
#     4   9  17  36  65  93 117 164 209 263 306 364
#     4  10  22  41  66  90 128 170 214 254 313 379
#     4  10  20  40  65  95 128 162 215 259 313 378
#     4  12  26  42  59 100 134 163 212 267 314 370
#     4  11  21  40  66  91 125 169 217 253 319 375
#
# _framework density 23.435767999999999
#
# number of rings (size 3 to 8) (size 9 to 14) (size 15 to 20)
#    0.000    1.500    3.750    2.625    8.750    3.500 
#    0.000    3.750    0.000    0.000    0.000    0.000 
#    0.000    0.000    0.000    0.000    0.000    0.000 
#
# Total GULP energy -89435.208769 kJ/mol
# GULP energy per Si atom -5589.700548 kJ/mol
# Density = 2.338243 g / cm^3
# Si number density = 23.435768 Si / 1000 Ang^3
#
#
#
# Elastic Constant Matrix: (Units=GPa)
#
#
# Indices 1 2 3 4 5 6 
#
# 1 57.0527 -0.2586 37.4307 -8.1747 -24.5059 -3.6323
# 2 -0.2586 123.5440 68.9584 11.4350 -22.5925 13.2577
# 3 37.4307 68.9584 177.0350 11.8966 -51.7728 17.0183
# 4 -8.1747 11.4350 11.8966 47.0631 6.7698 -3.5828
# 5 -24.5059 -22.5925 -51.7728 6.7698 39.6005 -6.4941
# 6 -3.6323 13.2577 17.0183 -3.5828 -6.4941 8.7361
#
#
#
# Elastic Compliance Matrix: (Units=1/GPa)
#
#
# Indices 1 2 3 4 5 6 
#
# 1 0.033853 0.002283 -0.007168 0.007645 0.018355 0.041355
# 2 0.002283 0.011641 -0.003004 -0.002851 0.003007 -0.009799
# 3 -0.007168 -0.003004 0.013483 -0.006824 0.009266 -0.020597
# 4 0.007645 -0.002851 -0.006824 0.027978 -0.006044 0.027780
# 5 0.018355 0.003007 0.009266 -0.006044 0.055359 0.023690
# 6 0.041355 -0.009799 -0.020597 0.027780 0.023690 0.215659
#
#
# Mechanical properties :
#
#
# Convention : Reuss Voigt Hill
#
# Bulk Modulus (GPa) = 23.14901 63.32142 43.23521
# Shear Modulus (GPa) = 12.88154 35.84669 24.36412
#
# Velocity S-wave (km/s) = 2.34701 3.91522 3.22780
# Velocity P-wave (km/s) = 4.15255 6.89321 5.69035
#
# Compressibility (1/GPa) = 0.04319839
#
# Stress axis : x y z
#
# Youngs Moduli (GPa) = 29.53914 85.90156 74.16858
#
# Poissons Ratio (x) = -0.19612 0.53167
# Poissons Ratio (y) = -0.06744 0.22282
# Poissons Ratio (z) = 0.21175 0.25807
#
# Static dielectric constant tensor:
#      x y z
#    x 1.981560 -0.022080 0.018820 
#    y -0.022080 1.897780 0.020360 
#    z 0.018820 0.020360 1.871220 
# 
# From -- ./inp_files/462343.got.cif
#   From: 2010.05.17/outbox.cif.g08.bks.cpg/sg2_232_cif.got.tgz:462343.got - 2010.06.03 11:33:40.
