data_PCOD9107940
_publ_section_title
;
Structure prediction by ZEFSAII (Michael W. Deem and Ramdas Pophale) SiO2 
 PCOD9107940
Probable space group: P -1
;
_chemical_formula_sum "Si O2"
_cell_formula_units_Z 16
_cell_length_a 11.871265
_cell_length_b 9.813115
_cell_length_c 8.939458
_cell_angle_alpha 110.846245
_cell_angle_beta 64.433274
_cell_angle_gamma 123.304990
_cell_volume 775.308609
_symmetry_space_group_name_H-M "P -1"
_symmetry_group_IT_number 2
_symmetry_cell_setting 'triclinic'
loop_
_space_group_symop_operation_xyz
x,y,z
-x,-y,-z
loop_
_atom_site_type_symbol
_atom_site_label
_atom_site_fract_x
_atom_site_fract_y
_atom_site_fract_z
Si Si1 0.407266 0.858155 0.116710
Si Si2 0.590737 0.944412 0.532575
Si Si3 0.100097 0.367534 0.765683
Si Si4 0.122092 0.536202 0.130555
Si Si5 0.142030 0.241574 0.136080
Si Si6 0.861768 0.918826 0.246952
Si Si7 0.444275 0.337170 0.068622
Si Si8 0.572883 0.400179 0.349262
O O1 0.266732 0.701237 0.075633
O O2 0.356763 0.930437 0.309292
O O3 0.512796 0.789357 0.085807
O O4 0.500000 0.000000 0.000000
O O5 0.720904 0.927992 0.378198
O O6 0.484749 0.770806 0.599135
O O7 0.500000 0.000000 0.500000
O O8 0.094684 0.189440 0.708446
O O9 0.260284 0.495801 0.688968
O O10 0.991779 0.401544 0.742071
O O11 0.072090 0.415039 0.967767
O O12 0.145976 0.419326 0.189417
O O13 0.277718 0.263391 0.159595
O O14 0.163297 0.176995 0.935216
O O15 0.993142 0.100452 0.224802
O O16 0.524492 0.374930 0.194814
O O17 0.500000 0.500000 0.000000
O O18 0.500000 0.500000 0.500000
#
# Coordination Sequence:
#
# PCOD9107940 Si02
#       8
#     2   2   2   2   2   2   2   2
#     4  12  24  43  66  99 134 173 227 274 328 396
#     4  12  27  43  66  99 139 174 222 281 332 390
#     4  10  20  40  66  91 130 167 216 270 326 393
#     4  10  21  39  65  96 124 171 220 268 324 393
#     4  10  22  41  69  95 129 175 222 269 333 398
#     4  10  22  43  63  99 131 173 221 270 336 397
#     4  12  23  44  72  96 131 176 227 271 326 404
#     4  12  25  44  67  99 132 176 221 272 338 393
#
# _framework density 20.636945000000001
#
# number of rings (size 3 to 8) (size 9 to 14) (size 15 to 20)
#    0.000    1.000    5.000    1.500    5.250    0.000 
#    2.250    1.875    0.000    0.000    0.000    0.000 
#    0.000    0.000    0.000    0.000    0.000    0.000 
#
# Total GULP energy -89358.066234 kJ/mol
# GULP energy per Si atom -5584.879140 kJ/mol
# Density = 2.058997 g / cm^3
# Si number density = 20.636945 Si / 1000 Ang^3
#
#
#
# Elastic Constant Matrix: (Units=GPa)
#
#
# Indices 1 2 3 4 5 6 
#
# 1 135.1363 58.0327 39.3732 -10.4294 -41.1474 -13.0672
# 2 58.0327 137.3818 34.6522 -13.3431 -11.3839 -23.3903
# 3 39.3732 34.6522 75.6425 -4.5019 -23.6898 -11.7750
# 4 -10.4294 -13.3431 -4.5019 28.5656 0.9341 -7.1174
# 5 -41.1474 -11.3839 -23.6898 0.9341 32.6772 6.8399
# 6 -13.0672 -23.3903 -11.7750 -7.1174 6.8399 34.9318
#
#
#
# Elastic Compliance Matrix: (Units=1/GPa)
#
#
# Indices 1 2 3 4 5 6 
#
# 1 0.014691 -0.004588 -0.000208 0.002537 0.016764 -0.000412
# 2 -0.004588 0.011186 -0.003182 0.004940 -0.005759 0.006835
# 3 -0.000208 -0.003182 0.018930 0.001575 0.011853 0.002173
# 4 0.002537 0.004940 0.001575 0.041617 0.002180 0.012840
# 5 0.016764 -0.005759 0.011853 0.002180 0.059229 -0.004743
# 6 -0.000412 0.006835 0.002173 0.012840 -0.004743 0.037327
#
#
# Mechanical properties :
#
#
# Convention : Reuss Voigt Hill
#
# Bulk Modulus (GPa) = 34.66072 68.03076 51.34574
# Shear Modulus (GPa) = 23.97468 33.64176 28.80822
#
# Velocity S-wave (km/s) = 3.41212 4.04192 3.74030
# Velocity P-wave (km/s) = 5.68818 7.40405 6.60209
#
# Compressibility (1/GPa) = 0.02885111
#
# Stress axis : x y z
#
# Youngs Moduli (GPa) = 68.06834 89.39787 52.82554
#
# Poissons Ratio (x) = 0.41015 0.01101
# Poissons Ratio (y) = 0.31230 0.16808
# Poissons Ratio (z) = 0.01418 0.28445
#
# Static dielectric constant tensor:
#      x y z
#    x 1.734900 -0.017830 0.017330 
#    y -0.017830 1.727210 0.035480 
#    z 0.017330 0.035480 1.786140 
# 
# From -- ./inp_files/244900.got.cif
#   From: 2010.05.17/outbox.cif.g08.bks.cpg/sg2_123_cif.got.tgz:244900.got - 2010.06.03 11:33:40.
