data_PCOD9107609
_publ_section_title
;
Structure prediction by ZEFSAII (Michael W. Deem and Ramdas Pophale) SiO2 
 PCOD9107609
Probable space group: P -1
;
_chemical_formula_sum "Si O2"
_cell_formula_units_Z 16
_cell_length_a 8.664092
_cell_length_b 16.808964
_cell_length_c 19.493472
_cell_angle_alpha 36.014989
_cell_angle_beta 146.575536
_cell_angle_gamma 142.206130
_cell_volume 859.445099
_symmetry_space_group_name_H-M "P -1"
_symmetry_group_IT_number 2
_symmetry_cell_setting 'triclinic'
loop_
_space_group_symop_operation_xyz
x,y,z
-x,-y,-z
loop_
_atom_site_type_symbol
_atom_site_label
_atom_site_fract_x
_atom_site_fract_y
_atom_site_fract_z
Si Si1 0.328703 0.292421 0.517154
Si Si2 0.362649 0.386759 0.944113
Si Si3 0.355085 0.899237 0.579556
Si Si4 0.318812 0.308448 0.136868
Si Si5 0.289465 0.602177 0.276954
Si Si6 0.377232 0.843649 0.028100
Si Si7 0.344060 0.107432 0.052639
Si Si8 0.353084 0.039311 0.622283
O O1 0.300884 0.443348 0.375960
O O2 0.519149 0.333903 0.628526
O O3 0.457897 0.206726 0.569524
O O4 0.003569 0.175290 0.497756
O O5 0.619721 0.536327 0.915062
O O6 0.049037 0.411772 0.819772
O O7 0.424457 0.341252 0.074573
O O8 0.344374 0.257296 0.978772
O O9 0.471393 0.768604 0.702198
O O10 0.500000 0.000000 0.500000
O O11 0.469166 0.988348 0.630817
O O12 0.977197 0.205689 0.082841
O O13 0.400463 0.717910 0.175317
O O14 0.539687 0.863564 0.001805
O O15 0.500000 0.000000 0.000000
O O16 0.550764 0.044787 0.221033
O O17 0.000000 0.000000 0.000000
O O18 0.000000 0.000000 0.500000
#
# Coordination Sequence:
#
# PCOD9107609 Si02
#       8
#     2   2   2   2   2   2   2   2
#     4  10  21  41  64  88 127 170 208 248 321 375
#     4  10  20  40  65  88 121 166 208 255 317 375
#     4  11  23  38  62  91 122 166 209 259 306 376
#     4  10  21  39  61  87 124 160 209 257 313 371
#     4  10  21  41  64  91 126 167 206 260 310 383
#     4  11  25  39  63  94 126 161 212 264 316 372
#     4  12  24  41  67  95 128 165 210 266 319 377
#     4  10  23  39  61  89 124 163 207 255 309 374
#
# _framework density 18.616662999999999
#
# number of rings (size 3 to 8) (size 9 to 14) (size 15 to 20)
#    0.000    1.500    2.500    3.000    5.250    0.500 
#    2.250    0.000    0.000    3.750    0.000    0.000 
#    0.000    0.000    0.000    0.000    0.000    0.000 
#
# Total GULP energy -89203.331654 kJ/mol
# GULP energy per Si atom -5575.208228 kJ/mol
# Density = 1.857429 g / cm^3
# Si number density = 18.616663 Si / 1000 Ang^3
#
#
#
# Elastic Constant Matrix: (Units=GPa)
#
#
# Indices 1 2 3 4 5 6 
#
# 1 84.8866 52.6017 26.7599 -22.0471 -13.6078 -11.8908
# 2 52.6017 132.4813 24.4282 -11.1918 2.9775 -12.5621
# 3 26.7599 24.4282 73.8593 -1.6790 -7.6727 3.5086
# 4 -22.0471 -11.1918 -1.6790 27.7420 -5.5717 7.3364
# 5 -13.6078 2.9775 -7.6727 -5.5717 22.4711 -6.0354
# 6 -11.8908 -12.5621 3.5086 7.3364 -6.0354 38.0267
#
#
#
# Elastic Compliance Matrix: (Units=1/GPa)
#
#
# Indices 1 2 3 4 5 6 
#
# 1 0.029747 -0.008895 -0.005025 0.023075 0.024897 0.006327
# 2 -0.008895 0.011221 -0.001483 -0.004463 -0.008325 0.000602
# 3 -0.005025 -0.001483 0.016053 -0.002624 0.001220 -0.002843
# 4 0.023075 -0.004463 -0.002624 0.058245 0.027889 -0.000828
# 5 0.024897 -0.008325 0.001220 0.027889 0.070913 0.010797
# 6 0.006327 0.000602 -0.002843 -0.000828 0.010797 0.030610
#
#
# Mechanical properties :
#
#
# Convention : Reuss Voigt Hill
#
# Bulk Modulus (GPa) = 38.14810 55.42299 46.78555
# Shear Modulus (GPa) = 19.50581 30.14380 24.82480
#
# Velocity S-wave (km/s) = 3.24043 4.02827 3.65564
# Velocity P-wave (km/s) = 5.87676 7.17435 6.55773
#
# Compressibility (1/GPa) = 0.02621362
#
# Stress axis : x y z
#
# Youngs Moduli (GPa) = 33.61672 89.12223 62.29471
#
# Poissons Ratio (x) = 0.79272 0.31305
# Poissons Ratio (y) = 0.29901 0.09240
# Poissons Ratio (z) = 0.16894 0.13219
#
# Static dielectric constant tensor:
#      x y z
#    x 1.576530 -0.059700 0.022180 
#    y -0.059700 1.617230 0.014690 
#    z 0.022180 0.014690 1.655040 
# 
# From -- ./inp_files/392171.got.cif
#   From: 2010.05.17/outbox.cif.g08.bks.cpg/sg2_197_cif.got.tgz:392171.got - 2010.06.03 11:33:40.
