data_PCOD9107619
_publ_section_title
;
Structure prediction by ZEFSAII (Michael W. Deem and Ramdas Pophale) SiO2 
 PCOD9107619
Probable space group: P -1
;
_chemical_formula_sum "Si O2"
_cell_formula_units_Z 14
_cell_length_a 8.167714
_cell_length_b 23.243002
_cell_length_c 11.748350
_cell_angle_alpha 156.921976
_cell_angle_beta 69.803616
_cell_angle_gamma 122.254536
_cell_volume 664.066791
_symmetry_space_group_name_H-M "P -1"
_symmetry_group_IT_number 2
_symmetry_cell_setting 'triclinic'
loop_
_space_group_symop_operation_xyz
x,y,z
-x,-y,-z
loop_
_atom_site_type_symbol
_atom_site_label
_atom_site_fract_x
_atom_site_fract_y
_atom_site_fract_z
Si Si1 0.302466 0.624938 0.731638
Si Si2 0.071299 0.228728 0.168017
Si Si3 0.822388 0.587546 0.302169
Si Si4 0.269217 0.035776 0.663624
Si Si5 0.094522 0.817736 0.097194
Si Si6 0.338595 0.462254 0.208738
Si Si7 0.982125 0.633608 0.093351
O O1 0.232644 0.442096 0.480261
O O2 0.376587 0.610175 0.561507
O O3 0.119823 0.658344 0.829958
O O4 0.487802 0.805218 0.078339
O O5 0.062893 0.241037 0.326973
O O6 0.871197 0.155276 0.996930
O O7 0.149171 0.110822 0.890677
O O8 0.564924 0.490850 0.191358
O O9 0.897758 0.635594 0.241725
O O10 0.905947 0.470173 0.112564
O O11 0.237741 0.991701 0.456913
O O12 0.162651 0.838103 0.382561
O O13 0.847769 0.727003 0.029488
O O14 0.218913 0.456576 0.111732
#
# Coordination Sequence:
#
# PCOD9107619 Si02
#       7
#     2   2   2   2   2   2   2
#     4  11  21  39  62  89 124 161 193 243 303 364
#     4  11  21  38  60  89 118 160 198 237 302 361
#     4  11  22  41  70  82 118 164 204 245 295 362
#     4  11  22  39  57  91 125 154 195 252 296 348
#     4  10  22  37  60  90 125 153 197 247 298 357
#     4  10  20  40  65  89 116 158 202 245 294 361
#     4  10  24  43  62  90 117 157 209 249 295 345
#
# _framework density 21.082217
#
# number of rings (size 3 to 8) (size 9 to 14) (size 15 to 20)
#    0.000    1.429    1.429    6.000    2.000    0.571 
#    5.143    0.000    0.000    2.571    0.000    0.000 
#    0.000    0.000    0.000    0.000    0.000    0.000 
#
# Total GULP energy -78096.258600 kJ/mol
# GULP energy per Si atom -5578.304186 kJ/mol
# Density = 2.103423 g / cm^3
# Si number density = 21.082217 Si / 1000 Ang^3
#
#
#
# Elastic Constant Matrix: (Units=GPa)
#
#
# Indices 1 2 3 4 5 6 
#
# 1 83.8907 31.5023 53.3451 -22.2832 8.9906 -8.8881
# 2 31.5023 79.9792 42.5011 -41.4553 15.4288 -16.2064
# 3 53.3451 42.5011 136.4037 -38.7151 19.0862 -8.5144
# 4 -22.2832 -41.4553 -38.7151 38.3058 -13.2875 3.8151
# 5 8.9906 15.4288 19.0862 -13.2875 40.1864 -13.8266
# 6 -8.8881 -16.2064 -8.5144 3.8151 -13.8266 25.7926
#
#
#
# Elastic Compliance Matrix: (Units=1/GPa)
#
#
# Indices 1 2 3 4 5 6 
#
# 1 0.016906 -0.002492 -0.005279 0.001977 0.001350 0.002949
# 2 -0.002492 0.035394 0.001162 0.038060 0.005582 0.019127
# 3 -0.005279 0.001162 0.012065 0.009782 -0.001549 0.000617
# 4 0.001977 0.038060 0.009782 0.081298 0.015470 0.024092
# 5 0.001350 0.005582 -0.001549 0.015470 0.035182 0.020033
# 6 0.002949 0.019127 0.000617 0.024092 0.020033 0.059184
#
#
# Mechanical properties :
#
#
# Convention : Reuss Voigt Hill
#
# Bulk Modulus (GPa) = 19.55171 61.66340 40.60756
# Shear Modulus (GPa) = 18.49831 32.38530 25.44180
#
# Velocity S-wave (km/s) = 2.96537 3.92362 3.47766
# Velocity P-wave (km/s) = 4.58462 7.05967 5.95221
#
# Compressibility (1/GPa) = 0.05114641
#
# Stress axis : x y z
#
# Youngs Moduli (GPa) = 59.15213 28.25373 82.88282
#
# Poissons Ratio (x) = 0.07040 0.43752
# Poissons Ratio (y) = 0.14740 -0.09628
# Poissons Ratio (z) = 0.31225 -0.03282
#
# Static dielectric constant tensor:
#      x y z
#    x 1.884510 -0.061680 0.008340 
#    y -0.061680 1.780400 -0.038990 
#    z 0.008340 -0.038990 1.745970 
# 
# From -- ./inp_files/200356.got.cif
#   From: 2010.05.17/outbox.cif.g08.bks.cpg/sg2_101_cif.got.tgz:200356.got - 2010.06.03 11:33:40.
