data_PCOD9107875
_publ_section_title
;
Structure prediction by ZEFSAII (Michael W. Deem and Ramdas Pophale) SiO2 
 PCOD9107875
Probable space group: P -1
;
_chemical_formula_sum "Si O2"
_cell_formula_units_Z 16
_cell_length_a 15.636639
_cell_length_b 18.484485
_cell_length_c 8.702552
_cell_angle_alpha 141.796710
_cell_angle_beta 119.244466
_cell_angle_gamma 33.306482
_cell_volume 742.073997
_symmetry_space_group_name_H-M "P -1"
_symmetry_group_IT_number 2
_symmetry_cell_setting 'triclinic'
loop_
_space_group_symop_operation_xyz
x,y,z
-x,-y,-z
loop_
_atom_site_type_symbol
_atom_site_label
_atom_site_fract_x
_atom_site_fract_y
_atom_site_fract_z
Si Si1 0.332675 0.360786 0.751544
Si Si2 0.485263 0.764681 0.002407
Si Si3 0.701575 0.788218 0.764973
Si Si4 0.766229 0.340835 0.388394
Si Si5 0.156772 0.981374 0.226106
Si Si6 0.262334 0.998635 0.915273
Si Si7 0.611822 0.267717 0.700536
Si Si8 0.872885 0.379019 0.267897
O O1 0.316562 0.246301 0.480373
O O2 0.492482 0.278015 0.676224
O O3 0.168023 0.588882 0.897738
O O4 0.375100 0.315254 0.892146
O O5 0.594297 0.539272 0.672050
O O6 0.300045 0.933051 0.212709
O O7 0.418793 0.878067 0.969762
O O8 0.815413 0.569606 0.576870
O O9 0.500000 0.000000 0.000000
O O10 0.786501 0.830527 0.925742
O O11 0.798553 0.174179 0.102218
O O12 0.757679 0.412010 0.332771
O O13 0.945771 0.213257 0.412751
O O14 0.218331 0.890851 0.301928
O O15 0.326579 0.833427 0.582561
O O16 0.080081 0.144378 0.082539
O O17 0.500000 0.500000 0.000000
#
# Coordination Sequence:
#
# PCOD9107875 Si02
#       8
#     2   2   2   2   2   2   2   2
#     4   9  22  39  61  90 123 155 215 248 311 368
#     4  11  22  39  62  92 126 165 202 267 310 372
#     4  10  20  40  66  88 119 172 210 259 306 378
#     4  11  21  41  62  87 129 169 205 257 316 376
#     4  10  23  38  60  92 125 163 213 256 307 377
#     4  12  22  39  67  90 128 166 211 260 319 361
#     4  11  22  40  63  92 126 166 209 259 310 381
#     4  10  22  40  60  95 121 162 217 254 309 379
#
# _framework density 21.561192999999999
#
# number of rings (size 3 to 8) (size 9 to 14) (size 15 to 20)
#    0.750    0.750    2.500    3.750    1.750    1.500 
#    0.000    1.250    0.000    2.250    0.000    0.000 
#    0.000    0.000    0.000    0.000    0.000    0.000 
#
# Total GULP energy -89093.935115 kJ/mol
# GULP energy per Si atom -5568.370945 kJ/mol
# Density = 2.151212 g / cm^3
# Si number density = 21.561193 Si / 1000 Ang^3
#
#
#
# Elastic Constant Matrix: (Units=GPa)
#
#
# Indices 1 2 3 4 5 6 
#
# 1 26.5822 -0.6628 7.3673 4.8285 2.4956 -3.9736
# 2 -0.6628 122.0534 26.2051 -7.5982 -5.1661 7.0066
# 3 7.3673 26.2051 82.8161 1.0514 5.9424 4.7976
# 4 4.8285 -7.5982 1.0514 29.9821 -3.6988 -2.2252
# 5 2.4956 -5.1661 5.9424 -3.6988 25.2995 3.4050
# 6 -3.9736 7.0066 4.7976 -2.2252 3.4050 25.2088
#
#
#
# Elastic Compliance Matrix: (Units=1/GPa)
#
#
# Indices 1 2 3 4 5 6 
#
# 1 0.041422 -0.000051 -0.003637 -0.006653 -0.005204 0.007351
# 2 -0.000051 0.009291 -0.003080 0.002716 0.003320 -0.002213
# 3 -0.003637 -0.003080 0.013749 -0.001245 -0.003415 -0.001983
# 4 -0.006653 0.002716 -0.001245 0.036033 0.006676 0.000712
# 5 -0.005204 0.003320 -0.003415 0.006676 0.043352 -0.006360
# 6 0.007351 -0.002213 -0.001983 0.000712 -0.006360 0.042742
#
#
# Mechanical properties :
#
#
# Convention : Reuss Voigt Hill
#
# Bulk Modulus (GPa) = 19.63615 33.03010 26.33313
# Shear Modulus (GPa) = 23.03108 29.33420 26.18264
#
# Velocity S-wave (km/s) = 3.27184 3.69251 3.48852
# Velocity P-wave (km/s) = 4.83737 5.79068 5.33536
#
# Compressibility (1/GPa) = 0.05092648
#
# Stress axis : x y z
#
# Youngs Moduli (GPa) = 24.14195 107.63358 72.73405
#
# Poissons Ratio (x) = 0.00545 0.26452
# Poissons Ratio (y) = 0.00122 0.22401
# Poissons Ratio (z) = 0.08780 0.33150
#
# Static dielectric constant tensor:
#      x y z
#    x 1.827630 0.001440 -0.008370 
#    y 0.001440 1.872460 -0.007220 
#    z -0.008370 -0.007220 1.755710 
# 
# From -- ./inp_files/337927.got.cif
#   From: 2010.05.17/outbox.cif.g08.bks.cpg/sg2_169_cif.got.tgz:337927.got - 2010.06.03 11:33:40.
