data_PCOD9107465
_publ_section_title
;
Structure prediction by ZEFSAII (Michael W. Deem and Ramdas Pophale) SiO2 
 PCOD9107465
Probable space group: P -1
;
_chemical_formula_sum "Si O2"
_cell_formula_units_Z 16
_cell_length_a 13.148815
_cell_length_b 9.126257
_cell_length_c 14.755100
_cell_angle_alpha 70.395236
_cell_angle_beta 135.550458
_cell_angle_gamma 75.571027
_cell_volume 784.586498
_symmetry_space_group_name_H-M "P -1"
_symmetry_group_IT_number 2
_symmetry_cell_setting 'triclinic'
loop_
_space_group_symop_operation_xyz
x,y,z
-x,-y,-z
loop_
_atom_site_type_symbol
_atom_site_label
_atom_site_fract_x
_atom_site_fract_y
_atom_site_fract_z
Si Si1 0.556843 0.592968 0.272961
Si Si2 0.409861 0.717836 0.952924
Si Si3 0.923032 0.409375 0.919560
Si Si4 0.959318 0.761604 0.424848
Si Si5 0.973353 0.979807 0.878748
Si Si6 0.487245 0.624532 0.551939
Si Si7 0.199811 0.106291 0.987113
Si Si8 0.193075 0.370582 0.780162
O O1 0.530893 0.475000 0.352575
O O2 0.808173 0.411779 0.442371
O O3 0.430008 0.663281 0.083580
O O4 0.439932 0.840522 0.188764
O O5 0.177933 0.970894 0.722724
O O6 0.500000 0.500000 0.000000
O O7 0.579946 0.723432 0.047539
O O8 0.686204 0.586937 0.686536
O O9 0.109028 0.222062 0.003645
O O10 0.000000 0.500000 0.000000
O O11 0.900130 0.279733 0.998566
O O12 0.821079 0.740072 0.288903
O O13 0.020160 0.641759 0.586747
O O14 0.741714 0.117644 0.665450
O O15 0.053052 0.076912 0.866128
O O16 0.000000 0.000000 0.000000
O O17 0.500000 0.500000 0.500000
O O18 0.163375 0.285060 0.865326
#
# Coordination Sequence:
#
# PCOD9107465 Si02
#       8
#     2   2   2   2   2   2   2   2
#     4  11  24  38  70  99 127 172 235 274 333 410
#     4  11  25  45  66  93 140 178 215 281 349 412
#     4  11  25  43  64  98 145 177 222 289 347 400
#     4  10  22  40  67  96 127 164 225 281 334 393
#     4  10  20  40  64  93 128 175 229 280 332 407
#     4  12  21  39  70 100 125 181 233 278 334 409
#     4  11  20  41  66  95 130 176 230 281 337 403
#     4  10  22  38  64  98 126 168 224 283 325 401
#
# _framework density 20.392907000000001
#
# number of rings (size 3 to 8) (size 9 to 14) (size 15 to 20)
#    0.000    1.250    5.000    1.875    3.500    3.500 
#    0.000    1.250    2.750    0.000    0.000    0.000 
#    0.000    0.000    0.000    0.000    0.000    0.000 
#
# Total GULP energy -89147.375415 kJ/mol
# GULP energy per Si atom -5571.710963 kJ/mol
# Density = 2.034649 g / cm^3
# Si number density = 20.392907 Si / 1000 Ang^3
#
#
#
# Elastic Constant Matrix: (Units=GPa)
#
#
# Indices 1 2 3 4 5 6 
#
# 1 113.5786 39.1639 53.4361 -0.5605 -9.4320 3.8821
# 2 39.1639 107.9260 59.6846 -4.7023 15.4649 -2.8668
# 3 53.4361 59.6846 138.5943 -21.3247 8.1058 5.3543
# 4 -0.5605 -4.7023 -21.3247 30.6974 3.2012 5.1663
# 5 -9.4320 15.4649 8.1058 3.2012 39.3627 0.5061
# 6 3.8821 -2.8668 5.3543 5.1663 0.5061 19.9265
#
#
#
# Elastic Compliance Matrix: (Units=1/GPa)
#
#
# Indices 1 2 3 4 5 6 
#
# 1 0.012323 -0.003057 -0.004269 -0.003615 0.005338 -0.000892
# 2 -0.003057 0.013870 -0.004907 -0.001555 -0.005102 0.004442
# 3 -0.004269 -0.004907 0.012752 0.009227 -0.002399 -0.005632
# 4 -0.003615 -0.001555 0.009227 0.041358 -0.005357 -0.012586
# 5 0.005338 -0.005102 -0.002399 -0.005357 0.029624 -0.000493
# 6 -0.000892 0.004442 -0.005632 -0.012586 -0.000493 0.055786
#
#
# Mechanical properties :
#
#
# Convention : Reuss Voigt Hill
#
# Bulk Modulus (GPa) = 69.06454 73.85199 71.45827
# Shear Modulus (GPa) = 25.64038 31.85160 28.74599
#
# Velocity S-wave (km/s) = 3.54972 3.95637 3.75855
# Velocity P-wave (km/s) = 7.12328 7.56067 7.34523
#
# Compressibility (1/GPa) = 0.01447921
#
# Stress axis : x y z
#
# Youngs Moduli (GPa) = 81.14938 72.09915 78.42089
#
# Poissons Ratio (x) = 0.22043 0.33475
# Poissons Ratio (y) = 0.24809 0.38479
# Poissons Ratio (z) = 0.34640 0.35377
#
# Static dielectric constant tensor:
#      x y z
#    x 1.842100 -0.052410 0.150980 
#    y -0.052410 1.735730 -0.189670 
#    z 0.150980 -0.189670 2.607040 
# 
# From -- ./inp_files/528501.got.cif
#   From: 2010.05.17/outbox.cif.g08.bks.cpg/sg2_265_cif.got.tgz:528501.got - 2010.06.03 11:33:40.
