data_PCOD9107251
_publ_section_title
;
Structure prediction by ZEFSAII (Michael W. Deem and Ramdas Pophale) SiO2 
 PCOD9107251
Probable space group: P -1
;
_chemical_formula_sum "Si O2"
_cell_formula_units_Z 14
_cell_length_a 14.642669
_cell_length_b 8.989335
_cell_length_c 9.505140
_cell_angle_alpha 43.611724
_cell_angle_beta 130.229614
_cell_angle_gamma 102.788195
_cell_volume 582.380655
_symmetry_space_group_name_H-M "P -1"
_symmetry_group_IT_number 2
_symmetry_cell_setting 'triclinic'
loop_
_space_group_symop_operation_xyz
x,y,z
-x,-y,-z
loop_
_atom_site_type_symbol
_atom_site_label
_atom_site_fract_x
_atom_site_fract_y
_atom_site_fract_z
Si Si1 0.642554 0.581683 0.636627
Si Si2 0.401661 0.031109 0.216514
Si Si3 0.861786 0.027537 0.269391
Si Si4 0.382752 0.799888 0.601569
Si Si5 0.186908 0.142199 0.384942
Si Si6 0.660490 0.590634 0.330520
Si Si7 0.058801 0.863681 0.006939
O O1 0.750322 0.680267 0.706851
O O2 0.596868 0.646563 0.383987
O O3 0.509408 0.754203 0.472973
O O4 0.729273 0.295555 0.949415
O O5 0.485755 0.163566 0.270075
O O6 0.310056 0.000083 0.266366
O O7 0.340608 0.186344 0.909474
O O8 0.823206 0.875321 0.445806
O O9 0.904203 0.985005 0.176681
O O10 0.000000 0.000000 0.500000
O O11 0.402872 0.545423 0.736357
O O12 0.292104 0.885930 0.592170
O O13 0.045843 0.207017 0.127135
O O14 0.810026 0.381484 0.654509
O O15 0.000000 0.000000 0.000000
#
# Coordination Sequence:
#
# PCOD9107251 Si02
#       7
#     2   2   2   2   2   2   2
#     4  10  23  40  63  94 126 158 211 256 299 379
#     4  10  23  41  60  92 123 164 210 251 314 361
#     4   9  21  38  64  88 122 166 200 244 311 363
#     4  10  22  40  62  88 127 162 212 255 299 373
#     4  10  21  42  66  89 129 166 201 253 315 360
#     4  11  22  38  64  89 126 164 203 260 308 363
#     4  10  20  40  63  95 124 156 210 255 299 372
#
# _framework density 24.039259999999999
#
# number of rings (size 3 to 8) (size 9 to 14) (size 15 to 20)
#    0.000    2.000    1.429    0.857    0.000   13.714 
#    0.000    2.143    0.000    0.000    0.000    0.000 
#    0.000    0.000    0.000    0.000    0.000    0.000 
#
# Total GULP energy -78217.375387 kJ/mol
# GULP energy per Si atom -5586.955385 kJ/mol
# Density = 2.398455 g / cm^3
# Si number density = 24.039260 Si / 1000 Ang^3
#
#
#
# Elastic Constant Matrix: (Units=GPa)
#
#
# Indices 1 2 3 4 5 6 
#
# 1 96.5905 24.5881 33.5661 5.2291 -15.7064 -21.6986
# 2 24.5881 93.2824 10.6033 21.8243 -0.9441 -17.1530
# 3 33.5661 10.6033 105.9657 15.7186 -19.2958 -10.3133
# 4 5.2291 21.8243 15.7186 32.1325 -3.1221 -4.0115
# 5 -15.7064 -0.9441 -19.2958 -3.1221 26.5178 5.2176
# 6 -21.6986 -17.1530 -10.3133 -4.0115 5.2176 42.0178
#
#
#
# Elastic Compliance Matrix: (Units=1/GPa)
#
#
# Indices 1 2 3 4 5 6 
#
# 1 0.013980 -0.002941 -0.003047 0.002330 0.005281 0.004838
# 2 -0.002941 0.014296 0.000818 -0.009385 -0.002517 0.003935
# 3 -0.003047 0.000818 0.012349 -0.005412 0.006480 0.000470
# 4 0.002330 -0.009385 -0.005412 0.039899 0.001880 -0.000380
# 5 0.005281 -0.002517 0.006480 0.001880 0.046130 -0.002259
# 6 0.004838 0.003935 0.000470 -0.000380 -0.002259 0.028263
#
#
# Mechanical properties :
#
#
# Convention : Reuss Voigt Hill
#
# Bulk Modulus (GPa) = 33.02023 48.15039 40.58531
# Shear Modulus (GPa) = 28.51409 35.27236 31.89322
#
# Velocity S-wave (km/s) = 3.44778 3.83467 3.64636
# Velocity P-wave (km/s) = 5.44200 6.29917 5.88621
#
# Compressibility (1/GPa) = 0.03028447
#
# Stress axis : x y z
#
# Youngs Moduli (GPa) = 71.53178 69.94980 80.97795
#
# Poissons Ratio (x) = 0.20570 0.24676
# Poissons Ratio (y) = 0.21035 -0.06622
# Poissons Ratio (z) = 0.21798 -0.05720
#
# Static dielectric constant tensor:
#      x y z
#    x 1.965120 -0.018950 -0.021440 
#    y -0.018950 2.013390 0.071250 
#    z -0.021440 0.071250 1.943350 
# 
# From -- ./inp_files/60936.got.cif
#   From: 2010.05.17/outbox.cif.g08.bks.cpg/sg2_31_cif.got.tgz:60936.got - 2010.06.03 11:33:40.
