data_PCOD9107346
_publ_section_title
;
Structure prediction by ZEFSAII (Michael W. Deem and Ramdas Pophale) SiO2 
 PCOD9107346
Probable space group: P -1
;
_chemical_formula_sum "Si O2"
_cell_formula_units_Z 16
_cell_length_a 9.532994
_cell_length_b 10.334931
_cell_length_c 15.224716
_cell_angle_alpha 116.311911
_cell_angle_beta 43.110828
_cell_angle_gamma 123.867908
_cell_volume 849.414879
_symmetry_space_group_name_H-M "P -1"
_symmetry_group_IT_number 2
_symmetry_cell_setting 'triclinic'
loop_
_space_group_symop_operation_xyz
x,y,z
-x,-y,-z
loop_
_atom_site_type_symbol
_atom_site_label
_atom_site_fract_x
_atom_site_fract_y
_atom_site_fract_z
Si Si1 0.259910 0.529925 0.379979
Si Si2 0.951463 0.145419 0.103379
Si Si3 0.133999 0.253377 0.241440
Si Si4 0.424659 0.053966 0.322377
Si Si5 0.437169 0.090364 0.133173
Si Si6 0.140023 0.623662 0.902921
Si Si7 0.506982 0.592889 0.613263
Si Si8 0.674027 0.134878 0.520361
O O1 0.269594 0.434683 0.259367
O O2 0.345408 0.451064 0.395768
O O3 0.389002 0.716352 0.382916
O O4 0.000000 0.500000 0.500000
O O5 0.686524 0.087403 0.226483
O O6 0.994061 0.285150 0.056572
O O7 0.090556 0.213962 0.147663
O O8 0.000000 0.000000 0.000000
O O9 0.254755 0.150564 0.199134
O O10 0.896223 0.201425 0.381639
O O11 0.369037 0.000928 0.230696
O O12 0.402358 0.221298 0.389717
O O13 0.294497 0.938628 0.423785
O O14 0.654547 0.241498 0.103397
O O15 0.500000 0.000000 0.000000
O O16 0.261823 0.553908 0.754890
O O17 0.000000 0.500000 0.000000
O O18 0.500000 0.500000 0.500000
O O19 0.500000 0.000000 0.500000
#
# Coordination Sequence:
#
# PCOD9107346 Si02
#       8
#     2   2   2   2   2   2   2   2
#     4  10  22  37  60  90 125 161 194 257 319 357
#     4  10  21  39  66  86 121 170 209 241 317 372
#     4  11  20  41  63  90 126 165 196 259 317 362
#     4  10  21  40  59  93 122 160 209 257 299 380
#     4  10  21  43  63  83 127 165 202 252 320 363
#     4  10  23  43  63  93 123 157 217 254 296 382
#     4  10  20  40  64  86 127 166 200 245 322 374
#     4  11  22  38  63  95 125 154 215 252 301 378
#
# _framework density 18.836494999999999
#
# number of rings (size 3 to 8) (size 9 to 14) (size 15 to 20)
#    0.000    2.000    3.750    2.250    5.250    1.500 
#    9.000    0.625    0.000    0.000    0.000    0.000 
#    0.000    0.000    0.000    0.000    0.000    0.000 
#
# Total GULP energy -89247.268331 kJ/mol
# GULP energy per Si atom -5577.954271 kJ/mol
# Density = 1.879362 g / cm^3
# Si number density = 18.836495 Si / 1000 Ang^3
#
#
#
# Elastic Constant Matrix: (Units=GPa)
#
#
# Indices 1 2 3 4 5 6 
#
# 1 130.2039 46.2395 39.6873 24.6479 25.5836 -14.6051
# 2 46.2395 107.1056 56.2707 16.4293 18.2221 -15.3345
# 3 39.6873 56.2707 96.9354 29.1102 33.9550 -2.5544
# 4 24.6479 16.4293 29.1102 40.7617 2.7996 5.9135
# 5 25.5836 18.2221 33.9550 2.7996 34.2992 4.6596
# 6 -14.6051 -15.3345 -2.5544 5.9135 4.6596 34.2022
#
#
#
# Elastic Compliance Matrix: (Units=1/GPa)
#
#
# Indices 1 2 3 4 5 6 
#
# 1 0.012454 -0.002773 0.003543 -0.009238 -0.011591 0.007516
# 2 -0.002773 0.015204 -0.008312 0.000701 0.001527 0.004682
# 3 0.003543 -0.008312 0.028321 -0.018204 -0.025667 0.006545
# 4 -0.009238 0.000701 -0.018204 0.043522 0.023115 -0.015664
# 5 -0.011591 0.001527 -0.025667 0.023115 0.063062 -0.018770
# 6 0.007516 0.004682 0.006545 -0.015664 -0.018770 0.040301
#
#
# Mechanical properties :
#
#
# Convention : Reuss Voigt Hill
#
# Bulk Modulus (GPa) = 24.45335 68.73776 46.59556
# Shear Modulus (GPa) = 21.59078 34.65579 28.12329
#
# Velocity S-wave (km/s) = 3.38926 4.29397 3.86816
# Velocity P-wave (km/s) = 5.32224 7.82018 6.68885
#
# Compressibility (1/GPa) = 0.04089419
#
# Stress axis : x y z
#
# Youngs Moduli (GPa) = 80.29279 65.77173 35.30972
#
# Poissons Ratio (x) = 0.18240 -0.12510
# Poissons Ratio (y) = 0.22267 0.29351
# Poissons Ratio (z) = -0.28448 0.54672
#
# Static dielectric constant tensor:
#      x y z
#    x 1.648750 0.003370 0.010450 
#    y 0.003370 1.664490 0.013260 
#    z 0.010450 0.013260 1.653060 
# 
# From -- ./inp_files/495405.got.cif
#   From: 2010.05.17/outbox.cif.g08.bks.cpg/sg2_248_cif.got.tgz:495405.got - 2010.06.03 11:33:40.
