data_PCOD9107280
_publ_section_title
;
Structure prediction by ZEFSAII (Michael W. Deem and Ramdas Pophale) SiO2 
 PCOD9107280
Probable space group: P -1
;
_chemical_formula_sum "Si O2"
_cell_formula_units_Z 13
_cell_length_a 9.731967
_cell_length_b 9.411068
_cell_length_c 10.678236
_cell_angle_alpha 125.124246
_cell_angle_beta 42.101685
_cell_angle_gamma 101.455970
_cell_volume 487.624778
_symmetry_space_group_name_H-M "P -1"
_symmetry_group_IT_number 2
_symmetry_cell_setting 'triclinic'
loop_
_space_group_symop_operation_xyz
x,y,z
-x,-y,-z
loop_
_atom_site_type_symbol
_atom_site_label
_atom_site_fract_x
_atom_site_fract_y
_atom_site_fract_z
Si Si1 0.567802 0.549287 0.306024
Si Si2 0.798750 0.219674 0.642240
Si Si3 0.196357 0.786039 0.849432
Si Si4 0.757361 0.931035 0.326176
Si Si5 0.640056 0.624013 0.831926
Si Si6 0.000000 0.500000 0.000000
Si Si7 0.245492 0.066427 0.164929
O O1 0.380229 0.734079 0.590913
O O2 0.742535 0.426886 0.237670
O O3 0.425678 0.444362 0.289747
O O4 0.773979 0.540081 0.076618
O O5 0.740515 0.436001 0.751570
O O6 0.066960 0.114715 0.422536
O O7 0.766847 0.105324 0.486104
O O8 0.604556 0.238952 0.879025
O O9 0.927842 0.876927 0.063256
O O10 0.233257 0.913555 0.997729
O O11 0.500000 0.000000 0.500000
O O12 0.870023 0.736774 0.235481
O O13 0.799298 0.733580 0.771557
O O14 0.500000 0.000000 0.000000
#
# Coordination Sequence:
#
# PCOD9107280 Si02
#       7
#     2   2   2   2   2   1   2
#     4  10  20  40  63  97 129 172 219 269 337 392
#     4  10  25  44  63  96 136 170 227 271 321 409
#     4   9  21  40  63  96 133 162 222 280 321 404
#     4  10  21  44  64  94 131 172 221 278 333 390
#     4  11  23  44  67  93 134 179 215 272 335 393
#     4  10  22  36  66  94 128 170 220 268 328 396
#     4  11  22  42  67  96 130 173 218 270 339 387
#
# _framework density 26.659844
#
# number of rings (size 3 to 8) (size 9 to 14) (size 15 to 20)
#    0.000    1.846    1.538    1.385    2.154    1.846 
#   11.077    2.308    0.000    0.000    0.000    0.000 
#    0.000    0.000    0.000    0.000    0.000    0.000 
#
# Total GULP energy -72425.733369 kJ/mol
# GULP energy per Si atom -5571.210259 kJ/mol
# Density = 2.659917 g / cm^3
# Si number density = 26.659844 Si / 1000 Ang^3
#
#
#
# Elastic Constant Matrix: (Units=GPa)
#
#
# Indices 1 2 3 4 5 6 
#
# 1 44.2073 -5.0199 60.2831 -3.6491 -10.9409 7.3541
# 2 -5.0199 101.4678 50.6187 8.1916 2.7744 -2.6194
# 3 60.2831 50.6187 270.5512 -17.7115 -30.6843 5.3208
# 4 -3.6491 8.1916 -17.7115 47.1485 5.0986 -7.1558
# 5 -10.9409 2.7744 -30.6843 5.0986 47.1021 -1.0312
# 6 7.3541 -2.6194 5.3208 -7.1558 -1.0312 27.8637
#
#
#
# Elastic Compliance Matrix: (Units=1/GPa)
#
#
# Indices 1 2 3 4 5 6 
#
# 1 0.038019 0.006593 -0.009479 -0.003297 0.002441 -0.008361
# 2 0.006593 0.012559 -0.004197 -0.003170 -0.001613 -0.000632
# 3 -0.009479 -0.004197 0.007001 0.002602 0.002358 0.001526
# 4 -0.003297 -0.003170 0.002602 0.023545 -0.001300 0.006074
# 5 0.002441 -0.001613 0.002358 -0.001300 0.023554 -0.000708
# 6 -0.008361 -0.000632 0.001526 0.006074 -0.000708 0.039278
#
#
# Mechanical properties :
#
#
# Convention : Reuss Voigt Hill
#
# Bulk Modulus (GPa) = 23.03445 69.77668 46.40557
# Shear Modulus (GPa) = 28.96996 45.11249 37.04123
#
# Velocity S-wave (km/s) = 3.30002 4.11804 3.73151
# Velocity P-wave (km/s) = 4.81446 6.98862 6.00082
#
# Compressibility (1/GPa) = 0.04341324
#
# Stress axis : x y z
#
# Youngs Moduli (GPa) = 26.30291 79.62514 142.83159
#
# Poissons Ratio (x) = -0.52499 1.35394
# Poissons Ratio (y) = -0.17342 0.59943
# Poissons Ratio (z) = 0.24933 0.33417
#
# Static dielectric constant tensor:
#      x y z
#    x 2.209830 0.100120 -0.245760 
#    y 0.100120 2.124110 0.236880 
#    z -0.245760 0.236880 1.916780 
# 
# From -- ./inp_files/175975.got.cif
#   From: 2010.05.17/outbox.cif.g08.bks.cpg/sg2_88_cif.got.tgz:175975.got - 2010.06.03 11:33:40.
