data_PCOD9107612
_publ_section_title
;
Structure prediction by ZEFSAII (Michael W. Deem and Ramdas Pophale) SiO2 
 PCOD9107612
Probable space group: P -1
;
_chemical_formula_sum "Si O2"
_cell_formula_units_Z 16
_cell_length_a 5.868501
_cell_length_b 28.674750
_cell_length_c 5.326952
_cell_angle_alpha 125.613665
_cell_angle_beta 107.978803
_cell_angle_gamma 100.875353
_cell_volume 609.432603
_symmetry_space_group_name_H-M "P -1"
_symmetry_group_IT_number 2
_symmetry_cell_setting 'triclinic'
loop_
_space_group_symop_operation_xyz
x,y,z
-x,-y,-z
loop_
_atom_site_type_symbol
_atom_site_label
_atom_site_fract_x
_atom_site_fract_y
_atom_site_fract_z
Si Si1 0.343680 0.629349 0.410192
Si Si2 0.983107 0.159211 0.206920
Si Si3 0.458054 0.457880 0.600396
Si Si4 0.795810 0.227396 0.706452
Si Si5 0.874562 0.642855 0.485599
Si Si6 0.816367 0.012789 0.693133
Si Si7 0.571762 0.878975 0.407047
Si Si8 0.577729 0.766788 0.787954
O O1 0.346832 0.575936 0.433138
O O2 0.036104 0.618629 0.279996
O O3 0.513764 0.707202 0.765211
O O4 0.562138 0.628140 0.272486
O O5 0.964286 0.192790 0.560199
O O6 0.212154 0.218712 0.317123
O O7 0.711382 0.137192 0.879594
O O8 0.974521 0.090163 0.042577
O O9 0.500000 0.500000 0.500000
O O10 0.170769 0.395693 0.384121
O O11 0.500000 0.500000 0.000000
O O12 0.525705 0.164677 0.515729
O O13 0.706938 0.254583 0.523359
O O14 0.939290 0.282146 0.135365
O O15 0.747663 0.956193 0.699389
O O16 0.500000 0.000000 0.500000
O O17 0.000000 0.000000 0.500000
O O18 0.679324 0.839258 0.152189
#
# Coordination Sequence:
#
# PCOD9107612 Si02
#       8
#     2   2   2   2   2   2   2   2
#     4  10  24  44  72 102 138 185 234 281 355 422
#     4  10  23  38  63  92 134 179 235 294 354 424
#     4  10  26  49  78 111 152 194 242 296 361 439
#     4  11  24  38  64 101 134 175 233 297 351 417
#     4  10  24  45  70 104 140 183 234 284 357 421
#     4  10  20  40  65  88 126 184 230 284 358 429
#     4  10  21  41  62  88 132 177 228 288 358 418
#     4  11  22  38  65  95 134 176 232 291 352 415
#
# _framework density 26.253931000000001
#
# number of rings (size 3 to 8) (size 9 to 14) (size 15 to 20)
#    0.750    1.000    2.500    0.750    3.500    5.500 
#    0.000    0.625    0.000    0.000    0.000    0.000 
#    0.000    0.000    0.000    0.000    0.000    0.000 
#
# Total GULP energy -89093.728422 kJ/mol
# GULP energy per Si atom -5568.358026 kJ/mol
# Density = 2.619418 g / cm^3
# Si number density = 26.253931 Si / 1000 Ang^3
#
#
#
# Elastic Constant Matrix: (Units=GPa)
#
#
# Indices 1 2 3 4 5 6 
#
# 1 154.6949 29.1488 29.6581 3.1610 -9.8163 -1.6411
# 2 29.1488 194.5282 48.5855 28.7400 -15.3506 -5.6421
# 3 29.6581 48.5855 84.5310 15.1682 -11.8242 -7.5210
# 4 3.1610 28.7400 15.1682 37.4608 1.2781 -1.7941
# 5 -9.8163 -15.3506 -11.8242 1.2781 29.7047 -0.6788
# 6 -1.6411 -5.6421 -7.5210 -1.7941 -0.6788 43.9669
#
#
#
# Elastic Compliance Matrix: (Units=1/GPa)
#
#
# Indices 1 2 3 4 5 6 
#
# 1 0.007031 -0.000526 -0.002123 0.000624 0.001177 -0.000125
# 2 -0.000526 0.006662 -0.002542 -0.004107 0.002440 0.000270
# 3 -0.002123 -0.002542 0.015608 -0.004238 0.004430 0.002160
# 4 0.000624 -0.004107 -0.004238 0.031678 -0.004967 -0.000013
# 5 0.001177 0.002440 0.004430 -0.004967 0.037325 0.001488
# 6 -0.000125 0.000270 0.002160 -0.000013 0.001488 0.023166
#
#
# Mechanical properties :
#
#
# Convention : Reuss Voigt Hill
#
# Bulk Modulus (GPa) = 52.85734 72.05986 62.45860
# Shear Modulus (GPa) = 36.19028 43.98394 40.08711
#
# Velocity S-wave (km/s) = 3.71680 4.09752 3.91180
# Velocity P-wave (km/s) = 6.21259 7.06350 6.65167
#
# Compressibility (1/GPa) = 0.01891885
#
# Stress axis : x y z
#
# Youngs Moduli (GPa) = 142.22531 150.11506 64.06959
#
# Poissons Ratio (x) = 0.07900 0.13601
# Poissons Ratio (y) = 0.07485 0.16285
# Poissons Ratio (z) = 0.30192 0.38156
#
# Static dielectric constant tensor:
#      x y z
#    x 2.347000 -0.043540 0.020000 
#    y -0.043540 2.103470 -0.055420 
#    z 0.020000 -0.055420 2.054860 
# 
# From -- ./inp_files/15034.got.cif
#   From: 2010.05.17/outbox.cif.g08.bks.cpg/sg2_8_cif.got.tgz:15034.got - 2010.06.03 11:33:40.
