data_PCOD9107012
_publ_section_title
;
Structure prediction by ZEFSAII (Michael W. Deem and Ramdas Pophale) SiO2 
 PCOD9107012
Probable space group: P -1
;
_chemical_formula_sum "Si O2"
_cell_formula_units_Z 8
_cell_length_a 7.711440
_cell_length_b 8.763742
_cell_length_c 11.499746
_cell_angle_alpha 48.084369
_cell_angle_beta 139.718649
_cell_angle_gamma 113.631236
_cell_volume 364.219308
_symmetry_space_group_name_H-M "P -1"
_symmetry_group_IT_number 2
_symmetry_cell_setting 'triclinic'
loop_
_space_group_symop_operation_xyz
x,y,z
-x,-y,-z
loop_
_atom_site_type_symbol
_atom_site_label
_atom_site_fract_x
_atom_site_fract_y
_atom_site_fract_z
Si Si1 0.377132 0.247324 0.334037
Si Si2 0.267121 0.091305 0.597082
Si Si3 0.713910 0.507700 0.499759
Si Si4 0.298045 0.338935 0.994670
O O1 0.234685 0.234811 0.390862
O O2 0.604855 0.384642 0.402633
O O3 0.216642 0.335617 0.091181
O O4 0.500000 0.000000 0.500000
O O5 0.287578 0.245542 0.635976
O O6 0.527955 0.896236 0.824538
O O7 0.000000 0.000000 0.500000
O O8 0.500000 0.500000 0.500000
O O9 0.023747 0.396927 0.749223
O O10 0.500000 0.500000 0.000000
#
# Coordination Sequence:
#
# PCOD9107012 Si02
#       4
#     2   2   2   2
#     4   9  22  40  64  88 124 163 202 249 307 358
#     4  10  20  40  62  92 124 156 203 254 297 364
#     4  10  22  40  65  90 123 159 207 250 303 361
#     4  11  22  41  65  89 125 163 201 252 306 357
#
# _framework density 21.964787000000001
#
# number of rings (size 3 to 8) (size 9 to 14) (size 15 to 20)
#    0.000    2.000    2.500    0.000    0.000   14.000 
#    0.000    3.750    0.000    0.000    0.000    0.000 
#    0.000    0.000    0.000    0.000    0.000    0.000 
#
# Total GULP energy -44624.976032 kJ/mol
# GULP energy per Si atom -5578.122004 kJ/mol
# Density = 2.191479 g / cm^3
# Si number density = 21.964787 Si / 1000 Ang^3
#
#
#
# Elastic Constant Matrix: (Units=GPa)
#
#
# Indices 1 2 3 4 5 6 
#
# 1 39.2637 14.5022 13.3043 -1.9397 5.4092 12.5839
# 2 14.5022 185.2689 45.1787 7.0169 7.9995 -6.2507
# 3 13.3043 45.1787 95.5941 -11.5845 22.8876 -9.7844
# 4 -1.9397 7.0169 -11.5845 39.2529 0.4039 5.7965
# 5 5.4092 7.9995 22.8876 0.4039 34.8158 -2.1400
# 6 12.5839 -6.2507 -9.7844 5.7965 -2.1400 32.5279
#
#
#
# Elastic Compliance Matrix: (Units=1/GPa)
#
#
# Indices 1 2 3 4 5 6 
#
# 1 0.033037 -0.002090 -0.004087 0.003068 -0.002933 -0.015152
# 2 -0.002090 0.006423 -0.003120 -0.002420 0.001026 0.001603
# 3 -0.004087 -0.003120 0.015551 0.004398 -0.008657 0.004306
# 4 0.003068 -0.002420 0.004398 0.028219 -0.003483 -0.005586
# 5 -0.002933 0.001026 -0.008657 -0.003483 0.034775 0.001636
# 6 -0.015152 0.001603 0.004306 -0.005586 0.001636 0.039311
#
#
# Mechanical properties :
#
#
# Convention : Reuss Voigt Hill
#
# Bulk Modulus (GPa) = 27.45925 51.78857 39.62391
# Shear Modulus (GPa) = 26.58886 37.79542 32.19214
#
# Velocity S-wave (km/s) = 3.48303 4.15267 3.83250
# Velocity P-wave (km/s) = 5.35761 6.82803 6.13702
#
# Compressibility (1/GPa) = 0.03641759
#
# Stress axis : x y z
#
# Youngs Moduli (GPa) = 30.26874 155.68249 64.30610
#
# Poissons Ratio (x) = 0.32540 0.26282
# Poissons Ratio (y) = 0.06327 0.20061
# Poissons Ratio (z) = 0.12371 0.48568
#
# Static dielectric constant tensor:
#      x y z
#    x 1.880200 -0.047150 -0.031190 
#    y -0.047150 1.900310 0.004220 
#    z -0.031190 0.004220 1.768390 
# 
# From -- ./inp_files/15409.got.cif
#   From: 2010.05.17/outbox.cif.g08.bks.cpg/sg2_8_cif.got.tgz:15409.got - 2010.06.03 11:33:40.
