data_PCOD9107496
_publ_section_title
;
Structure prediction by ZEFSAII (Michael W. Deem and Ramdas Pophale) SiO2 
 PCOD9107496
Probable space group: P -1
;
_chemical_formula_sum "Si O2"
_cell_formula_units_Z 14
_cell_length_a 18.035493
_cell_length_b 7.062939
_cell_length_c 6.488060
_cell_angle_alpha 45.137911
_cell_angle_beta 69.241503
_cell_angle_gamma 87.992149
_cell_volume 518.164774
_symmetry_space_group_name_H-M "P -1"
_symmetry_group_IT_number 2
_symmetry_cell_setting 'triclinic'
loop_
_space_group_symop_operation_xyz
x,y,z
-x,-y,-z
loop_
_atom_site_type_symbol
_atom_site_label
_atom_site_fract_x
_atom_site_fract_y
_atom_site_fract_z
Si Si1 0.296230 0.827570 0.292854
Si Si2 0.561537 0.645269 0.638481
Si Si3 0.972088 0.725410 0.975273
Si Si4 0.428973 0.753153 0.451793
Si Si5 0.307760 0.494374 0.145897
Si Si6 0.128100 0.205085 0.633348
Si Si7 0.187714 0.194183 0.004805
O O1 0.382540 0.953853 0.238441
O O2 0.239065 0.024075 0.198571
O O3 0.242933 0.522260 0.671877
O O4 0.053253 0.970069 0.782344
O O5 0.516905 0.847548 0.413545
O O6 0.564904 0.439269 0.602082
O O7 0.651932 0.709091 0.607728
O O8 0.500000 0.500000 0.000000
O O9 0.685556 0.250703 0.896698
O O10 0.906433 0.824628 0.827725
O O11 0.916424 0.611157 0.326105
O O12 0.000000 0.500000 0.000000
O O13 0.208606 0.368192 0.296394
O O14 0.364139 0.595691 0.813381
O O15 0.168718 0.076423 0.878433
#
# Coordination Sequence:
#
# PCOD9107496 Si02
#       7
#     2   2   2   2   2   2   2
#     4  10  20  40  64  94 140 183 236 294 353 426
#     4   8  15  30  60  97 140 184 229 289 350 420
#     4   9  18  40  69 100 133 184 239 300 362 436
#     4   9  17  32  60 101 137 183 235 283 349 428
#     4   9  17  35  61  94 141 187 231 296 358 418
#     4   8  18  38  65  99 137 184 234 301 361 426
#     4   9  20  41  65  95 138 184 233 298 360 419
#
# _framework density 27.018429999999999
#
# number of rings (size 3 to 8) (size 9 to 14) (size 15 to 20)
#    0.857    2.286    0.000    0.000    0.000    0.000 
#    5.143    8.571    0.000   21.429    0.000   94.000 
#    0.000    0.143    0.000    0.000    0.000    0.000 
#
# Total GULP energy -78244.722702 kJ/mol
# GULP energy per Si atom -5588.908764 kJ/mol
# Density = 2.695694 g / cm^3
# Si number density = 27.018430 Si / 1000 Ang^3
#
#
#
# Elastic Constant Matrix: (Units=GPa)
#
#
# Indices 1 2 3 4 5 6 
#
# 1 215.2349 78.0599 70.9106 -4.6206 -27.0524 -37.8277
# 2 78.0599 143.7838 64.9712 29.3331 0.7458 -26.2148
# 3 70.9106 64.9712 162.9589 20.2496 -20.0742 -6.3956
# 4 -4.6206 29.3331 20.2496 49.4945 -8.5747 5.2722
# 5 -27.0524 0.7458 -20.0742 -8.5747 48.8740 -6.9704
# 6 -37.8277 -26.2148 -6.3956 5.2722 -6.9704 42.1815
#
#
#
# Elastic Compliance Matrix: (Units=1/GPa)
#
#
# Indices 1 2 3 4 5 6 
#
# 1 0.008181 -0.003497 -0.001796 0.003924 0.005285 0.005274
# 2 -0.003497 0.012581 -0.002840 -0.007802 -0.004012 0.004565
# 3 -0.001796 -0.002840 0.008413 -0.001405 0.002032 -0.001588
# 4 0.003924 -0.007802 -0.001405 0.027218 0.005924 -0.003966
# 5 0.005285 -0.004012 0.002032 0.005924 0.026197 0.006143
# 6 0.005274 0.004565 -0.001588 -0.003966 0.006143 0.032544
#
#
# Mechanical properties :
#
#
# Convention : Reuss Voigt Hill
#
# Bulk Modulus (GPa) = 77.45507 105.54011 91.49759
# Shear Modulus (GPa) = 36.84520 48.64574 42.74547
#
# Velocity S-wave (km/s) = 3.69685 4.24779 3.98186
# Velocity P-wave (km/s) = 6.85215 7.95018 7.42150
#
# Compressibility (1/GPa) = 0.01291071
#
# Stress axis : x y z
#
# Youngs Moduli (GPa) = 122.23052 79.48279 118.86737
#
# Poissons Ratio (x) = 0.27792 0.21343
# Poissons Ratio (y) = 0.42740 0.33760
# Poissons Ratio (z) = 0.21947 0.22574
#
# Static dielectric constant tensor:
#      x y z
#    x 2.142300 0.007870 0.012220 
#    y 0.007870 2.113400 -0.016490 
#    z 0.012220 -0.016490 2.181270 
# 
# From -- ./inp_files/88736.got.cif
#   From: 2010.05.17/outbox.cif.g08.bks.cpg/sg2_45_cif.got.tgz:88736.got - 2010.06.03 11:33:40.
