data_PCOD9107637
_publ_section_title
;
Structure prediction by ZEFSAII (Michael W. Deem and Ramdas Pophale) SiO2 
 PCOD9107637
Probable space group: P -1
;
_chemical_formula_sum "Si O2"
_cell_formula_units_Z 15
_cell_length_a 18.180624
_cell_length_b 8.107563
_cell_length_c 14.744538
_cell_angle_alpha 91.001118
_cell_angle_beta 21.058173
_cell_angle_gamma 79.561838
_cell_volume 652.260323
_symmetry_space_group_name_H-M "P -1"
_symmetry_group_IT_number 2
_symmetry_cell_setting 'triclinic'
loop_
_space_group_symop_operation_xyz
x,y,z
-x,-y,-z
loop_
_atom_site_type_symbol
_atom_site_label
_atom_site_fract_x
_atom_site_fract_y
_atom_site_fract_z
Si Si1 0.500000 0.500000 0.000000
Si Si2 0.644179 0.663651 0.158913
Si Si3 0.757642 0.677093 0.229705
Si Si4 0.600218 0.127908 0.922363
Si Si5 0.143073 0.539869 0.261820
Si Si6 0.287280 0.727501 0.860731
Si Si7 0.847428 0.948601 0.239687
Si Si8 0.075082 0.942485 0.284621
O O1 0.407834 0.359719 0.150589
O O2 0.615461 0.504287 0.965019
O O3 0.768329 0.674276 0.108640
O O4 0.615000 0.480771 0.206975
O O5 0.379494 0.860756 0.451156
O O6 0.802238 0.603259 0.886538
O O7 0.509028 0.692359 0.543514
O O8 0.733426 0.865471 0.303672
O O9 0.000000 0.500000 0.000000
O O10 0.744851 0.052594 0.850037
O O11 0.801898 0.130227 0.622744
O O12 0.500000 0.000000 0.000000
O O13 0.036458 0.764005 0.351796
O O14 0.000000 0.500000 0.500000
O O15 0.192007 0.893992 0.050267
O O16 0.046394 0.792063 0.079902
O O17 0.000000 0.000000 0.000000
#
# Coordination Sequence:
#
# PCOD9107637 Si02
#       8
#     1   2   2   2   2   2   2   2
#     4  10  22  40  62  98 124 172 232 280 334 416
#     4  11  24  46  71 103 137 186 232 286 354 416
#     4  12  24  46  71 102 140 183 231 285 351 423
#     4  10  20  40  65  89 132 177 226 282 350 406
#     4  10  22  45  65  97 139 173 229 292 342 414
#     4  11  24  46  68  98 144 177 231 288 347 418
#     4  12  25  44  70 101 143 180 230 290 346 420
#     4   9  22  41  63  95 130 178 226 282 344 413
#
# _framework density 22.996955
#
# number of rings (size 3 to 8) (size 9 to 14) (size 15 to 20)
#    0.000    1.333    2.667    2.400    1.867    1.067 
#   16.800    0.000    0.000    0.000    0.000    0.000 
#    0.000    0.000    0.000    0.000    0.000    0.000 
#
# Total GULP energy -83564.319858 kJ/mol
# GULP energy per Si atom -5570.954657 kJ/mol
# Density = 2.294461 g / cm^3
# Si number density = 22.996955 Si / 1000 Ang^3
#
#
#
# Elastic Constant Matrix: (Units=GPa)
#
#
# Indices 1 2 3 4 5 6 
#
# 1 144.8143 5.1871 68.3374 -8.1182 10.6094 20.9763
# 2 5.1871 45.1812 13.9330 -18.6412 -2.4043 6.4919
# 3 68.3374 13.9330 107.0590 8.6050 4.3118 0.1655
# 4 -8.1182 -18.6412 8.6050 22.2240 -2.1003 -7.0854
# 5 10.6094 -2.4043 4.3118 -2.1003 47.7832 0.9888
# 6 20.9763 6.4919 0.1655 -7.0854 0.9888 34.7783
#
#
#
# Elastic Compliance Matrix: (Units=1/GPa)
#
#
# Indices 1 2 3 4 5 6 
#
# 1 0.013556 0.008516 -0.010845 0.014037 -0.000844 -0.006831
# 2 0.008516 0.045903 -0.015304 0.046553 0.003934 -0.004260
# 3 -0.010845 -0.015304 0.020170 -0.023264 -0.001300 0.004599
# 4 0.014037 0.046553 -0.023264 0.099704 0.005643 0.003107
# 5 -0.000844 0.003934 -0.001300 0.005643 0.021672 0.000315
# 6 -0.006831 -0.004260 0.004599 0.003107 0.000315 0.034271
#
#
# Mechanical properties :
#
#
# Convention : Reuss Voigt Hill
#
# Bulk Modulus (GPa) = 22.54056 52.44105 37.49080
# Shear Modulus (GPa) = 17.52355 34.93024 26.22689
#
# Velocity S-wave (km/s) = 2.76342 3.90154 3.38072
# Velocity P-wave (km/s) = 4.47267 6.56879 5.61933
#
# Compressibility (1/GPa) = 0.04436448
#
# Stress axis : x y z
#
# Youngs Moduli (GPa) = 73.76611 21.78483 49.57829
#
# Poissons Ratio (x) = -0.18552 0.53769
# Poissons Ratio (y) = -0.62820 0.75873
# Poissons Ratio (z) = 0.80001 0.33339
#
# Static dielectric constant tensor:
#      x y z
#    x 1.864140 -0.017560 -0.005210 
#    y -0.017560 1.997620 -0.019570 
#    z -0.005210 -0.019570 1.670700 
# 
# From -- ./inp_files/537380.got.cif
#   From: 2010.05.17/outbox.cif.g08.bks.cpg/sg2_269_cif.got.tgz:537380.got - 2010.06.03 11:33:40.
