data_PCOD9107768
_publ_section_title
;
Structure prediction by ZEFSAII (Michael W. Deem and Ramdas Pophale) SiO2 
 PCOD9107768
Probable space group: P -1
;
_chemical_formula_sum "Si O2"
_cell_formula_units_Z 16
_cell_length_a 5.594220
_cell_length_b 4.967106
_cell_length_c 26.122109
_cell_angle_alpha 55.475892
_cell_angle_beta 83.393860
_cell_angle_gamma 91.060020
_cell_volume 590.939358
_symmetry_space_group_name_H-M "P -1"
_symmetry_group_IT_number 2
_symmetry_cell_setting 'triclinic'
loop_
_space_group_symop_operation_xyz
x,y,z
-x,-y,-z
loop_
_atom_site_type_symbol
_atom_site_label
_atom_site_fract_x
_atom_site_fract_y
_atom_site_fract_z
Si Si1 0.915520 0.028695 0.596251
Si Si2 0.139023 0.735312 0.317969
Si Si3 0.667687 0.311977 0.895364
Si Si4 0.646331 0.585931 0.298559
Si Si5 0.561558 0.976035 0.441666
Si Si6 0.335541 0.493622 0.805644
Si Si7 0.931921 0.196927 0.129609
Si Si8 0.290366 0.323485 0.988196
O O1 0.890185 0.646070 0.621569
O O2 0.681832 0.180894 0.563424
O O3 0.184246 0.172057 0.558151
O O4 0.894524 0.040419 0.656613
O O5 0.409953 0.785241 0.283681
O O6 0.915251 0.761969 0.282579
O O7 0.579695 0.353763 0.835435
O O8 0.421969 0.230773 0.942559
O O9 0.806610 0.652942 0.873706
O O10 0.806773 0.008882 0.944285
O O11 0.608948 0.328813 0.373964
O O12 0.638243 0.392903 0.265770
O O13 0.500000 0.000000 0.500000
O O14 0.246981 0.717631 0.828701
O O15 0.132801 0.182920 0.839136
O O16 0.877107 0.416836 0.058098
O O17 0.500000 0.500000 0.000000
#
# Coordination Sequence:
#
# PCOD9107768 Si02
#       8
#     2   2   2   2   2   2   2   2
#     4  10  21  40  66  98 133 170 220 280 342 409
#     4  10  22  42  68  95 132 176 225 275 341 409
#     4  10  23  41  64  95 134 171 221 279 337 409
#     4  10  24  45  67 100 137 182 231 287 349 415
#     4  10  21  42  70 101 137 180 231 288 349 414
#     4  11  26  43  63  96 133 173 231 279 338 418
#     4  11  25  42  67  97 128 180 222 274 347 402
#     4  10  20  40  65  95 133 168 221 277 335 406
#
# _framework density 27.075534000000001
#
# number of rings (size 3 to 8) (size 9 to 14) (size 15 to 20)
#    0.000    1.750    1.250    1.500    3.500    4.500 
#    2.250   15.000    0.000    0.000    0.000    0.000 
#    0.000    0.000    0.000    0.000    0.000    0.000 
#
# Total GULP energy -89586.288630 kJ/mol
# GULP energy per Si atom -5599.143039 kJ/mol
# Density = 2.701391 g / cm^3
# Si number density = 27.075534 Si / 1000 Ang^3
#
#
#
# Elastic Constant Matrix: (Units=GPa)
#
#
# Indices 1 2 3 4 5 6 
#
# 1 155.0719 39.1859 -24.5203 12.1131 -50.1767 65.3829
# 2 39.1859 44.3058 46.7491 1.3056 15.3350 -7.1644
# 3 -24.5203 46.7491 69.7680 18.5072 -49.9348 63.8329
# 4 12.1131 1.3056 18.5072 53.6390 -0.8474 3.5462
# 5 -50.1767 15.3350 -49.9348 -0.8474 -13.3667 63.1864
# 6 65.3829 -7.1644 63.8329 3.5462 63.1864 3.6849
#
#
#
# Elastic Compliance Matrix: (Units=1/GPa)
#
#
# Indices 1 2 3 4 5 6 
#
# 1 0.004614 -0.000874 -0.001666 -0.000620 -0.003264 0.001860
# 2 -0.000874 0.023371 -0.003792 0.001568 0.007746 -0.007703
# 3 -0.001666 -0.003792 0.008009 -0.002697 -0.006904 0.004430
# 4 -0.000620 0.001568 -0.002697 0.019861 0.002558 -0.002197
# 5 -0.003264 0.007746 -0.006904 0.002558 0.010609 0.008177
# 6 0.001860 -0.007703 0.004430 -0.002197 0.008177 0.008548
#
#
# Mechanical properties :
#
#
# Convention : Reuss Voigt Hill
#
# Bulk Modulus (GPa) = 42.86206 43.55278 43.20742
# Shear Modulus (GPa) = 52.38110 22.64017 37.51064
#
# Velocity S-wave (km/s) = 4.40321 2.89482 3.72614
# Velocity P-wave (km/s) = 6.45879 5.22436 5.87409
#
# Compressibility (1/GPa) = 0.02333065
#
# Stress axis : x y z
#
# Youngs Moduli (GPa) = 216.73370 42.78745 124.85423
#
# Poissons Ratio (x) = 0.03739 0.20806
# Poissons Ratio (y) = 0.18937 0.47343
# Poissons Ratio (z) = 0.36116 0.16224
#
# Static dielectric constant tensor:
#      x y z
#    x 2.207460 -0.071340 0.000520 
#    y -0.071340 2.125650 -0.060500 
#    z 0.000520 -0.060500 2.104730 
# 
# From -- ./inp_files/12961.got.cif
#   From: 2010.05.17/outbox.cif.g08.bks.cpg/sg2_7_cif.got.tgz:12961.got - 2010.06.03 11:33:40.
