data_PCOD9107554
_publ_section_title
;
Structure prediction by ZEFSAII (Michael W. Deem and Ramdas Pophale) SiO2 
 PCOD9107554
Probable space group: P -1
;
_chemical_formula_sum "Si O2"
_cell_formula_units_Z 15
_cell_length_a 8.856480
_cell_length_b 15.455808
_cell_length_c 11.558717
_cell_angle_alpha 44.594847
_cell_angle_beta 122.416748
_cell_angle_gamma 142.367624
_cell_volume 676.841750
_symmetry_space_group_name_H-M "P -1"
_symmetry_group_IT_number 2
_symmetry_cell_setting 'triclinic'
loop_
_space_group_symop_operation_xyz
x,y,z
-x,-y,-z
loop_
_atom_site_type_symbol
_atom_site_label
_atom_site_fract_x
_atom_site_fract_y
_atom_site_fract_z
Si Si1 0.584560 0.676029 0.406320
Si Si2 0.217170 0.201349 0.375515
Si Si3 0.201383 0.337948 0.026341
Si Si4 0.620891 0.208745 0.463345
Si Si5 0.077971 0.544395 0.260753
Si Si6 0.438238 0.877276 0.740939
Si Si7 0.000000 0.500000 0.000000
Si Si8 0.047362 0.015442 0.140306
O O1 0.500000 0.500000 0.500000
O O2 0.669569 0.706140 0.544859
O O3 0.354920 0.659984 0.310127
O O4 0.816538 0.840988 0.274249
O O5 0.132833 0.275914 0.191290
O O6 0.434145 0.234415 0.363398
O O7 0.000000 0.000000 0.500000
O O8 0.115338 0.179579 0.068043
O O9 0.500000 0.500000 0.000000
O O10 0.053569 0.385071 0.874059
O O11 0.647227 0.166924 0.385222
O O12 0.899935 0.385894 0.428727
O O13 0.486382 0.040604 0.644205
O O14 0.067180 0.494916 0.169537
O O15 0.709811 0.949831 0.778542
O O16 0.255932 0.704675 0.901915
O O17 0.000000 0.000000 0.000000
#
# Coordination Sequence:
#
# PCOD9107554 Si02
#       8
#     2   2   2   2   2   2   1   2
#     4  12  29  47  72 108 145 185 244 302 360 422
#     4  12  25  47  72 104 142 191 242 293 358 432
#     4  12  25  48  75 102 141 193 241 289 359 440
#     4  10  21  41  68  94 137 182 233 284 352 420
#     4  11  25  43  68 105 140 186 243 289 362 422
#     4  10  20  40  65 100 136 180 232 290 347 427
#     4  10  22  38  68 106 136 182 242 286 362 422
#     4  12  26  46  69 102 145 184 233 292 368 415
#
# _framework density 22.161753999999998
#
# number of rings (size 3 to 8) (size 9 to 14) (size 15 to 20)
#    0.000    0.800    4.000    2.400    5.600    3.200 
#    0.000    0.000    0.000    0.000    0.000    0.000 
#    0.000    0.000    0.000    0.000    0.000    0.000 
#
# Total GULP energy -83559.544575 kJ/mol
# GULP energy per Si atom -5570.636305 kJ/mol
# Density = 2.211131 g / cm^3
# Si number density = 22.161754 Si / 1000 Ang^3
#
#
#
# Elastic Constant Matrix: (Units=GPa)
#
#
# Indices 1 2 3 4 5 6 
#
# 1 69.1932 50.5527 41.9857 -16.0821 12.7018 14.1894
# 2 50.5527 151.8408 75.8250 -20.2308 3.9809 4.7452
# 3 41.9857 75.8250 122.2333 -30.2160 -9.7037 12.1293
# 4 -16.0821 -20.2308 -30.2160 50.2947 10.5735 -21.4655
# 5 12.7018 3.9809 -9.7037 10.5735 34.7862 5.0099
# 6 14.1894 4.7452 12.1293 -21.4655 5.0099 46.8158
#
#
#
# Elastic Compliance Matrix: (Units=1/GPa)
#
#
# Indices 1 2 3 4 5 6 
#
# 1 0.024357 -0.004700 -0.005050 0.003959 -0.010586 -0.002650
# 2 -0.004700 0.010876 -0.005230 0.001081 -0.001654 0.002350
# 3 -0.005050 -0.005230 0.014548 0.003585 0.005505 -0.000654
# 4 0.003959 0.001081 0.003585 0.032262 -0.012374 0.013878
# 5 -0.010586 -0.001654 0.005505 -0.012374 0.039240 -0.007923
# 6 -0.002650 0.002350 -0.000654 0.013878 -0.007923 0.029306
#
#
# Mechanical properties :
#
#
# Convention : Reuss Voigt Hill
#
# Bulk Modulus (GPa) = 50.44806 75.55488 63.00147
# Shear Modulus (GPa) = 26.71594 38.03961 32.37778
#
# Velocity S-wave (km/s) = 3.47579 4.14750 3.82642
# Velocity P-wave (km/s) = 6.23868 7.55660 6.92905
#
# Compressibility (1/GPa) = 0.01982237
#
# Stress axis : x y z
#
# Youngs Moduli (GPa) = 41.05637 91.94512 68.73781
#
# Poissons Ratio (x) = 0.43211 0.34711
# Poissons Ratio (y) = 0.19295 0.35949
# Poissons Ratio (z) = 0.20733 0.48086
#
# Static dielectric constant tensor:
#      x y z
#    x 1.880220 -0.044170 0.028490 
#    y -0.044170 1.831070 -0.070720 
#    z 0.028490 -0.070720 1.848890 
# 
# From -- ./inp_files/398648.got.cif
#   From: 2010.05.17/outbox.cif.g08.bks.cpg/sg2_200_cif.got.tgz:398648.got - 2010.06.03 11:33:40.
