data_PCOD9107891
_publ_section_title
;
Structure prediction by ZEFSAII (Michael W. Deem and Ramdas Pophale) SiO2 
 PCOD9107891
Probable space group: P -1
;
_chemical_formula_sum "Si O2"
_cell_formula_units_Z 14
_cell_length_a 5.297991
_cell_length_b 7.439094
_cell_length_c 17.543351
_cell_angle_alpha 78.162005
_cell_angle_beta 94.224342
_cell_angle_gamma 116.360981
_cell_volume 606.228852
_symmetry_space_group_name_H-M "P -1"
_symmetry_group_IT_number 2
_symmetry_cell_setting 'triclinic'
loop_
_space_group_symop_operation_xyz
x,y,z
-x,-y,-z
loop_
_atom_site_type_symbol
_atom_site_label
_atom_site_fract_x
_atom_site_fract_y
_atom_site_fract_z
Si Si1 0.600701 0.618371 0.759726
Si Si2 0.848546 0.104670 0.160036
Si Si3 0.391376 0.785282 0.269597
Si Si4 0.377532 0.147099 0.412143
Si Si5 0.713116 0.886089 0.423688
Si Si6 0.168806 0.862335 0.006819
Si Si7 0.914964 0.698673 0.169377
O O1 0.883243 0.773584 0.792532
O O2 0.611342 0.407236 0.758072
O O3 0.563829 0.710475 0.671655
O O4 0.328568 0.530877 0.815474
O O5 0.568907 0.007997 0.214815
O O6 0.838327 0.889237 0.150147
O O7 0.885434 0.229905 0.071765
O O8 0.069636 0.737467 0.251989
O O9 0.526888 0.787248 0.353927
O O10 0.617850 0.066945 0.422710
O O11 0.049563 0.973505 0.411090
O O12 0.372397 0.237525 0.487916
O O13 0.095522 0.728780 0.093811
O O14 0.500000 0.000000 0.000000
O O15 0.000000 0.000000 0.000000
#
# Coordination Sequence:
#
# PCOD9107891 Si02
#       7
#     2   2   2   2   2   2   2
#     4  11  24  38  62  98 125 164 212 260 314 375
#     4  10  21  41  63  86 127 170 208 257 318 367
#     4  11  22  38  63  93 125 167 208 260 310 381
#     4  10  22  42  65  94 123 166 211 256 312 377
#     4  10  22  41  68  90 124 168 211 253 313 377
#     4  10  20  40  66  89 122 170 211 254 314 370
#     4  10  23  39  62  91 128 162 216 259 310 377
#
# _framework density 23.093589000000001
#
# number of rings (size 3 to 8) (size 9 to 14) (size 15 to 20)
#    0.000    1.714    2.857    0.857    4.000    2.286 
#    0.000    1.429    0.000    0.000    0.000    0.000 
#    0.000    0.000    0.000    0.000    0.000    0.000 
#
# Total GULP energy -78028.078203 kJ/mol
# GULP energy per Si atom -5573.434157 kJ/mol
# Density = 2.304103 g / cm^3
# Si number density = 23.093589 Si / 1000 Ang^3
#
#
#
# Elastic Constant Matrix: (Units=GPa)
#
#
# Indices 1 2 3 4 5 6 
#
# 1 63.7163 5.7104 -3.5816 -7.0182 4.1570 15.0128
# 2 5.7104 73.4132 19.6251 -6.4733 -10.0106 10.2349
# 3 -3.5816 19.6251 131.5965 0.0604 -0.0925 -1.1500
# 4 -7.0182 -6.4733 0.0604 25.3897 12.3037 -5.4941
# 5 4.1570 -10.0106 -0.0925 12.3037 32.0188 1.5864
# 6 15.0128 10.2349 -1.1500 -5.4941 1.5864 19.9100
#
#
#
# Elastic Compliance Matrix: (Units=1/GPa)
#
#
# Indices 1 2 3 4 5 6 
#
# 1 0.019538 0.000137 0.000390 0.004222 -0.003454 -0.013340
# 2 0.000137 0.016303 -0.002504 -0.000591 0.005758 -0.009251
# 3 0.000390 -0.002504 0.007996 0.000284 -0.000999 0.001613
# 4 0.004222 -0.000591 0.000284 0.054176 -0.022237 0.013859
# 5 -0.003454 0.005758 -0.000999 -0.022237 0.042515 -0.009937
# 6 -0.013340 -0.009251 0.001613 0.013859 -0.009937 0.069749
#
#
# Mechanical properties :
#
#
# Convention : Reuss Voigt Hill
#
# Bulk Modulus (GPa) = 25.07307 34.69266 29.88286
# Shear Modulus (GPa) = 21.97563 31.92850 26.95207
#
# Velocity S-wave (km/s) = 3.08813 3.72233 3.41996
# Velocity P-wave (km/s) = 4.85759 5.79047 5.34442
#
# Compressibility (1/GPa) = 0.03988343
#
# Stress axis : x y z
#
# Youngs Moduli (GPa) = 51.18308 61.33877 125.05773
#
# Poissons Ratio (x) = -0.00840 -0.04882
# Poissons Ratio (y) = -0.00701 0.31315
# Poissons Ratio (z) = -0.01998 0.15360
#
# Static dielectric constant tensor:
#      x y z
#    x 2.075200 -0.000980 -0.017070 
#    y -0.000980 1.826160 0.007060 
#    z -0.017070 0.007060 1.971420 
# 
# From -- ./inp_files/7413.got.cif
#   From: 2010.05.17/outbox.cif.g08.bks.cpg/sg2_4_cif.got.tgz:7413.got - 2010.06.03 11:33:40.
