data_PCOD9107598
_publ_section_title
;
Structure prediction by ZEFSAII (Michael W. Deem and Ramdas Pophale) SiO2 
 PCOD9107598
Probable space group: P -1
;
_chemical_formula_sum "Si O2"
_cell_formula_units_Z 12
_cell_length_a 13.779845
_cell_length_b 9.778669
_cell_length_c 8.392536
_cell_angle_alpha 130.662070
_cell_angle_beta 59.931203
_cell_angle_gamma 146.605614
_cell_volume 469.650507
_symmetry_space_group_name_H-M "P -1"
_symmetry_group_IT_number 2
_symmetry_cell_setting 'triclinic'
loop_
_space_group_symop_operation_xyz
x,y,z
-x,-y,-z
loop_
_atom_site_type_symbol
_atom_site_label
_atom_site_fract_x
_atom_site_fract_y
_atom_site_fract_z
Si Si1 0.498908 0.399723 0.597775
Si Si2 0.848838 0.867604 0.344231
Si Si3 0.806291 0.823341 0.902283
Si Si4 0.902658 0.585028 0.746138
Si Si5 0.020832 0.421310 0.684896
Si Si6 0.352670 0.728772 0.804267
O O1 0.500000 0.500000 0.500000
O O2 0.304771 0.206974 0.671684
O O3 0.551862 0.258367 0.411893
O O4 0.640814 0.653108 0.797886
O O5 0.753661 0.569593 0.254613
O O6 0.027073 0.032678 0.234096
O O7 0.923756 0.116956 0.590331
O O8 0.777905 0.606097 0.866296
O O9 0.900647 0.100733 0.128506
O O10 0.907485 0.521288 0.512255
O O11 0.877932 0.400739 0.759110
O O12 0.196036 0.668078 0.831961
O O13 0.500000 0.000000 0.000000
#
# Coordination Sequence:
#
# PCOD9107598 Si02
#       6
#     2   2   2   2   2   2
#     4  10  22  37  62  91 125 155 196 257 307 349
#     4  10  22  40  65  92 118 161 203 246 312 355
#     4  10  20  42  65  89 124 159 203 252 296 363
#     4   9  20  37  66  87 119 171 198 241 307 349
#     4  10  20  40  65  87 125 162 203 245 300 369
#     4  11  23  39  63  93 125 155 198 263 305 351
#
# _framework density 25.550916000000001
#
# number of rings (size 3 to 8) (size 9 to 14) (size 15 to 20)
#    0.000    2.000    3.333    0.500    7.000    1.333 
#    0.000   10.000    0.000    0.000    0.000    0.000 
#    0.000    0.000    0.000    0.000    0.000    0.000 
#
# Total GULP energy -66950.160752 kJ/mol
# GULP energy per Si atom -5579.180063 kJ/mol
# Density = 2.549276 g / cm^3
# Si number density = 25.550916 Si / 1000 Ang^3
#
#
#
# Elastic Constant Matrix: (Units=GPa)
#
#
# Indices 1 2 3 4 5 6 
#
# 1 126.5115 26.2227 46.1672 25.7211 24.1328 1.9105
# 2 26.2227 77.3918 11.3724 9.5025 3.8418 20.5426
# 3 46.1672 11.3724 119.9463 34.9286 30.3945 -0.2905
# 4 25.7211 9.5025 34.9286 34.4366 15.4013 6.7060
# 5 24.1328 3.8418 30.3945 15.4013 58.2720 19.5857
# 6 1.9105 20.5426 -0.2905 6.7060 19.5857 37.7629
#
#
#
# Elastic Compliance Matrix: (Units=1/GPa)
#
#
# Indices 1 2 3 4 5 6 
#
# 1 0.010830 -0.003813 -0.001506 -0.004712 -0.003625 0.004232
# 2 -0.003813 0.017394 -0.001383 -0.000606 0.005325 -0.011934
# 3 -0.001506 -0.001383 0.013639 -0.011021 -0.005399 0.005691
# 4 -0.004712 -0.000606 -0.011021 0.046193 -0.002270 -0.006542
# 5 -0.003625 0.005325 -0.005399 -0.002270 0.027272 -0.016497
# 6 0.004232 -0.011934 0.005691 -0.006542 -0.016497 0.042521
#
#
# Mechanical properties :
#
#
# Convention : Reuss Voigt Hill
#
# Bulk Modulus (GPa) = 35.13808 54.59713 44.86760
# Shear Modulus (GPa) = 27.66403 42.10013 34.88208
#
# Velocity S-wave (km/s) = 3.29401 4.06359 3.69887
# Velocity P-wave (km/s) = 5.31502 6.59024 5.98668
#
# Compressibility (1/GPa) = 0.02845915
#
# Stress axis : x y z
#
# Youngs Moduli (GPa) = 92.33677 57.48972 73.31858
#
# Poissons Ratio (x) = 0.21920 0.11041
# Poissons Ratio (y) = 0.35207 0.10143
# Poissons Ratio (z) = 0.13904 0.07953
#
# Static dielectric constant tensor:
#      x y z
#    x 2.124790 -0.101380 -0.033190 
#    y -0.101380 2.119280 -0.086360 
#    z -0.033190 -0.086360 2.092020 
# 
# From -- ./inp_files/194978.got.cif
#   From: 2010.05.17/outbox.cif.g08.bks.cpg/sg2_98_cif.got.tgz:194978.got - 2010.06.03 11:33:40.
