data_PCOD9107933
_publ_section_title
;
Structure prediction by ZEFSAII (Michael W. Deem and Ramdas Pophale) SiO2 
 PCOD9107933
Probable space group: P -1
;
_chemical_formula_sum "Si O2"
_cell_formula_units_Z 8
_cell_length_a 8.610285
_cell_length_b 8.837290
_cell_length_c 9.616539
_cell_angle_alpha 46.107052
_cell_angle_beta 139.382576
_cell_angle_gamma 109.945904
_cell_volume 315.422762
_symmetry_space_group_name_H-M "P -1"
_symmetry_group_IT_number 2
_symmetry_cell_setting 'triclinic'
loop_
_space_group_symop_operation_xyz
x,y,z
-x,-y,-z
loop_
_atom_site_type_symbol
_atom_site_label
_atom_site_fract_x
_atom_site_fract_y
_atom_site_fract_z
Si Si1 0.067714 0.114821 0.109234
Si Si2 0.291429 0.339763 0.755360
Si Si3 0.454875 0.319765 0.270574
Si Si4 0.524066 0.191708 0.722199
O O1 0.293859 0.899748 0.471250
O O2 0.000000 0.000000 0.000000
O O3 0.799841 0.707593 0.940610
O O4 0.791959 0.217589 0.930321
O O5 0.482285 0.461471 0.853010
O O6 0.316307 0.312678 0.622120
O O7 0.000000 0.500000 0.500000
O O8 0.396874 0.080370 0.045080
O O9 0.449122 0.282837 0.457664
#
# Coordination Sequence:
#
# PCOD9107933 Si02
#       4
#     2   2   2   2
#     4   9  19  39  67  91 124 164 214 260 307 377
#     4  11  22  39  65  96 130 164 208 262 315 371
#     4  10  20  40  66  91 126 169 206 259 318 369
#     4  10  22  41  65  91 130 164 211 258 309 383
#
# _framework density 25.362786
#
# number of rings (size 3 to 8) (size 9 to 14) (size 15 to 20)
#    0.000    2.000    2.500    0.750    0.000    1.000 
#    0.000   21.250    0.000    0.000    0.000    0.000 
#    0.000    0.000    0.000    0.000    0.000    0.000 
#
# Total GULP energy -44789.327185 kJ/mol
# GULP energy per Si atom -5598.665898 kJ/mol
# Density = 2.530506 g / cm^3
# Si number density = 25.362786 Si / 1000 Ang^3
#
#
#
# Elastic Constant Matrix: (Units=GPa)
#
#
# Indices 1 2 3 4 5 6 
#
# 1 142.4748 79.2449 62.3929 -0.5817 32.6613 -0.0248
# 2 79.2449 181.2995 74.5144 -11.6710 10.5962 56.3029
# 3 62.3929 74.5144 118.2567 -10.6453 17.8507 4.4544
# 4 -0.5817 -11.6710 -10.6453 43.6555 -0.7378 -4.5122
# 5 32.6613 10.5962 17.8507 -0.7378 46.1800 -12.7194
# 6 -0.0248 56.3029 4.4544 -4.5122 -12.7194 72.5175
#
#
#
# Elastic Compliance Matrix: (Units=1/GPa)
#
#
# Indices 1 2 3 4 5 6 
#
# 1 0.012247 -0.004862 -0.002789 -0.001619 -0.005710 0.002848
# 2 -0.004862 0.012727 -0.004967 0.001138 -0.000170 -0.009537
# 3 -0.002789 -0.004967 0.013320 0.002169 -0.001185 0.002964
# 4 -0.001619 0.001138 0.002169 0.023786 0.000581 0.000565
# 5 -0.005710 -0.000170 -0.001185 0.000581 0.027598 0.005080
# 6 0.002848 -0.009537 0.002964 0.000565 0.005080 0.021939
#
#
# Mechanical properties :
#
#
# Convention : Reuss Voigt Hill
#
# Bulk Modulus (GPa) = 76.57998 97.14838 86.86418
# Shear Modulus (GPa) = 35.40882 47.52920 41.46901
#
# Velocity S-wave (km/s) = 3.74049 4.33364 4.04794
# Velocity P-wave (km/s) = 6.99388 7.96412 7.49472
#
# Compressibility (1/GPa) = 0.01305824
#
# Stress axis : x y z
#
# Youngs Moduli (GPa) = 81.65142 78.57218 75.07382
#
# Poissons Ratio (x) = 0.38199 0.20942
# Poissons Ratio (y) = 0.39696 0.37289
# Poissons Ratio (z) = 0.22777 0.39027
#
# Static dielectric constant tensor:
#      x y z
#    x 2.084210 -0.019790 0.006080 
#    y -0.019790 2.031500 0.001670 
#    z 0.006080 0.001670 1.994090 
# 
# From -- ./inp_files/17959.got.cif
#   From: 2010.05.17/outbox.cif.g08.bks.cpg/sg2_9_cif.got.tgz:17959.got - 2010.06.03 11:33:40.
