data_PCOD9107153
_publ_section_title
;
Structure prediction by ZEFSAII (Michael W. Deem and Ramdas Pophale) SiO2 
 PCOD9107153
Probable space group: P -1
;
_chemical_formula_sum "Si O2"
_cell_formula_units_Z 15
_cell_length_a 9.165592
_cell_length_b 8.821017
_cell_length_c 14.364546
_cell_angle_alpha 119.895499
_cell_angle_beta 41.854362
_cell_angle_gamma 123.045972
_cell_volume 640.661765
_symmetry_space_group_name_H-M "P -1"
_symmetry_group_IT_number 2
_symmetry_cell_setting 'triclinic'
loop_
_space_group_symop_operation_xyz
x,y,z
-x,-y,-z
loop_
_atom_site_type_symbol
_atom_site_label
_atom_site_fract_x
_atom_site_fract_y
_atom_site_fract_z
Si Si1 0.453545 0.785779 0.953201
Si Si2 0.351232 0.975250 0.686218
Si Si3 0.000000 0.000000 0.000000
Si Si4 0.554031 0.723568 0.409766
Si Si5 0.990404 0.650566 0.241290
Si Si6 0.120456 0.665818 0.920685
Si Si7 0.110505 0.383798 0.518499
Si Si8 0.922912 0.724399 0.697153
O O1 0.365818 0.732726 0.873575
O O2 0.678336 0.729488 0.851577
O O3 0.247126 0.707046 0.099385
O O4 0.500000 0.000000 0.000000
O O5 0.503957 0.839983 0.556170
O O6 0.120431 0.871025 0.704519
O O7 0.478274 0.164844 0.632131
O O8 0.254177 0.000376 0.840076
O O9 0.999396 0.175556 0.984853
O O10 0.813559 0.721874 0.287380
O O11 0.370201 0.523062 0.437659
O O12 0.896525 0.430996 0.201350
O O13 0.958372 0.707616 0.377834
O O14 0.000000 0.500000 0.000000
O O15 0.069647 0.248913 0.409353
O O16 0.958938 0.525441 0.628046
#
# Coordination Sequence:
#
# PCOD9107153 Si02
#       8
#     2   2   1   2   2   2   2   2
#     4  11  23  40  62  89 130 171 202 259 328 382
#     4  10  22  39  64  90 124 165 207 264 317 377
#     4  12  22  40  66  98 128 162 220 264 310 384
#     4  10  20  40  63  89 123 163 210 265 321 370
#     4  11  22  40  64  93 122 163 223 267 312 384
#     4  10  22  39  64  93 127 168 208 264 318 366
#     4  10  22  39  63  86 117 164 211 264 313 377
#     4  10  21  41  58  84 125 161 200 250 323 380
#
# _framework density 23.41329
#
# number of rings (size 3 to 8) (size 9 to 14) (size 15 to 20)
#    0.000    1.600    0.000    6.000    0.000    2.667 
#    0.000   16.000    0.000    0.000    0.000    0.000 
#    0.000    0.000    0.000    0.000    0.000    0.000 
#
# Total GULP energy -83556.967520 kJ/mol
# GULP energy per Si atom -5570.464501 kJ/mol
# Density = 2.336000 g / cm^3
# Si number density = 23.413290 Si / 1000 Ang^3
#
#
#
# Elastic Constant Matrix: (Units=GPa)
#
#
# Indices 1 2 3 4 5 6 
#
# 1 47.6735 9.9990 16.8929 -7.4167 -10.9864 -2.3101
# 2 9.9990 56.6443 20.1055 -2.8986 -6.3921 -11.1758
# 3 16.8929 20.1055 136.0131 -6.8609 -22.9287 -6.6645
# 4 -7.4167 -2.8986 -6.8609 27.2948 -10.3340 -2.9878
# 5 -10.9864 -6.3921 -22.9287 -10.3340 42.1610 -0.4535
# 6 -2.3101 -11.1758 -6.6645 -2.9878 -0.4535 25.7431
#
#
#
# Elastic Compliance Matrix: (Units=1/GPa)
#
#
# Indices 1 2 3 4 5 6 
#
# 1 0.025274 -0.002282 -0.000805 0.009795 0.008228 0.002351
# 2 -0.002282 0.020857 -0.001810 0.003015 0.002416 0.008774
# 3 -0.000805 -0.001810 0.008937 0.004103 0.005403 0.002027
# 4 0.009795 0.003015 0.004103 0.048139 0.017139 0.009139
# 5 0.008228 0.002416 0.005403 0.017139 0.033430 0.005764
# 6 0.002351 0.008774 0.002027 0.009139 0.005764 0.044552
#
#
# Mechanical properties :
#
#
# Convention : Reuss Voigt Hill
#
# Bulk Modulus (GPa) = 22.08823 37.14732 29.61777
# Shear Modulus (GPa) = 24.26277 31.92870 28.09574
#
# Velocity S-wave (km/s) = 3.22263 3.69684 3.46785
# Velocity P-wave (km/s) = 4.82718 5.84145 5.35836
#
# Compressibility (1/GPa) = 0.04527298
#
# Stress axis : x y z
#
# Youngs Moduli (GPa) = 39.56636 47.94443 111.89381
#
# Poissons Ratio (x) = 0.10941 0.09011
# Poissons Ratio (y) = 0.09029 0.20257
# Poissons Ratio (z) = 0.03186 0.08680
#
# Static dielectric constant tensor:
#      x y z
#    x 3.105570 0.532240 0.860190 
#    y 0.532240 2.210400 0.419500 
#    z 0.860190 0.419500 2.467430 
# 
# From -- ./inp_files/214105.got.cif
#   From: 2010.05.17/outbox.cif.g08.bks.cpg/sg2_108_cif.got.tgz:214105.got - 2010.06.03 11:33:40.
