data_PCOD9107058
_publ_section_title
;
Structure prediction by ZEFSAII (Michael W. Deem and Ramdas Pophale) SiO2 
 PCOD9107058
Probable space group: P -1
;
_chemical_formula_sum "Si O2"
_cell_formula_units_Z 14
_cell_length_a 5.535846
_cell_length_b 11.729586
_cell_length_c 14.254537
_cell_angle_alpha 131.251681
_cell_angle_beta 53.436431
_cell_angle_gamma 122.683626
_cell_volume 542.066164
_symmetry_space_group_name_H-M "P -1"
_symmetry_group_IT_number 2
_symmetry_cell_setting 'triclinic'
loop_
_space_group_symop_operation_xyz
x,y,z
-x,-y,-z
loop_
_atom_site_type_symbol
_atom_site_label
_atom_site_fract_x
_atom_site_fract_y
_atom_site_fract_z
Si Si1 0.476965 0.908727 0.053261
Si Si2 0.757041 0.164262 0.278328
Si Si3 0.879584 0.968287 0.304761
Si Si4 0.655698 0.308437 0.780089
Si Si5 0.863051 0.500840 0.428337
Si Si6 0.904051 0.801101 0.474042
Si Si7 0.370638 0.580942 0.949422
O O1 0.146618 0.886683 0.169088
O O2 0.697667 0.025206 0.139855
O O3 0.479733 0.728801 0.935597
O O4 0.500000 0.000000 0.000000
O O5 0.886576 0.332608 0.292283
O O6 0.441140 0.187654 0.414840
O O7 0.938718 0.111495 0.293788
O O8 0.556469 0.852067 0.295744
O O9 0.907454 0.033624 0.438691
O O10 0.998341 0.272298 0.683837
O O11 0.565376 0.451107 0.823655
O O12 0.546653 0.336826 0.924464
O O13 0.500000 0.500000 0.500000
O O14 0.000000 0.500000 0.500000
O O15 0.009928 0.668017 0.439732
O O16 0.000000 0.500000 0.000000
#
# Coordination Sequence:
#
# PCOD9107058 Si02
#       7
#     2   2   2   2   2   2   2
#     4  11  25  44  67  98 129 179 230 279 347 408
#     4  10  22  41  65  95 138 170 218 288 339 417
#     4  11  21  42  67  95 132 167 220 283 337 408
#     4  11  24  42  68  94 132 177 225 270 347 412
#     4  10  20  40  62  94 141 180 221 284 349 417
#     4  10  23  39  65 100 129 175 221 275 350 417
#     4  11  24  46  65  91 136 175 222 284 328 406
#
# _framework density 25.827107000000002
#
# number of rings (size 3 to 8) (size 9 to 14) (size 15 to 20)
#    0.000    1.429    4.286    0.429    0.000    4.571 
#    0.000    0.000    0.000    0.000    0.000    0.000 
#    0.000    0.000    0.000    0.000    0.000    0.000 
#
# Total GULP energy -78139.697603 kJ/mol
# GULP energy per Si atom -5581.406972 kJ/mol
# Density = 2.576832 g / cm^3
# Si number density = 25.827107 Si / 1000 Ang^3
#
#
#
# Elastic Constant Matrix: (Units=GPa)
#
#
# Indices 1 2 3 4 5 6 
#
# 1 63.2049 2.0534 24.2976 6.4508 -5.3517 -6.2035
# 2 2.0534 129.3190 12.5611 34.0707 -10.7801 -25.1382
# 3 24.2976 12.5611 131.9482 1.4224 -33.5722 1.2066
# 4 6.4508 34.0707 1.4224 37.1426 -8.1776 -3.9323
# 5 -5.3517 -10.7801 -33.5722 -8.1776 39.6545 9.7507
# 6 -6.2035 -25.1382 1.2066 -3.9323 9.7507 42.3246
#
#
#
# Elastic Compliance Matrix: (Units=1/GPa)
#
#
# Indices 1 2 3 4 5 6 
#
# 1 0.018038 0.001996 -0.004145 -0.004936 -0.002553 0.004077
# 2 0.001996 0.011953 -0.001993 -0.010972 -0.002133 0.006921
# 3 -0.004145 -0.001993 0.011097 0.003917 0.010103 -0.004071
# 4 -0.004936 -0.010972 0.003917 0.039095 0.009163 -0.005830
# 5 -0.002553 -0.002133 0.010103 0.009163 0.037103 -0.009625
# 6 0.004077 0.006921 -0.004071 -0.005830 -0.009625 0.030127
#
#
# Mechanical properties :
#
#
# Convention : Reuss Voigt Hill
#
# Bulk Modulus (GPa) = 30.48416 44.69958 37.59187
# Shear Modulus (GPa) = 30.00634 42.86167 36.43401
#
# Velocity S-wave (km/s) = 3.41224 4.07819 3.75999
# Velocity P-wave (km/s) = 5.23004 6.28652 5.78246
#
# Compressibility (1/GPa) = 0.03280392
#
# Stress axis : x y z
#
# Youngs Moduli (GPa) = 55.43845 83.66227 90.11222
#
# Poissons Ratio (x) = -0.16702 0.37354
# Poissons Ratio (y) = -0.11068 0.17961
# Poissons Ratio (z) = 0.22981 0.16676
#
# Static dielectric constant tensor:
#      x y z
#    x 2.017390 -0.037360 -0.030910 
#    y -0.037360 2.131490 -0.074890 
#    z -0.030910 -0.074890 2.102780 
# 
# From -- ./inp_files/68404.got.cif
#   From: 2010.05.17/outbox.cif.g08.bks.cpg/sg2_35_cif.got.tgz:68404.got - 2010.06.03 11:33:40.
