data_PCOD9107551
_publ_section_title
;
Structure prediction by ZEFSAII (Michael W. Deem and Ramdas Pophale) SiO2 
 PCOD9107551
Probable space group: P -1
;
_chemical_formula_sum "Si O2"
_cell_formula_units_Z 14
_cell_length_a 22.836749
_cell_length_b 16.706741
_cell_length_c 22.193207
_cell_angle_alpha 21.745158
_cell_angle_beta 11.924618
_cell_angle_gamma 20.753428
_cell_volume 608.665257
_symmetry_space_group_name_H-M "P -1"
_symmetry_group_IT_number 2
_symmetry_cell_setting 'triclinic'
loop_
_space_group_symop_operation_xyz
x,y,z
-x,-y,-z
loop_
_atom_site_type_symbol
_atom_site_label
_atom_site_fract_x
_atom_site_fract_y
_atom_site_fract_z
Si Si1 0.388142 0.728351 0.551535
Si Si2 0.181894 0.172911 0.369317
Si Si3 0.156219 0.893366 0.980118
Si Si4 0.361634 0.906191 0.259824
Si Si5 0.009380 0.410955 0.140911
Si Si6 0.541243 0.485982 0.802542
Si Si7 0.567140 0.145938 0.447753
O O1 0.697078 0.582943 0.306348
O O2 0.497476 0.783488 0.467773
O O3 0.212101 0.956545 0.532409
O O4 0.164946 0.585174 0.890403
O O5 0.899183 0.400806 0.508082
O O6 0.167495 0.095548 0.369283
O O7 0.465411 0.254400 0.035908
O O8 0.376866 0.642778 0.914653
O O9 0.334709 0.049893 0.716453
O O10 0.000000 0.000000 0.000000
O O11 0.884208 0.935760 0.270626
O O12 0.158861 0.758015 0.544374
O O13 0.673196 0.764340 0.081388
O O14 0.500000 0.000000 0.000000
O O15 0.435632 0.637206 0.742266
#
# Coordination Sequence:
#
# PCOD9107551 Si02
#       7
#     2   2   2   2   2   2   2
#     4  11  25  43  65  98 132 177 218 264 328 394
#     4  12  26  42  64  97 137 166 219 277 330 384
#     4  10  20  40  65 100 127 170 220 271 314 389
#     4  11  25  42  66  98 132 167 222 277 327 383
#     4  10  24  43  67  88 132 173 223 256 328 389
#     4  11  23  40  67  93 129 171 216 270 333 376
#     4  11  22  40  69  93 131 171 225 263 318 396
#
# _framework density 23.001149000000002
#
# number of rings (size 3 to 8) (size 9 to 14) (size 15 to 20)
#    0.000    1.143    0.000    7.286    6.000    3.429 
#    0.000    4.286    0.000    0.000    0.000    0.000 
#    0.000    0.000    0.000    0.000    0.000    0.000 
#
# Total GULP energy -78043.097067 kJ/mol
# GULP energy per Si atom -5574.506933 kJ/mol
# Density = 2.294880 g / cm^3
# Si number density = 23.001149 Si / 1000 Ang^3
#
#
#
# Elastic Constant Matrix: (Units=GPa)
#
#
# Indices 1 2 3 4 5 6 
#
# 1 11.2195 18.2993 38.7228 -26.9386 1.7041 -7.7409
# 2 18.2993 180.1620 -7.9420 11.0000 52.1605 26.6544
# 3 38.7228 -7.9420 144.0598 -8.2379 -46.1680 1.7283
# 4 -26.9386 11.0000 -8.2379 61.5916 7.5387 -11.6979
# 5 1.7041 52.1605 -46.1680 7.5387 40.9076 21.9201
# 6 -7.7409 26.6544 1.7283 -11.6979 21.9201 16.4535
#
#
#
# Elastic Compliance Matrix: (Units=1/GPa)
#
#
# Indices 1 2 3 4 5 6 
#
# 1 0.015921 -0.007312 0.010236 -0.004668 0.045664 -0.045895
# 2 -0.007312 0.011692 -0.003995 -0.002871 -0.019999 0.002643
# 3 0.010236 -0.003995 0.005726 0.007257 0.004551 0.009782
# 4 -0.004668 -0.002871 0.007257 0.011228 0.016747 -0.012636
# 5 0.045664 -0.019999 0.004551 0.016747 0.052767 -0.004989
# 6 -0.045895 0.002643 0.009782 -0.012636 -0.004989 0.031539
#
#
# Mechanical properties :
#
#
# Convention : Reuss Voigt Hill
#
# Bulk Modulus (GPa) = 32.05553 48.17795 40.11674
# Shear Modulus (GPa) = 35.35724 42.88127 39.11926
#
# Velocity S-wave (km/s) = 3.92496 4.32245 4.12849
# Velocity P-wave (km/s) = 5.87428 6.77516 6.34074
#
# Compressibility (1/GPa) = 0.03119586
#
# Stress axis : x y z
#
# Youngs Moduli (GPa) = 62.81144 85.53193 174.63386
#
# Poissons Ratio (x) = 0.62537 -1.78747
# Poissons Ratio (y) = 0.45925 0.69771
# Poissons Ratio (z) = -0.64291 0.34172
#
# Static dielectric constant tensor:
#      x y z
#    x 1.786260 -0.154830 0.114580 
#    y -0.154830 1.695990 0.220020 
#    z 0.114580 0.220020 1.677370 
# 
# From -- ./inp_files/621341.got.cif
#   From: 2010.05.17/outbox.cif.g08.bks.cpg/sg2_311_cif.got.tgz:621341.got - 2010.06.03 11:33:40.
