data_PCOD9107739
_publ_section_title
;
Structure prediction by ZEFSAII (Michael W. Deem and Ramdas Pophale) SiO2 
 PCOD9107739
Probable space group: P -1
;
_chemical_formula_sum "Si O2"
_cell_formula_units_Z 16
_cell_length_a 17.494943
_cell_length_b 8.626509
_cell_length_c 9.963822
_cell_angle_alpha 100.791576
_cell_angle_beta 145.700180
_cell_angle_gamma 66.444725
_cell_volume 746.471326
_symmetry_space_group_name_H-M "P -1"
_symmetry_group_IT_number 2
_symmetry_cell_setting 'triclinic'
loop_
_space_group_symop_operation_xyz
x,y,z
-x,-y,-z
loop_
_atom_site_type_symbol
_atom_site_label
_atom_site_fract_x
_atom_site_fract_y
_atom_site_fract_z
Si Si1 0.629513 0.088401 0.935193
Si Si2 0.944901 0.801495 0.993153
Si Si3 0.186688 0.462723 0.234925
Si Si4 0.375538 0.957179 0.526909
Si Si5 0.442385 0.737617 0.857397
Si Si6 0.254340 0.530111 0.630854
Si Si7 0.967401 0.874299 0.328353
Si Si8 0.516021 0.334865 0.584772
O O1 0.607704 0.262550 0.846122
O O2 0.486553 0.049994 0.691601
O O3 0.618087 0.134095 0.082215
O O4 0.790700 0.926683 0.108204
O O5 0.897431 0.651107 0.954455
O O6 0.803640 0.921525 0.718591
O O7 0.972465 0.898896 0.177139
O O8 0.096287 0.673141 0.114687
O O9 0.211351 0.441811 0.428632
O O10 0.345193 0.384973 0.381735
O O11 0.416311 0.842358 0.700621
O O12 0.410669 0.833874 0.429527
O O13 0.347202 0.625117 0.709544
O O14 0.620513 0.613358 0.116979
O O15 0.104192 0.676668 0.507633
O O16 0.000000 0.000000 0.500000
O O17 0.500000 0.500000 0.500000
#
# Coordination Sequence:
#
# PCOD9107739 Si02
#       8
#     2   2   2   2   2   2   2   2
#     4  12  23  44  67  92 135 173 217 272 322 392
#     4  10  21  40  67  95 131 167 218 275 324 385
#     4  10  20  40  65  94 128 175 214 268 331 381
#     4  12  24  41  67 102 128 170 225 267 328 386
#     4  11  23  40  67  94 130 176 215 265 325 391
#     4  10  21  40  64  91 132 169 218 264 324 387
#     4  11  22  39  65  93 124 178 213 265 332 383
#     4  12  24  40  64  98 132 171 221 267 326 389
#
# _framework density 21.434180000000001
#
# number of rings (size 3 to 8) (size 9 to 14) (size 15 to 20)
#    0.000    1.000    5.000    2.250    1.750    0.000 
#    2.250    3.750    0.000    0.000    0.000    0.000 
#    0.000    0.000    0.000    0.000    0.000    0.000 
#
# Total GULP energy -89303.322533 kJ/mol
# GULP energy per Si atom -5581.457658 kJ/mol
# Density = 2.138540 g / cm^3
# Si number density = 21.434180 Si / 1000 Ang^3
#
#
#
# Elastic Constant Matrix: (Units=GPa)
#
#
# Indices 1 2 3 4 5 6 
#
# 1 39.4042 1.9585 22.8946 -26.9972 -4.9990 -9.0773
# 2 1.9585 46.0065 15.9323 -9.2098 -1.9362 -9.5303
# 3 22.8946 15.9323 127.4536 -36.7691 3.6043 2.2249
# 4 -26.9972 -9.2098 -36.7691 50.6166 -10.5594 9.3508
# 5 -4.9990 -1.9362 3.6043 -10.5594 26.7157 -8.3218
# 6 -9.0773 -9.5303 2.2249 9.3508 -8.3218 22.6561
#
#
#
# Elastic Compliance Matrix: (Units=1/GPa)
#
#
# Indices 1 2 3 4 5 6 
#
# 1 0.062706 0.013680 -0.004550 0.034620 0.036506 0.030445
# 2 0.013680 0.029213 -0.004313 0.008912 0.015021 0.020032
# 3 -0.004550 -0.004313 0.011083 0.005736 -0.002938 -0.008172
# 4 0.034620 0.008912 0.005736 0.048462 0.027764 0.007253
# 5 0.036506 0.015021 -0.002938 0.027764 0.067487 0.034563
# 6 0.030445 0.020032 -0.008172 0.007253 0.034563 0.075267
#
#
# Mechanical properties :
#
#
# Convention : Reuss Voigt Hill
#
# Bulk Modulus (GPa) = 8.87807 32.71498 20.79653
# Shear Modulus (GPa) = 15.52166 31.46963 23.49565
#
# Velocity S-wave (km/s) = 2.69393 3.83586 3.31445
# Velocity P-wave (km/s) = 3.71852 5.90886 4.93670
#
# Compressibility (1/GPa) = 0.11263708
#
# Stress axis : x y z
#
# Youngs Moduli (GPa) = 15.94732 34.23120 90.22827
#
# Poissons Ratio (x) = -0.46828 0.41056
# Poissons Ratio (y) = -0.21816 0.38912
# Poissons Ratio (z) = 0.07256 0.14762
#
# Static dielectric constant tensor:
#      x y z
#    x 1.755890 0.006910 0.024030 
#    y 0.006910 1.847570 -0.008800 
#    z 0.024030 -0.008800 1.827530 
# 
# From -- ./inp_files/261487.got.cif
#   From: 2010.05.17/outbox.cif.g08.bks.cpg/sg2_131_cif.got.tgz:261487.got - 2010.06.03 11:33:40.
