data_PCOD9107398
_publ_section_title
;
Structure prediction by ZEFSAII (Michael W. Deem and Ramdas Pophale) SiO2 
 PCOD9107398
Probable space group: P -1
;
_chemical_formula_sum "Si O2"
_cell_formula_units_Z 14
_cell_length_a 20.805455
_cell_length_b 7.939194
_cell_length_c 7.440417
_cell_angle_alpha 124.634750
_cell_angle_beta 37.865666
_cell_angle_gamma 121.097732
_cell_volume 615.070497
_symmetry_space_group_name_H-M "P -1"
_symmetry_group_IT_number 2
_symmetry_cell_setting 'triclinic'
loop_
_space_group_symop_operation_xyz
x,y,z
-x,-y,-z
loop_
_atom_site_type_symbol
_atom_site_label
_atom_site_fract_x
_atom_site_fract_y
_atom_site_fract_z
Si Si1 0.185861 0.974067 0.103913
Si Si2 0.399227 0.832831 0.667638
Si Si3 0.891506 0.080468 0.346332
Si Si4 0.287096 0.391786 0.243109
Si Si5 0.508072 0.570463 0.727480
Si Si6 0.337100 0.085748 0.260495
Si Si7 0.104175 0.648340 0.812407
O O1 0.128999 0.934101 0.401993
O O2 0.224432 0.218696 0.143110
O O3 0.296070 0.877183 0.814789
O O4 0.115249 0.856692 0.033612
O O5 0.429713 0.606772 0.429779
O O6 0.500000 0.000000 0.500000
O O7 0.369814 0.881923 0.969555
O O8 0.894543 0.298239 0.369766
O O9 0.782225 0.957871 0.432159
O O10 0.000000 0.000000 0.000000
O O11 0.327950 0.244727 0.213408
O O12 0.200367 0.527791 0.579040
O O13 0.389207 0.539269 0.041445
O O14 0.500000 0.500000 0.500000
O O15 0.574270 0.794572 0.738055
O O16 0.000000 0.500000 0.000000
#
# Coordination Sequence:
#
# PCOD9107398 Si02
#       7
#     2   2   2   2   2   2   2
#     4  10  24  45  68  95 133 172 213 265 328 387
#     4  10  20  40  64  89 129 177 206 255 326 375
#     4  10  24  46  70  96 129 173 218 269 328 383
#     4  10  23  42  64  95 128 173 217 261 325 381
#     4  12  25  36  62 101 131 168 218 261 317 390
#     4  10  23  42  64  91 133 172 213 264 318 387
#     4  12  26  44  70  98 128 169 220 273 325 385
#
# _framework density 22.761617999999999
#
# number of rings (size 3 to 8) (size 9 to 14) (size 15 to 20)
#    0.000    1.714    2.857    3.000    8.000    3.429 
#    0.000    0.000    0.000    0.000    0.000    0.000 
#    0.000    0.000    0.000    0.000    0.000    0.000 
#
# Total GULP energy -78201.490008 kJ/mol
# GULP energy per Si atom -5585.820715 kJ/mol
# Density = 2.270981 g / cm^3
# Si number density = 22.761618 Si / 1000 Ang^3
#
#
#
# Elastic Constant Matrix: (Units=GPa)
#
#
# Indices 1 2 3 4 5 6 
#
# 1 48.7393 21.5890 26.5181 -7.1437 1.5683 18.1739
# 2 21.5890 89.6703 41.2223 -10.2168 -8.3221 36.3852
# 3 26.5181 41.2223 133.3082 -30.4616 -20.0531 23.0505
# 4 -7.1437 -10.2168 -30.4616 48.2068 4.2413 0.7797
# 5 1.5683 -8.3221 -20.0531 4.2413 21.7322 0.2186
# 6 18.1739 36.3852 23.0505 0.7797 0.2186 45.2608
#
#
#
# Elastic Compliance Matrix: (Units=1/GPa)
#
#
# Indices 1 2 3 4 5 6 
#
# 1 0.026747 -0.002217 -0.004106 0.001610 -0.006813 -0.006862
# 2 -0.002217 0.018611 -0.001677 0.002294 0.005425 -0.013283
# 3 -0.004106 -0.001677 0.012273 0.005980 0.009846 -0.003404
# 4 0.001610 0.002294 0.005980 0.025219 0.001419 -0.005977
# 5 -0.006813 0.005425 0.009846 0.001419 0.057462 -0.006942
# 6 -0.006862 -0.013283 -0.003404 -0.005977 -0.006942 0.037398
#
#
# Mechanical properties :
#
#
# Convention : Reuss Voigt Hill
#
# Bulk Modulus (GPa) = 24.01980 50.04184 37.03082
# Shear Modulus (GPa) = 24.08631 35.19916 29.64274
#
# Velocity S-wave (km/s) = 3.25653 3.93673 3.61267
# Velocity P-wave (km/s) = 4.97148 6.53427 5.80570
#
# Compressibility (1/GPa) = 0.04163233
#
# Stress axis : x y z
#
# Youngs Moduli (GPa) = 37.38769 53.73050 81.48034
#
# Poissons Ratio (x) = 0.11911 0.33452
# Poissons Ratio (y) = 0.08288 0.13665
# Poissons Ratio (z) = 0.15350 0.09011
#
# Static dielectric constant tensor:
#      x y z
#    x 1.929120 -0.015580 0.036350 
#    y -0.015580 1.971390 -0.013720 
#    z 0.036350 -0.013720 1.879240 
# 
# From -- ./inp_files/175736.got.cif
#   From: 2010.05.17/outbox.cif.g08.bks.cpg/sg2_88_cif.got.tgz:175736.got - 2010.06.03 11:33:40.
