data_PCOD9107948
_publ_section_title
;
Structure prediction by ZEFSAII (Michael W. Deem and Ramdas Pophale) SiO2 
 PCOD9107948
Probable space group: P -1
;
_chemical_formula_sum "Si O2"
_cell_formula_units_Z 14
_cell_length_a 18.950359
_cell_length_b 8.561021
_cell_length_c 11.863963
_cell_angle_alpha 47.171162
_cell_angle_beta 29.702816
_cell_angle_gamma 40.966043
_cell_volume 623.566960
_symmetry_space_group_name_H-M "P -1"
_symmetry_group_IT_number 2
_symmetry_cell_setting 'triclinic'
loop_
_space_group_symop_operation_xyz
x,y,z
-x,-y,-z
loop_
_atom_site_type_symbol
_atom_site_label
_atom_site_fract_x
_atom_site_fract_y
_atom_site_fract_z
Si Si1 0.498888 0.442266 0.216483
Si Si2 0.069743 0.704049 0.938163
Si Si3 0.276860 0.483445 0.972592
Si Si4 0.987874 0.842031 0.322130
Si Si5 0.702129 0.991135 0.803004
Si Si6 0.782865 0.666844 0.276426
Si Si7 0.778668 0.046417 0.912845
O O1 0.375538 0.332829 0.456382
O O2 0.621243 0.298304 0.019020
O O3 0.407932 0.726780 0.187847
O O4 0.612207 0.404816 0.187222
O O5 0.131557 0.578854 0.792185
O O6 0.206903 0.569111 0.904104
O O7 0.032291 0.976428 0.840654
O O8 0.905929 0.680200 0.190872
O O9 0.116285 0.586951 0.222520
O O10 0.369605 0.196960 0.992952
O O11 0.816301 0.905049 0.578417
O O12 0.076955 0.908991 0.265391
O O13 0.799459 0.949541 0.805855
O O14 0.756018 0.870844 0.121062
#
# Coordination Sequence:
#
# PCOD9107948 Si02
#       7
#     2   2   2   2   2   2   2
#     4  11  24  41  61  92 126 159 199 251 305 358
#     4  10  20  40  66  92 117 154 207 255 295 357
#     4  11  24  41  61  92 126 159 199 251 305 358
#     4  10  22  40  64  91 121 158 206 251 299 358
#     4  12  22  40  60  88 125 168 199 244 297 362
#     4  10  20  40  66  92 117 154 207 255 295 357
#     4  10  22  40  64  91 121 158 206 251 299 358
#
# _framework density 22.451478000000002
#
# number of rings (size 3 to 8) (size 9 to 14) (size 15 to 20)
#    0.000    1.429    2.857    2.571    0.000    1.714 
#    0.000    2.857    0.000    0.000    0.000    0.000 
#    0.000    0.000    0.000    0.000    0.000    0.000 
#
# Total GULP energy -78188.340603 kJ/mol
# GULP energy per Si atom -5584.881472 kJ/mol
# Density = 2.240038 g / cm^3
# Si number density = 22.451478 Si / 1000 Ang^3
#
#
#
# Elastic Constant Matrix: (Units=GPa)
#
#
# Indices 1 2 3 4 5 6 
#
# 1 83.0970 -12.7030 11.1593 -14.1663 -5.8067 -13.5255
# 2 -12.7030 114.2383 4.3323 -1.4349 1.9565 -6.7941
# 3 11.1593 4.3323 63.0806 0.0705 -13.7266 -8.1721
# 4 -14.1663 -1.4349 0.0705 17.2816 0.9354 -1.0254
# 5 -5.8067 1.9565 -13.7266 0.9354 16.6329 8.6696
# 6 -13.5255 -6.7941 -8.1721 -1.0254 8.6696 25.2946
#
#
#
# Elastic Compliance Matrix: (Units=1/GPa)
#
#
# Indices 1 2 3 4 5 6 
#
# 1 0.016839 0.002825 -0.002431 0.014824 -0.002783 0.010533
# 2 0.002825 0.009549 -0.001402 0.003652 -0.004218 0.005216
# 3 -0.002431 -0.001402 0.019814 -0.003136 0.016373 -0.001014
# 4 0.014824 0.003652 -0.003136 0.071653 -0.009132 0.013929
# 5 -0.002783 -0.004218 0.016373 -0.009132 0.088237 -0.027945
# 6 0.010533 0.005216 -0.001014 0.013929 -0.027945 0.056382
#
#
# Mechanical properties :
#
#
# Convention : Reuss Voigt Hill
#
# Bulk Modulus (GPa) = 22.63069 29.55478 26.09274
# Shear Modulus (GPa) = 17.90700 29.01697 23.46199
#
# Velocity S-wave (km/s) = 2.82722 3.59894 3.23617
# Velocity P-wave (km/s) = 4.55624 5.51926 5.06071
#
# Compressibility (1/GPa) = 0.04418778
#
# Stress axis : x y z
#
# Youngs Moduli (GPa) = 59.38424 104.72004 50.46928
#
# Poissons Ratio (x) = -0.29583 0.12267
# Poissons Ratio (y) = -0.16776 0.07075
# Poissons Ratio (z) = 0.14434 0.14679
#
# Static dielectric constant tensor:
#      x y z
#    x 1.821860 -0.024470 -0.021260 
#    y -0.024470 1.867700 0.008790 
#    z -0.021260 0.008790 1.814800 
# 
# From -- ./inp_files/152126.got.cif
#   From: 2010.05.17/outbox.cif.g08.bks.cpg/sg2_77_cif.got.tgz:152126.got - 2010.06.03 11:33:40.
