data_PCOD9107263
_publ_section_title
;
Structure prediction by ZEFSAII (Michael W. Deem and Ramdas Pophale) SiO2 
 PCOD9107263
Probable space group: P -1
;
_chemical_formula_sum "Si O2"
_cell_formula_units_Z 16
_cell_length_a 8.636649
_cell_length_b 11.434142
_cell_length_c 13.264406
_cell_angle_alpha 48.254389
_cell_angle_beta 108.915392
_cell_angle_gamma 124.732160
_cell_volume 799.930295
_symmetry_space_group_name_H-M "P -1"
_symmetry_group_IT_number 2
_symmetry_cell_setting 'triclinic'
loop_
_space_group_symop_operation_xyz
x,y,z
-x,-y,-z
loop_
_atom_site_type_symbol
_atom_site_label
_atom_site_fract_x
_atom_site_fract_y
_atom_site_fract_z
Si Si1 0.865051 0.321799 0.873801
Si Si2 0.242108 0.037656 0.820262
Si Si3 0.220977 0.163750 0.944957
Si Si4 0.072866 0.917793 0.647139
Si Si5 0.629341 0.079685 0.795095
Si Si6 0.288810 0.518079 0.872074
Si Si7 0.826356 0.526226 0.906602
Si Si8 0.451921 0.924677 0.644945
O O1 0.792744 0.255465 0.784563
O O2 0.742141 0.381492 0.881495
O O3 0.078457 0.484314 0.822877
O O4 0.860257 0.156073 0.031138
O O5 0.135785 0.031263 0.699456
O O6 0.260093 0.181615 0.823542
O O7 0.440421 0.060084 0.815224
O O8 0.279386 0.352353 0.903098
O O9 0.339352 0.081500 0.067861
O O10 0.000000 0.000000 0.000000
O O11 0.253668 0.906209 0.651442
O O12 0.912145 0.720748 0.762777
O O13 0.000000 0.000000 0.500000
O O14 0.603893 0.058746 0.682257
O O15 0.432464 0.726482 0.758183
O O16 0.294375 0.494518 0.007813
O O17 0.000000 0.500000 0.000000
O O18 0.500000 0.000000 0.500000
#
# Coordination Sequence:
#
# PCOD9107263 Si02
#       8
#     2   2   2   2   2   2   2   2
#     4  10  16  34  64  90 111 157 210 251 289 364
#     4  10  19  36  57  90 127 158 192 255 318 360
#     4  11  19  33  62  97 124 146 206 267 301 359
#     4  11  21  38  63  91 118 164 213 252 300 375
#     4  10  22  38  59  87 126 163 199 249 318 369
#     4  11  20  36  65  91 122 159 212 253 305 363
#     4  10  16  34  64  92 114 154 211 257 288 361
#     4  11  25  44  58  84 131 167 199 259 327 367
#
# _framework density 20.001742
#
# number of rings (size 3 to 8) (size 9 to 14) (size 15 to 20)
#    0.000    1.500    7.500    2.250    0.000    2.500 
#    0.000    4.375    0.000    3.000    0.000    0.000 
#    0.000    0.000    0.000    0.000    0.000    0.000 
#
# Total GULP energy -89250.231995 kJ/mol
# GULP energy per Si atom -5578.139500 kJ/mol
# Density = 1.995622 g / cm^3
# Si number density = 20.001742 Si / 1000 Ang^3
#
#
#
# Elastic Constant Matrix: (Units=GPa)
#
#
# Indices 1 2 3 4 5 6 
#
# 1 40.9429 37.5278 23.0666 14.3518 0.1214 -21.2578
# 2 37.5278 160.3191 66.5854 36.3462 -6.6661 -34.9846
# 3 23.0666 66.5854 129.5003 25.1309 -5.7517 -12.5122
# 4 14.3518 36.3462 25.1309 36.7027 -1.8748 -5.2864
# 5 0.1214 -6.6661 -5.7517 -1.8748 28.3673 6.9038
# 6 -21.2578 -34.9846 -12.5122 -5.2864 6.9038 45.4196
#
#
#
# Elastic Compliance Matrix: (Units=1/GPa)
#
#
# Indices 1 2 3 4 5 6 
#
# 1 0.039820 -0.003167 -0.002532 -0.008783 -0.005744 0.015351
# 2 -0.003167 0.011015 -0.003289 -0.006644 0.000208 0.005290
# 3 -0.002532 -0.003289 0.010371 -0.002984 0.001493 -0.001436
# 4 -0.008783 -0.006644 -0.002984 0.038556 0.001841 -0.005843
# 5 -0.005744 0.000208 0.001493 0.001841 0.037604 -0.007618
# 6 0.015351 0.005290 -0.001436 -0.005843 -0.007618 0.033359
#
#
# Mechanical properties :
#
#
# Convention : Reuss Voigt Hill
#
# Bulk Modulus (GPa) = 23.13307 65.01353 44.07330
# Shear Modulus (GPa) = 24.61718 35.67010 30.14364
#
# Velocity S-wave (km/s) = 3.51201 4.22755 3.88629
# Velocity P-wave (km/s) = 5.29493 7.51027 6.49771
#
# Compressibility (1/GPa) = 0.04322816
#
# Stress axis : x y z
#
# Youngs Moduli (GPa) = 25.11326 90.78812 96.42294
#
# Poissons Ratio (x) = 0.28757 0.24410
# Poissons Ratio (y) = 0.07955 0.31718
# Poissons Ratio (z) = 0.06358 0.29864
#
# Static dielectric constant tensor:
#      x y z
#    x 1.795020 0.008310 -0.014370 
#    y 0.008310 1.793840 0.013260 
#    z -0.014370 0.013260 1.654900 
# 
# From -- ./inp_files/389120.got.cif
#   From: 2010.05.17/outbox.cif.g08.bks.cpg/sg2_195_cif.got.tgz:389120.got - 2010.06.03 11:33:40.
