data_PCOD9107021
_publ_section_title
;
Structure prediction by ZEFSAII (Michael W. Deem and Ramdas Pophale) SiO2 
 PCOD9107021
Probable space group: P -1
;
_chemical_formula_sum "Si O2"
_cell_formula_units_Z 14
_cell_length_a 12.673190
_cell_length_b 8.206702
_cell_length_c 21.009235
_cell_angle_alpha 34.943568
_cell_angle_beta 31.826713
_cell_angle_gamma 56.099648
_cell_volume 586.281545
_symmetry_space_group_name_H-M "P -1"
_symmetry_group_IT_number 2
_symmetry_cell_setting 'triclinic'
loop_
_space_group_symop_operation_xyz
x,y,z
-x,-y,-z
loop_
_atom_site_type_symbol
_atom_site_label
_atom_site_fract_x
_atom_site_fract_y
_atom_site_fract_z
Si Si1 0.301318 0.286654 0.121474
Si Si2 0.744631 0.529001 0.050249
Si Si3 0.035914 0.650198 0.646655
Si Si4 0.608198 0.003095 0.039489
Si Si5 0.436585 0.662488 0.366894
Si Si6 0.783153 0.062702 0.269594
Si Si7 0.160926 0.213475 0.795396
O O1 0.073786 0.153971 0.323085
O O2 0.379534 0.032923 0.135791
O O3 0.500000 0.500000 0.000000
O O4 0.299904 0.501465 0.992899
O O5 0.650571 0.766256 0.048068
O O6 0.660392 0.233879 0.238323
O O7 0.016669 0.695211 0.866359
O O8 0.238678 0.752253 0.459658
O O9 0.128871 0.520873 0.698868
O O10 0.822663 0.353633 0.817992
O O11 0.576154 0.866040 0.171220
O O12 0.594749 0.720944 0.327914
O O13 0.351340 0.283202 0.518210
O O14 0.900561 0.973807 0.179315
O O15 0.000000 0.000000 0.000000
#
# Coordination Sequence:
#
# PCOD9107021 Si02
#       7
#     2   2   2   2   2   2   2
#     4  10  24  41  68  93 126 186 226 260 319 382
#     4  11  21  42  67  95 139 168 220 270 329 396
#     4  10  20  40  62  92 132 168 222 269 312 388
#     4  11  22  41  66  93 129 181 214 269 320 383
#     4  11  22  39  69 101 134 165 221 266 340 389
#     4  10  22  36  64 100 130 172 206 273 340 382
#     4  11  18  36  65  97 131 167 212 272 329 385
#
# _framework density 23.879311999999999
#
# number of rings (size 3 to 8) (size 9 to 14) (size 15 to 20)
#    0.000    1.429    4.286    3.000    2.000    2.286 
#    0.000    2.143    0.000    0.000    0.000    0.000 
#    0.000    0.000    0.000    0.000    0.000    0.000 
#
# Total GULP energy -78147.626305 kJ/mol
# GULP energy per Si atom -5581.973307 kJ/mol
# Density = 2.382496 g / cm^3
# Si number density = 23.879312 Si / 1000 Ang^3
#
#
#
# Elastic Constant Matrix: (Units=GPa)
#
#
# Indices 1 2 3 4 5 6 
#
# 1 125.3780 15.8478 5.9065 -0.0337 1.6748 -0.6852
# 2 15.8478 100.5875 5.3054 17.5064 -12.8729 -21.1142
# 3 5.9065 5.3054 57.2527 10.6375 -8.6547 8.8461
# 4 -0.0337 17.5064 10.6375 26.3481 -5.7883 3.0318
# 5 1.6748 -12.8729 -8.6547 -5.7883 23.7895 6.8599
# 6 -0.6852 -21.1142 8.8461 3.0318 6.8599 32.8634
#
#
#
# Elastic Compliance Matrix: (Units=1/GPa)
#
#
# Indices 1 2 3 4 5 6 
#
# 1 0.008268 -0.001774 -0.001087 0.001364 -0.001463 -0.000495
# 2 -0.001774 0.014318 -0.000414 -0.009905 0.002526 0.009660
# 3 -0.001087 -0.000414 0.020994 -0.005582 0.008189 -0.007134
# 4 0.001364 -0.009905 -0.005582 0.049779 0.007813 -0.011056
# 5 -0.001463 0.002526 0.008189 0.007813 0.051894 -0.012165
# 6 -0.000495 0.009660 -0.007134 -0.011056 -0.012165 0.042105
#
#
# Mechanical properties :
#
#
# Convention : Reuss Voigt Hill
#
# Bulk Modulus (GPa) = 27.00409 37.48196 32.24302
# Shear Modulus (GPa) = 24.24240 33.67741 28.95991
#
# Velocity S-wave (km/s) = 3.18969 3.75949 3.48625
# Velocity P-wave (km/s) = 4.98985 5.88010 5.45317
#
# Compressibility (1/GPa) = 0.03703143
#
# Stress axis : x y z
#
# Youngs Moduli (GPa) = 120.94110 69.84347 47.63191
#
# Poissons Ratio (x) = 0.12389 0.05176
# Poissons Ratio (y) = 0.21453 0.01972
# Poissons Ratio (z) = 0.13141 0.02892
#
# Static dielectric constant tensor:
#      x y z
#    x 1.921600 -0.072170 -0.021360 
#    y -0.072170 2.050950 -0.012780 
#    z -0.021360 -0.012780 1.951650 
# 
# From -- ./inp_files/593943.got.cif
#   From: 2010.05.17/outbox.cif.g08.bks.cpg/sg2_297_cif.got.tgz:593943.got - 2010.06.03 11:33:40.
