data_PCOD9107312
_publ_section_title
;
Structure prediction by ZEFSAII (Michael W. Deem and Ramdas Pophale) SiO2 
 PCOD9107312
Probable space group: P -1
;
_chemical_formula_sum "Si O2"
_cell_formula_units_Z 12
_cell_length_a 14.772064
_cell_length_b 9.080622
_cell_length_c 14.499575
_cell_angle_alpha 104.079222
_cell_angle_beta 19.827398
_cell_angle_gamma 94.730917
_cell_volume 573.079352
_symmetry_space_group_name_H-M "P -1"
_symmetry_group_IT_number 2
_symmetry_cell_setting 'triclinic'
loop_
_space_group_symop_operation_xyz
x,y,z
-x,-y,-z
loop_
_atom_site_type_symbol
_atom_site_label
_atom_site_fract_x
_atom_site_fract_y
_atom_site_fract_z
Si Si1 0.735528 0.701477 0.568268
Si Si2 0.953889 0.830643 0.103779
Si Si3 0.287433 0.577329 0.903527
Si Si4 0.346625 0.386231 0.159347
Si Si5 0.435227 0.798778 0.490688
Si Si6 0.296127 0.976076 0.268752
O O1 0.501518 0.669577 0.725049
O O2 0.632721 0.666559 0.761562
O O3 0.738177 0.884608 0.601035
O O4 0.074525 0.584669 0.194343
O O5 0.740990 0.800115 0.229829
O O6 0.763377 0.026924 0.347670
O O7 0.056846 0.688077 0.061760
O O8 0.243575 0.814057 0.768703
O O9 0.485964 0.381154 0.658428
O O10 0.000000 0.500000 0.500000
O O11 0.500000 0.500000 0.000000
O O12 0.511961 0.216717 0.914595
O O13 0.000000 0.000000 0.500000
O O14 0.500000 0.000000 0.000000
#
# Coordination Sequence:
#
# PCOD9107312 Si02
#       6
#     2   2   2   2   2   2
#     4  11  24  40  60  92 126 157 202 261 313 371
#     4  10  21  39  63  88 121 168 214 238 306 370
#     4  12  22  39  61  93 131 159 200 260 326 352
#     4  11  22  41  65  89 116 163 214 252 305 377
#     4  10  21  39  63  89 121 167 210 252 284 385
#     4  10  20  40  64  81 117 162 205 245 299 379
#
# _framework density 20.939506999999999
#
# number of rings (size 3 to 8) (size 9 to 14) (size 15 to 20)
#    0.000    1.333    0.000    8.000    0.000    0.000 
#    9.000    0.000    0.000    0.000    0.000    0.000 
#    0.000    0.000    0.000    0.000    0.000    0.000 
#
# Total GULP energy -66916.627838 kJ/mol
# GULP energy per Si atom -5576.385653 kJ/mol
# Density = 2.089185 g / cm^3
# Si number density = 20.939507 Si / 1000 Ang^3
#
#
#
# Elastic Constant Matrix: (Units=GPa)
#
#
# Indices 1 2 3 4 5 6 
#
# 1 24.2601 23.8178 21.1670 14.0274 -0.9966 13.5931
# 2 23.8178 140.3753 62.0438 19.7743 2.8792 17.3852
# 3 21.1670 62.0438 121.6347 8.8343 -9.2076 20.4171
# 4 14.0274 19.7743 8.8343 58.6674 7.6062 3.3063
# 5 -0.9966 2.8792 -9.2076 7.6062 26.5767 -6.5178
# 6 13.5931 17.3852 20.4171 3.3063 -6.5178 31.0604
#
#
#
# Elastic Compliance Matrix: (Units=1/GPa)
#
#
# Indices 1 2 3 4 5 6 
#
# 1 0.071574 -0.005142 -0.004895 -0.013224 -0.000540 -0.023932
# 2 -0.005142 0.010238 -0.004260 -0.001164 -0.002721 -0.001127
# 3 -0.004895 -0.004260 0.011922 0.000487 0.003631 -0.002600
# 4 -0.013224 -0.001164 0.000487 0.021097 -0.005576 0.002703
# 5 -0.000540 -0.002721 0.003631 -0.005576 0.042958 0.008980
# 6 -0.023932 -0.001127 -0.002600 0.002703 0.008980 0.046606
#
#
# Mechanical properties :
#
#
# Convention : Reuss Voigt Hill
#
# Bulk Modulus (GPa) = 15.35188 55.59192 35.47190
# Shear Modulus (GPa) = 19.63076 35.21033 27.42055
#
# Velocity S-wave (km/s) = 3.06518 4.10509 3.62264
# Velocity P-wave (km/s) = 4.45809 7.00539 5.87154
#
# Compressibility (1/GPa) = 0.06513860
#
# Stress axis : x y z
#
# Youngs Moduli (GPa) = 13.97165 97.67160 83.87826
#
# Poissons Ratio (x) = 0.50227 0.41062
# Poissons Ratio (y) = 0.07185 0.35731
# Poissons Ratio (z) = 0.06840 0.41606
#
# Static dielectric constant tensor:
#      x y z
#    x 1.809510 0.056310 0.045590 
#    y 0.056310 1.670790 -0.037680 
#    z 0.045590 -0.037680 1.693880 
# 
# From -- ./inp_files/97944.got.cif
#   From: 2010.05.17/outbox.cif.g08.bks.cpg/sg2_49_cif.got.tgz:97944.got - 2010.06.03 11:33:40.
