data_PCOD9107541
_publ_section_title
;
Structure prediction by ZEFSAII (Michael W. Deem and Ramdas Pophale) SiO2 
 PCOD9107541
Probable space group: P -1
;
_chemical_formula_sum "Si O2"
_cell_formula_units_Z 15
_cell_length_a 11.680536
_cell_length_b 8.596360
_cell_length_c 8.551446
_cell_angle_alpha 59.034768
_cell_angle_beta 102.047348
_cell_angle_gamma 126.532209
_cell_volume 585.653682
_symmetry_space_group_name_H-M "P -1"
_symmetry_group_IT_number 2
_symmetry_cell_setting 'triclinic'
loop_
_space_group_symop_operation_xyz
x,y,z
-x,-y,-z
loop_
_atom_site_type_symbol
_atom_site_label
_atom_site_fract_x
_atom_site_fract_y
_atom_site_fract_z
Si Si1 0.125594 0.565727 0.378051
Si Si2 0.234908 0.336781 0.964619
Si Si3 0.730895 0.001639 0.316162
Si Si4 0.769031 0.997267 0.684836
Si Si5 0.478798 0.764912 0.146513
Si Si6 0.830371 0.445942 0.928475
Si Si7 0.100438 0.165029 0.694927
Si Si8 0.500000 0.500000 0.000000
O O1 0.229932 0.832462 0.285702
O O2 0.067460 0.498385 0.218953
O O3 0.176336 0.419230 0.531882
O O4 0.000000 0.500000 0.500000
O O5 0.137000 0.376722 0.021814
O O6 0.316032 0.254810 0.141902
O O7 0.149720 0.177139 0.880516
O O8 0.386608 0.560638 0.851932
O O9 0.726580 0.022003 0.489586
O O10 0.575196 0.810465 0.301546
O O11 0.845252 0.946183 0.340276
O O12 0.784556 0.223506 0.118757
O O13 0.930639 0.056989 0.694873
O O14 0.306276 0.596441 0.182757
O O15 0.525274 0.665318 0.079195
O O16 0.500000 0.000000 0.000000
#
# Coordination Sequence:
#
# PCOD9107541 Si02
#       8
#     2   2   2   2   2   2   2   1
#     4  10  23  43  62  93 132 170 223 273 322 394
#     4  11  22  41  66  95 129 172 222 265 338 387
#     4  11  21  41  65  97 133 169 218 271 328 393
#     4  11  24  40  62  95 131 172 222 269 324 395
#     4   9  20  38  66  96 133 168 225 265 332 395
#     4  10  22  41  67  93 130 174 216 273 332 394
#     4  11  22  41  64  92 132 172 219 270 325 395
#     4  10  20  40  64  98 128 174 214 280 318 406
#
# _framework density 25.612407000000001
#
# number of rings (size 3 to 8) (size 9 to 14) (size 15 to 20)
#    0.000    1.600    1.333    3.200    1.867    2.133 
#    2.400    8.667    0.000    0.000    0.000    0.000 
#    0.000    0.000    0.000    0.000    0.000    0.000 
#
# Total GULP energy -83708.466042 kJ/mol
# GULP energy per Si atom -5580.564403 kJ/mol
# Density = 2.555411 g / cm^3
# Si number density = 25.612407 Si / 1000 Ang^3
#
#
#
# Elastic Constant Matrix: (Units=GPa)
#
#
# Indices 1 2 3 4 5 6 
#
# 1 91.8165 22.7885 31.4820 10.8901 4.2895 -1.4589
# 2 22.7885 112.7792 33.9692 11.6226 0.2922 -20.9897
# 3 31.4820 33.9692 108.5723 5.8439 -0.4667 -11.6885
# 4 10.8901 11.6226 5.8439 54.5927 -3.2297 15.1440
# 5 4.2895 0.2922 -0.4667 -3.2297 31.9535 8.5572
# 6 -1.4589 -20.9897 -11.6885 15.1440 8.5572 59.0052
#
#
#
# Elastic Compliance Matrix: (Units=1/GPa)
#
#
# Indices 1 2 3 4 5 6 
#
# 1 0.012639 -0.001403 -0.003128 -0.001998 -0.001928 -0.000014
# 2 -0.001403 0.011023 -0.002404 -0.003121 -0.001447 0.004421
# 3 -0.003128 -0.002404 0.011035 -0.000401 0.000207 0.001326
# 4 -0.001998 -0.003121 -0.000401 0.021763 0.004493 -0.007476
# 5 -0.001928 -0.001447 0.000207 0.004493 0.033785 -0.006574
# 6 -0.000014 0.004421 0.001326 -0.007476 -0.006574 0.021655
#
#
# Mechanical properties :
#
#
# Convention : Reuss Voigt Hill
#
# Bulk Modulus (GPa) = 48.01762 54.40523 51.21143
# Shear Modulus (GPa) = 37.67532 44.10552 40.89042
#
# Velocity S-wave (km/s) = 3.83950 4.15425 3.99997
# Velocity P-wave (km/s) = 6.20033 6.65569 6.43204
#
# Compressibility (1/GPa) = 0.02082569
#
# Stress axis : x y z
#
# Youngs Moduli (GPa) = 79.12065 90.72074 90.62181
#
# Poissons Ratio (x) = 0.12732 0.28347
# Poissons Ratio (y) = 0.11104 0.21786
# Poissons Ratio (z) = 0.24749 0.21809
#
# Static dielectric constant tensor:
#      x y z
#    x 2.264020 0.095320 -0.114500 
#    y 0.095320 2.112020 -0.099300 
#    z -0.114500 -0.099300 2.100410 
# 
# From -- ./inp_files/178421.got.cif
#   From: 2010.05.17/outbox.cif.g08.bks.cpg/sg2_90_cif.got.tgz:178421.got - 2010.06.03 11:33:40.
