data_PCOD9107252
_publ_section_title
;
Structure prediction by ZEFSAII (Michael W. Deem and Ramdas Pophale) SiO2 
 PCOD9107252
Probable space group: P -1
;
_chemical_formula_sum "Si O2"
_cell_formula_units_Z 16
_cell_length_a 11.423673
_cell_length_b 7.873622
_cell_length_c 11.575706
_cell_angle_alpha 112.386045
_cell_angle_beta 127.049756
_cell_angle_gamma 94.895496
_cell_volume 694.942273
_symmetry_space_group_name_H-M "P -1"
_symmetry_group_IT_number 2
_symmetry_cell_setting 'triclinic'
loop_
_space_group_symop_operation_xyz
x,y,z
-x,-y,-z
loop_
_atom_site_type_symbol
_atom_site_label
_atom_site_fract_x
_atom_site_fract_y
_atom_site_fract_z
Si Si1 0.374671 0.110191 0.869452
Si Si2 0.141618 0.065536 0.379411
Si Si3 0.819305 0.951347 0.848374
Si Si4 0.846838 0.684921 0.174377
Si Si5 0.185060 0.623786 0.108974
Si Si6 0.458760 0.117663 0.183149
Si Si7 0.971240 0.283810 0.476446
Si Si8 0.370104 0.850083 0.476472
O O1 0.212883 0.888617 0.704273
O O2 0.292711 0.263054 0.839940
O O3 0.510225 0.087070 0.864345
O O4 0.459292 0.169259 0.061566
O O5 0.095742 0.208636 0.470284
O O6 0.211674 0.162039 0.322093
O O7 0.261073 0.971195 0.471904
O O8 0.966547 0.871324 0.213301
O O9 0.796382 0.155360 0.860546
O O10 0.702171 0.867585 0.864343
O O11 0.000000 0.000000 0.000000
O O12 0.969096 0.682911 0.346833
O O13 0.775587 0.489643 0.001143
O O14 0.279300 0.653348 0.292417
O O15 0.000000 0.500000 0.000000
O O16 0.573139 0.211118 0.386694
O O17 0.000000 0.500000 0.500000
O O18 0.500000 0.000000 0.500000
#
# Coordination Sequence:
#
# PCOD9107252 Si02
#       8
#     2   2   2   2   2   2   2   2
#     4  10  24  43  67  92 133 181 219 260 346 391
#     4  10  20  40  63  95 124 172 219 259 339 381
#     4  11  22  38  69  92 126 169 222 269 325 387
#     4  11  21  42  66  94 133 173 216 276 323 396
#     4  11  23  39  66 103 126 166 223 271 328 387
#     4  11  22  42  68  91 129 181 221 269 326 405
#     4  11  24  39  68  98 128 168 226 276 318 394
#     4  11  20  39  63  97 132 170 211 268 332 388
#
# _framework density 23.023496000000002
#
# number of rings (size 3 to 8) (size 9 to 14) (size 15 to 20)
#    0.000    1.250    5.000    4.500    3.500    0.000 
#    0.000    3.750    0.000    0.000    0.000    0.000 
#    0.000    0.000    0.000    0.000    0.000    0.000 
#
# Total GULP energy -89168.933108 kJ/mol
# GULP energy per Si atom -5573.058319 kJ/mol
# Density = 2.297109 g / cm^3
# Si number density = 23.023496 Si / 1000 Ang^3
#
#
#
# Elastic Constant Matrix: (Units=GPa)
#
#
# Indices 1 2 3 4 5 6 
#
# 1 109.3815 11.5255 30.4366 0.4975 -11.8303 -27.3138
# 2 11.5255 50.2309 40.4620 -6.0742 -6.5710 -18.5896
# 3 30.4366 40.4620 174.7465 -22.5629 -22.6793 -8.2626
# 4 0.4975 -6.0742 -22.5629 37.0687 -9.3632 1.7983
# 5 -11.8303 -6.5710 -22.6793 -9.3632 38.3252 -7.1258
# 6 -27.3138 -18.5896 -8.2626 1.7983 -7.1258 34.3508
#
#
#
# Elastic Compliance Matrix: (Units=1/GPa)
#
#
# Indices 1 2 3 4 5 6 
#
# 1 0.013350 0.004433 -0.001794 0.000424 0.006509 0.013911
# 2 0.004433 0.033099 -0.006007 0.002724 0.008160 0.021542
# 3 -0.001794 -0.006007 0.008633 0.005529 0.004512 -0.001954
# 4 0.000424 0.002724 0.005529 0.033843 0.012890 0.004044
# 5 0.006509 0.008160 0.004512 0.012890 0.038672 0.018024
# 6 0.013911 0.021542 -0.001954 0.004044 0.018024 0.054888
#
#
# Mechanical properties :
#
#
# Convention : Reuss Voigt Hill
#
# Bulk Modulus (GPa) = 20.68409 55.46747 38.07578
# Shear Modulus (GPa) = 24.35036 38.74458 31.54747
#
# Velocity S-wave (km/s) = 3.25565 4.10668 3.70568
# Velocity P-wave (km/s) = 4.80997 6.82865 5.90619
#
# Compressibility (1/GPa) = 0.04834633
#
# Stress axis : x y z
#
# Youngs Moduli (GPa) = 74.90417 30.21275 115.83294
#
# Poissons Ratio (x) = -0.13394 0.20786
# Poissons Ratio (y) = -0.33208 0.69578
# Poissons Ratio (z) = 0.13441 0.18148
#
# Static dielectric constant tensor:
#      x y z
#    x 1.836270 -0.052500 0.015850 
#    y -0.052500 1.780660 -0.019500 
#    z 0.015850 -0.019500 1.910050 
# 
# From -- ./inp_files/418299.got.cif
#   From: 2010.05.17/outbox.cif.g08.bks.cpg/sg2_210_cif.got.tgz:418299.got - 2010.06.03 11:33:40.
