data_PCOD9107370
_publ_section_title
;
Structure prediction by ZEFSAII (Michael W. Deem and Ramdas Pophale) SiO2 
 PCOD9107370
Probable space group: P -1
;
_chemical_formula_sum "Si O2"
_cell_formula_units_Z 14
_cell_length_a 11.332502
_cell_length_b 19.267124
_cell_length_c 8.714784
_cell_angle_alpha 39.250677
_cell_angle_beta 44.239543
_cell_angle_gamma 32.177624
_cell_volume 630.566243
_symmetry_space_group_name_H-M "P -1"
_symmetry_group_IT_number 2
_symmetry_cell_setting 'triclinic'
loop_
_space_group_symop_operation_xyz
x,y,z
-x,-y,-z
loop_
_atom_site_type_symbol
_atom_site_label
_atom_site_fract_x
_atom_site_fract_y
_atom_site_fract_z
Si Si1 0.269121 0.702248 0.362382
Si Si2 0.446845 0.799700 0.241449
Si Si3 0.274031 0.478746 0.895906
Si Si4 0.800757 0.944821 0.440293
Si Si5 0.935264 0.629030 0.231513
Si Si6 0.759267 0.928512 0.865856
Si Si7 0.600598 0.808365 0.766491
O O1 0.389573 0.702981 0.400210
O O2 0.208835 0.602651 0.626536
O O3 0.451981 0.629809 0.181243
O O4 0.043140 0.869603 0.274953
O O5 0.692360 0.701748 0.258531
O O6 0.254357 0.943455 0.271721
O O7 0.466962 0.860371 0.961932
O O8 0.241234 0.365306 0.079586
O O9 0.132973 0.556274 0.047112
O O10 0.824255 0.907101 0.662847
O O11 0.730422 0.865836 0.548085
O O12 0.586379 0.114685 0.324243
O O13 0.000000 0.500000 0.500000
O O14 0.897582 0.769925 0.087456
O O15 0.500000 0.000000 0.000000
#
# Coordination Sequence:
#
# PCOD9107370 Si02
#       7
#     2   2   2   2   2   2   2
#     4  10  22  41  63  90 130 164 196 260 317 367
#     4  10  22  41  63  90 125 165 209 250 310 364
#     4  10  22  39  61  90 129 159 203 254 310 363
#     4  11  21  39  65  96 121 159 212 256 308 360
#     4  11  23  40  65  89 122 167 210 252 301 367
#     4  10  20  40  64  88 123 164 207 259 297 368
#     4  10  22  37  67  94 118 160 217 255 299 364
#
# _framework density 22.202266000000002
#
# number of rings (size 3 to 8) (size 9 to 14) (size 15 to 20)
#    0.000    1.714    4.286    0.000    4.000    9.143 
#    0.000    2.143    3.143    0.000    0.000    0.000 
#    0.000    0.000    0.000    0.000    0.000    0.000 
#
# Total GULP energy -78023.713961 kJ/mol
# GULP energy per Si atom -5573.122426 kJ/mol
# Density = 2.215173 g / cm^3
# Si number density = 22.202266 Si / 1000 Ang^3
#
#
#
# Elastic Constant Matrix: (Units=GPa)
#
#
# Indices 1 2 3 4 5 6 
#
# 1 38.7772 26.3349 11.9894 -12.1323 -10.0495 -1.6805
# 2 26.3349 149.2968 43.1914 0.5292 -6.6162 9.3645
# 3 11.9894 43.1914 104.8732 -24.9573 -0.7555 -1.4216
# 4 -12.1323 0.5292 -24.9573 34.3740 3.2888 -7.8804
# 5 -10.0495 -6.6162 -0.7555 3.2888 21.7366 -5.7344
# 6 -1.6805 9.3645 -1.4216 -7.8804 -5.7344 29.4485
#
#
#
# Elastic Compliance Matrix: (Units=1/GPa)
#
#
# Indices 1 2 3 4 5 6 
#
# 1 0.041457 -0.008486 0.003539 0.018794 0.017468 0.013666
# 2 -0.008486 0.010085 -0.005258 -0.008307 -0.001483 -0.006457
# 3 0.003539 -0.005258 0.014543 0.013287 0.000157 0.006162
# 4 0.018794 -0.008307 0.013287 0.049320 0.003996 0.018332
# 5 0.017468 -0.001483 0.000157 0.003996 0.056610 0.013569
# 6 0.013666 -0.006457 0.006162 0.018332 0.013569 0.044636
#
#
# Mechanical properties :
#
#
# Convention : Reuss Voigt Hill
#
# Bulk Modulus (GPa) = 21.89421 50.66429 36.27925
# Shear Modulus (GPa) = 19.81874 31.20726 25.51300
#
# Velocity S-wave (km/s) = 2.99096 3.75319 3.39354
# Velocity P-wave (km/s) = 4.67016 6.45375 5.63299
#
# Compressibility (1/GPa) = 0.04567417
#
# Stress axis : x y z
#
# Youngs Moduli (GPa) = 24.12139 99.15830 68.76243
#
# Poissons Ratio (x) = 0.84149 -0.24337
# Poissons Ratio (y) = 0.20470 0.36157
# Poissons Ratio (z) = -0.08537 0.52139
#
# Static dielectric constant tensor:
#      x y z
#    x 1.890910 0.009670 -0.032340 
#    y 0.009670 1.859600 -0.041600 
#    z -0.032340 -0.041600 1.823230 
# 
# From -- ./inp_files/203736.got.cif
#   From: 2010.05.17/outbox.cif.g08.bks.cpg/sg2_102_cif.got.tgz:203736.got - 2010.06.03 11:33:40.
