data_PCOD9107534
_publ_section_title
;
Structure prediction by ZEFSAII (Michael W. Deem and Ramdas Pophale) SiO2 
 PCOD9107534
Probable space group: P -1
;
_chemical_formula_sum "Si O2"
_cell_formula_units_Z 12
_cell_length_a 6.723927
_cell_length_b 5.028206
_cell_length_c 15.480704
_cell_angle_alpha 68.522685
_cell_angle_beta 68.549103
_cell_angle_gamma 68.056363
_cell_volume 435.590308
_symmetry_space_group_name_H-M "P -1"
_symmetry_group_IT_number 2
_symmetry_cell_setting 'triclinic'
loop_
_space_group_symop_operation_xyz
x,y,z
-x,-y,-z
loop_
_atom_site_type_symbol
_atom_site_label
_atom_site_fract_x
_atom_site_fract_y
_atom_site_fract_z
Si Si1 0.807576 0.430859 0.597353
Si Si2 0.463218 0.931010 0.415525
Si Si3 0.094319 0.638775 0.085548
Si Si4 0.703158 0.035929 0.806473
Si Si5 0.742168 0.986055 0.224281
Si Si6 0.335988 0.428541 0.910893
O O1 0.689193 0.741758 0.626727
O O2 0.830824 0.186670 0.699044
O O3 0.000000 0.500000 0.500000
O O4 0.658156 0.312442 0.564780
O O5 0.697119 0.859324 0.337839
O O6 0.500000 0.000000 0.500000
O O7 0.868423 0.712612 0.051717
O O8 0.978871 0.842153 0.160263
O O9 0.173343 0.301805 0.150118
O O10 0.278720 0.621382 0.984160
O O11 0.586037 0.222488 0.887919
O O12 0.469049 0.048115 0.793292
O O13 0.701355 0.338373 0.189705
#
# Coordination Sequence:
#
# PCOD9107534 Si02
#       6
#     2   2   2   2   2   2
#     4  11  24  47  71 104 145 186 246 304 360 440
#     4  11  24  47  73 102 143 192 240 303 371 428
#     4  10  22  38  66 101 131 185 233 286 359 434
#     4  10  22  41  65  96 142 181 232 294 362 423
#     4  10  22  41  65  94 143 177 234 298 353 430
#     4  10  20  40  64  97 140 177 233 294 347 433
#
# _framework density 27.548822999999999
#
# number of rings (size 3 to 8) (size 9 to 14) (size 15 to 20)
#    0.000    1.667    1.667    2.000    0.000    3.333 
#    9.000    0.000    0.000    0.000    0.000    0.000 
#    0.000    0.000    0.000    0.000    0.000    0.000 
#
# Total GULP energy -67098.760806 kJ/mol
# GULP energy per Si atom -5591.563401 kJ/mol
# Density = 2.748612 g / cm^3
# Si number density = 27.548823 Si / 1000 Ang^3
#
#
#
# Elastic Constant Matrix: (Units=GPa)
#
#
# Indices 1 2 3 4 5 6 
#
# 1 106.8669 18.6411 42.0018 14.9339 -37.1068 -20.3197
# 2 18.6411 158.5859 16.7798 4.6905 -17.3684 -20.9493
# 3 42.0018 16.7798 161.3425 9.8867 -20.0842 -15.4037
# 4 14.9339 4.6905 9.8867 53.5123 -4.1703 -0.4619
# 5 -37.1068 -17.3684 -20.0842 -4.1703 59.8136 14.1489
# 6 -20.3197 -20.9493 -15.4037 -0.4619 14.1489 51.3078
#
#
#
# Elastic Compliance Matrix: (Units=1/GPa)
#
#
# Indices 1 2 3 4 5 6 
#
# 1 0.013515 -0.000171 -0.002229 -0.002796 0.006746 0.002728
# 2 -0.000171 0.006801 -0.000270 -0.000385 0.001209 0.002291
# 3 -0.002229 -0.000270 0.007010 -0.000592 0.000631 0.000932
# 4 -0.002796 -0.000385 -0.000592 0.019569 -0.000408 -0.001153
# 5 0.006746 0.001209 0.000631 -0.000408 0.022086 -0.002739
# 6 0.002728 0.002291 0.000932 -0.001153 -0.002739 0.022531
#
#
# Mechanical properties :
#
#
# Convention : Reuss Voigt Hill
#
# Bulk Modulus (GPa) = 45.48280 64.62675 55.05477
# Shear Modulus (GPa) = 47.99345 56.21827 52.10586
#
# Velocity S-wave (km/s) = 4.17840 4.52229 4.35374
# Velocity P-wave (km/s) = 6.31066 7.12587 6.73062
#
# Compressibility (1/GPa) = 0.02198634
#
# Stress axis : x y z
#
# Youngs Moduli (GPa) = 73.99129 147.04005 142.64974
#
# Poissons Ratio (x) = 0.02513 0.31797
# Poissons Ratio (y) = 0.01264 0.03851
# Poissons Ratio (z) = 0.16493 0.03970
#
# Static dielectric constant tensor:
#      x y z
#    x 2.325730 0.069540 0.132940 
#    y 0.069540 2.176560 -0.004820 
#    z 0.132940 -0.004820 2.253860 
# 
# From -- ./inp_files/487485.got.cif
#   From: 2010.05.17/outbox.cif.g08.bks.cpg/sg2_244_cif.got.tgz:487485.got - 2010.06.03 11:33:40.
