data_PCOD9107157
_publ_section_title
;
Structure prediction by ZEFSAII (Michael W. Deem and Ramdas Pophale) SiO2 
 PCOD9107157
Probable space group: P -1
;
_chemical_formula_sum "Si O2"
_cell_formula_units_Z 12
_cell_length_a 9.244438
_cell_length_b 9.925344
_cell_length_c 11.742337
_cell_angle_alpha 72.684977
_cell_angle_beta 121.070417
_cell_angle_gamma 140.353039
_cell_volume 578.928189
_symmetry_space_group_name_H-M "P -1"
_symmetry_group_IT_number 2
_symmetry_cell_setting 'triclinic'
loop_
_space_group_symop_operation_xyz
x,y,z
-x,-y,-z
loop_
_atom_site_type_symbol
_atom_site_label
_atom_site_fract_x
_atom_site_fract_y
_atom_site_fract_z
Si Si1 0.834203 0.448252 0.550935
Si Si2 0.448189 0.446510 0.337364
Si Si3 0.475523 0.778305 0.321579
Si Si4 0.073998 0.589113 0.853438
Si Si5 0.482350 0.604495 0.065518
Si Si6 0.868030 0.060780 0.214161
O O1 0.683998 0.490491 0.435688
O O2 0.608064 0.219545 0.587529
O O3 0.000000 0.500000 0.500000
O O4 0.031359 0.589891 0.700500
O O5 0.491688 0.618792 0.380497
O O6 0.428314 0.485082 0.189043
O O7 0.166585 0.212138 0.313231
O O8 0.717073 0.970699 0.296048
O O9 0.218063 0.638244 0.175158
O O10 0.145376 0.788379 0.879263
O O11 0.265618 0.583419 0.953959
O O12 0.731935 0.857917 0.131606
O O13 0.500000 0.500000 0.000000
#
# Coordination Sequence:
#
# PCOD9107157 Si02
#       6
#     2   2   2   2   2   2
#     4  10  20  40  63  89 125 164 196 254 312 354
#     4  10  21  39  64  88 124 161 206 248 302 369
#     4   8  20  37  63  89 118 161 203 250 297 358
#     4   9  21  39  63  88 122 161 206 246 298 364
#     4  11  23  40  62  90 127 161 198 258 312 355
#     4  10  21  39  64  95 116 162 212 249 296 370
#
# _framework density 20.727959999999999
#
# number of rings (size 3 to 8) (size 9 to 14) (size 15 to 20)
#    1.000    1.333    0.000    2.000    0.000    8.667 
#    3.000    2.500    0.000    0.000    0.000    0.000 
#    0.000    0.000    0.000    0.000    0.000    0.000 
#
# Total GULP energy -66801.221633 kJ/mol
# GULP energy per Si atom -5566.768469 kJ/mol
# Density = 2.068078 g / cm^3
# Si number density = 20.727960 Si / 1000 Ang^3
#
#
#
# Elastic Constant Matrix: (Units=GPa)
#
#
# Indices 1 2 3 4 5 6 
#
# 1 161.5720 46.8380 73.0987 -0.5327 -5.6109 9.0789
# 2 46.8380 71.7237 50.9717 4.1815 -7.7943 11.5004
# 3 73.0987 50.9717 127.7788 5.0250 20.9222 5.6956
# 4 -0.5327 4.1815 5.0250 16.0052 1.9893 -1.4848
# 5 -5.6109 -7.7943 20.9222 1.9893 44.2330 0.4022
# 6 9.0789 11.5004 5.6956 -1.4848 0.4022 21.7850
#
#
#
# Elastic Compliance Matrix: (Units=1/GPa)
#
#
# Indices 1 2 3 4 5 6 
#
# 1 0.009227 -0.002029 -0.004988 0.001888 0.003100 -0.001398
# 2 -0.002029 0.025131 -0.009663 -0.005699 0.009093 -0.010451
# 3 -0.004988 -0.009663 0.016065 -0.001168 -0.009910 0.003083
# 4 0.001888 -0.005699 -0.001168 0.065452 -0.003220 0.007047
# 5 0.003100 0.009093 -0.009910 -0.003220 0.029474 -0.004265
# 6 -0.001398 -0.010451 0.003083 0.007047 -0.004265 0.051756
#
#
# Mechanical properties :
#
#
# Convention : Reuss Voigt Hill
#
# Bulk Modulus (GPa) = 58.60988 78.09905 68.35446
# Shear Modulus (GPa) = 21.17268 29.08238 25.12753
#
# Velocity S-wave (km/s) = 3.19949 3.74980 3.48552
# Velocity P-wave (km/s) = 6.47967 7.51717 7.01762
#
# Compressibility (1/GPa) = 0.01706197
#
# Stress axis : x y z
#
# Youngs Moduli (GPa) = 108.37985 39.79203 62.24536
#
# Poissons Ratio (x) = 0.08075 0.31051
# Poissons Ratio (y) = 0.21993 0.60146
# Poissons Ratio (z) = 0.54065 0.38450
#
# Static dielectric constant tensor:
#      x y z
#    x 1.798010 0.022800 -0.036580 
#    y 0.022800 1.777320 -0.005920 
#    z -0.036580 -0.005920 1.803580 
# 
# From -- ./inp_files/60299.got.cif
#   From: 2010.05.17/outbox.cif.g08.bks.cpg/sg2_31_cif.got.tgz:60299.got - 2010.06.03 11:33:40.
