data_PCOD9107168
_publ_section_title
;
Structure prediction by ZEFSAII (Michael W. Deem and Ramdas Pophale) SiO2 
 PCOD9107168
Probable space group: P -1
;
_chemical_formula_sum "Si O2"
_cell_formula_units_Z 16
_cell_length_a 11.677457
_cell_length_b 11.122763
_cell_length_c 13.314158
_cell_angle_alpha 139.196787
_cell_angle_beta 43.393771
_cell_angle_gamma 118.841851
_cell_volume 767.485450
_symmetry_space_group_name_H-M "P -1"
_symmetry_group_IT_number 2
_symmetry_cell_setting 'triclinic'
loop_
_space_group_symop_operation_xyz
x,y,z
-x,-y,-z
loop_
_atom_site_type_symbol
_atom_site_label
_atom_site_fract_x
_atom_site_fract_y
_atom_site_fract_z
Si Si1 0.308923 0.655039 0.255754
Si Si2 0.674676 0.392993 0.279593
Si Si3 0.665933 0.163075 0.944869
Si Si4 0.490921 0.054651 0.803782
Si Si5 0.136551 0.948486 0.964638
Si Si6 0.373292 0.450686 0.897185
Si Si7 0.740345 0.737676 0.339880
Si Si8 0.005490 0.975366 0.675147
O O1 0.424485 0.790992 0.212845
O O2 0.423568 0.587127 0.236652
O O3 0.130140 0.782195 0.463429
O O4 0.297751 0.485768 0.079331
O O5 0.500000 0.500000 0.500000
O O6 0.786579 0.270407 0.213168
O O7 0.772351 0.542151 0.255151
O O8 0.633251 0.242947 0.128006
O O9 0.526940 0.084257 0.917260
O O10 0.834243 0.011507 0.742650
O O11 0.688230 0.352093 0.991764
O O12 0.295239 0.054726 0.912438
O O13 0.591001 0.863225 0.575126
O O14 0.051292 0.002449 0.159848
O O15 0.000000 0.000000 0.000000
O O16 0.318465 0.301095 0.760948
O O17 0.892118 0.856730 0.312789
#
# Coordination Sequence:
#
# PCOD9107168 Si02
#       8
#     2   2   2   2   2   2   2   2
#     4   9  20  37  61  88 118 163 197 239 305 351
#     4  10  20  40  63  90 118 164 199 243 296 357
#     4   9  21  39  62  84 122 155 205 246 290 357
#     4  10  21  39  62  88 117 164 200 236 302 367
#     4  11  25  39  60  92 127 152 197 252 301 354
#     4   9  19  35  60  87 121 157 198 246 287 366
#     4  10  21  37  66  91 115 158 208 241 301 349
#     4  10  23  39  61  92 119 156 199 255 294 345
#
# _framework density 20.847300000000001
#
# number of rings (size 3 to 8) (size 9 to 14) (size 15 to 20)
#    0.000    2.250    1.250    0.000    3.500   12.000 
#    0.000    0.000    0.000    7.500    0.000    0.000 
#    0.000    0.000    0.000    0.000    0.000    0.000 
#
# Total GULP energy -89240.758481 kJ/mol
# GULP energy per Si atom -5577.547405 kJ/mol
# Density = 2.079985 g / cm^3
# Si number density = 20.847300 Si / 1000 Ang^3
#
#
#
# Elastic Constant Matrix: (Units=GPa)
#
#
# Indices 1 2 3 4 5 6 
#
# 1 123.3104 3.2811 40.9605 3.3703 -22.0257 -4.1822
# 2 3.2811 40.5361 15.7179 -9.2360 -0.5420 -4.7107
# 3 40.9605 15.7179 126.5810 10.5783 -19.6902 -0.9543
# 4 3.3703 -9.2360 10.5783 27.6680 1.8493 -8.9387
# 5 -22.0257 -0.5420 -19.6902 1.8493 33.5842 10.6079
# 6 -4.1822 -4.7107 -0.9543 -8.9387 10.6079 28.7378
#
#
#
# Elastic Compliance Matrix: (Units=1/GPa)
#
#
# Indices 1 2 3 4 5 6 
#
# 1 0.009836 -0.000271 -0.002191 -0.001183 0.005578 -0.001113
# 2 -0.000271 0.033373 -0.007022 0.019228 -0.009447 0.014666
# 3 -0.002191 -0.007022 0.011408 -0.009163 0.007797 -0.006819
# 4 -0.001183 0.019228 -0.009163 0.055904 -0.017267 0.026438
# 5 0.005578 -0.009447 0.007797 -0.017267 0.046017 -0.022835
# 6 -0.001113 0.014666 -0.006819 0.026438 -0.022835 0.053465
#
#
# Mechanical properties :
#
#
# Convention : Reuss Voigt Hill
#
# Bulk Modulus (GPa) = 28.05141 45.59404 36.82272
# Shear Modulus (GPa) = 20.75952 33.36255 27.06104
#
# Velocity S-wave (km/s) = 3.15904 4.00475 3.60677
# Velocity P-wave (km/s) = 5.17599 6.58043 5.92000
#
# Compressibility (1/GPa) = 0.03564884
#
# Stress axis : x y z
#
# Youngs Moduli (GPa) = 101.67185 29.96423 87.65671
#
# Poissons Ratio (x) = 0.00812 0.19204
# Poissons Ratio (y) = 0.02756 0.61554
# Poissons Ratio (z) = 0.22274 0.21041
#
# Static dielectric constant tensor:
#      x y z
#    x 1.779060 -0.030810 0.000730 
#    y -0.030810 1.804110 0.015220 
#    z 0.000730 0.015220 1.758360 
# 
# From -- ./inp_files/261597.got.cif
#   From: 2010.05.17/outbox.cif.g08.bks.cpg/sg2_131_cif.got.tgz:261597.got - 2010.06.03 11:33:40.
