data_PCOD9107077
_publ_section_title
;
Structure prediction by ZEFSAII (Michael W. Deem and Ramdas Pophale) SiO2 
 PCOD9107077
Probable space group: P -1
;
_chemical_formula_sum "Si O2"
_cell_formula_units_Z 12
_cell_length_a 12.688963
_cell_length_b 7.963943
_cell_length_c 8.300038
_cell_angle_alpha 55.287947
_cell_angle_beta 136.190867
_cell_angle_gamma 117.114069
_cell_volume 475.812611
_symmetry_space_group_name_H-M "P -1"
_symmetry_group_IT_number 2
_symmetry_cell_setting 'triclinic'
loop_
_space_group_symop_operation_xyz
x,y,z
-x,-y,-z
loop_
_atom_site_type_symbol
_atom_site_label
_atom_site_fract_x
_atom_site_fract_y
_atom_site_fract_z
Si Si1 0.471352 0.720430 0.418652
Si Si2 0.853236 0.471786 0.236147
Si Si3 0.754711 0.338887 0.515352
Si Si4 0.059796 0.271756 0.360245
Si Si5 0.774303 0.890855 0.798067
Si Si6 0.202386 0.955764 0.907002
O O1 0.500000 0.500000 0.500000
O O2 0.397375 0.704344 0.524568
O O3 0.628905 0.855548 0.540068
O O4 0.344301 0.819151 0.117764
O O5 0.726519 0.422865 0.259114
O O6 0.000000 0.500000 0.500000
O O7 0.904777 0.287758 0.285962
O O8 0.836221 0.664857 0.997213
O O9 0.852411 0.505942 0.645734
O O10 0.836076 0.125576 0.697678
O O11 0.966435 0.161457 0.171491
O O12 0.169651 0.120424 0.645657
O O13 0.747883 0.917947 0.945513
#
# Coordination Sequence:
#
# PCOD9107077 Si02
#       6
#     2   2   2   2   2   2
#     4  11  25  45  61  91 130 168 217 265 302 375
#     4  10  20  40  62  98 126 158 208 259 312 376
#     4  10  22  41  67  95 123 175 203 255 328 362
#     4  10  21  40  66  98 131 158 208 265 312 380
#     4  11  22  42  65  91 132 165 211 261 306 376
#     4  10  20  41  65  90 134 162 203 269 310 361
#
# _framework density 25.220013999999999
#
# number of rings (size 3 to 8) (size 9 to 14) (size 15 to 20)
#    0.000    1.667    3.333    3.000    0.000    6.000 
#    9.000    0.833    0.000    0.000    0.000    0.000 
#    0.000    0.000    0.000    0.000    0.000    0.000 
#
# Total GULP energy -66858.144649 kJ/mol
# GULP energy per Si atom -5571.512054 kJ/mol
# Density = 2.516261 g / cm^3
# Si number density = 25.220014 Si / 1000 Ang^3
#
#
#
# Elastic Constant Matrix: (Units=GPa)
#
#
# Indices 1 2 3 4 5 6 
#
# 1 37.4717 -7.8778 7.2478 -23.4307 -7.8443 -7.9415
# 2 -7.8778 141.9070 60.0732 -23.5316 10.2678 3.7661
# 3 7.2478 60.0732 172.0347 -17.5341 23.6416 7.3945
# 4 -23.4307 -23.5316 -17.5341 60.4045 -2.9014 9.3401
# 5 -7.8443 10.2678 23.6416 -2.9014 23.4973 -11.2212
# 6 -7.9415 3.7661 7.3945 9.3401 -11.2212 35.0365
#
#
#
# Elastic Compliance Matrix: (Units=1/GPa)
#
#
# Indices 1 2 3 4 5 6 
#
# 1 0.053040 0.006624 -0.008082 0.019551 0.034336 0.018801
# 2 0.006624 0.009561 -0.003428 0.005330 0.002401 0.000545
# 3 -0.008082 -0.003428 0.009603 -0.001169 -0.014786 -0.007914
# 4 0.019551 0.005330 -0.001169 0.026313 0.008540 -0.000174
# 5 0.034336 0.002401 -0.014786 0.008540 0.086062 0.035932
# 6 0.018801 0.000545 -0.007914 -0.000174 0.035932 0.045969
#
#
# Mechanical properties :
#
#
# Convention : Reuss Voigt Hill
#
# Bulk Modulus (GPa) = 16.01689 52.25553 34.13621
# Shear Modulus (GPa) = 19.14748 43.25233 31.19991
#
# Velocity S-wave (km/s) = 2.75838 4.14575 3.52107
# Velocity P-wave (km/s) = 4.06319 6.60917 5.48592
#
# Compressibility (1/GPa) = 0.06243409
#
# Stress axis : x y z
#
# Youngs Moduli (GPa) = 18.85367 104.58629 104.13201
#
# Poissons Ratio (x) = -0.69282 0.84157
# Poissons Ratio (y) = -0.12489 0.35696
# Poissons Ratio (z) = 0.15237 0.35852
#
# Static dielectric constant tensor:
#      x y z
#    x 2.238910 -0.122490 -0.101620 
#    y -0.122490 2.257050 0.106020 
#    z -0.101620 0.106020 2.078230 
# 
# From -- ./inp_files/237350.got.cif
#   From: 2010.05.17/outbox.cif.g08.bks.cpg/sg2_119_cif.got.tgz:237350.got - 2010.06.03 11:33:40.
