data_PCOD9107558
_publ_section_title
;
Structure prediction by ZEFSAII (Michael W. Deem and Ramdas Pophale) SiO2 
 PCOD9107558
Probable space group: P -1
;
_chemical_formula_sum "Si O2"
_cell_formula_units_Z 14
_cell_length_a 5.475053
_cell_length_b 10.069904
_cell_length_c 9.934282
_cell_angle_alpha 92.297720
_cell_angle_beta 98.220808
_cell_angle_gamma 118.442583
_cell_volume 472.951261
_symmetry_space_group_name_H-M "P -1"
_symmetry_group_IT_number 2
_symmetry_cell_setting 'triclinic'
loop_
_space_group_symop_operation_xyz
x,y,z
-x,-y,-z
loop_
_atom_site_type_symbol
_atom_site_label
_atom_site_fract_x
_atom_site_fract_y
_atom_site_fract_z
Si Si1 0.663702 0.385402 0.677793
Si Si2 0.043089 0.347161 0.079652
Si Si3 0.144688 0.880385 0.601587
Si Si4 0.515333 0.303306 0.372660
Si Si5 0.484353 0.300412 0.052066
Si Si6 0.997018 0.193419 0.701667
Si Si7 0.164026 0.003010 0.865287
O O1 0.654006 0.413584 0.517137
O O2 0.335761 0.300477 0.700469
O O3 0.830389 0.541265 0.779469
O O4 0.837575 0.292695 0.705577
O O5 0.780772 0.361823 0.006672
O O6 0.274233 0.360569 0.991458
O O7 0.932778 0.170002 0.108124
O O8 0.312534 0.788014 0.615539
O O9 0.816515 0.788873 0.619096
O O10 0.133430 0.911502 0.445770
O O11 0.298177 0.012151 0.728996
O O12 0.532989 0.340364 0.215880
O O13 0.346426 0.121682 0.998776
O O14 0.961110 0.073802 0.810325
#
# Coordination Sequence:
#
# PCOD9107558 Si02
#       7
#     2   2   2   2   2   2   2
#     4  10  24  47  70  99 136 180 224 282 339 402
#     4  12  26  44  70 104 135 177 231 280 340 393
#     4  10  21  39  67  96 137 173 223 276 337 394
#     4  10  20  40  65 101 133 174 222 280 335 399
#     4  12  25  42  66 105 139 175 225 281 341 398
#     4  10  24  46  69 101 136 180 227 274 343 406
#     4  12  25  44  72 103 137 178 227 285 333 403
#
# _framework density 29.601361000000001
#
# number of rings (size 3 to 8) (size 9 to 14) (size 15 to 20)
#    0.000    1.143    2.857    2.143    0.000    4.571 
#    0.000    8.571    0.000    0.000    0.000    0.000 
#    0.000    0.000    0.000    0.000    0.000    0.000 
#
# Total GULP energy -78415.197183 kJ/mol
# GULP energy per Si atom -5601.085513 kJ/mol
# Density = 2.953399 g / cm^3
# Si number density = 29.601361 Si / 1000 Ang^3
#
#
#
# Elastic Constant Matrix: (Units=GPa)
#
#
# Indices 1 2 3 4 5 6 
#
# 1 248.8073 83.7910 53.4559 11.8282 4.4842 -33.7332
# 2 83.7910 142.8132 45.7440 19.8445 -12.8145 -25.5991
# 3 53.4559 45.7440 186.3638 12.5790 -36.7440 -14.5024
# 4 11.8282 19.8445 12.5790 53.0495 -14.4855 -13.6478
# 5 4.4842 -12.8145 -36.7440 -14.4855 43.6133 -2.7817
# 6 -33.7332 -25.5991 -14.5024 -13.6478 -2.7817 55.3374
#
#
#
# Elastic Compliance Matrix: (Units=1/GPa)
#
#
# Indices 1 2 3 4 5 6 
#
# 1 0.005463 -0.002716 -0.001227 -0.000137 -0.002337 0.001601
# 2 -0.002716 0.009710 -0.000933 -0.001695 0.001928 0.002271
# 3 -0.001227 -0.000933 0.007232 0.000969 0.006348 0.001274
# 4 -0.000137 -0.001695 0.000969 0.022960 0.008307 0.005466
# 5 -0.002337 0.001928 0.006348 0.008307 0.032149 0.004796
# 6 0.001601 0.002271 0.001274 0.005466 0.004796 0.022020
#
#
# Mechanical properties :
#
#
# Convention : Reuss Voigt Hill
#
# Bulk Modulus (GPa) = 79.03456 104.88511 91.95984
# Shear Modulus (GPa) = 44.05107 56.73294 50.39201
#
# Velocity S-wave (km/s) = 3.86183 4.38261 4.13044
# Velocity P-wave (km/s) = 6.82954 7.81787 7.34036
#
# Compressibility (1/GPa) = 0.01265269
#
# Stress axis : x y z
#
# Youngs Moduli (GPa) = 183.04225 102.98642 138.26862
#
# Poissons Ratio (x) = 0.27970 0.16971
# Poissons Ratio (y) = 0.49712 0.12902
# Poissons Ratio (z) = 0.22467 0.09610
#
# Static dielectric constant tensor:
#      x y z
#    x 2.386980 0.086150 0.077590 
#    y 0.086150 2.340110 0.035670 
#    z 0.077590 0.035670 2.320130 
# 
# From -- ./inp_files/363339.got.cif
#   From: 2010.05.17/outbox.cif.g08.bks.cpg/sg2_182_cif.got.tgz:363339.got - 2010.06.03 11:33:40.
