data_PCOD9107140
_publ_section_title
;
Structure prediction by ZEFSAII (Michael W. Deem and Ramdas Pophale) SiO2 
 PCOD9107140
Probable space group: P -1
;
_chemical_formula_sum "Si O2"
_cell_formula_units_Z 16
_cell_length_a 17.190056
_cell_length_b 8.503935
_cell_length_c 19.309450
_cell_angle_alpha 51.126639
_cell_angle_beta 21.021130
_cell_angle_gamma 62.586188
_cell_volume 704.332474
_symmetry_space_group_name_H-M "P -1"
_symmetry_group_IT_number 2
_symmetry_cell_setting 'triclinic'
loop_
_space_group_symop_operation_xyz
x,y,z
-x,-y,-z
loop_
_atom_site_type_symbol
_atom_site_label
_atom_site_fract_x
_atom_site_fract_y
_atom_site_fract_z
Si Si1 0.721325 0.338954 0.695589
Si Si2 0.939189 0.386538 0.867352
Si Si3 0.191200 0.157614 0.548559
Si Si4 0.532006 0.467683 0.562479
Si Si5 0.854625 0.146874 0.507166
Si Si6 0.818702 0.023369 0.788069
Si Si7 0.438115 0.966728 0.811934
Si Si8 0.471376 0.783685 0.627147
O O1 0.756081 0.591314 0.588938
O O2 0.861376 0.272779 0.537810
O O3 0.791475 0.250447 0.731869
O O4 0.437141 0.182422 0.960582
O O5 0.185525 0.395232 0.689110
O O6 0.017551 0.645087 0.710359
O O7 0.817673 0.234248 0.942456
O O8 0.738823 0.290582 0.120262
O O9 0.364524 0.074112 0.386731
O O10 0.281088 0.163162 0.550591
O O11 0.922001 0.014121 0.780993
O O12 0.500000 0.500000 0.500000
O O13 0.404622 0.576346 0.687552
O O14 0.445129 0.204589 0.721497
O O15 0.568046 0.999766 0.769027
O O16 0.991416 0.996589 0.419287
O O17 0.500000 0.000000 0.500000
#
# Coordination Sequence:
#
# PCOD9107140 Si02
#       8
#     2   2   2   2   2   2   2   2
#     4  11  22  38  62  93 123 164 210 246 308 371
#     4  10  22  42  62  86 126 163 199 258 309 353
#     4  10  20  40  63  88 125 161 204 255 304 363
#     4  11  23  40  61  89 119 153 204 254 305 369
#     4  10  21  38  61  90 123 161 206 251 300 365
#     4  10  22  39  62  90 127 164 201 258 306 359
#     4   9  20  37  59  85 115 158 202 244 300 360
#     4  11  24  42  66  93 121 163 210 252 309 371
#
# _framework density 22.716543000000001
#
# number of rings (size 3 to 8) (size 9 to 14) (size 15 to 20)
#    0.000    1.750    0.000    5.250    0.000    4.500 
#    0.000   10.000    0.000   10.500    0.000    0.000 
#    0.000    0.000    0.000    0.000    0.000    0.000 
#
# Total GULP energy -89374.097936 kJ/mol
# GULP energy per Si atom -5585.881121 kJ/mol
# Density = 2.266484 g / cm^3
# Si number density = 22.716543 Si / 1000 Ang^3
#
#
#
# Elastic Constant Matrix: (Units=GPa)
#
#
# Indices 1 2 3 4 5 6 
#
# 1 99.0559 40.4564 23.6312 -10.2378 -2.1937 -9.6557
# 2 40.4564 133.2391 16.0100 -14.6904 -4.2816 -7.8821
# 3 23.6312 16.0100 88.1756 -7.7330 -21.1481 -14.0543
# 4 -10.2378 -14.6904 -7.7330 23.6498 7.9713 -2.2307
# 5 -2.1937 -4.2816 -21.1481 7.9713 29.5717 2.2997
# 6 -9.6557 -7.8821 -14.0543 -2.2307 2.2997 39.3778
#
#
#
# Elastic Compliance Matrix: (Units=1/GPa)
#
#
# Indices 1 2 3 4 5 6 
#
# 1 0.012506 -0.003030 -0.002829 0.003676 -0.002666 0.001814
# 2 -0.003030 0.009015 -0.000353 0.004443 -0.000464 0.001214
# 3 -0.002829 -0.000353 0.015322 0.000505 0.010239 0.004135
# 4 0.003676 0.004443 0.000505 0.051755 -0.013115 0.005669
# 5 -0.002666 -0.000464 0.010239 -0.013115 0.044442 -0.000431
# 6 0.001814 0.001214 0.004135 0.005669 -0.000431 0.027905
#
#
# Mechanical properties :
#
#
# Convention : Reuss Voigt Hill
#
# Bulk Modulus (GPa) = 40.95327 53.40733 47.18030
# Shear Modulus (GPa) = 27.54682 34.54472 31.04577
#
# Velocity S-wave (km/s) = 3.48606 3.90383 3.70085
# Velocity P-wave (km/s) = 5.85411 6.62429 6.25107
#
# Compressibility (1/GPa) = 0.02441807
#
# Stress axis : x y z
#
# Youngs Moduli (GPa) = 79.96405 110.93085 65.26372
#
# Poissons Ratio (x) = 0.33615 0.18465
# Poissons Ratio (y) = 0.24231 0.02302
# Poissons Ratio (z) = 0.22624 0.03913
#
# Static dielectric constant tensor:
#      x y z
#    x 1.897360 0.044360 -0.009340 
#    y 0.044360 1.845250 0.040260 
#    z -0.009340 0.040260 1.857070 
# 
# From -- ./inp_files/599445.got.cif
#   From: 2010.05.17/outbox.cif.g08.bks.cpg/sg2_300_cif.got.tgz:599445.got - 2010.06.03 11:33:40.
