data_PCOD9107508
_publ_section_title
;
Structure prediction by ZEFSAII (Michael W. Deem and Ramdas Pophale) SiO2 
 PCOD9107508
Probable space group: P -1
;
_chemical_formula_sum "Si O2"
_cell_formula_units_Z 16
_cell_length_a 7.903107
_cell_length_b 8.352313
_cell_length_c 18.815273
_cell_angle_alpha 33.136588
_cell_angle_beta 94.271801
_cell_angle_gamma 92.446774
_cell_volume 676.585275
_symmetry_space_group_name_H-M "P -1"
_symmetry_group_IT_number 2
_symmetry_cell_setting 'triclinic'
loop_
_space_group_symop_operation_xyz
x,y,z
-x,-y,-z
loop_
_atom_site_type_symbol
_atom_site_label
_atom_site_fract_x
_atom_site_fract_y
_atom_site_fract_z
Si Si1 0.888591 0.729076 0.077129
Si Si2 0.294083 0.937645 0.812598
Si Si3 0.826830 0.576873 0.277338
Si Si4 0.362056 0.809723 0.322603
Si Si5 0.069121 0.920855 0.672615
Si Si6 0.205129 0.293970 0.417205
Si Si7 0.709877 0.125601 0.546552
Si Si8 0.816971 0.662190 0.944123
O O1 0.767946 0.650994 0.168115
O O2 0.987733 0.412742 0.194151
O O3 0.806062 0.786661 0.977474
O O4 0.000000 0.000000 0.000000
O O5 0.194000 0.964623 0.725180
O O6 0.176628 0.112854 0.799338
O O7 0.472857 0.078224 0.753447
O O8 0.309122 0.604798 0.962906
O O9 0.705447 0.383579 0.393020
O O10 0.020258 0.440535 0.336456
O O11 0.295999 0.524726 0.385348
O O12 0.395600 0.803873 0.411372
O O13 0.223434 0.075549 0.207575
O O14 0.168505 0.009344 0.570911
O O15 0.901557 0.124031 0.584583
O O16 0.296661 0.166308 0.395465
O O17 0.000000 0.500000 0.000000
#
# Coordination Sequence:
#
# PCOD9107508 Si02
#       8
#     2   2   2   2   2   2   2   2
#     4  11  20  35  64  98 126 158 216 281 333 387
#     4  11  25  43  64  96 141 182 214 273 342 411
#     4  11  21  41  66 100 131 170 228 285 338 385
#     4  12  26  44  65  99 141 181 222 267 346 415
#     4  10  20  40  64  95 131 169 225 281 333 379
#     4  11  21  41  68 101 132 171 230 286 329 396
#     4  11  22  41  71  99 134 174 227 292 328 394
#     4  11  24  44  71  96 126 177 227 284 329 391
#
# _framework density 23.648164000000001
#
# number of rings (size 3 to 8) (size 9 to 14) (size 15 to 20)
#    0.000    1.000    2.500    6.375    0.000    4.000 
#    4.500    1.875    0.000    0.000    0.000    0.000 
#    0.000    0.000    0.000    0.000    0.000    0.000 
#
# Total GULP energy -89352.899219 kJ/mol
# GULP energy per Si atom -5584.556201 kJ/mol
# Density = 2.359434 g / cm^3
# Si number density = 23.648164 Si / 1000 Ang^3
#
#
#
# Elastic Constant Matrix: (Units=GPa)
#
#
# Indices 1 2 3 4 5 6 
#
# 1 61.4959 21.2696 22.7497 -13.3934 -6.4764 0.1178
# 2 21.2696 160.8023 59.7664 0.4008 -10.2457 -10.2082
# 3 22.7497 59.7664 97.8402 10.0799 -20.1977 1.3269
# 4 -13.3934 0.4008 10.0799 52.5983 3.0428 -6.8977
# 5 -6.4764 -10.2457 -20.1977 3.0428 33.4932 -0.3157
# 6 0.1178 -10.2082 1.3269 -6.8977 -0.3157 10.9822
#
#
#
# Elastic Compliance Matrix: (Units=1/GPa)
#
#
# Indices 1 2 3 4 5 6 
#
# 1 0.019692 -0.000516 -0.004964 0.006486 0.000105 0.003986
# 2 -0.000516 0.009162 -0.006100 0.002442 -0.001096 0.010761
# 3 -0.004964 -0.006100 0.017657 -0.006612 0.008312 -0.011664
# 4 0.006486 0.002442 -0.006612 0.024546 -0.004043 0.018300
# 5 0.000105 -0.001096 0.008312 -0.004043 0.034888 -0.003561
# 6 0.003986 0.010761 -0.011664 0.018300 -0.003561 0.113817
#
#
# Mechanical properties :
#
#
# Convention : Reuss Voigt Hill
#
# Bulk Modulus (GPa) = 42.82791 58.63442 50.73116
# Shear Modulus (GPa) = 19.94366 33.83827 26.89097
#
# Velocity S-wave (km/s) = 2.90720 3.78683 3.37579
# Velocity P-wave (km/s) = 5.42391 6.63087 6.05753
#
# Compressibility (1/GPa) = 0.02334926
#
# Stress axis : x y z
#
# Youngs Moduli (GPa) = 50.78137 109.15070 56.63520
#
# Poissons Ratio (x) = 0.05633 0.28115
# Poissons Ratio (y) = 0.02621 0.34550
# Poissons Ratio (z) = 0.25209 0.66586
#
# Static dielectric constant tensor:
#      x y z
#    x 1.888340 -0.047750 -0.001760 
#    y -0.047750 1.983490 -0.026770 
#    z -0.001760 -0.026770 1.909080 
# 
# From -- ./inp_files/587708.got.cif
#   From: 2010.05.17/outbox.cif.g08.bks.cpg/sg2_294_cif.got.tgz:587708.got - 2010.06.03 11:33:40.
