data_PCOD9107950
_publ_section_title
;
Structure prediction by ZEFSAII (Michael W. Deem and Ramdas Pophale) SiO2 
 PCOD9107950
Probable space group: P -1
;
_chemical_formula_sum "Si O2"
_cell_formula_units_Z 13
_cell_length_a 12.867280
_cell_length_b 9.916336
_cell_length_c 11.057031
_cell_angle_alpha 131.278748
_cell_angle_beta 33.891633
_cell_angle_gamma 121.693073
_cell_volume 590.389009
_symmetry_space_group_name_H-M "P -1"
_symmetry_group_IT_number 2
_symmetry_cell_setting 'triclinic'
loop_
_space_group_symop_operation_xyz
x,y,z
-x,-y,-z
loop_
_atom_site_type_symbol
_atom_site_label
_atom_site_fract_x
_atom_site_fract_y
_atom_site_fract_z
Si Si1 0.003739 0.203367 0.074150
Si Si2 0.282530 0.542636 0.369343
Si Si3 0.870424 0.681510 0.227276
Si Si4 0.750383 0.816131 0.680343
Si Si5 0.729504 0.495015 0.917696
Si Si6 0.500000 0.500000 0.500000
Si Si7 0.317198 0.785079 0.002883
O O1 0.813511 0.313713 0.361884
O O2 0.048634 0.203184 0.888957
O O3 0.158305 0.328802 0.058951
O O4 0.000000 0.000000 0.000000
O O5 0.213231 0.346880 0.358210
O O6 0.506142 0.539992 0.167006
O O7 0.233871 0.574410 0.295046
O O8 0.853068 0.769212 0.427803
O O9 0.658859 0.632389 0.374794
O O10 0.000000 0.500000 0.000000
O O11 0.527771 0.806914 0.863569
O O12 0.778308 0.019667 0.810211
O O13 0.773831 0.339856 0.882199
O O14 0.359542 0.672580 0.775177
#
# Coordination Sequence:
#
# PCOD9107950 Si02
#       7
#     2   2   2   2   2   1   2
#     4  12  26  42  62  96 133 174 214 265 321 382
#     4  10  22  44  66  91 132 165 220 262 320 387
#     4  11  22  41  64  90 129 166 214 267 315 377
#     4   9  19  37  62  96 120 161 211 264 316 378
#     4  10  22  44  65  90 126 177 208 266 319 382
#     4  10  20  40  66  92 122 162 208 270 320 372
#     4   9  18  36  66  92 120 161 211 258 323 373
#
# _framework density 22.019380000000002
#
# number of rings (size 3 to 8) (size 9 to 14) (size 15 to 20)
#    0.000    1.846    3.077    0.462    2.154    0.615 
#    5.538    1.538    0.000    0.000    0.000    0.000 
#    0.000    0.000    0.000    0.000    0.000    0.000 
#
# Total GULP energy -72373.524825 kJ/mol
# GULP energy per Si atom -5567.194217 kJ/mol
# Density = 2.196926 g / cm^3
# Si number density = 22.019380 Si / 1000 Ang^3
#
#
#
# Elastic Constant Matrix: (Units=GPa)
#
#
# Indices 1 2 3 4 5 6 
#
# 1 41.1087 23.2006 15.9649 -17.2036 -0.9132 -1.1852
# 2 23.2006 163.3393 67.4852 -0.3380 5.4714 -15.5359
# 3 15.9649 67.4852 127.6227 -4.2181 28.3721 -15.6227
# 4 -17.2036 -0.3380 -4.2181 48.0917 5.8248 1.9998
# 5 -0.9132 5.4714 28.3721 5.8248 28.6333 -6.1561
# 6 -1.1852 -15.5359 -15.6227 1.9998 -6.1561 35.0951
#
#
#
# Elastic Compliance Matrix: (Units=1/GPa)
#
#
# Indices 1 2 3 4 5 6 
#
# 1 0.031968 -0.003894 -0.002061 0.011178 0.001101 -0.002005
# 2 -0.003894 0.008753 -0.004800 -0.002333 0.003957 0.002433
# 3 -0.002061 -0.004800 0.013735 0.001921 -0.012813 0.001563
# 4 0.011178 -0.002333 0.001921 0.025883 -0.006901 -0.002486
# 5 0.001101 0.003957 -0.012813 -0.006901 0.049409 0.005146
# 6 -0.002005 0.002433 0.001563 -0.002486 0.005146 0.031243
#
#
# Mechanical properties :
#
#
# Convention : Reuss Voigt Hill
#
# Bulk Modulus (GPa) = 30.35266 60.59690 45.47478
# Shear Modulus (GPa) = 25.84209 37.39201 31.61705
#
# Velocity S-wave (km/s) = 3.42951 4.12532 3.79340
# Velocity P-wave (km/s) = 5.43107 7.09017 6.31534
#
# Compressibility (1/GPa) = 0.03294604
#
# Stress axis : x y z
#
# Youngs Moduli (GPa) = 31.28130 114.25181 72.80744
#
# Poissons Ratio (x) = 0.44487 0.15004
# Poissons Ratio (y) = 0.12180 0.34949
# Poissons Ratio (z) = 0.06446 0.54843
#
# Static dielectric constant tensor:
#      x y z
#    x 1.900840 0.042990 -0.021740 
#    y 0.042990 1.774780 -0.017100 
#    z -0.021740 -0.017100 1.790880 
# 
# From -- ./inp_files/150341.got.cif
#   From: 2010.05.17/outbox.cif.g08.bks.cpg/sg2_76_cif.got.tgz:150341.got - 2010.06.03 11:33:40.
