data_PCOD9107431
_publ_section_title
;
Structure prediction by ZEFSAII (Michael W. Deem and Ramdas Pophale) SiO2 
 PCOD9107431
Probable space group: P -1
;
_chemical_formula_sum "Si O2"
_cell_formula_units_Z 16
_cell_length_a 10.025470
_cell_length_b 12.258965
_cell_length_c 17.316784
_cell_angle_alpha 147.444210
_cell_angle_beta 134.969564
_cell_angle_gamma 35.783465
_cell_volume 667.875896
_symmetry_space_group_name_H-M "P -1"
_symmetry_group_IT_number 2
_symmetry_cell_setting 'triclinic'
loop_
_space_group_symop_operation_xyz
x,y,z
-x,-y,-z
loop_
_atom_site_type_symbol
_atom_site_label
_atom_site_fract_x
_atom_site_fract_y
_atom_site_fract_z
Si Si1 0.000939 0.687521 0.475772
Si Si2 0.182239 0.002687 0.667819
Si Si3 0.276027 0.556556 0.219333
Si Si4 0.290619 0.877579 0.291463
Si Si5 0.215859 0.555875 0.815978
Si Si6 0.031878 0.018863 0.914480
Si Si7 0.490493 0.414495 0.532432
Si Si8 0.512021 0.935672 0.056015
O O1 0.243717 0.472817 0.482945
O O2 0.930433 0.560969 0.310504
O O3 0.073678 0.861097 0.573269
O O4 0.795589 0.851724 0.550498
O O5 0.376825 0.977397 0.787429
O O6 0.974803 0.286186 0.752913
O O7 0.304316 0.873440 0.560324
O O8 0.322353 0.730096 0.293916
O O9 0.449598 0.457481 0.302524
O O10 0.318713 0.358919 0.056181
O O11 0.524540 0.684237 0.226933
O O12 0.073301 0.933445 0.185385
O O13 0.116629 0.745829 0.815406
O O14 0.163951 0.750702 0.977734
O O15 0.256444 0.019180 0.019530
O O16 0.500000 0.500000 0.500000
O O17 0.500000 0.000000 0.000000
#
# Coordination Sequence:
#
# PCOD9107431 Si02
#       8
#     2   2   2   2   2   2   2   2
#     4  10  22  41  67  99 130 177 222 272 337 395
#     4  10  22  38  62  96 137 172 218 271 336 402
#     4  11  22  40  64  96 137 171 224 281 332 396
#     4  11  23  45  68 101 134 170 231 279 335 397
#     4  11  24  46  71  94 141 174 228 283 327 396
#     4  11  25  45  71 102 130 184 226 273 341 391
#     4  10  20  40  64  91 135 176 217 271 332 401
#     4  12  22  41  69  97 134 177 220 275 337 402
#
# _framework density 23.956548000000002
#
# number of rings (size 3 to 8) (size 9 to 14) (size 15 to 20)
#    0.000    1.250    1.250    6.000    0.000    1.500 
#    4.500    2.500    0.000    0.000    0.000    0.000 
#    0.000    0.000    0.000    0.000    0.000    0.000 
#
# Total GULP energy -89267.085498 kJ/mol
# GULP energy per Si atom -5579.192844 kJ/mol
# Density = 2.390202 g / cm^3
# Si number density = 23.956548 Si / 1000 Ang^3
#
#
#
# Elastic Constant Matrix: (Units=GPa)
#
#
# Indices 1 2 3 4 5 6 
#
# 1 38.1219 19.9923 15.7598 5.6446 -3.7666 -9.2395
# 2 19.9923 74.2925 21.0056 -10.3014 -7.2602 -30.1676
# 3 15.7598 21.0056 106.8961 -16.5918 -7.8046 -14.2683
# 4 5.6446 -10.3014 -16.5918 35.7058 -17.0816 -30.5419
# 5 -3.7666 -7.2602 -7.8046 -17.0816 30.9955 1.0697
# 6 -9.2395 -30.1676 -14.2683 -30.5419 1.0697 35.4567
#
#
#
# Elastic Compliance Matrix: (Units=1/GPa)
#
#
# Indices 1 2 3 4 5 6 
#
# 1 0.030052 -0.001964 -0.001240 0.006085 0.005863 0.010726
# 2 -0.001964 0.005458 -0.006962 -0.020588 -0.011505 -0.016057
# 3 -0.001240 -0.006962 0.008370 -0.007122 -0.003291 -0.008914
# 4 0.006085 -0.020588 -0.007122 -0.024170 -0.017848 -0.039079
# 5 0.005863 -0.011505 -0.003291 -0.017848 0.020498 -0.025578
# 6 0.010726 -0.016057 -0.008914 -0.039079 -0.025578 -0.019141
#
#
# Mechanical properties :
#
#
# Convention : Reuss Voigt Hill
#
# Bulk Modulus (GPa) = 42.46677 36.98062 39.72369
# Shear Modulus (GPa) = 101.52254 31.26845 66.39549
#
# Velocity S-wave (km/s) = 6.51688 3.61670 5.27021
# Velocity P-wave (km/s) = 8.62505 5.73678 7.32469
#
# Compressibility (1/GPa) = 0.02354782
#
# Stress axis : x y z
#
# Youngs Moduli (GPa) = 33.27524 183.21024 119.47277
#
# Poissons Ratio (x) = 0.35989 0.14819
# Poissons Ratio (y) = 0.06536 0.83174
# Poissons Ratio (z) = 0.04127 1.27546
#
# Static dielectric constant tensor:
#      x y z
#    x 1.955270 -0.004640 0.025500 
#    y -0.004640 2.000420 0.045990 
#    z 0.025500 0.045990 1.836660 
# 
# From -- ./inp_files/595400.got.cif
#   From: 2010.05.17/outbox.cif.g08.bks.cpg/sg2_298_cif.got.tgz:595400.got - 2010.06.03 11:33:40.
