data_PCOD9107050
_publ_section_title
;
Structure prediction by ZEFSAII (Michael W. Deem and Ramdas Pophale) SiO2 
 PCOD9107050
Probable space group: P -1
;
_chemical_formula_sum "Si O2"
_cell_formula_units_Z 15
_cell_length_a 7.630678
_cell_length_b 8.673882
_cell_length_c 15.581937
_cell_angle_alpha 76.830041
_cell_angle_beta 129.340107
_cell_angle_gamma 68.479112
_cell_volume 570.216441
_symmetry_space_group_name_H-M "P -1"
_symmetry_group_IT_number 2
_symmetry_cell_setting 'triclinic'
loop_
_space_group_symop_operation_xyz
x,y,z
-x,-y,-z
loop_
_atom_site_type_symbol
_atom_site_label
_atom_site_fract_x
_atom_site_fract_y
_atom_site_fract_z
Si Si1 0.445574 0.351376 0.652750
Si Si2 0.915353 0.611056 0.602058
Si Si3 0.311770 0.491940 0.182961
Si Si4 0.500000 0.000000 0.000000
Si Si5 0.919818 0.431231 0.148980
Si Si6 0.020964 0.898448 0.607287
Si Si7 0.215052 0.046450 0.085671
Si Si8 0.771052 0.136441 0.156538
O O1 0.334079 0.388118 0.515987
O O2 0.634144 0.417531 0.730659
O O3 0.603297 0.109467 0.757443
O O4 0.169433 0.491745 0.620151
O O5 0.056889 0.513562 0.752269
O O6 0.806217 0.846447 0.547335
O O7 0.628044 0.335630 0.249611
O O8 0.211122 0.369860 0.201053
O O9 0.033964 0.695690 0.015674
O O10 0.448176 0.987057 0.090071
O O11 0.780267 0.992550 0.109593
O O12 0.893312 0.255660 0.160048
O O13 0.602789 0.656704 0.986306
O O14 0.030796 0.002340 0.680442
O O15 0.000000 0.000000 0.500000
O O16 0.000000 0.000000 0.000000
#
# Coordination Sequence:
#
# PCOD9107050 Si02
#       8
#     2   2   2   1   2   2   2   2
#     4   9  19  36  62  94 134 173 216 278 324 397
#     4   9  19  37  61  90 130 177 218 263 335 402
#     4  10  21  41  63  97 130 173 225 273 338 401
#     4  12  22  42  66 100 132 170 224 274 342 388
#     4  10  20  40  62  94 131 171 217 273 333 404
#     4  10  23  43  64  90 129 177 224 268 340 409
#     4  10  22  39  65 102 136 167 225 283 330 398
#     4  10  23  41  66  95 129 177 220 276 336 399
#
# _framework density 26.305802
#
# number of rings (size 3 to 8) (size 9 to 14) (size 15 to 20)
#    0.000    2.133    1.333    0.800    1.867    4.267 
#    4.800    5.333    0.000    0.000    0.000    0.000 
#    0.000    0.000    0.000    0.000    0.000    0.000 
#
# Total GULP energy -83587.523932 kJ/mol
# GULP energy per Si atom -5572.501595 kJ/mol
# Density = 2.624593 g / cm^3
# Si number density = 26.305802 Si / 1000 Ang^3
#
#
#
# Elastic Constant Matrix: (Units=GPa)
#
#
# Indices 1 2 3 4 5 6 
#
# 1 87.9185 21.5584 8.3498 12.4254 14.1406 15.3534
# 2 21.5584 71.6681 53.0619 37.3354 0.9072 11.4093
# 3 8.3498 53.0619 132.2422 56.9187 -28.2826 9.8941
# 4 12.4254 37.3354 56.9187 53.8381 -3.0676 8.8012
# 5 14.1406 0.9072 -28.2826 -3.0676 28.4433 -0.0725
# 6 15.3534 11.4093 9.8941 8.8012 -0.0725 35.7938
#
#
#
# Elastic Compliance Matrix: (Units=1/GPa)
#
#
# Indices 1 2 3 4 5 6 
#
# 1 0.014323 -0.002454 -0.001503 0.000325 -0.008515 -0.005043
# 2 -0.002454 0.025783 -0.007947 -0.008939 -0.008476 -0.002788
# 3 -0.001503 -0.007947 0.022868 -0.017259 0.021881 0.001145
# 4 0.000325 -0.008939 -0.017259 0.042735 -0.012437 -0.003052
# 5 -0.008515 -0.008476 0.021881 -0.012437 0.060087 0.003485
# 6 -0.005043 -0.002788 0.001145 -0.003052 0.003485 0.031431
#
#
# Mechanical properties :
#
#
# Convention : Reuss Voigt Hill
#
# Bulk Modulus (GPa) = 25.53276 50.86323 38.19800
# Shear Modulus (GPa) = 21.35917 37.53893 29.44905
#
# Velocity S-wave (km/s) = 2.85258 3.78169 3.34951
# Velocity P-wave (km/s) = 4.53616 6.20045 5.43242
#
# Compressibility (1/GPa) = 0.03916537
#
# Stress axis : x y z
#
# Youngs Moduli (GPa) = 69.81773 38.78481 43.72876
#
# Poissons Ratio (x) = 0.09518 0.06573
# Poissons Ratio (y) = 0.17134 0.34753
# Poissons Ratio (z) = 0.10495 0.30824
#
# Static dielectric constant tensor:
#      x y z
#    x 2.132190 -0.101070 0.002260 
#    y -0.101070 2.222690 -0.010010 
#    z 0.002260 -0.010010 2.088910 
# 
# From -- ./inp_files/555293.got.cif
#   From: 2010.05.17/outbox.cif.g08.bks.cpg/sg2_278_cif.got.tgz:555293.got - 2010.06.03 11:33:40.
