data_PCOD9107971
_publ_section_title
;
Structure prediction by ZEFSAII (Michael W. Deem and Ramdas Pophale) SiO2 
 PCOD9107971
Probable space group: P -1
;
_chemical_formula_sum "Si O2"
_cell_formula_units_Z 14
_cell_length_a 11.543650
_cell_length_b 10.647237
_cell_length_c 15.691232
_cell_angle_alpha 35.276197
_cell_angle_beta 43.453453
_cell_angle_gamma 30.142743
_cell_volume 557.971176
_symmetry_space_group_name_H-M "P -1"
_symmetry_group_IT_number 2
_symmetry_cell_setting 'triclinic'
loop_
_space_group_symop_operation_xyz
x,y,z
-x,-y,-z
loop_
_atom_site_type_symbol
_atom_site_label
_atom_site_fract_x
_atom_site_fract_y
_atom_site_fract_z
Si Si1 0.131722 0.115944 0.955761
Si Si2 0.625186 0.199389 0.155192
Si Si3 0.202473 0.360925 0.035117
Si Si4 0.550169 0.426720 0.795453
Si Si5 0.450326 0.920606 0.481573
Si Si6 0.470470 0.220940 0.736425
Si Si7 0.792563 0.132619 0.472890
O O1 0.330205 0.124136 0.852735
O O2 0.903878 0.432024 0.938164
O O3 0.145050 0.046415 0.887024
O O4 0.221431 0.848442 0.120991
O O5 0.618543 0.301990 0.196498
O O6 0.511385 0.063043 0.305296
O O7 0.500000 0.500000 0.000000
O O8 0.310918 0.034352 0.181894
O O9 0.403973 0.338233 0.905577
O O10 0.000000 0.500000 0.000000
O O11 0.587849 0.569235 0.621057
O O12 0.204609 0.035754 0.515573
O O13 0.500000 0.000000 0.500000
O O14 0.583126 0.214090 0.594301
O O15 0.293060 0.554555 0.680335
O O16 0.000000 0.000000 0.500000
#
# Coordination Sequence:
#
# PCOD9107971 Si02
#       7
#     2   2   2   2   2   2   2
#     4  10  20  40  66  92 132 183 223 281 346 408
#     4   9  18  40  69  95 129 175 230 279 347 409
#     4  11  25  39  64  99 138 180 236 280 344 414
#     4   9  22  38  65  97 135 175 222 289 344 407
#     4  10  21  41  70 101 141 177 218 293 356 404
#     4  10  23  41  63  97 137 179 230 286 334 411
#     4  11  23  40  71 101 137 182 226 280 350 414
#
# _framework density 25.090902
#
# number of rings (size 3 to 8) (size 9 to 14) (size 15 to 20)
#    0.000    2.000    1.429    0.857    6.000    1.714 
#    0.000    0.000    3.143   12.000    0.000    0.000 
#    0.000    0.000    0.000    0.000    0.000    0.000 
#
# Total GULP energy -78026.489776 kJ/mol
# GULP energy per Si atom -5573.320698 kJ/mol
# Density = 2.503379 g / cm^3
# Si number density = 25.090902 Si / 1000 Ang^3
#
#
#
# Elastic Constant Matrix: (Units=GPa)
#
#
# Indices 1 2 3 4 5 6 
#
# 1 119.8371 21.5225 32.6526 -10.2956 -7.9763 -2.8532
# 2 21.5225 84.6792 18.3722 -8.1364 11.5117 14.4711
# 3 32.6526 18.3722 184.8188 -16.9580 3.2687 -8.4817
# 4 -10.2956 -8.1364 -16.9580 34.0278 -0.7428 2.6634
# 5 -7.9763 11.5117 3.2687 -0.7428 39.3979 6.2058
# 6 -2.8532 14.4711 -8.4817 2.6634 6.2058 34.3301
#
#
#
# Elastic Compliance Matrix: (Units=1/GPa)
#
#
# Indices 1 2 3 4 5 6 
#
# 1 0.009478 -0.002491 -0.001283 0.001619 0.002639 0.000918
# 2 -0.002491 0.014437 -0.000970 0.002611 -0.003635 -0.006077
# 3 -0.001283 -0.000970 0.006031 0.002233 -0.000710 0.001747
# 4 0.001619 0.002611 0.002233 0.031857 0.000447 -0.002967
# 5 0.002639 -0.003635 -0.000710 0.000447 0.027589 -0.003445
# 6 0.000918 -0.006077 0.001747 -0.002967 -0.003445 0.033052
#
#
# Mechanical properties :
#
#
# Convention : Reuss Voigt Hill
#
# Bulk Modulus (GPa) = 48.87934 59.38106 54.13020
# Shear Modulus (GPa) = 36.03590 42.67036 39.35313
#
# Velocity S-wave (km/s) = 3.79385 4.12834 3.96463
# Velocity P-wave (km/s) = 6.22208 6.81484 6.52519
#
# Compressibility (1/GPa) = 0.02045854
#
# Stress axis : x y z
#
# Youngs Moduli (GPa) = 105.50593 69.26874 165.79689
#
# Poissons Ratio (x) = 0.17253 0.21271
# Poissons Ratio (y) = 0.26279 0.16083
# Poissons Ratio (z) = 0.13536 0.06719
#
# Static dielectric constant tensor:
#      x y z
#    x 2.196470 0.090350 0.048170 
#    y 0.090350 2.020430 0.032250 
#    z 0.048170 0.032250 1.987710 
# 
# From -- ./inp_files/569091.got.cif
#   From: 2010.05.17/outbox.cif.g08.bks.cpg/sg2_285_cif.got.tgz:569091.got - 2010.06.03 11:33:40.
