data_PCOD9107353
_publ_section_title
;
Structure prediction by ZEFSAII (Michael W. Deem and Ramdas Pophale) SiO2 
 PCOD9107353
Probable space group: P -1
;
_chemical_formula_sum "Si O2"
_cell_formula_units_Z 16
_cell_length_a 21.778096
_cell_length_b 10.754217
_cell_length_c 11.275954
_cell_angle_alpha 46.369772
_cell_angle_beta 148.814759
_cell_angle_gamma 148.983768
_cell_volume 695.346322
_symmetry_space_group_name_H-M "P -1"
_symmetry_group_IT_number 2
_symmetry_cell_setting 'triclinic'
loop_
_space_group_symop_operation_xyz
x,y,z
-x,-y,-z
loop_
_atom_site_type_symbol
_atom_site_label
_atom_site_fract_x
_atom_site_fract_y
_atom_site_fract_z
Si Si1 0.386915 0.213794 0.406950
Si Si2 0.331379 0.817943 0.420483
Si Si3 0.171472 0.753167 0.974734
Si Si4 0.050152 0.376602 0.507121
Si Si5 0.895759 0.172527 0.629846
Si Si6 0.368203 0.550852 0.015735
Si Si7 0.483143 0.285645 0.081626
Si Si8 0.733516 0.447843 0.918217
O O1 0.366482 0.363615 0.197467
O O2 0.585169 0.403909 0.640697
O O3 0.333688 0.987895 0.395456
O O4 0.263102 0.081428 0.403740
O O5 0.368602 0.683861 0.642935
O O6 0.500000 0.000000 0.500000
O O7 0.180929 0.675807 0.170138
O O8 0.011307 0.666880 0.700218
O O9 0.237270 0.681123 0.035122
O O10 0.310787 0.044575 0.013571
O O11 0.912734 0.182833 0.508594
O O12 0.108175 0.628866 0.474308
O O13 0.199003 0.397223 0.760747
O O14 0.076089 0.292857 0.904887
O O15 0.349754 0.669354 0.013272
O O16 0.516020 0.732183 0.047593
O O17 0.500000 0.500000 0.000000
#
# Coordination Sequence:
#
# PCOD9107353 Si02
#       8
#     2   2   2   2   2   2   2   2
#     4  12  22  41  67  90 132 177 206 258 323 377
#     4  10  20  40  64  87 123 169 215 256 311 384
#     4  10  21  41  67  88 127 171 207 264 320 373
#     4   9  20  41  60  93 129 158 212 269 307 379
#     4   9  21  40  63  92 130 167 210 263 316 373
#     4  11  24  39  61  97 131 162 213 262 314 377
#     4  11  23  40  63  93 124 163 210 269 309 373
#     4  10  22  40  65  96 126 165 218 254 311 390
#
# _framework density 23.010117000000001
#
# number of rings (size 3 to 8) (size 9 to 14) (size 15 to 20)
#    0.000    1.750    2.500    3.375    1.750    2.500 
#    2.250    8.125    0.000    0.000    0.000    0.000 
#    0.000    0.000    0.000    0.000    0.000    0.000 
#
# Total GULP energy -89315.205876 kJ/mol
# GULP energy per Si atom -5582.200367 kJ/mol
# Density = 2.295774 g / cm^3
# Si number density = 23.010117 Si / 1000 Ang^3
#
#
#
# Elastic Constant Matrix: (Units=GPa)
#
#
# Indices 1 2 3 4 5 6 
#
# 1 78.3587 24.3490 23.5351 -9.3804 -19.1733 2.0674
# 2 24.3490 54.2684 49.7848 -14.2334 0.9918 1.6771
# 3 23.5351 49.7848 208.3650 -6.0210 -7.4435 0.6661
# 4 -9.3804 -14.2334 -6.0210 30.0393 9.1504 -7.9121
# 5 -19.1733 0.9918 -7.4435 9.1504 37.5675 2.9881
# 6 2.0674 1.6771 0.6661 -7.9121 2.9881 36.8323
#
#
#
# Elastic Compliance Matrix: (Units=1/GPa)
#
#
# Indices 1 2 3 4 5 6 
#
# 1 0.017683 -0.009083 0.000473 -0.002247 0.010056 -0.001886
# 2 -0.009083 0.032923 -0.006790 0.015619 -0.010923 0.003375
# 3 0.000473 -0.006790 0.006378 -0.002676 0.002384 -0.000601
# 4 -0.002247 0.015619 -0.002676 0.046605 -0.014287 0.010634
# 5 0.010056 -0.010923 0.002384 -0.014287 0.036480 -0.006139
# 6 -0.001886 0.003375 -0.000601 0.010634 -0.006139 0.029895
#
#
# Mechanical properties :
#
#
# Convention : Reuss Voigt Hill
#
# Bulk Modulus (GPa) = 38.19030 59.59221 48.89125
# Shear Modulus (GPa) = 23.86712 37.10936 30.48824
#
# Velocity S-wave (km/s) = 3.22412 4.02025 3.64399
# Velocity P-wave (km/s) = 5.52206 6.89234 6.24490
#
# Compressibility (1/GPa) = 0.02618466
#
# Stress axis : x y z
#
# Youngs Moduli (GPa) = 56.54994 30.37377 156.79012
#
# Poissons Ratio (x) = 0.27589 -0.07419
# Poissons Ratio (y) = 0.51365 1.06462
# Poissons Ratio (z) = -0.02676 0.20624
#
# Static dielectric constant tensor:
#      x y z
#    x 1.890720 0.022140 -0.020940 
#    y 0.022140 1.871980 0.050940 
#    z -0.020940 0.050940 1.925680 
# 
# From -- ./inp_files/474859.got.cif
#   From: 2010.05.17/outbox.cif.g08.bks.cpg/sg2_238_cif.got.tgz:474859.got - 2010.06.03 11:33:40.
