data_PCOD9107645
_publ_section_title
;
Structure prediction by ZEFSAII (Michael W. Deem and Ramdas Pophale) SiO2 
 PCOD9107645
Probable space group: P -1
;
_chemical_formula_sum "Si O2"
_cell_formula_units_Z 14
_cell_length_a 10.951155
_cell_length_b 9.622939
_cell_length_c 7.293007
_cell_angle_alpha 47.412069
_cell_angle_beta 85.013996
_cell_angle_gamma 88.712971
_cell_volume 563.005767
_symmetry_space_group_name_H-M "P -1"
_symmetry_group_IT_number 2
_symmetry_cell_setting 'triclinic'
loop_
_space_group_symop_operation_xyz
x,y,z
-x,-y,-z
loop_
_atom_site_type_symbol
_atom_site_label
_atom_site_fract_x
_atom_site_fract_y
_atom_site_fract_z
Si Si1 0.711332 0.890261 0.451399
Si Si2 0.959941 0.111659 0.227436
Si Si3 0.778447 0.800558 0.945046
Si Si4 0.520933 0.594715 0.607858
Si Si5 0.185881 0.618512 0.782541
Si Si6 0.683383 0.159693 0.721871
Si Si7 0.621171 0.267025 0.039721
O O1 0.743516 0.844095 0.698618
O O2 0.652232 0.702272 0.533610
O O3 0.838616 0.997633 0.268841
O O4 0.611970 0.051286 0.300559
O O5 0.926994 0.315340 0.136559
O O6 0.082547 0.132378 0.075061
O O7 0.000000 0.000000 0.500000
O O8 0.685235 0.932840 0.944629
O O9 0.788934 0.576423 0.147883
O O10 0.500000 0.500000 0.500000
O O11 0.424551 0.758397 0.460935
O O12 0.510943 0.407657 0.905417
O O13 0.201357 0.771554 0.479809
O O14 0.289298 0.637978 0.907832
O O15 0.676548 0.250099 0.842407
#
# Coordination Sequence:
#
# PCOD9107645 Si02
#       7
#     2   2   2   2   2   2   2
#     4  10  20  40  65  90 122 168 205 256 317 364
#     4   9  18  38  67  90 126 163 205 259 316 370
#     4  11  21  40  66  95 125 166 211 257 316 375
#     4  10  23  40  63  92 127 168 212 257 318 373
#     4  11  21  41  65  94 127 168 205 261 314 376
#     4  11  24  39  62  98 126 163 217 258 312 378
#     4  10  22  42  62  89 131 166 209 257 315 376
#
# _framework density 24.866527999999999
#
# number of rings (size 3 to 8) (size 9 to 14) (size 15 to 20)
#    0.000    1.714    5.714    0.429    0.000    6.857 
#    0.000    2.857    0.000   11.143    0.000    0.000 
#    0.000    0.000    0.000    0.000    0.000    0.000 
#
# Total GULP energy -78001.253420 kJ/mol
# GULP energy per Si atom -5571.518101 kJ/mol
# Density = 2.480993 g / cm^3
# Si number density = 24.866528 Si / 1000 Ang^3
#
#
#
# Elastic Constant Matrix: (Units=GPa)
#
#
# Indices 1 2 3 4 5 6 
#
# 1 85.1404 52.4947 23.7052 -13.1104 9.8977 2.5531
# 2 52.4947 150.2446 26.4861 -24.5184 -2.8807 2.1080
# 3 23.7052 26.4861 85.8783 -21.1673 21.1254 -0.2191
# 4 -13.1104 -24.5184 -21.1673 58.0960 -4.1181 2.3394
# 5 9.8977 -2.8807 21.1254 -4.1181 24.0465 -14.7918
# 6 2.5531 2.1080 -0.2191 2.3394 -14.7918 41.9600
#
#
#
# Elastic Compliance Matrix: (Units=1/GPa)
#
#
# Indices 1 2 3 4 5 6 
#
# 1 0.016803 -0.005844 -0.000233 0.000710 -0.009913 -0.004264
# 2 -0.005844 0.009663 -0.002765 0.002212 0.007924 0.002526
# 3 -0.000233 -0.002765 0.018599 0.004412 -0.020196 -0.007115
# 4 0.000710 0.002212 0.004412 0.019873 -0.001612 -0.001807
# 5 -0.009913 0.007924 -0.020196 -0.001612 0.081974 0.029087
# 6 -0.004264 0.002526 -0.007115 -0.001807 0.029087 0.034282
#
#
# Mechanical properties :
#
#
# Convention : Reuss Voigt Hill
#
# Bulk Modulus (GPa) = 36.52265 58.51502 47.51883
# Shear Modulus (GPa) = 24.03794 39.39233 31.71513
#
# Velocity S-wave (km/s) = 3.11252 3.98446 3.57517
# Velocity P-wave (km/s) = 5.25703 6.68959 6.01610
#
# Compressibility (1/GPa) = 0.02738027
#
# Stress axis : x y z
#
# Youngs Moduli (GPa) = 59.51263 103.49225 53.76706
#
# Poissons Ratio (x) = 0.60484 0.01254
# Poissons Ratio (y) = 0.34781 0.14864
# Poissons Ratio (z) = 0.01388 0.28611
#
# Static dielectric constant tensor:
#      x y z
#    x 2.114270 -0.071780 -0.076640 
#    y -0.071780 1.970480 -0.034320 
#    z -0.076640 -0.034320 1.997840 
# 
# From -- ./inp_files/242088.got.cif
#   From: 2010.05.17/outbox.cif.g08.bks.cpg/sg2_122_cif.got.tgz:242088.got - 2010.06.03 11:33:40.
