data_PCOD9107978
_publ_section_title
;
Structure prediction by ZEFSAII (Michael W. Deem and Ramdas Pophale) SiO2 
 PCOD9107978
Probable space group: P -1
;
_chemical_formula_sum "Si O2"
_cell_formula_units_Z 16
_cell_length_a 7.559535
_cell_length_b 19.961979
_cell_length_c 7.720983
_cell_angle_alpha 117.459510
_cell_angle_beta 118.775000
_cell_angle_gamma 40.153047
_cell_volume 649.519174
_symmetry_space_group_name_H-M "P -1"
_symmetry_group_IT_number 2
_symmetry_cell_setting 'triclinic'
loop_
_space_group_symop_operation_xyz
x,y,z
-x,-y,-z
loop_
_atom_site_type_symbol
_atom_site_label
_atom_site_fract_x
_atom_site_fract_y
_atom_site_fract_z
Si Si1 0.057593 0.819101 0.951635
Si Si2 0.674256 0.711956 0.511312
Si Si3 0.764083 0.397222 0.236684
Si Si4 0.416926 0.315187 0.184850
Si Si5 0.841400 0.428484 0.930839
Si Si6 0.186491 0.915700 0.339528
Si Si7 0.802050 0.935735 0.641750
Si Si8 0.261747 0.707165 0.410103
O O1 0.104209 0.719001 0.878781
O O2 0.338420 0.775900 0.934151
O O3 0.816233 0.899850 0.798515
O O4 0.042028 0.874211 0.175993
O O5 0.631525 0.727505 0.721152
O O6 0.501368 0.817276 0.443203
O O7 0.497385 0.680753 0.359701
O O8 0.011488 0.626229 0.548734
O O9 0.429209 0.474302 0.188148
O O10 0.774254 0.445272 0.125173
O O11 0.549730 0.351816 0.396149
O O12 0.138744 0.393075 0.031813
O O13 0.875530 0.332642 0.770983
O O14 0.161642 0.983642 0.256925
O O15 0.000000 0.000000 0.500000
O O16 0.034685 0.828435 0.511313
O O17 0.500000 0.000000 0.500000
#
# Coordination Sequence:
#
# PCOD9107978 Si02
#       8
#     2   2   2   2   2   2   2   2
#     4  11  23  42  61  92 130 159 201 273 307 368
#     4   9  19  41  61  88 128 160 207 257 298 378
#     4  10  22  38  63  94 126 156 216 252 314 374
#     4   8  20  40  62  89 127 163 204 252 316 364
#     4  10  20  40  66  93 120 170 208 255 310 382
#     4  12  22  40  63  91 120 167 209 247 315 373
#     4  11  24  41  63  91 124 162 211 254 316 376
#     4   9  19  39  62  87 126 159 203 257 303 358
#
# _framework density 24.633607999999999
#
# number of rings (size 3 to 8) (size 9 to 14) (size 15 to 20)
#    0.750    1.250    1.250    1.875    1.750    1.000 
#    4.500    3.750    0.000    0.000    0.000    0.000 
#    0.000    0.000    0.000    0.000    0.000    0.000 
#
# Total GULP energy -89240.344830 kJ/mol
# GULP energy per Si atom -5577.521552 kJ/mol
# Density = 2.457754 g / cm^3
# Si number density = 24.633608 Si / 1000 Ang^3
#
#
#
# Elastic Constant Matrix: (Units=GPa)
#
#
# Indices 1 2 3 4 5 6 
#
# 1 41.3552 16.9128 18.0601 -8.9301 15.6847 -4.1863
# 2 16.9128 106.5747 36.8508 -45.1145 3.1041 6.0093
# 3 18.0601 36.8508 86.8726 -29.3058 16.2941 -13.2408
# 4 -8.9301 -45.1145 -29.3058 47.5216 -8.5638 11.8545
# 5 15.6847 3.1041 16.2941 -8.5638 34.6317 -16.9956
# 6 -4.1863 6.0093 -13.2408 11.8545 -16.9956 36.3501
#
#
#
# Elastic Compliance Matrix: (Units=1/GPa)
#
#
# Indices 1 2 3 4 5 6 
#
# 1 0.032129 -0.004113 -0.003252 -0.001738 -0.014582 -0.003055
# 2 -0.004113 0.019535 -0.002870 0.018778 0.000999 -0.010405
# 3 -0.003252 -0.002870 0.016259 0.005424 -0.003233 0.002742
# 4 -0.001738 0.018778 0.005424 0.045951 -0.000119 -0.016370
# 5 -0.014582 0.000999 -0.003233 -0.000119 0.045964 0.018507
# 6 -0.003055 -0.010405 0.002742 -0.016370 0.018507 0.043869
#
#
# Mechanical properties :
#
#
# Convention : Reuss Voigt Hill
#
# Bulk Modulus (GPa) = 21.07367 42.04999 31.56183
# Shear Modulus (GPa) = 20.83396 34.56593 27.69994
#
# Velocity S-wave (km/s) = 2.91134 3.75000 3.35696
# Velocity P-wave (km/s) = 4.45809 5.98809 5.27882
#
# Compressibility (1/GPa) = 0.04745258
#
# Stress axis : x y z
#
# Youngs Moduli (GPa) = 31.12491 51.19022 61.50579
#
# Poissons Ratio (x) = 0.21055 0.19999
# Poissons Ratio (y) = 0.12802 0.17654
# Poissons Ratio (z) = 0.10120 0.14693
#
# Static dielectric constant tensor:
#      x y z
#    x 2.123330 0.045470 -0.025870 
#    y 0.045470 1.968070 -0.035620 
#    z -0.025870 -0.035620 2.018680 
# 
# From -- ./inp_files/223908.got.cif
#   From: 2010.05.17/outbox.cif.g08.bks.cpg/sg2_112_cif.got.tgz:223908.got - 2010.06.03 11:33:40.
