data_PCOD9107308
_publ_section_title
;
Structure prediction by ZEFSAII (Michael W. Deem and Ramdas Pophale) SiO2 
 PCOD9107308
Probable space group: P -1
;
_chemical_formula_sum "Si O2"
_cell_formula_units_Z 15
_cell_length_a 10.439545
_cell_length_b 11.340753
_cell_length_c 12.310610
_cell_angle_alpha 129.280484
_cell_angle_beta 144.727953
_cell_angle_gamma 45.548497
_cell_volume 594.100063
_symmetry_space_group_name_H-M "P -1"
_symmetry_group_IT_number 2
_symmetry_cell_setting 'triclinic'
loop_
_space_group_symop_operation_xyz
x,y,z
-x,-y,-z
loop_
_atom_site_type_symbol
_atom_site_label
_atom_site_fract_x
_atom_site_fract_y
_atom_site_fract_z
Si Si1 0.052532 0.811322 0.351379
Si Si2 0.500000 0.000000 0.000000
Si Si3 0.210376 0.327569 0.348206
Si Si4 0.297717 0.842978 0.321322
Si Si5 0.758095 0.562584 0.797428
Si Si6 0.314634 0.663161 0.025970
Si Si7 0.247233 0.676596 0.620030
Si Si8 0.788129 0.101601 0.077862
O O1 0.186217 0.860002 0.374804
O O2 0.212090 0.610410 0.336678
O O3 0.091378 0.827269 0.515953
O O4 0.769637 0.875415 0.166229
O O5 0.356534 0.980124 0.998865
O O6 0.426006 0.185425 0.481040
O O7 0.260764 0.318727 0.247875
O O8 0.197209 0.510302 0.481096
O O9 0.952443 0.322658 0.176876
O O10 0.334970 0.678883 0.178720
O O11 0.069229 0.981572 0.183291
O O12 0.522039 0.641974 0.754314
O O13 0.000000 0.500000 0.000000
O O14 0.344616 0.817431 0.077825
O O15 0.500000 0.500000 0.000000
O O16 0.210405 0.750209 0.757098
#
# Coordination Sequence:
#
# PCOD9107308 Si02
#       8
#     2   1   2   2   2   2   2   2
#     4  10  20  40  64 104 136 181 229 289 349 421
#     4  10  24  42  68  98 148 182 232 290 364 420
#     4  11  24  45  73 103 141 191 239 300 358 414
#     4  11  23  49  70 100 144 187 242 290 356 430
#     4  11  20  36  71 103 139 183 236 296 353 413
#     4  12  29  47  74 104 140 193 245 295 354 433
#     4  11  22  42  73 108 146 180 240 297 356 426
#     4  11  27  47  68 107 143 188 239 291 361 434
#
# _framework density 25.248273000000001
#
# number of rings (size 3 to 8) (size 9 to 14) (size 15 to 20)
#    0.000    1.067    2.667    3.600    5.600    5.867 
#    7.200    0.000    0.000    0.000    0.000    0.000 
#    0.000    0.000    0.000    0.000    0.000    0.000 
#
# Total GULP energy -83611.965961 kJ/mol
# GULP energy per Si atom -5574.131064 kJ/mol
# Density = 2.519081 g / cm^3
# Si number density = 25.248273 Si / 1000 Ang^3
#
#
#
# Elastic Constant Matrix: (Units=GPa)
#
#
# Indices 1 2 3 4 5 6 
#
# 1 106.7038 39.8385 35.0122 0.5585 -0.0995 -19.3797
# 2 39.8385 76.6930 29.6625 -24.3316 -3.4673 -23.6929
# 3 35.0122 29.6625 108.4649 -31.1498 16.0466 -26.4601
# 4 0.5585 -24.3316 -31.1498 58.4493 -12.1728 -1.9605
# 5 -0.0995 -3.4673 16.0466 -12.1728 42.5316 -5.7461
# 6 -19.3797 -23.6929 -26.4601 -1.9605 -5.7461 45.4392
#
#
#
# Elastic Compliance Matrix: (Units=1/GPa)
#
#
# Indices 1 2 3 4 5 6 
#
# 1 0.013316 -0.007432 -0.003933 -0.005507 -0.000778 -0.000822
# 2 -0.007432 0.024326 0.001217 0.012629 0.006690 0.011614
# 3 -0.003933 0.001217 0.014664 0.008181 -0.002076 0.007587
# 4 -0.005507 0.012629 0.008181 0.028753 0.007674 0.011211
# 5 -0.000778 0.006690 -0.002076 0.007674 0.027818 0.005797
# 6 -0.000822 0.011614 0.007587 0.011211 0.005797 0.033347
#
#
# Mechanical properties :
#
#
# Convention : Reuss Voigt Hill
#
# Bulk Modulus (GPa) = 31.24084 55.65423 43.44753
# Shear Modulus (GPa) = 28.87018 41.77391 35.32205
#
# Velocity S-wave (km/s) = 3.38516 4.07200 3.74436
# Velocity P-wave (km/s) = 5.26113 6.64822 5.99493
#
# Compressibility (1/GPa) = 0.03200939
#
# Stress axis : x y z
#
# Youngs Moduli (GPa) = 75.09928 41.10836 68.19596
#
# Poissons Ratio (x) = 0.30552 0.26819
# Poissons Ratio (y) = 0.55814 -0.08298
# Poissons Ratio (z) = 0.29534 -0.05002
#
# Static dielectric constant tensor:
#      x y z
#    x 1.968440 0.032650 -0.093990 
#    y 0.032650 2.161030 0.148630 
#    z -0.093990 0.148630 2.117620 
# 
# From -- ./inp_files/244090.got.cif
#   From: 2010.05.17/outbox.cif.g08.bks.cpg/sg2_123_cif.got.tgz:244090.got - 2010.06.03 11:33:40.
