data_PCOD9107881
_publ_section_title
;
Structure prediction by ZEFSAII (Michael W. Deem and Ramdas Pophale) SiO2 
 PCOD9107881
Probable space group: P -1
;
_chemical_formula_sum "Si O2"
_cell_formula_units_Z 15
_cell_length_a 14.632768
_cell_length_b 8.286672
_cell_length_c 14.853601
_cell_angle_alpha 93.711442
_cell_angle_beta 153.553212
_cell_angle_gamma 71.726180
_cell_volume 654.839183
_symmetry_space_group_name_H-M "P -1"
_symmetry_group_IT_number 2
_symmetry_cell_setting 'triclinic'
loop_
_space_group_symop_operation_xyz
x,y,z
-x,-y,-z
loop_
_atom_site_type_symbol
_atom_site_label
_atom_site_fract_x
_atom_site_fract_y
_atom_site_fract_z
Si Si1 0.896484 0.715629 0.095576
Si Si2 0.573564 0.499303 0.167638
Si Si3 0.500000 0.000000 0.000000
Si Si4 0.787687 0.981369 0.854080
Si Si5 0.962403 0.576111 0.341714
Si Si6 0.954270 0.223050 0.236482
Si Si7 0.225880 0.271805 0.318175
Si Si8 0.646353 0.119887 0.306384
O O1 0.007775 0.661692 0.292813
O O2 0.064268 0.508175 0.183900
O O3 0.872509 0.892035 0.025826
O O4 0.609954 0.786494 0.859772
O O5 0.817120 0.494704 0.397260
O O6 0.639609 0.299299 0.264384
O O7 0.500000 0.500000 0.000000
O O8 0.337956 0.688023 0.017185
O O9 0.300028 0.236213 0.850117
O O10 0.350181 0.011143 0.775914
O O11 0.764361 0.823510 0.771787
O O12 0.504843 0.178047 0.600661
O O13 0.000000 0.000000 0.000000
O O14 0.956548 0.394988 0.296704
O O15 0.082718 0.210352 0.255483
O O16 0.116541 0.021681 0.426867
#
# Coordination Sequence:
#
# PCOD9107881 Si02
#       8
#     2   2   1   2   2   2   2   2
#     4  10  21  47  66  93 135 178 211 267 336 395
#     4  12  26  43  65 102 127 172 232 273 321 389
#     4  10  20  40  66  88 128 172 214 270 324 378
#     4  11  24  41  69 104 128 168 220 273 326 393
#     4  10  24  43  67  96 130 176 227 268 332 390
#     4  11  23  46  67  92 138 177 213 276 330 392
#     4  10  22  43  68  97 136 173 213 266 336 394
#     4  11  23  42  67  92 131 177 218 266 337 386
#
# _framework density 22.906385
#
# number of rings (size 3 to 8) (size 9 to 14) (size 15 to 20)
#    0.000    1.333    5.333    1.200    1.867    6.933 
#    2.400    0.000    0.000    0.000    0.000    0.000 
#    0.000    0.000    0.000    0.000    0.000    0.000 
#
# Total GULP energy -83680.854728 kJ/mol
# GULP energy per Si atom -5578.723649 kJ/mol
# Density = 2.285425 g / cm^3
# Si number density = 22.906385 Si / 1000 Ang^3
#
#
#
# Elastic Constant Matrix: (Units=GPa)
#
#
# Indices 1 2 3 4 5 6 
#
# 1 73.9082 17.6707 29.9358 -13.2269 -7.0087 25.7635
# 2 17.6707 60.9251 32.1167 -20.9253 3.0740 -4.7546
# 3 29.9358 32.1167 123.0240 -13.1462 -8.4132 11.6668
# 4 -13.2269 -20.9253 -13.1462 36.8815 6.5055 -0.2782
# 5 -7.0087 3.0740 -8.4132 6.5055 37.5212 -4.0194
# 6 25.7635 -4.7546 11.6668 -0.2782 -4.0194 37.5459
#
#
#
# Elastic Compliance Matrix: (Units=1/GPa)
#
#
# Indices 1 2 3 4 5 6 
#
# 1 0.021456 -0.005152 -0.001986 0.003637 0.001797 -0.014539
# 2 -0.005152 0.025670 -0.005308 0.011847 -0.005459 0.007939
# 3 -0.001986 -0.005308 0.010317 -0.000454 0.002211 -0.002282
# 4 0.003637 0.011847 -0.000454 0.036169 -0.006805 -0.001315
# 5 0.001797 -0.005459 0.002211 -0.006805 0.029159 0.000460
# 6 -0.014539 0.007939 -0.002282 -0.001315 0.000460 0.038364
#
#
# Mechanical properties :
#
#
# Convention : Reuss Voigt Hill
#
# Bulk Modulus (GPa) = 30.72129 46.36709 38.54419
# Shear Modulus (GPa) = 25.39655 34.26532 29.83094
#
# Velocity S-wave (km/s) = 3.33334 3.87186 3.61265
# Velocity P-wave (km/s) = 5.31561 6.34621 5.85363
#
# Compressibility (1/GPa) = 0.03255071
#
# Stress axis : x y z
#
# Youngs Moduli (GPa) = 46.60750 38.95565 96.93201
#
# Poissons Ratio (x) = 0.20072 0.19246
# Poissons Ratio (y) = 0.24014 0.51451
# Poissons Ratio (z) = 0.09254 0.20677
#
# Static dielectric constant tensor:
#      x y z
#    x 1.925880 0.005910 -0.001380 
#    y 0.005910 1.812220 0.022320 
#    z -0.001380 0.022320 1.838420 
# 
# From -- ./inp_files/529819.got.cif
#   From: 2010.05.17/outbox.cif.g08.bks.cpg/sg2_265_cif.got.tgz:529819.got - 2010.06.03 11:33:40.
