data_PCOD9107654
_publ_section_title
;
Structure prediction by ZEFSAII (Michael W. Deem and Ramdas Pophale) SiO2 
 PCOD9107654
Probable space group: P -1
;
_chemical_formula_sum "Si O2"
_cell_formula_units_Z 16
_cell_length_a 9.327325
_cell_length_b 8.735566
_cell_length_c 12.400256
_cell_angle_alpha 97.518406
_cell_angle_beta 56.937124
_cell_angle_gamma 113.971121
_cell_volume 768.268742
_symmetry_space_group_name_H-M "P -1"
_symmetry_group_IT_number 2
_symmetry_cell_setting 'triclinic'
loop_
_space_group_symop_operation_xyz
x,y,z
-x,-y,-z
loop_
_atom_site_type_symbol
_atom_site_label
_atom_site_fract_x
_atom_site_fract_y
_atom_site_fract_z
Si Si1 0.120167 0.567398 0.348029
Si Si2 0.884460 0.887222 0.897272
Si Si3 0.391546 0.698524 0.780118
Si Si4 0.258768 0.952417 0.355173
Si Si5 0.104038 0.064312 0.630270
Si Si6 0.394532 0.400762 0.138937
Si Si7 0.042447 0.761735 0.008571
Si Si8 0.826785 0.583009 0.297389
O O1 0.251889 0.766105 0.326261
O O2 0.245258 0.467214 0.254317
O O3 0.000000 0.500000 0.500000
O O4 0.973251 0.551231 0.311998
O O5 0.716653 0.786241 0.878371
O O6 0.860413 0.040842 0.980493
O O7 0.063672 0.973848 0.754130
O O8 0.913858 0.762794 0.960363
O O9 0.468379 0.601693 0.823817
O O10 0.342701 0.590518 0.680162
O O11 0.546781 0.889111 0.727626
O O12 0.199689 0.700837 0.902346
O O13 0.094322 0.956819 0.344266
O O14 0.195447 0.978317 0.503316
O O15 0.215137 0.265490 0.618228
O O16 0.500000 0.500000 0.000000
O O17 0.930216 0.662930 0.149525
#
# Coordination Sequence:
#
# PCOD9107654 Si02
#       8
#     2   2   2   2   2   2   2   2
#     4  11  25  46  69  91 129 181 220 256 327 409
#     4  10  20  40  65  90 125 176 214 256 319 398
#     4  12  24  39  65 100 132 161 217 276 324 371
#     4  10  22  40  66  94 127 166 218 268 317 384
#     4   9  19  41  65  88 124 175 216 251 327 393
#     4  12  25  39  65  98 134 165 219 276 322 373
#     4  10  22  39  65  93 132 170 212 260 330 393
#     4  10  22  42  66  91 128 174 208 262 328 395
#
# _framework density 20.826046999999999
#
# number of rings (size 3 to 8) (size 9 to 14) (size 15 to 20)
#    0.000    1.500    1.250    3.375    5.250    1.000 
#    0.000    1.250    0.000    0.000    0.000    0.000 
#    0.000    0.000    0.000    0.000    0.000    0.000 
#
# Total GULP energy -89410.989448 kJ/mol
# GULP energy per Si atom -5588.186840 kJ/mol
# Density = 2.077865 g / cm^3
# Si number density = 20.826047 Si / 1000 Ang^3
#
#
#
# Elastic Constant Matrix: (Units=GPa)
#
#
# Indices 1 2 3 4 5 6 
#
# 1 81.0204 30.2239 17.7749 9.3508 22.7585 1.2000
# 2 30.2239 93.5935 4.8546 2.4211 9.2461 32.0612
# 3 17.7749 4.8546 63.9784 -0.6231 19.0705 0.0865
# 4 9.3508 2.4211 -0.6231 33.7091 0.6134 9.2011
# 5 22.7585 9.2461 19.0705 0.6134 24.5683 -4.8819
# 6 1.2000 32.0612 0.0865 9.2011 -4.8819 27.2759
#
#
#
# Elastic Compliance Matrix: (Units=1/GPa)
#
#
# Indices 1 2 3 4 5 6 
#
# 1 0.019707 -0.007732 -0.001222 -0.006979 -0.012568 0.008331
# 2 -0.007732 0.026903 0.004482 0.010780 -0.014155 -0.037467
# 3 -0.001222 0.004482 0.021407 0.003462 -0.019223 -0.009891
# 4 -0.006979 0.010780 0.003462 0.038224 -0.006486 -0.026430
# 5 -0.012568 -0.014155 -0.019223 -0.006486 0.079445 0.033660
# 6 0.008331 -0.037467 -0.009891 -0.026430 0.033660 0.095308
#
#
# Mechanical properties :
#
#
# Convention : Reuss Voigt Hill
#
# Bulk Modulus (GPa) = 16.92806 38.25546 27.59176
# Shear Modulus (GPa) = 16.14834 29.49325 22.82079
#
# Velocity S-wave (km/s) = 2.78761 3.76729 3.31385
# Velocity P-wave (km/s) = 4.30197 6.11001 5.28390
#
# Compressibility (1/GPa) = 0.05907353
#
# Stress axis : x y z
#
# Youngs Moduli (GPa) = 50.74221 37.17012 46.71421
#
# Poissons Ratio (x) = 0.28741 0.05706
# Poissons Ratio (y) = 0.39236 -0.20937
# Poissons Ratio (z) = 0.06198 -0.16659
#
# Static dielectric constant tensor:
#      x y z
#    x 1.716480 0.026300 -0.010010 
#    y 0.026300 1.831970 -0.093200 
#    z -0.010010 -0.093200 1.813520 
# 
# From -- ./inp_files/224340.got.cif
#   From: 2010.05.17/outbox.cif.g08.bks.cpg/sg2_113_cif.got.tgz:224340.got - 2010.06.03 11:33:40.
