data_PCOD9107744
_publ_section_title
;
Structure prediction by ZEFSAII (Michael W. Deem and Ramdas Pophale) SiO2 
 PCOD9107744
Probable space group: P -1
;
_chemical_formula_sum "Si O2"
_cell_formula_units_Z 10
_cell_length_a 5.258283
_cell_length_b 6.414144
_cell_length_c 14.929666
_cell_angle_alpha 127.993836
_cell_angle_beta 78.900583
_cell_angle_gamma 94.405375
_cell_volume 388.838018
_symmetry_space_group_name_H-M "P -1"
_symmetry_group_IT_number 2
_symmetry_cell_setting 'triclinic'
loop_
_space_group_symop_operation_xyz
x,y,z
-x,-y,-z
loop_
_atom_site_type_symbol
_atom_site_label
_atom_site_fract_x
_atom_site_fract_y
_atom_site_fract_z
Si Si1 0.085297 0.907824 0.370932
Si Si2 0.983656 0.699096 0.786548
Si Si3 0.169819 0.351887 0.023712
Si Si4 0.230189 0.656620 0.578588
Si Si5 0.409586 0.896933 0.181858
O O1 0.123219 0.594343 0.294528
O O2 0.328727 0.985568 0.312176
O O3 0.000000 0.000000 0.500000
O O4 0.842321 0.040576 0.366641
O O5 0.996813 0.723691 0.899094
O O6 0.213333 0.665699 0.689904
O O7 0.787782 0.926746 0.820178
O O8 0.352399 0.583495 0.105449
O O9 0.325612 0.118370 0.897680
O O10 0.000000 0.500000 0.000000
O O11 0.500000 0.500000 0.500000
O O12 0.000000 0.500000 0.500000
#
# Coordination Sequence:
#
# PCOD9107744 Si02
#       5
#     2   2   2   2   2
#     4  10  20  40  65  94 129 173 215 268 329 393
#     4  10  21  42  62  94 127 169 215 268 332 390
#     4  10  21  40  62  90 122 166 218 270 326 387
#     4  11  24  44  66  97 134 174 221 270 329 396
#     4   9  21  39  60  89 127 162 216 267 324 393
#
# _framework density 25.717652000000001
#
# number of rings (size 3 to 8) (size 9 to 14) (size 15 to 20)
#    0.000    2.000    2.000    0.600    0.000    3.200 
#   25.200    0.000    0.000    0.000    0.000    0.000 
#    0.000    0.000    0.000    0.000    0.000    0.000 
#
# Total GULP energy -55731.683748 kJ/mol
# GULP energy per Si atom -5573.168375 kJ/mol
# Density = 2.565912 g / cm^3
# Si number density = 25.717652 Si / 1000 Ang^3
#
#
#
# Elastic Constant Matrix: (Units=GPa)
#
#
# Indices 1 2 3 4 5 6 
#
# 1 91.3228 19.2337 69.5529 -12.7571 -42.2770 -19.0332
# 2 19.2337 136.7114 78.7718 -41.1937 -26.2938 -2.5448
# 3 69.5529 78.7718 278.5321 -55.7636 -46.4612 3.4634
# 4 -12.7571 -41.1937 -55.7636 87.1090 13.8605 0.7709
# 5 -42.2770 -26.2938 -46.4612 13.8605 61.3369 11.8913
# 6 -19.0332 -2.5448 3.4634 0.7709 11.8913 22.9542
#
#
#
# Elastic Compliance Matrix: (Units=1/GPa)
#
#
# Indices 1 2 3 4 5 6 
#
# 1 0.021020 0.001416 -0.004398 -0.000667 0.009307 0.013451
# 2 0.001416 0.009768 -0.002065 0.003066 0.002699 0.001068
# 3 -0.004398 -0.002065 0.005948 0.002047 0.001184 -0.005455
# 4 -0.000667 0.003066 0.002047 0.014258 -0.000693 -0.000642
# 5 0.009307 0.002699 0.001184 -0.000693 0.026018 -0.005617
# 6 0.013451 0.001068 -0.005455 -0.000642 -0.005617 0.058591
#
#
# Mechanical properties :
#
#
# Convention : Reuss Voigt Hill
#
# Bulk Modulus (GPa) = 37.53509 93.52036 65.52772
# Shear Modulus (GPa) = 32.34621 56.88057 44.61339
#
# Velocity S-wave (km/s) = 3.55032 4.70801 4.16954
# Velocity P-wave (km/s) = 5.60652 8.12385 6.97962
#
# Compressibility (1/GPa) = 0.02664174
#
# Stress axis : x y z
#
# Youngs Moduli (GPa) = 47.57314 102.37200 168.13665
#
# Poissons Ratio (x) = -0.14497 0.73943
# Poissons Ratio (y) = -0.06737 0.34728
# Poissons Ratio (z) = 0.20922 0.21144
#
# Static dielectric constant tensor:
#      x y z
#    x 2.211790 0.201590 0.080990 
#    y 0.201590 2.050260 0.008160 
#    z 0.080990 0.008160 2.087890 
# 
# From -- ./inp_files/2503.got.cif
#   From: 2010.05.17/outbox.cif.g08.bks.cpg/sg2_2_cif.got.tgz:2503.got - 2010.06.03 11:33:40.
