data_PCOD9107176
_publ_section_title
;
Structure prediction by ZEFSAII (Michael W. Deem and Ramdas Pophale) SiO2 
 PCOD9107176
Probable space group: P -1
;
_chemical_formula_sum "Si O2"
_cell_formula_units_Z 16
_cell_length_a 16.615933
_cell_length_b 9.666212
_cell_length_c 9.859466
_cell_angle_alpha 74.943682
_cell_angle_beta 77.956963
_cell_angle_gamma 135.470588
_cell_volume 872.392249
_symmetry_space_group_name_H-M "P -1"
_symmetry_group_IT_number 2
_symmetry_cell_setting 'triclinic'
loop_
_space_group_symop_operation_xyz
x,y,z
-x,-y,-z
loop_
_atom_site_type_symbol
_atom_site_label
_atom_site_fract_x
_atom_site_fract_y
_atom_site_fract_z
Si Si1 0.339210 0.894088 0.978629
Si Si2 0.893495 0.217817 0.468598
Si Si3 0.055227 0.442158 0.075995
Si Si4 0.341509 0.326146 0.256911
Si Si5 0.895341 0.547721 0.421978
Si Si6 0.662299 0.356246 0.730951
Si Si7 0.951314 0.092663 0.979423
Si Si8 0.331660 0.212159 0.976851
O O1 0.497625 0.123622 0.807293
O O2 0.307383 0.005673 0.026268
O O3 0.223457 0.690852 0.959919
O O4 0.328229 0.755869 0.131642
O O5 0.844238 0.311750 0.481602
O O6 0.000122 0.367660 0.267441
O O7 0.979801 0.288333 0.552381
O O8 0.764788 0.928560 0.563413
O O9 0.990560 0.218888 0.075992
O O10 0.000000 0.500000 0.000000
O O11 0.307777 0.445190 0.266119
O O12 0.505096 0.532830 0.185961
O O13 0.323221 0.258315 0.122025
O O14 0.771722 0.470766 0.546053
O O15 0.960286 0.701822 0.222163
O O16 0.787996 0.883260 0.048051
O O17 0.000000 0.000000 0.000000
#
# Coordination Sequence:
#
# PCOD9107176 Si02
#       8
#     2   2   2   2   2   2   2   2
#     4  10  20  40  63  90 124 165 206 251 307 367
#     4  11  22  39  67  91 120 164 213 252 298 373
#     4  12  23  42  65  90 123 170 205 243 312 378
#     4  10  22  36  65  94 122 159 209 260 304 355
#     4  11  22  41  63  92 123 162 210 257 303 359
#     4  10  22  36  63  96 124 155 208 265 300 353
#     4  12  27  42  63  92 131 163 202 259 313 365
#     4  10  20  42  61  89 126 166 205 251 309 367
#
# _framework density 18.340373
#
# number of rings (size 3 to 8) (size 9 to 14) (size 15 to 20)
#    0.000    1.250    5.000    0.750    3.500    1.500 
#    0.000    2.500    0.000    0.000    0.000    0.000 
#    0.000    0.000    0.000    0.000    0.000    0.000 
#
# Total GULP energy -89329.362820 kJ/mol
# GULP energy per Si atom -5583.085176 kJ/mol
# Density = 1.829863 g / cm^3
# Si number density = 18.340373 Si / 1000 Ang^3
#
#
#
# Elastic Constant Matrix: (Units=GPa)
#
#
# Indices 1 2 3 4 5 6 
#
# 1 123.3485 61.7652 14.4766 -8.2089 -9.3082 -5.6964
# 2 61.7652 112.9386 6.5405 -14.2100 -8.6996 2.4957
# 3 14.4766 6.5405 46.3602 -10.6725 -6.5528 -2.2121
# 4 -8.2089 -14.2100 -10.6725 30.7166 -4.8886 -0.0234
# 5 -9.3082 -8.6996 -6.5528 -4.8886 27.7401 2.0036
# 6 -5.6964 2.4957 -2.2121 -0.0234 2.0036 34.0989
#
#
#
# Elastic Compliance Matrix: (Units=1/GPa)
#
#
# Indices 1 2 3 4 5 6 
#
# 1 0.011709 -0.006280 -0.002631 -0.000515 0.001090 0.002181
# 2 -0.006280 0.013218 0.001803 0.005636 0.003609 -0.002108
# 3 -0.002631 0.001803 0.025575 0.010207 0.007476 0.000655
# 4 -0.000515 0.005636 0.010207 0.040346 0.011149 -0.000464
# 5 0.001090 0.003609 0.007476 0.011149 0.041423 -0.002024
# 6 0.002181 -0.002108 0.000655 -0.000464 -0.002024 0.030006
#
#
# Mechanical properties :
#
#
# Convention : Reuss Voigt Hill
#
# Bulk Modulus (GPa) = 27.55811 49.80133 38.67972
# Shear Modulus (GPa) = 26.51251 31.83545 29.17398
#
# Velocity S-wave (km/s) = 3.80621 4.17083 3.99268
# Velocity P-wave (km/s) = 5.86300 7.09981 6.51084
#
# Compressibility (1/GPa) = 0.03628696
#
# Stress axis : x y z
#
# Youngs Moduli (GPa) = 85.40138 75.65199 39.10050
#
# Poissons Ratio (x) = 0.47513 0.10287
# Poissons Ratio (y) = 0.53636 -0.07051
# Poissons Ratio (z) = 0.22468 -0.13643
#
# Static dielectric constant tensor:
#      x y z
#    x 1.620500 0.015550 -0.015570 
#    y 0.015550 1.600400 -0.015840 
#    z -0.015570 -0.015840 1.617180 
# 
# From -- ./inp_files/259859.got.cif
#   From: 2010.05.17/outbox.cif.g08.bks.cpg/sg2_130_cif.got.tgz:259859.got - 2010.06.03 11:33:40.
