data_PCOD9107198
_publ_section_title
;
Structure prediction by ZEFSAII (Michael W. Deem and Ramdas Pophale) SiO2 
 PCOD9107198
Probable space group: P -1
;
_chemical_formula_sum "Si O2"
_cell_formula_units_Z 14
_cell_length_a 10.253184
_cell_length_b 10.196553
_cell_length_c 10.352184
_cell_angle_alpha 120.824027
_cell_angle_beta 76.912378
_cell_angle_gamma 137.358344
_cell_volume 608.163127
_symmetry_space_group_name_H-M "P -1"
_symmetry_group_IT_number 2
_symmetry_cell_setting 'triclinic'
loop_
_space_group_symop_operation_xyz
x,y,z
-x,-y,-z
loop_
_atom_site_type_symbol
_atom_site_label
_atom_site_fract_x
_atom_site_fract_y
_atom_site_fract_z
Si Si1 0.073459 0.784935 0.162885
Si Si2 0.708767 0.753244 0.536839
Si Si3 0.055886 0.583274 0.324785
Si Si4 0.288148 0.157591 0.932568
Si Si5 0.717333 0.148952 0.074490
Si Si6 0.883345 0.064504 0.409413
Si Si7 0.730121 0.518961 0.906959
O O1 0.056947 0.700782 0.264083
O O2 0.224202 0.053671 0.284514
O O3 0.162823 0.731570 0.023879
O O4 0.869088 0.651762 0.069960
O O5 0.500000 0.500000 0.500000
O O6 0.892458 0.789419 0.523027
O O7 0.732225 0.850300 0.436165
O O8 0.136213 0.767093 0.506571
O O9 0.186096 0.544691 0.236272
O O10 0.825021 0.336417 0.256275
O O11 0.507750 0.306777 0.901670
O O12 0.248176 0.995795 0.964720
O O13 0.148434 0.021553 0.771196
O O14 0.271931 0.314230 0.070620
O O15 0.500000 0.000000 0.000000
#
# Coordination Sequence:
#
# PCOD9107198 Si02
#       7
#     2   2   2   2   2   2   2
#     4  10  20  40  63  91 126 167 219 265 319 387
#     4  10  22  41  68  95 132 178 218 263 322 393
#     4  10  22  40  64  88 128 173 210 270 325 379
#     4  11  23  40  65  94 129 171 214 269 331 381
#     4  11  23  38  64  94 124 166 219 268 318 396
#     4  10  23  44  63  97 135 171 217 270 324 385
#     4  10  21  40  60  90 128 167 207 266 328 377
#
# _framework density 23.020140999999999
#
# number of rings (size 3 to 8) (size 9 to 14) (size 15 to 20)
#    0.000    1.714    1.429    3.429    2.000    5.714 
#    5.143    0.000    0.000    0.000    0.000    0.000 
#    0.000    0.000    0.000    0.000    0.000    0.000 
#
# Total GULP energy -78124.986954 kJ/mol
# GULP energy per Si atom -5580.356211 kJ/mol
# Density = 2.296775 g / cm^3
# Si number density = 23.020141 Si / 1000 Ang^3
#
#
#
# Elastic Constant Matrix: (Units=GPa)
#
#
# Indices 1 2 3 4 5 6 
#
# 1 90.9294 35.5751 25.2797 14.6555 -9.8019 9.3770
# 2 35.5751 103.6963 25.7088 20.2124 0.5412 0.3770
# 3 25.2797 25.7088 82.1970 12.6221 -25.2370 -5.8561
# 4 14.6555 20.2124 12.6221 33.3876 -13.3878 -0.9294
# 5 -9.8019 0.5412 -25.2370 -13.3878 30.8259 0.9932
# 6 9.3770 0.3770 -5.8561 -0.9294 0.9932 24.3494
#
#
#
# Elastic Compliance Matrix: (Units=1/GPa)
#
#
# Indices 1 2 3 4 5 6 
#
# 1 0.014495 -0.003711 -0.002939 -0.002653 0.001321 -0.006387
# 2 -0.003711 0.013755 -0.004562 -0.008523 -0.008863 0.000155
# 3 -0.002939 -0.004562 0.019358 0.003421 0.016308 0.005324
# 4 -0.002653 -0.008523 0.003421 0.043432 0.020880 0.002783
# 5 0.001321 -0.008863 0.016308 0.020880 0.055368 0.002089
# 6 -0.006387 0.000155 0.005324 0.002783 0.002089 0.044827
#
#
# Mechanical properties :
#
#
# Convention : Reuss Voigt Hill
#
# Bulk Modulus (GPa) = 39.70915 49.99443 44.85179
# Shear Modulus (GPa) = 22.51706 30.39652 26.45679
#
# Velocity S-wave (km/s) = 3.13093 3.63772 3.39379
# Velocity P-wave (km/s) = 5.50976 6.27764 5.90619
#
# Compressibility (1/GPa) = 0.02518311
#
# Stress axis : x y z
#
# Youngs Moduli (GPa) = 68.98863 72.70283 51.65891
#
# Poissons Ratio (x) = 0.26978 0.15184
# Poissons Ratio (y) = 0.25600 0.23568
# Poissons Ratio (z) = 0.20278 0.33169
#
# Static dielectric constant tensor:
#      x y z
#    x 1.981920 -0.015710 0.092250 
#    y -0.015710 1.941000 0.028880 
#    z 0.092250 0.028880 2.030080 
# 
# From -- ./inp_files/383226.got.cif
#   From: 2010.05.17/outbox.cif.g08.bks.cpg/sg2_192_cif.got.tgz:383226.got - 2010.06.03 11:33:40.
