data_PCOD9107385
_publ_section_title
;
Structure prediction by ZEFSAII (Michael W. Deem and Ramdas Pophale) SiO2 
 PCOD9107385
Probable space group: P -1
;
_chemical_formula_sum "Si O2"
_cell_formula_units_Z 16
_cell_length_a 27.131186
_cell_length_b 7.937301
_cell_length_c 9.356580
_cell_angle_alpha 69.420186
_cell_angle_beta 36.939824
_cell_angle_gamma 43.709188
_cell_volume 701.662093
_symmetry_space_group_name_H-M "P -1"
_symmetry_group_IT_number 2
_symmetry_cell_setting 'triclinic'
loop_
_space_group_symop_operation_xyz
x,y,z
-x,-y,-z
loop_
_atom_site_type_symbol
_atom_site_label
_atom_site_fract_x
_atom_site_fract_y
_atom_site_fract_z
Si Si1 0.401191 0.005336 0.201058
Si Si2 0.721705 0.846782 0.846206
Si Si3 0.635276 0.055192 0.283955
Si Si4 0.019802 0.823489 0.629701
Si Si5 0.855438 0.761824 0.094485
Si Si6 0.141538 0.089434 0.648187
Si Si7 0.415375 0.462993 0.871806
Si Si8 0.190883 0.652369 0.514158
O O1 0.388609 0.986129 0.069160
O O2 0.263043 0.337780 0.474109
O O3 0.475395 0.719096 0.199434
O O4 0.500000 0.000000 0.000000
O O5 0.843891 0.512161 0.620408
O O6 0.782364 0.940783 0.648648
O O7 0.678983 0.875410 0.095732
O O8 0.500666 0.219673 0.621534
O O9 0.614111 0.291877 0.197618
O O10 0.748440 0.876535 0.195090
O O11 0.050677 0.859483 0.700643
O O12 0.908666 0.863148 0.882431
O O13 0.000000 0.000000 0.500000
O O14 0.985934 0.409358 0.904502
O O15 0.811575 0.895404 0.317678
O O16 0.173772 0.824578 0.629725
O O17 0.287939 0.579438 0.192676
#
# Coordination Sequence:
#
# PCOD9107385 Si02
#       8
#     2   2   2   2   2   2   2   2
#     4   9  20  40  58  83 120 158 201 245 289 359
#     4  10  21  38  63  89 116 163 206 241 307 353
#     4  11  22  38  62  94 124 154 204 255 298 357
#     4  10  22  37  60  89 129 160 189 250 308 370
#     4  10  23  40  61  94 124 154 203 253 301 353
#     4  10  21  40  66  90 118 159 206 254 291 362
#     4  10  21  40  61  87 124 158 198 257 292 351
#     4  10  20  40  64  89 119 161 207 239 306 358
#
# _framework density 22.802997000000001
#
# number of rings (size 3 to 8) (size 9 to 14) (size 15 to 20)
#    0.000    2.000    1.250    1.500    1.750    3.000 
#   11.250    5.625    0.000    0.000    0.000    0.000 
#    0.000    0.000    0.000    0.000    0.000    0.000 
#
# Total GULP energy -89320.983243 kJ/mol
# GULP energy per Si atom -5582.561453 kJ/mol
# Density = 2.275110 g / cm^3
# Si number density = 22.802997 Si / 1000 Ang^3
#
#
#
# Elastic Constant Matrix: (Units=GPa)
#
#
# Indices 1 2 3 4 5 6 
#
# 1 107.8974 29.0174 32.8120 8.1720 16.5358 -12.0683
# 2 29.0174 108.0079 -6.1412 -3.1588 2.6289 -20.9159
# 3 32.8120 -6.1412 97.1711 -24.9159 14.8552 -5.4239
# 4 8.1720 -3.1588 -24.9159 24.3012 -4.2471 4.8991
# 5 16.5358 2.6289 14.8552 -4.2471 34.4502 2.5771
# 6 -12.0683 -20.9159 -5.4239 4.8991 2.5771 36.4057
#
#
#
# Elastic Compliance Matrix: (Units=1/GPa)
#
#
# Indices 1 2 3 4 5 6 
#
# 1 0.015651 -0.004250 -0.008686 -0.016558 -0.005790 0.004091
# 2 -0.004250 0.011819 0.004059 0.006035 -0.000257 0.005192
# 3 -0.008686 0.004059 0.019734 0.023515 -0.001702 -0.000651
# 4 -0.016558 0.006035 0.023515 0.074709 0.007237 -0.009084
# 5 -0.005790 -0.000257 -0.001702 0.007237 0.033878 -0.005692
# 6 0.004091 0.005192 -0.000651 -0.009084 -0.005692 0.033336
#
#
# Mechanical properties :
#
#
# Convention : Reuss Voigt Hill
#
# Bulk Modulus (GPa) = 33.95493 47.16142 40.55818
# Shear Modulus (GPa) = 23.07354 36.19063 29.63209
#
# Velocity S-wave (km/s) = 3.18443 3.98816 3.60874
# Velocity P-wave (km/s) = 5.33326 6.47567 5.93203
#
# Compressibility (1/GPa) = 0.02945080
#
# Stress axis : x y z
#
# Youngs Moduli (GPa) = 63.89252 84.60682 50.67381
#
# Poissons Ratio (x) = 0.35957 0.44014
# Poissons Ratio (y) = 0.27154 -0.20566
# Poissons Ratio (z) = 0.55495 -0.34338
#
# Static dielectric constant tensor:
#      x y z
#    x 1.890400 0.038330 0.000000 
#    y 0.038330 1.895660 -0.020340 
#    z 0.000000 -0.020340 1.934720 
# 
# From -- ./inp_files/216755.got.cif
#   From: 2010.05.17/outbox.cif.g08.bks.cpg/sg2_109_cif.got.tgz:216755.got - 2010.06.03 11:33:40.
