data_PCOD9107633
_publ_section_title
;
Structure prediction by ZEFSAII (Michael W. Deem and Ramdas Pophale) SiO2 
 PCOD9107633
Probable space group: P -1
;
_chemical_formula_sum "Si O2"
_cell_formula_units_Z 16
_cell_length_a 11.853187
_cell_length_b 12.084246
_cell_length_c 14.315863
_cell_angle_alpha 95.875051
_cell_angle_beta 20.290442
_cell_angle_gamma 89.239238
_cell_volume 670.920168
_symmetry_space_group_name_H-M "P -1"
_symmetry_group_IT_number 2
_symmetry_cell_setting 'triclinic'
loop_
_space_group_symop_operation_xyz
x,y,z
-x,-y,-z
loop_
_atom_site_type_symbol
_atom_site_label
_atom_site_fract_x
_atom_site_fract_y
_atom_site_fract_z
Si Si1 0.264225 0.232657 0.520034
Si Si2 0.766797 0.902832 0.986179
Si Si3 0.591906 0.277920 0.798179
Si Si4 0.395976 0.984085 0.473610
Si Si5 0.488457 0.651040 0.942795
Si Si6 0.562455 0.477461 0.711149
Si Si7 0.749311 0.547141 0.372312
Si Si8 0.651499 0.856918 0.747119
O O1 0.212225 0.117553 0.594209
O O2 0.402985 0.310517 0.488351
O O3 0.460628 0.189641 0.267767
O O4 0.909471 0.321959 0.768271
O O5 0.680238 0.785183 0.023596
O O6 0.675257 0.934894 0.169982
O O7 0.517924 0.004896 0.121375
O O8 0.140231 0.907659 0.670733
O O9 0.682236 0.346770 0.647371
O O10 0.939242 0.182674 0.559129
O O11 0.453980 0.374801 0.995236
O O12 0.500000 0.000000 0.500000
O O13 0.658784 0.559462 0.722116
O O14 0.545299 0.777350 0.897996
O O15 0.720254 0.497202 0.493248
O O16 0.145181 0.511925 0.028349
O O17 0.500000 0.500000 0.500000
#
# Coordination Sequence:
#
# PCOD9107633 Si02
#       8
#     2   2   2   2   2   2   2   2
#     4   9  20  40  62  92 124 166 214 263 304 392
#     4  11  25  43  63  98 130 166 219 261 317 387
#     4  11  26  38  64  98 138 168 202 273 322 378
#     4  11  24  43  68  93 124 170 218 269 322 369
#     4  10  20  40  65  89 129 176 209 248 320 393
#     4  11  25  43  63  98 130 166 219 261 317 387
#     4  11  24  43  68  93 124 170 218 269 322 369
#     4  10  20  40  65  89 129 176 209 248 320 393
#
# _framework density 23.847845
#
# number of rings (size 3 to 8) (size 9 to 14) (size 15 to 20)
#    0.000    1.500    2.500    1.500    3.500    3.000 
#    0.000    0.000    0.000    0.000    0.000    0.000 
#    0.000    0.000    0.000    0.000    0.000    0.000 
#
# Total GULP energy -89411.671411 kJ/mol
# GULP energy per Si atom -5588.229463 kJ/mol
# Density = 2.379357 g / cm^3
# Si number density = 23.847845 Si / 1000 Ang^3
#
#
#
# Elastic Constant Matrix: (Units=GPa)
#
#
# Indices 1 2 3 4 5 6 
#
# 1 71.4375 9.5251 14.0594 -7.6983 4.7723 3.3762
# 2 9.5251 74.7277 -0.6316 -22.1370 4.1742 11.3444
# 3 14.0594 -0.6316 74.4910 -19.8356 14.7039 -7.8570
# 4 -7.6983 -22.1370 -19.8356 32.6823 -9.2906 -1.8368
# 5 4.7723 4.1742 14.7039 -9.2906 21.3984 -11.9847
# 6 3.3762 11.3444 -7.8570 -1.8368 -11.9847 35.5557
#
#
#
# Elastic Compliance Matrix: (Units=1/GPa)
#
#
# Indices 1 2 3 4 5 6 
#
# 1 0.014987 -0.001361 -0.002528 0.000197 -0.002608 -0.002416
# 2 -0.001361 0.018583 0.004098 0.013544 -0.003213 -0.005278
# 3 -0.002528 0.004098 0.018552 0.011398 -0.007405 0.001125
# 4 0.000197 0.013544 0.011398 0.051360 0.015097 0.005921
# 5 -0.002608 -0.003213 -0.007405 0.015097 0.073737 0.025271
# 6 -0.002416 -0.005278 0.001125 0.005921 0.025271 0.039110
#
#
# Mechanical properties :
#
#
# Convention : Reuss Voigt Hill
#
# Bulk Modulus (GPa) = 19.03264 29.61801 24.32533
# Shear Modulus (GPa) = 21.42037 31.10750 26.26394
#
# Velocity S-wave (km/s) = 3.00027 3.61559 3.32220
# Velocity P-wave (km/s) = 4.47217 5.46594 4.99384
#
# Compressibility (1/GPa) = 0.05254131
#
# Stress axis : x y z
#
# Youngs Moduli (GPa) = 66.72536 53.81312 53.90328
#
# Poissons Ratio (x) = 0.07323 0.13625
# Poissons Ratio (y) = 0.09080 -0.22092
# Poissons Ratio (z) = 0.16867 -0.22055
#
# Static dielectric constant tensor:
#      x y z
#    x 1.930770 0.021520 0.010420 
#    y 0.021520 1.967710 0.039480 
#    z 0.010420 0.039480 1.951160 
# 
# From -- ./inp_files/71684.got.cif
#   From: 2010.05.17/outbox.cif.g08.bks.cpg/sg2_36_cif.got.tgz:71684.got - 2010.06.03 11:33:40.
