data_PCOD9107873
_publ_section_title
;
Structure prediction by ZEFSAII (Michael W. Deem and Ramdas Pophale) SiO2 
 PCOD9107873
Probable space group: P -1
;
_chemical_formula_sum "Si O2"
_cell_formula_units_Z 14
_cell_length_a 8.919906
_cell_length_b 19.594260
_cell_length_c 12.189719
_cell_angle_alpha 28.901601
_cell_angle_beta 39.550703
_cell_angle_gamma 31.169295
_cell_volume 530.871219
_symmetry_space_group_name_H-M "P -1"
_symmetry_group_IT_number 2
_symmetry_cell_setting 'triclinic'
loop_
_space_group_symop_operation_xyz
x,y,z
-x,-y,-z
loop_
_atom_site_type_symbol
_atom_site_label
_atom_site_fract_x
_atom_site_fract_y
_atom_site_fract_z
Si Si1 0.706829 0.790732 0.572073
Si Si2 0.153996 0.085691 0.339343
Si Si3 0.681905 0.290329 0.678817
Si Si4 0.727276 0.533606 0.767563
Si Si5 0.655915 0.246657 0.001580
Si Si6 0.386410 0.658324 0.587327
Si Si7 0.176935 0.168975 0.966125
O O1 0.815127 0.610134 0.704095
O O2 0.983675 0.791426 0.420065
O O3 0.460600 0.942999 0.419722
O O4 0.548989 0.794221 0.765969
O O5 0.160962 0.170624 0.105406
O O6 0.946356 0.227274 0.347926
O O7 0.000000 0.000000 0.500000
O O8 0.500000 0.500000 0.500000
O O9 0.677666 0.212878 0.906409
O O10 0.572257 0.275812 0.643042
O O11 0.542396 0.676435 0.576608
O O12 0.500000 0.500000 0.000000
O O13 0.995383 0.378067 0.766442
O O14 0.507520 0.455445 0.799134
O O15 0.954209 0.151873 0.039088
O O16 0.500000 0.000000 0.000000
#
# Coordination Sequence:
#
# PCOD9107873 Si02
#       7
#     2   2   2   2   2   2   2
#     4  12  22  40  73  92 125 180 217 264 331 390
#     4  12  20  37  66  97 122 163 224 263 325 387
#     4  10  25  43  61  95 133 170 221 269 320 392
#     4  11  18  41  69  96 125 172 222 266 327 393
#     4  10  20  43  63  90 134 168 217 266 321 394
#     4  10  20  40  66  87 133 168 208 277 313 384
#     4  11  21  37  62  97 135 161 206 291 325 366
#
# _framework density 26.371745000000001
#
# number of rings (size 3 to 8) (size 9 to 14) (size 15 to 20)
#    0.000    1.143    7.143    0.857    0.000    2.857 
#    5.143    5.000    0.000    0.000    0.000    0.000 
#    0.000    0.000    0.000    0.000    0.000    0.000 
#
# Total GULP energy -78309.816274 kJ/mol
# GULP energy per Si atom -5593.558305 kJ/mol
# Density = 2.631172 g / cm^3
# Si number density = 26.371745 Si / 1000 Ang^3
#
#
#
# Elastic Constant Matrix: (Units=GPa)
#
#
# Indices 1 2 3 4 5 6 
#
# 1 108.1550 46.3597 52.6474 17.7202 35.6931 -7.7348
# 2 46.3597 169.3155 33.9899 -8.8900 13.7951 -20.7617
# 3 52.6474 33.9899 119.4216 18.9403 42.0526 0.2708
# 4 17.7202 -8.8900 18.9403 46.6297 18.7989 8.2574
# 5 35.6931 13.7951 42.0526 18.7989 48.5119 7.7060
# 6 -7.7348 -20.7617 0.2708 8.2574 7.7060 48.3343
#
#
#
# Elastic Compliance Matrix: (Units=1/GPa)
#
#
# Indices 1 2 3 4 5 6 
#
# 1 0.014732 -0.002684 -0.002843 -0.002610 -0.007043 0.002789
# 2 -0.002684 0.007346 -0.001152 0.002685 -0.000530 0.002358
# 3 -0.002843 -0.001152 0.013179 -0.001095 -0.008668 0.000545
# 4 -0.002610 0.002685 -0.001095 0.027069 -0.007969 -0.002612
# 5 -0.007043 -0.000530 -0.008668 -0.007969 0.037489 -0.005922
# 6 0.002789 0.002358 0.000545 -0.002612 -0.005922 0.023536
#
#
# Mechanical properties :
#
#
# Convention : Reuss Voigt Hill
#
# Bulk Modulus (GPa) = 45.66330 73.65401 59.65865
# Shear Modulus (GPa) = 34.72029 46.28817 40.50423
#
# Velocity S-wave (km/s) = 3.63240 4.19408 3.92330
# Velocity P-wave (km/s) = 5.91145 7.17241 6.57224
#
# Compressibility (1/GPa) = 0.02189943
#
# Stress axis : x y z
#
# Youngs Moduli (GPa) = 67.88031 136.13584 75.87586
#
# Poissons Ratio (x) = 0.36541 0.21570
# Poissons Ratio (y) = 0.18220 0.08739
# Poissons Ratio (z) = 0.19297 0.15679
#
# Static dielectric constant tensor:
#      x y z
#    x 2.086890 -0.009860 -0.108040 
#    y -0.009860 2.091560 0.028690 
#    z -0.108040 0.028690 1.956530 
# 
# From -- ./inp_files/268620.got.cif
#   From: 2010.05.17/outbox.cif.g08.bks.cpg/sg2_135_cif.got.tgz:268620.got - 2010.06.03 11:33:40.
