data_PCOD9107054
_publ_section_title
;
Structure prediction by ZEFSAII (Michael W. Deem and Ramdas Pophale) SiO2 
 PCOD9107054
Probable space group: P -1
;
_chemical_formula_sum "Si O2"
_cell_formula_units_Z 13
_cell_length_a 11.476273
_cell_length_b 11.910197
_cell_length_c 13.768955
_cell_angle_alpha 151.209645
_cell_angle_beta 33.227543
_cell_angle_gamma 145.793463
_cell_volume 464.152299
_symmetry_space_group_name_H-M "P -1"
_symmetry_group_IT_number 2
_symmetry_cell_setting 'triclinic'
loop_
_space_group_symop_operation_xyz
x,y,z
-x,-y,-z
loop_
_atom_site_type_symbol
_atom_site_label
_atom_site_fract_x
_atom_site_fract_y
_atom_site_fract_z
Si Si1 0.898749 0.434042 0.736651
Si Si2 0.576706 0.708385 0.405909
Si Si3 0.221535 0.664536 0.031624
Si Si4 0.237589 0.725404 0.490523
Si Si5 0.734362 0.059977 0.102750
Si Si6 0.000000 0.000000 0.000000
Si Si7 0.112321 0.043528 0.288417
O O1 0.802342 0.396051 0.883441
O O2 0.732909 0.292660 0.659382
O O3 0.031813 0.732846 0.851681
O O4 0.099268 0.316754 0.510220
O O5 0.439205 0.704666 0.400325
O O6 0.458285 0.832752 0.659749
O O7 0.842418 0.877555 0.345728
O O8 0.582737 0.433481 0.215562
O O9 0.225737 0.941610 0.218880
O O10 0.000000 0.500000 0.000000
O O11 0.000000 0.500000 0.500000
O O12 0.168587 0.948606 0.750965
O O13 0.758161 0.842855 0.985467
O O14 0.778796 0.024801 0.935177
#
# Coordination Sequence:
#
# PCOD9107054 Si02
#       7
#     2   2   2   2   2   1   2
#     4  12  22  42  71  95 132 183 215 275 338 386
#     4  10  23  43  67 101 131 179 219 273 339 389
#     4  10  22  45  67  93 139 174 223 282 321 390
#     4  11  22  40  68  99 136 168 223 276 328 405
#     4  11  22  43  68  96 133 174 219 275 328 391
#     4  10  20  40  62  94 136 166 208 274 328 378
#     4  11  24  46  66  97 139 175 222 280 328 389
#
# _framework density 28.008047999999999
#
# number of rings (size 3 to 8) (size 9 to 14) (size 15 to 20)
#    0.000    1.231    7.692    0.462    0.000    1.846 
#    8.308    0.769    0.000    0.000    0.000    0.000 
#    0.000    0.000    0.000    0.000    0.000    0.000 
#
# Total GULP energy -72652.367430 kJ/mol
# GULP energy per Si atom -5588.643648 kJ/mol
# Density = 2.794430 g / cm^3
# Si number density = 28.008048 Si / 1000 Ang^3
#
#
#
# Elastic Constant Matrix: (Units=GPa)
#
#
# Indices 1 2 3 4 5 6 
#
# 1 166.3850 40.5623 73.9888 -0.2374 -8.5399 9.6323
# 2 40.5623 81.5559 36.3561 12.6067 -7.4212 8.4831
# 3 73.9888 36.3561 220.4328 -2.8668 -36.9107 -0.0864
# 4 -0.2374 12.6067 -2.8668 42.6251 -9.0667 -5.4122
# 5 -8.5399 -7.4212 -36.9107 -9.0667 70.1112 2.3859
# 6 9.6323 8.4831 -0.0864 -5.4122 2.3859 42.3287
#
#
#
# Elastic Compliance Matrix: (Units=1/GPa)
#
#
# Indices 1 2 3 4 5 6 
#
# 1 0.007723 -0.002873 -0.002180 0.000520 -0.000407 -0.001097
# 2 -0.002873 0.015554 -0.001696 -0.005160 -0.000157 -0.003118
# 3 -0.002180 -0.001696 0.006060 0.001633 0.002926 0.000892
# 4 0.000520 -0.005160 0.001633 0.026395 0.003651 0.004088
# 5 -0.000407 -0.000157 0.002926 0.003651 0.016220 -0.000317
# 6 -0.001097 -0.003118 0.000892 0.004088 -0.000317 0.025041
#
#
# Mechanical properties :
#
#
# Convention : Reuss Voigt Hill
#
# Bulk Modulus (GPa) = 63.13461 85.57645 74.35553
# Shear Modulus (GPa) = 43.18905 52.17745 47.68325
#
# Velocity S-wave (km/s) = 3.93112 4.32087 4.13059
# Velocity P-wave (km/s) = 6.57233 7.45076 7.02528
#
# Compressibility (1/GPa) = 0.01583917
#
# Stress axis : x y z
#
# Youngs Moduli (GPa) = 129.47668 64.29334 165.02898
#
# Poissons Ratio (x) = 0.18469 0.35982
# Poissons Ratio (y) = 0.37194 0.27985
# Poissons Ratio (z) = 0.28230 0.10903
#
# Static dielectric constant tensor:
#      x y z
#    x 2.233850 -0.113500 -0.060330 
#    y -0.113500 2.444610 0.059330 
#    z -0.060330 0.059330 2.220180 
# 
# From -- ./inp_files/310088.got.cif
#   From: 2010.05.17/outbox.cif.g08.bks.cpg/sg2_156_cif.got.tgz:310088.got - 2010.06.03 11:33:40.
