data_PCOD9107688
_publ_section_title
;
Structure prediction by ZEFSAII (Michael W. Deem and Ramdas Pophale) SiO2 
 PCOD9107688
Probable space group: P -1
;
_chemical_formula_sum "Si O2"
_cell_formula_units_Z 16
_cell_length_a 21.516395
_cell_length_b 11.195534
_cell_length_c 9.365629
_cell_angle_alpha 137.965011
_cell_angle_beta 50.195365
_cell_angle_gamma 147.877044
_cell_volume 802.862965
_symmetry_space_group_name_H-M "P -1"
_symmetry_group_IT_number 2
_symmetry_cell_setting 'triclinic'
loop_
_space_group_symop_operation_xyz
x,y,z
-x,-y,-z
loop_
_atom_site_type_symbol
_atom_site_label
_atom_site_fract_x
_atom_site_fract_y
_atom_site_fract_z
Si Si1 0.541909 0.362251 0.788347
Si Si2 0.185714 0.214757 0.326328
Si Si3 0.752711 0.325552 0.783572
Si Si4 0.952732 0.843157 0.782809
Si Si5 0.121627 0.724994 0.093184
Si Si6 0.491241 0.026055 0.308180
Si Si7 0.753671 0.424137 0.193725
Si Si8 0.094741 0.733371 0.460901
O O1 0.682430 0.574519 0.744654
O O2 0.512825 0.175386 0.790580
O O3 0.483571 0.171779 0.567357
O O4 0.500000 0.500000 0.000000
O O5 0.091975 0.113893 0.249309
O O6 0.182163 0.343817 0.581691
O O7 0.165543 0.987631 0.217690
O O8 0.836304 0.549382 0.741557
O O9 0.618089 0.137391 0.780441
O O10 0.782311 0.159999 0.583047
O O11 0.782695 0.460573 0.014264
O O12 0.060427 0.883071 0.624964
O O13 0.000000 0.000000 0.000000
O O14 0.085041 0.644929 0.239169
O O15 0.217431 0.727230 0.924233
O O16 0.000000 0.500000 0.000000
O O17 0.616843 0.247582 0.248291
O O18 0.000000 0.500000 0.500000
#
# Coordination Sequence:
#
# PCOD9107688 Si02
#       8
#     2   2   2   2   2   2   2   2
#     4  10  21  39  62  93 127 164 202 258 309 370
#     4  11  24  41  63  93 126 162 211 255 311 375
#     4  10  21  42  63  90 122 166 207 254 317 367
#     4  11  24  39  61  90 126 165 208 257 310 368
#     4  11  24  40  63  92 123 167 205 254 313 367
#     4  10  20  40  65  92 123 162 211 252 311 373
#     4  10  23  41  65  92 128 161 205 263 312 369
#     4   9  22  40  58  84 122 156 205 249 304 365
#
# _framework density 19.928681999999998
#
# number of rings (size 3 to 8) (size 9 to 14) (size 15 to 20)
#    0.000    1.750    1.250    1.875    7.000    2.000 
#    2.250    0.000    0.000    6.000    0.000    0.000 
#    0.000    0.000    0.000    0.000    0.000    0.000 
#
# Total GULP energy -89116.141791 kJ/mol
# GULP energy per Si atom -5569.758862 kJ/mol
# Density = 1.988332 g / cm^3
# Si number density = 19.928682 Si / 1000 Ang^3
#
#
#
# Elastic Constant Matrix: (Units=GPa)
#
#
# Indices 1 2 3 4 5 6 
#
# 1 112.7160 15.7226 49.4538 6.0155 -9.3932 12.9614
# 2 15.7226 42.8359 10.5557 -0.2494 1.6874 -2.1160
# 3 49.4538 10.5557 92.2605 7.9977 -23.1850 12.6853
# 4 6.0155 -0.2494 7.9977 25.6351 5.1622 -0.4812
# 5 -9.3932 1.6874 -23.1850 5.1622 30.1582 1.9402
# 6 12.9614 -2.1160 12.6853 -0.4812 1.9402 33.2521
#
#
#
# Elastic Compliance Matrix: (Units=1/GPa)
#
#
# Indices 1 2 3 4 5 6 
#
# 1 0.012201 -0.003222 -0.005686 -0.001171 -0.000010 -0.002808
# 2 -0.003222 0.025964 -0.003784 0.003543 -0.006279 0.004769
# 3 -0.005686 -0.003784 0.019830 -0.008135 0.015503 -0.006612
# 4 -0.001171 0.003543 -0.008135 0.044947 -0.014852 0.005302
# 5 -0.000010 -0.006279 0.015503 -0.014852 0.048570 -0.009359
# 6 -0.002808 0.004769 -0.006612 0.005302 -0.009359 0.034616
#
#
# Mechanical properties :
#
#
# Convention : Reuss Voigt Hill
#
# Bulk Modulus (GPa) = 30.66590 44.36408 37.51499
# Shear Modulus (GPa) = 22.48388 29.28110 25.88249
#
# Velocity S-wave (km/s) = 3.36254 3.83730 3.60773
# Velocity P-wave (km/s) = 5.52239 6.47633 6.01829
#
# Compressibility (1/GPa) = 0.03260951
#
# Stress axis : x y z
#
# Youngs Moduli (GPa) = 81.96302 38.51543 50.42865
#
# Poissons Ratio (x) = 0.12410 0.28674
# Poissons Ratio (y) = 0.26410 0.19083
# Poissons Ratio (z) = 0.46605 0.14575
#
# Static dielectric constant tensor:
#      x y z
#    x 1.712410 0.054410 -0.039980 
#    y 0.054410 1.706650 -0.018920 
#    z -0.039980 -0.018920 1.767610 
# 
# From -- ./inp_files/346457.got.cif
#   From: 2010.05.17/outbox.cif.g08.bks.cpg/sg2_174_cif.got.tgz:346457.got - 2010.06.03 11:33:40.
