data_PCOD9107381
_publ_section_title
;
Structure prediction by ZEFSAII (Michael W. Deem and Ramdas Pophale) SiO2 
 PCOD9107381
Probable space group: P -1
;
_chemical_formula_sum "Si O2"
_cell_formula_units_Z 16
_cell_length_a 8.248457
_cell_length_b 8.261027
_cell_length_c 14.145575
_cell_angle_alpha 88.370748
_cell_angle_beta 109.517640
_cell_angle_gamma 52.579915
_cell_volume 686.180367
_symmetry_space_group_name_H-M "P -1"
_symmetry_group_IT_number 2
_symmetry_cell_setting 'triclinic'
loop_
_space_group_symop_operation_xyz
x,y,z
-x,-y,-z
loop_
_atom_site_type_symbol
_atom_site_label
_atom_site_fract_x
_atom_site_fract_y
_atom_site_fract_z
Si Si1 0.122142 0.788650 0.925450
Si Si2 0.356843 0.112667 0.336479
Si Si3 0.550625 0.531100 0.149971
Si Si4 0.471258 0.838046 0.813271
Si Si5 0.763477 0.673162 0.501942
Si Si6 0.018451 0.183753 0.787847
Si Si7 0.412538 0.721075 0.322381
Si Si8 0.843789 0.739184 0.003094
O O1 0.224451 0.600980 0.869693
O O2 0.923777 0.838646 0.950649
O O3 0.057479 0.993957 0.858517
O O4 0.335469 0.694270 0.037766
O O5 0.379274 0.195301 0.243667
O O6 0.219822 0.295534 0.385188
O O7 0.614313 0.917316 0.428665
O O8 0.280020 0.975181 0.304617
O O9 0.531007 0.353114 0.176229
O O10 0.528201 0.641618 0.242011
O O11 0.586870 0.844360 0.928896
O O12 0.214007 0.060411 0.749838
O O13 0.604021 0.620158 0.441672
O O14 0.000000 0.500000 0.500000
O O15 0.761409 0.320046 0.701671
O O16 0.082440 0.277547 0.875192
O O17 0.000000 0.500000 0.000000
#
# Coordination Sequence:
#
# PCOD9107381 Si02
#       8
#     2   2   2   2   2   2   2   2
#     4  10  21  36  56  81 126 167 213 238 296 354
#     4   9  22  43  69  94 120 151 214 252 314 375
#     4  10  21  38  56  88 122 166 208 246 298 364
#     4  11  23  39  56  90 126 162 201 257 306 350
#     4   9  21  44  72  94 117 152 204 260 318 379
#     4  11  23  36  58  84 127 166 204 247 301 364
#     4  10  20  40  64  89 117 160 207 251 304 380
#     4  12  22  37  55  86 125 166 209 257 289 354
#
# _framework density 23.317485000000001
#
# number of rings (size 3 to 8) (size 9 to 14) (size 15 to 20)
#    0.750    1.000    2.500    1.500    1.750    4.000 
#    4.500    1.250    0.000    0.000    0.000    0.000 
#    0.000    0.000    0.000    0.000    0.000    0.000 
#
# Total GULP energy -89385.971821 kJ/mol
# GULP energy per Si atom -5586.623239 kJ/mol
# Density = 2.326441 g / cm^3
# Si number density = 23.317485 Si / 1000 Ang^3
#
#
#
# Elastic Constant Matrix: (Units=GPa)
#
#
# Indices 1 2 3 4 5 6 
#
# 1 61.3510 23.3143 24.6878 17.0154 9.9685 -11.2044
# 2 23.3143 83.3673 32.0184 33.8636 6.4250 -19.5164
# 3 24.6878 32.0184 98.4242 45.0647 9.6384 -4.9592
# 4 17.0154 33.8636 45.0647 43.9058 1.3021 -4.5793
# 5 9.9685 6.4250 9.6384 1.3021 28.3148 -3.6660
# 6 -11.2044 -19.5164 -4.9592 -4.5793 -3.6660 29.0174
#
#
#
# Elastic Compliance Matrix: (Units=1/GPa)
#
#
# Indices 1 2 3 4 5 6 
#
# 1 0.020683 -0.001848 -0.002089 -0.003754 -0.005315 0.005122
# 2 -0.001848 0.021190 0.001839 -0.016295 -0.002616 0.010950
# 3 -0.002089 0.001839 0.020457 -0.021456 -0.005682 -0.000177
# 4 -0.003754 -0.016295 -0.021456 0.057951 0.008906 -0.005805
# 5 -0.005315 -0.002616 -0.005682 0.008906 0.039516 0.001615
# 6 0.005122 0.010950 -0.000177 -0.005805 0.001615 0.043062
#
#
# Mechanical properties :
#
#
# Convention : Reuss Voigt Hill
#
# Bulk Modulus (GPa) = 17.20201 44.79816 31.00009
# Shear Modulus (GPa) = 22.08152 31.12242 26.60197
#
# Velocity S-wave (km/s) = 3.08067 3.65735 3.38132
# Velocity P-wave (km/s) = 4.47742 6.09007 5.34492
#
# Compressibility (1/GPa) = 0.05813273
#
# Stress axis : x y z
#
# Youngs Moduli (GPa) = 48.34905 47.19275 48.88251
#
# Poissons Ratio (x) = 0.08722 0.10214
# Poissons Ratio (y) = 0.08936 -0.08990
# Poissons Ratio (z) = 0.10102 -0.08679
#
# Static dielectric constant tensor:
#      x y z
#    x 1.926300 -0.021460 0.044350 
#    y -0.021460 1.920410 -0.009830 
#    z 0.044350 -0.009830 1.919420 
# 
# From -- ./inp_files/495255.got.cif
#   From: 2010.05.17/outbox.cif.g08.bks.cpg/sg2_248_cif.got.tgz:495255.got - 2010.06.03 11:33:40.
