data_PCOD9107812
_publ_section_title
;
Structure prediction by ZEFSAII (Michael W. Deem and Ramdas Pophale) SiO2 
 PCOD9107812
Probable space group: P -1
;
_chemical_formula_sum "Si O2"
_cell_formula_units_Z 14
_cell_length_a 15.574266
_cell_length_b 21.968101
_cell_length_c 12.107064
_cell_angle_alpha 153.772877
_cell_angle_beta 144.044908
_cell_angle_gamma 18.642620
_cell_volume 560.608095
_symmetry_space_group_name_H-M "P -1"
_symmetry_group_IT_number 2
_symmetry_cell_setting 'triclinic'
loop_
_space_group_symop_operation_xyz
x,y,z
-x,-y,-z
loop_
_atom_site_type_symbol
_atom_site_label
_atom_site_fract_x
_atom_site_fract_y
_atom_site_fract_z
Si Si1 0.586509 0.005211 0.713838
Si Si2 0.620326 0.207843 0.731704
Si Si3 0.877313 0.223774 0.889146
Si Si4 0.830164 0.592975 0.657613
Si Si5 0.669184 0.892621 0.171738
Si Si6 0.313712 0.792281 0.957251
Si Si7 0.578346 0.307371 0.507138
O O1 0.873835 0.698465 0.549562
O O2 0.500000 0.000000 0.500000
O O3 0.374716 0.154211 0.837146
O O4 0.646374 0.119145 0.944303
O O5 0.806382 0.190926 0.868871
O O6 0.588007 0.214733 0.838061
O O7 0.765187 0.966118 0.428488
O O8 0.303399 0.493282 0.826149
O O9 0.725872 0.261088 0.691486
O O10 0.196917 0.967474 0.769911
O O11 0.663247 0.596780 0.542503
O O12 0.625225 0.838765 0.760945
O O13 0.869229 0.662558 0.916759
O O14 0.477456 0.516243 0.667045
O O15 0.000000 0.000000 0.000000
#
# Coordination Sequence:
#
# PCOD9107812 Si02
#       7
#     2   2   2   2   2   2   2
#     4  12  26  47  69 101 143 190 228 278 356 420
#     4  10  20  40  66  99 135 175 225 287 344 407
#     4   9  20  36  68  98 128 171 225 288 348 393
#     4  11  25  45  70 103 139 178 241 291 332 412
#     4  11  25  45  70 101 136 187 227 289 346 409
#     4  11  23  43  68  94 137 180 227 282 341 413
#     4  10  20  40  65  99 131 171 230 286 336 404
#
# _framework density 24.972882999999999
#
# number of rings (size 3 to 8) (size 9 to 14) (size 15 to 20)
#    0.000    1.429    4.286    0.429    0.000    6.286 
#    2.571    1.429    0.000    0.000    0.000    0.000 
#    0.000    0.000    0.000    0.000    0.000    0.000 
#
# Total GULP energy -78373.647197 kJ/mol
# GULP energy per Si atom -5598.117657 kJ/mol
# Density = 2.491604 g / cm^3
# Si number density = 24.972883 Si / 1000 Ang^3
#
#
#
# Elastic Constant Matrix: (Units=GPa)
#
#
# Indices 1 2 3 4 5 6 
#
# 1 105.4922 3.4870 24.2206 5.4802 14.7476 13.6846
# 2 3.4870 35.1880 -3.2592 -2.1046 5.3627 -4.3258
# 3 24.2206 -3.2592 96.1175 0.6167 13.3700 -3.8041
# 4 5.4802 -2.1046 0.6167 26.4968 -3.0111 -7.2337
# 5 14.7476 5.3627 13.3700 -3.0111 42.4267 3.6888
# 6 13.6846 -4.3258 -3.8041 -7.2337 3.6888 27.2233
#
#
#
# Elastic Compliance Matrix: (Units=1/GPa)
#
#
# Indices 1 2 3 4 5 6 
#
# 1 0.011859 -0.002305 -0.002982 -0.004965 -0.002573 -0.007715
# 2 -0.002305 0.030818 0.002516 0.004623 -0.004273 0.008214
# 3 -0.002982 0.002516 0.011864 0.001357 -0.003303 0.004365
# 4 -0.004965 0.004623 0.001357 0.043376 0.002523 0.014604
# 5 -0.002573 -0.004273 -0.003303 0.002523 0.026465 -0.002763
# 6 -0.007715 0.008214 0.004365 0.014604 -0.002763 0.046781
#
#
# Mechanical properties :
#
#
# Convention : Reuss Voigt Hill
#
# Bulk Modulus (GPa) = 20.40885 31.74383 26.07634
# Shear Modulus (GPa) = 25.90171 33.38597 29.64384
#
# Velocity S-wave (km/s) = 3.22404 3.66032 3.44908
# Velocity P-wave (km/s) = 4.69568 5.53198 5.13090
#
# Compressibility (1/GPa) = 0.04899834
#
# Stress axis : x y z
#
# Youngs Moduli (GPa) = 84.32769 32.44896 84.28715
#
# Poissons Ratio (x) = 0.07478 0.25134
# Poissons Ratio (y) = 0.19434 -0.21203
# Poissons Ratio (z) = 0.25146 -0.08163
#
# Static dielectric constant tensor:
#      x y z
#    x 1.938630 0.040250 0.005670 
#    y 0.040250 2.065620 -0.058720 
#    z 0.005670 -0.058720 1.988190 
# 
# From -- ./inp_files/244599.got.cif
#   From: 2010.05.17/outbox.cif.g08.bks.cpg/sg2_123_cif.got.tgz:244599.got - 2010.06.03 11:33:40.
