data_PCOD9107195
_publ_section_title
;
Structure prediction by ZEFSAII (Michael W. Deem and Ramdas Pophale) SiO2 
 PCOD9107195
Probable space group: P -1
;
_chemical_formula_sum "Si O2"
_cell_formula_units_Z 16
_cell_length_a 8.840400
_cell_length_b 13.930094
_cell_length_c 12.635403
_cell_angle_alpha 66.753375
_cell_angle_beta 87.615277
_cell_angle_gamma 41.092883
_cell_volume 851.217633
_symmetry_space_group_name_H-M "P -1"
_symmetry_group_IT_number 2
_symmetry_cell_setting 'triclinic'
loop_
_space_group_symop_operation_xyz
x,y,z
-x,-y,-z
loop_
_atom_site_type_symbol
_atom_site_label
_atom_site_fract_x
_atom_site_fract_y
_atom_site_fract_z
Si Si1 0.192861 0.048471 0.501767
Si Si2 0.091718 0.632203 0.209865
Si Si3 0.536999 0.914093 0.145259
Si Si4 0.788503 0.595080 0.879880
Si Si5 0.939673 0.930041 0.968235
Si Si6 0.643394 0.315659 0.111122
Si Si7 0.347347 0.720831 0.626487
Si Si8 0.587911 0.925486 0.693265
O O1 0.268113 0.068889 0.384122
O O2 0.892608 0.196101 0.462250
O O3 0.313524 0.865289 0.567088
O O4 0.319503 0.045152 0.593832
O O5 0.123488 0.540455 0.146668
O O6 0.365651 0.471012 0.328988
O O7 0.837773 0.732875 0.231082
O O8 0.029480 0.782281 0.102628
O O9 0.353607 0.918568 0.123964
O O10 0.436605 0.027137 0.204511
O O11 0.500000 0.000000 0.000000
O O12 0.536415 0.685588 0.900353
O O13 0.733082 0.735268 0.765659
O O14 0.000000 0.500000 0.000000
O O15 0.105281 0.833849 0.899136
O O16 0.000000 0.000000 0.000000
O O17 0.687881 0.295282 0.243687
O O18 0.500000 0.500000 0.000000
#
# Coordination Sequence:
#
# PCOD9107195 Si02
#       8
#     2   2   2   2   2   2   2   2
#     4  10  22  39  66  91 124 164 219 252 302 362
#     4  10  21  40  55  88 127 159 201 256 305 373
#     4  10  23  40  60  87 130 161 193 253 322 377
#     4  11  22  34  62  92 121 157 205 261 313 362
#     4  11  23  36  56  90 127 165 195 247 321 379
#     4  11  21  37  59  91 124 152 208 264 313 361
#     4  10  20  40  63  91 122 163 208 268 301 356
#     4  11  22  41  63  94 122 168 208 255 309 376
#
# _framework density 18.796602
#
# number of rings (size 3 to 8) (size 9 to 14) (size 15 to 20)
#    0.000    1.500    5.000    2.250    7.000    0.000 
#    0.000    1.250    0.000    0.000    0.000    0.000 
#    0.000    0.000    0.000    0.000    0.000    0.000 
#
# Total GULP energy -89229.358636 kJ/mol
# GULP energy per Si atom -5576.834915 kJ/mol
# Density = 1.875382 g / cm^3
# Si number density = 18.796602 Si / 1000 Ang^3
#
#
#
# Elastic Constant Matrix: (Units=GPa)
#
#
# Indices 1 2 3 4 5 6 
#
# 1 107.6313 39.4491 31.0175 -11.4307 4.1770 2.8987
# 2 39.4491 72.4374 14.7946 -12.3978 -0.3775 -5.4689
# 3 31.0175 14.7946 69.0169 -9.0232 -8.2231 8.5137
# 4 -11.4307 -12.3978 -9.0232 31.6698 0.1696 6.4420
# 5 4.1770 -0.3775 -8.2231 0.1696 41.3324 -5.4754
# 6 2.8987 -5.4689 8.5137 6.4420 -5.4754 30.4663
#
#
#
# Elastic Compliance Matrix: (Units=1/GPa)
#
#
# Indices 1 2 3 4 5 6 
#
# 1 0.013133 -0.006145 -0.004465 0.001455 -0.002525 -0.001866
# 2 -0.006145 0.018291 -0.000947 0.003958 0.001045 0.003483
# 3 -0.004465 -0.000947 0.018294 0.004259 0.003383 -0.005150
# 4 0.001455 0.003958 0.004259 0.036586 -0.000533 -0.008450
# 5 -0.002525 0.001045 0.003383 -0.000533 0.025692 0.004213
# 6 -0.001866 0.003483 -0.005150 -0.008450 0.004213 0.037609
#
#
# Mechanical properties :
#
#
# Convention : Reuss Voigt Hill
#
# Bulk Modulus (GPa) = 37.58884 46.62313 42.10599
# Shear Modulus (GPa) = 27.53497 31.61533 29.57515
#
# Velocity S-wave (km/s) = 3.83154 4.10563 3.97095
# Velocity P-wave (km/s) = 6.29407 6.87989 6.59349
#
# Compressibility (1/GPa) = 0.02660364
#
# Stress axis : x y z
#
# Youngs Moduli (GPa) = 76.14455 54.67182 54.66236
#
# Poissons Ratio (x) = 0.33597 0.24408
# Poissons Ratio (y) = 0.46792 0.05176
# Poissons Ratio (z) = 0.34000 0.05176
#
# Static dielectric constant tensor:
#      x y z
#    x 1.690300 0.003660 0.013190 
#    y 0.003660 1.630300 -0.029840 
#    z 0.013190 -0.029840 1.668100 
# 
# From -- ./inp_files/222077.got.cif
#   From: 2010.05.17/outbox.cif.g08.bks.cpg/sg2_112_cif.got.tgz:222077.got - 2010.06.03 11:33:40.
