data_PCOD9107887
_publ_section_title
;
Structure prediction by ZEFSAII (Michael W. Deem and Ramdas Pophale) SiO2 
 PCOD9107887
Probable space group: P -1
;
_chemical_formula_sum "Si O2"
_cell_formula_units_Z 16
_cell_length_a 16.749623
_cell_length_b 14.234557
_cell_length_c 8.420088
_cell_angle_alpha 31.584282
_cell_angle_beta 140.574896
_cell_angle_gamma 137.701378
_cell_volume 647.334111
_symmetry_space_group_name_H-M "P -1"
_symmetry_group_IT_number 2
_symmetry_cell_setting 'triclinic'
loop_
_space_group_symop_operation_xyz
x,y,z
-x,-y,-z
loop_
_atom_site_type_symbol
_atom_site_label
_atom_site_fract_x
_atom_site_fract_y
_atom_site_fract_z
Si Si1 0.448621 0.234867 0.920288
Si Si2 0.690366 0.432853 0.841118
Si Si3 0.168569 0.017130 0.771174
Si Si4 0.233830 0.742125 0.078282
Si Si5 0.541286 0.310634 0.304761
Si Si6 0.917608 0.092860 0.860578
Si Si7 0.153917 0.306948 0.060974
Si Si8 0.312629 0.053689 0.502111
O O1 0.563897 0.266440 0.923550
O O2 0.378780 0.404779 0.549676
O O3 0.325488 0.062301 0.968820
O O4 0.515692 0.251666 0.169383
O O5 0.783899 0.400034 0.890914
O O6 0.770439 0.499607 0.028119
O O7 0.135467 0.168493 0.385147
O O8 0.129108 0.820287 0.901972
O O9 0.115951 0.016527 0.868250
O O10 0.315537 0.665091 0.444760
O O11 0.309055 0.927082 0.832190
O O12 0.447975 0.151984 0.493903
O O13 0.500000 0.500000 0.000000
O O14 0.783628 0.074068 0.589349
O O15 0.018096 0.282127 0.797200
O O16 0.000000 0.000000 0.000000
O O17 0.247562 0.220349 0.217000
#
# Coordination Sequence:
#
# PCOD9107887 Si02
#       8
#     2   2   2   2   2   2   2   2
#     4  10  21  36  61  86 128 162 209 254 298 388
#     4  10  21  39  57  92 127 168 200 247 320 365
#     4  10  21  38  59  97 122 158 213 262 311 366
#     4  11  25  37  61  90 136 166 198 264 317 368
#     4  12  22  37  60  93 126 168 208 248 312 383
#     4  10  20  40  66  89 118 163 216 263 304 366
#     4   9  20  38  65  87 121 167 212 258 300 377
#     4  10  22  39  61  94 123 159 214 260 315 359
#
# _framework density 24.716757000000001
#
# number of rings (size 3 to 8) (size 9 to 14) (size 15 to 20)
#    0.000    1.750    2.500    1.500    7.000    1.500 
#    0.000    1.250    0.000    3.000    0.000    0.000 
#    0.000    0.000    0.000    0.000    0.000    0.000 
#
# Total GULP energy -89413.346452 kJ/mol
# GULP energy per Si atom -5588.334153 kJ/mol
# Density = 2.466050 g / cm^3
# Si number density = 24.716757 Si / 1000 Ang^3
#
#
#
# Elastic Constant Matrix: (Units=GPa)
#
#
# Indices 1 2 3 4 5 6 
#
# 1 118.5878 23.2726 4.0216 6.5065 -4.0901 -20.5906
# 2 23.2726 117.7539 9.1180 20.0036 6.0597 -19.5586
# 3 4.0216 9.1180 50.8392 4.4010 2.2950 -1.5322
# 4 6.5065 20.0036 4.4010 36.6527 -12.0167 1.3677
# 5 -4.0901 6.0597 2.2950 -12.0167 28.1532 5.4461
# 6 -20.5906 -19.5586 -1.5322 1.3677 5.4461 32.9384
#
#
#
# Elastic Compliance Matrix: (Units=1/GPa)
#
#
# Indices 1 2 3 4 5 6 
#
# 1 0.009647 -0.000642 -0.000325 -0.001614 -0.000233 0.005740
# 2 -0.000642 0.012131 -0.000670 -0.009483 -0.008350 0.008545
# 3 -0.000325 -0.000670 0.020245 -0.003040 -0.003039 0.000970
# 4 -0.001614 -0.009483 -0.003040 0.040694 0.021759 -0.012068
# 5 -0.000233 -0.008350 -0.003039 0.021759 0.049594 -0.014349
# 6 0.005740 0.008545 0.000970 -0.012068 -0.014349 0.041941
#
#
# Mechanical properties :
#
#
# Convention : Reuss Voigt Hill
#
# Bulk Modulus (GPa) = 25.80621 40.00060 32.90341
# Shear Modulus (GPa) = 26.25484 36.26678 31.26081
#
# Velocity S-wave (km/s) = 3.26272 3.83468 3.56021
# Velocity P-wave (km/s) = 4.96561 5.98541 5.49920
#
# Compressibility (1/GPa) = 0.03875036
#
# Stress axis : x y z
#
# Youngs Moduli (GPa) = 103.66304 82.43336 49.39437
#
# Poissons Ratio (x) = 0.05292 0.01604
# Poissons Ratio (y) = 0.06655 0.03307
# Poissons Ratio (z) = 0.03367 0.05519
#
# Static dielectric constant tensor:
#      x y z
#    x 1.954510 0.018200 0.045140 
#    y 0.018200 2.019650 -0.032010 
#    z 0.045140 -0.032010 1.963210 
# 
# From -- ./inp_files/308233.got.cif
#   From: 2010.05.17/outbox.cif.g08.bks.cpg/sg2_155_cif.got.tgz:308233.got - 2010.06.03 11:33:40.
