data_PCOD9107733
_publ_section_title
;
Structure prediction by ZEFSAII (Michael W. Deem and Ramdas Pophale) SiO2 
 PCOD9107733
Probable space group: P -1
;
_chemical_formula_sum "Si O2"
_cell_formula_units_Z 16
_cell_length_a 8.510467
_cell_length_b 6.146963
_cell_length_c 15.186600
_cell_angle_alpha 123.806608
_cell_angle_beta 101.565639
_cell_angle_gamma 95.683710
_cell_volume 624.718228
_symmetry_space_group_name_H-M "P -1"
_symmetry_group_IT_number 2
_symmetry_cell_setting 'triclinic'
loop_
_space_group_symop_operation_xyz
x,y,z
-x,-y,-z
loop_
_atom_site_type_symbol
_atom_site_label
_atom_site_fract_x
_atom_site_fract_y
_atom_site_fract_z
Si Si1 0.271208 0.985437 0.872395
Si Si2 0.837882 0.408885 0.561595
Si Si3 0.817885 0.970515 0.935286
Si Si4 0.411554 0.568227 0.592472
Si Si5 0.993345 0.952127 0.271303
Si Si6 0.735459 0.371245 0.730251
Si Si7 0.179135 0.354047 0.657538
Si Si8 0.582273 0.117686 0.820742
O O1 0.231187 0.662848 0.771861
O O2 0.435026 0.139966 0.873328
O O3 0.114002 0.075706 0.835599
O O4 0.289056 0.038310 0.989723
O O5 0.739314 0.326299 0.442296
O O6 0.718865 0.314815 0.611809
O O7 0.004169 0.316951 0.578252
O O8 0.901563 0.736966 0.638939
O O9 0.790301 0.689847 0.818372
O O10 0.753441 0.169360 0.906938
O O11 0.000000 0.000000 0.000000
O O12 0.500000 0.500000 0.500000
O O13 0.320062 0.338292 0.599225
O O14 0.532364 0.805642 0.712943
O O15 0.862435 0.849178 0.311961
O O16 0.119884 0.765175 0.252499
O O17 0.594826 0.275829 0.766215
#
# Coordination Sequence:
#
# PCOD9107733 Si02
#       8
#     2   2   2   2   2   2   2   2
#     4  10  23  41  64  93 129 165 202 256 312 367
#     4  10  21  40  62  90 126 166 209 251 300 362
#     4  12  24  42  67  91 121 163 211 259 309 369
#     4  11  22  39  63  90 126 164 203 255 308 362
#     4  10  20  40  65  94 126 163 211 254 301 362
#     4  11  23  40  65  93 125 162 208 258 303 366
#     4   9  21  40  64  91 126 165 205 252 301 364
#     4  11  26  44  61  92 130 163 206 256 311 373
#
# _framework density 25.611547999999999
#
# number of rings (size 3 to 8) (size 9 to 14) (size 15 to 20)
#    0.000    1.500    0.000    6.000    0.000    7.500 
#    0.000    7.500    0.000    0.000    0.000    0.000 
#    0.000    0.000    0.000    0.000    0.000    0.000 
#
# Total GULP energy -89581.871357 kJ/mol
# GULP energy per Si atom -5598.866960 kJ/mol
# Density = 2.555326 g / cm^3
# Si number density = 25.611548 Si / 1000 Ang^3
#
#
#
# Elastic Constant Matrix: (Units=GPa)
#
#
# Indices 1 2 3 4 5 6 
#
# 1 68.5239 20.2811 19.5589 -16.4749 -9.8879 17.4335
# 2 20.2811 85.2068 22.6059 -34.5109 -3.9500 9.2179
# 3 19.5589 22.6059 80.3502 -32.5543 -1.1113 -4.7584
# 4 -16.4749 -34.5109 -32.5543 48.8425 3.3571 -16.2040
# 5 -9.8879 -3.9500 -1.1113 3.3571 52.9990 -18.5130
# 6 17.4335 9.2179 -4.7584 -16.2040 -18.5130 49.8158
#
#
#
# Elastic Compliance Matrix: (Units=1/GPa)
#
#
# Indices 1 2 3 4 5 6 
#
# 1 0.018165 -0.002809 -0.004329 -0.000855 0.000991 -0.006161
# 2 -0.002809 0.016952 0.001122 0.012489 0.000777 0.002305
# 3 -0.004329 0.001122 0.020031 0.015528 0.001841 0.008956
# 4 -0.000855 0.012489 0.015528 0.044145 0.003599 0.015168
# 5 0.000991 0.000777 0.001841 0.003599 0.022088 0.009064
# 6 -0.006161 0.002305 0.008956 0.015168 0.009064 0.030961
#
#
# Mechanical properties :
#
#
# Convention : Reuss Voigt Hill
#
# Bulk Modulus (GPa) = 23.19332 39.88585 31.53958
# Shear Modulus (GPa) = 27.97251 41.77379 34.87315
#
# Velocity S-wave (km/s) = 3.30841 4.04301 3.69401
# Velocity P-wave (km/s) = 4.86513 6.11570 5.52591
#
# Compressibility (1/GPa) = 0.04311586
#
# Stress axis : x y z
#
# Youngs Moduli (GPa) = 55.04997 58.98872 49.92344
#
# Poissons Ratio (x) = 0.16570 0.21612
# Poissons Ratio (y) = 0.15464 -0.05600
# Poissons Ratio (z) = 0.23831 -0.06617
#
# Static dielectric constant tensor:
#      x y z
#    x 2.093000 0.027310 -0.015530 
#    y 0.027310 1.997710 -0.005940 
#    z -0.015530 -0.005940 1.966510 
# 
# From -- ./inp_files/138951.got.cif
#   From: 2010.05.17/outbox.cif.g08.bks.cpg/sg2_70_cif.got.tgz:138951.got - 2010.06.03 11:33:40.
