data_PCOD9107003
_publ_section_title
;
Structure prediction by ZEFSAII (Michael W. Deem and Ramdas Pophale) SiO2 
 PCOD9107003
Probable space group: P -1
;
_chemical_formula_sum "Si O2"
_cell_formula_units_Z 15
_cell_length_a 25.392335
_cell_length_b 5.754564
_cell_length_c 4.989700
_cell_angle_alpha 84.042024
_cell_angle_beta 70.703951
_cell_angle_gamma 62.340879
_cell_volume 608.434144
_symmetry_space_group_name_H-M "P -1"
_symmetry_group_IT_number 2
_symmetry_cell_setting 'triclinic'
loop_
_space_group_symop_operation_xyz
x,y,z
-x,-y,-z
loop_
_atom_site_type_symbol
_atom_site_label
_atom_site_fract_x
_atom_site_fract_y
_atom_site_fract_z
Si Si1 0.450107 0.801740 0.601080
Si Si2 0.500000 0.000000 0.000000
Si Si3 0.214033 0.417434 0.858714
Si Si4 0.981937 0.746769 0.304500
Si Si5 0.688883 0.130326 0.173617
Si Si6 0.868764 0.742539 0.327804
Si Si7 0.901332 0.255976 0.729375
Si Si8 0.253628 0.745878 0.413726
O O1 0.500000 0.500000 0.500000
O O2 0.382340 0.810578 0.720512
O O3 0.457646 0.965517 0.321805
O O4 0.464812 0.899907 0.845063
O O5 0.165846 0.311349 0.854035
O O6 0.245220 0.497646 0.554547
O O7 0.268144 0.174382 0.945608
O O8 0.166207 0.687759 0.049263
O O9 0.934862 0.742769 0.156598
O O10 0.000000 0.500000 0.500000
O O11 0.046386 0.760393 0.139037
O O12 0.937224 0.999679 0.523109
O O13 0.710132 0.179780 0.423421
O O14 0.707275 0.297336 0.915508
O O15 0.884491 0.505106 0.535401
O O16 0.816120 0.010736 0.512146
#
# Coordination Sequence:
#
# PCOD9107003 Si02
#       8
#     2   1   2   2   2   2   2   2
#     4  11  24  46  76 110 152 194 240 292 356 420
#     4  10  24  44  78 110 146 194 238 296 344 420
#     4  11  25  40  68  94 132 180 230 287 349 415
#     4   9  20  36  64  88 127 168 223 285 358 423
#     4  11  26  46  67 108 144 185 234 287 341 418
#     4  10  21  40  60  92 129 172 227 289 349 420
#     4  10  20  40  62  91 126 171 224 289 352 421
#     4  11  25  41  70  99 139 188 233 287 350 414
#
# _framework density 24.653444
#
# number of rings (size 3 to 8) (size 9 to 14) (size 15 to 20)
#    0.000    1.600    1.333    2.000    3.733    4.800 
#    0.000    9.333    0.000    0.000    0.000    0.000 
#    0.000    0.000    0.000    0.000    0.000    0.000 
#
# Total GULP energy -83758.147691 kJ/mol
# GULP energy per Si atom -5583.876513 kJ/mol
# Density = 2.459733 g / cm^3
# Si number density = 24.653444 Si / 1000 Ang^3
#
#
#
# Elastic Constant Matrix: (Units=GPa)
#
#
# Indices 1 2 3 4 5 6 
#
# 1 180.6426 49.8319 47.7414 19.8050 -12.5593 -20.6712
# 2 49.8319 48.9711 23.4419 0.9409 -7.0041 -1.2555
# 3 47.7414 23.4419 100.8843 -3.5397 -3.0214 -10.8220
# 4 19.8050 0.9409 -3.5397 29.8360 8.0187 -7.8645
# 5 -12.5593 -7.0041 -3.0214 8.0187 54.3606 10.0007
# 6 -20.6712 -1.2555 -10.8220 -7.8645 10.0007 29.6820
#
#
#
# Elastic Compliance Matrix: (Units=1/GPa)
#
#
# Indices 1 2 3 4 5 6 
#
# 1 0.009548 -0.008187 -0.002409 -0.005779 0.001230 0.003479
# 2 -0.008187 0.030783 -0.003816 0.001600 0.002787 -0.006305
# 3 -0.002409 -0.003816 0.012561 0.004978 -0.001952 0.004717
# 4 -0.005779 0.001600 0.004978 0.043845 -0.009662 0.012731
# 5 0.001230 0.002787 -0.001952 -0.009662 0.022151 -0.009761
# 6 0.003479 -0.006305 0.004717 0.012731 -0.009761 0.044229
#
#
# Mechanical properties :
#
#
# Convention : Reuss Voigt Hill
#
# Bulk Modulus (GPa) = 41.54480 63.61426 52.57953
# Shear Modulus (GPa) = 25.00465 36.74124 30.87295
#
# Velocity S-wave (km/s) = 3.18818 3.86464 3.54259
# Velocity P-wave (km/s) = 5.51731 6.76560 6.17309
#
# Compressibility (1/GPa) = 0.02407040
#
# Stress axis : x y z
#
# Youngs Moduli (GPa) = 104.73422 32.48506 79.61097
#
# Poissons Ratio (x) = 0.26594 0.19177
# Poissons Ratio (y) = 0.85742 0.30376
# Poissons Ratio (z) = 0.25228 0.12395
#
# Static dielectric constant tensor:
#      x y z
#    x 1.970400 0.059270 0.040040 
#    y 0.059270 1.997570 0.018640 
#    z 0.040040 0.018640 1.955590 
# 
# From -- ./inp_files/121141.got.cif
#   From: 2010.05.17/outbox.cif.g08.bks.cpg/sg2_61_cif.got.tgz:121141.got - 2010.06.03 11:33:40.
