data_PCOD9107844
_publ_section_title
;
Structure prediction by ZEFSAII (Michael W. Deem and Ramdas Pophale) SiO2 
 PCOD9107844
Probable space group: P -1
;
_chemical_formula_sum "Si O2"
_cell_formula_units_Z 16
_cell_length_a 14.726506
_cell_length_b 7.049938
_cell_length_c 8.931348
_cell_angle_alpha 101.096989
_cell_angle_beta 52.322774
_cell_angle_gamma 106.552348
_cell_volume 703.277735
_symmetry_space_group_name_H-M "P -1"
_symmetry_group_IT_number 2
_symmetry_cell_setting 'triclinic'
loop_
_space_group_symop_operation_xyz
x,y,z
-x,-y,-z
loop_
_atom_site_type_symbol
_atom_site_label
_atom_site_fract_x
_atom_site_fract_y
_atom_site_fract_z
Si Si1 0.258436 0.920959 0.735075
Si Si2 0.875174 0.534912 0.456959
Si Si3 0.898037 0.067615 0.358089
Si Si4 0.105197 0.671691 0.096989
Si Si5 0.374490 0.208606 0.920338
Si Si6 0.731043 0.080587 0.775686
Si Si7 0.128741 0.307968 0.185330
Si Si8 0.363455 0.679664 0.351286
O O1 0.176415 0.020927 0.724304
O O2 0.340880 0.819601 0.531915
O O3 0.164583 0.759653 0.898410
O O4 0.338612 0.064565 0.792372
O O5 0.888731 0.304175 0.401403
O O6 0.902031 0.610797 0.610168
O O7 0.738144 0.516459 0.559601
O O8 0.968316 0.662227 0.269320
O O9 0.822884 0.989771 0.568784
O O10 0.038532 0.096019 0.224019
O O11 0.185995 0.787540 0.165639
O O12 0.113769 0.445883 0.082481
O O13 0.265259 0.311648 0.057112
O O14 0.362845 0.076505 0.061781
O O15 0.503418 0.340318 0.792145
O O16 0.667762 0.210818 0.751092
#
# Coordination Sequence:
#
# PCOD9107844 Si02
#       8
#     2   2   2   2   2   2   2   2
#     4   9  21  36  58  76 101 141 188 212 249 322
#     4   9  17  32  57  80 101 135 173 220 257 306
#     4   9  17  34  59  77 103 139 176 218 264 304
#     4  10  16  35  60  82  98 136 182 216 265 310
#     4  11  23  33  52  84 108 143 172 212 270 308
#     4   9  17  35  58  77  98 138 189 211 250 315
#     4  11  19  32  55  83 117 126 165 234 271 303
#     4  10  20  37  58  72 107 145 184 211 245 318
#
# _framework density 22.750613000000001
#
# number of rings (size 3 to 8) (size 9 to 14) (size 15 to 20)
#    0.000    2.500    3.750    1.500    0.000    6.000 
#    0.000    0.625   11.000    0.000    0.000    0.000 
#    0.000    0.000    0.000    0.000    0.000    0.000 
#
# Total GULP energy -89354.236699 kJ/mol
# GULP energy per Si atom -5584.639794 kJ/mol
# Density = 2.269883 g / cm^3
# Si number density = 22.750613 Si / 1000 Ang^3
#
#
#
# Elastic Constant Matrix: (Units=GPa)
#
#
# Indices 1 2 3 4 5 6 
#
# 1 93.7421 7.4512 60.0006 -10.6127 -23.3562 14.4711
# 2 7.4512 43.8223 15.9858 -15.5611 -4.6893 8.0185
# 3 60.0006 15.9858 101.2664 -14.1621 -12.5237 11.0766
# 4 -10.6127 -15.5611 -14.1621 23.2008 12.3480 -10.6346
# 5 -23.3562 -4.6893 -12.5237 12.3480 55.7250 -9.1205
# 6 14.4711 8.0185 11.0766 -10.6346 -9.1205 17.5024
#
#
#
# Elastic Compliance Matrix: (Units=1/GPa)
#
#
# Indices 1 2 3 4 5 6 
#
# 1 0.019875 0.001602 -0.010826 -0.003758 0.005250 -0.009862
# 2 0.001602 0.030844 -0.003062 0.019401 -0.002190 -0.002871
# 3 -0.010826 -0.003062 0.017083 0.005192 -0.001820 0.001749
# 4 -0.003758 0.019401 0.005192 0.078397 -0.010752 0.032964
# 5 0.005250 -0.002190 -0.001820 -0.010752 0.022420 0.002964
# 6 -0.009862 -0.002871 0.001749 0.032964 0.002964 0.087071
#
#
# Mechanical properties :
#
#
# Convention : Reuss Voigt Hill
#
# Bulk Modulus (GPa) = 23.13243 45.07844 34.10544
# Shear Modulus (GPa) = 16.96801 29.64521 23.30661
#
# Velocity S-wave (km/s) = 2.73395 3.61370 3.20416
# Velocity P-wave (km/s) = 4.48953 6.10483 5.35839
#
# Compressibility (1/GPa) = 0.04322935
#
# Stress axis : x y z
#
# Youngs Moduli (GPa) = 50.31477 32.42111 58.53931
#
# Poissons Ratio (x) = -0.05194 0.63376
# Poissons Ratio (y) = -0.08060 0.17923
# Poissons Ratio (z) = 0.54472 0.09927
#
# Static dielectric constant tensor:
#      x y z
#    x 1.899370 -0.046120 -0.046570 
#    y -0.046120 1.918680 0.039650 
#    z -0.046570 0.039650 1.868870 
# 
# From -- ./inp_files/176124.got.cif
#   From: 2010.05.17/outbox.cif.g08.bks.cpg/sg2_89_cif.got.tgz:176124.got - 2010.06.03 11:33:40.
