data_PCOD9107316
_publ_section_title
;
Structure prediction by ZEFSAII (Michael W. Deem and Ramdas Pophale) SiO2 
 PCOD9107316
Probable space group: P -1
;
_chemical_formula_sum "Si O2"
_cell_formula_units_Z 16
_cell_length_a 18.561448
_cell_length_b 10.909529
_cell_length_c 17.658741
_cell_angle_alpha 28.387893
_cell_angle_beta 24.838857
_cell_angle_gamma 42.351037
_cell_volume 681.907148
_symmetry_space_group_name_H-M "P -1"
_symmetry_group_IT_number 2
_symmetry_cell_setting 'triclinic'
loop_
_space_group_symop_operation_xyz
x,y,z
-x,-y,-z
loop_
_atom_site_type_symbol
_atom_site_label
_atom_site_fract_x
_atom_site_fract_y
_atom_site_fract_z
Si Si1 0.898624 0.245786 0.786803
Si Si2 0.570809 0.154623 0.426151
Si Si3 0.282716 0.334959 0.798736
Si Si4 0.104034 0.523692 0.567358
Si Si5 0.460916 0.630788 0.888996
Si Si6 0.311466 0.506024 0.527217
Si Si7 0.760325 0.642222 0.885843
Si Si8 0.315198 0.085529 0.053851
O O1 0.000000 0.500000 0.500000
O O2 0.034043 0.273389 0.713506
O O3 0.721605 0.297400 0.960606
O O4 0.821340 0.964767 0.970706
O O5 0.422023 0.283250 0.533610
O O6 0.500000 0.000000 0.500000
O O7 0.601577 0.922567 0.576778
O O8 0.728258 0.401007 0.109352
O O9 0.500000 0.500000 0.500000
O O10 0.225484 0.501928 0.694697
O O11 0.252218 0.272047 0.950893
O O12 0.174117 0.452783 0.618613
O O13 0.941204 0.652308 0.665114
O O14 0.258968 0.777144 0.248404
O O15 0.500000 0.500000 0.000000
O O16 0.405504 0.440541 0.970824
O O17 0.471514 0.782326 0.215429
O O18 0.763190 0.891889 0.800510
#
# Coordination Sequence:
#
# PCOD9107316 Si02
#       8
#     2   2   2   2   2   2   2   2
#     4  11  22  39  62  95 125 156 202 265 314 349
#     4   9  18  38  57  82 120 158 206 241 303 370
#     4  10  21  41  63  86 124 166 206 247 310 370
#     4  11  22  38  61  95 128 156 205 263 310 362
#     4  10  21  40  61  88 119 162 206 252 305 375
#     4  10  21  38  62  93 118 166 209 250 305 377
#     4   9  21  39  59  89 121 165 202 254 310 359
#     4  10  20  40  64  82 126 172 206 247 305 374
#
# _framework density 23.463605999999999
#
# number of rings (size 3 to 8) (size 9 to 14) (size 15 to 20)
#    0.000    2.000    2.500    0.750    0.000    3.500 
#    6.750    0.625    0.000    0.000    0.000    0.000 
#    0.000    0.000    0.000    0.000    0.000    0.000 
#
# Total GULP energy -89092.624889 kJ/mol
# GULP energy per Si atom -5568.289056 kJ/mol
# Density = 2.341020 g / cm^3
# Si number density = 23.463606 Si / 1000 Ang^3
#
#
#
# Elastic Constant Matrix: (Units=GPa)
#
#
# Indices 1 2 3 4 5 6 
#
# 1 175.7314 14.5539 32.5074 -18.7472 -8.9192 7.3424
# 2 14.5539 40.4727 20.5471 -3.9573 -12.4206 7.8691
# 3 32.5074 20.5471 98.6594 -23.6032 -12.4316 3.1942
# 4 -18.7472 -3.9573 -23.6032 26.1752 9.8505 -1.7963
# 5 -8.9192 -12.4206 -12.4316 9.8505 43.4883 -11.1753
# 6 7.3424 7.8691 3.1942 -1.7963 -11.1753 31.8473
#
#
#
# Elastic Compliance Matrix: (Units=1/GPa)
#
#
# Indices 1 2 3 4 5 6 
#
# 1 0.006388 -0.001390 -0.000983 0.003573 -0.000429 -0.000980
# 2 -0.001390 0.030769 -0.006074 -0.004632 0.006632 -0.004607
# 3 -0.000983 -0.006074 0.014428 0.011523 -0.000201 0.000860
# 4 0.003573 -0.004632 0.011523 0.054081 -0.009866 -0.001247
# 5 -0.000429 0.006632 -0.000201 -0.009866 0.029066 0.008123
# 6 -0.000980 -0.004607 0.000860 -0.001247 0.008123 0.035458
#
#
# Mechanical properties :
#
#
# Convention : Reuss Voigt Hill
#
# Bulk Modulus (GPa) = 28.82445 50.00893 39.41669
# Shear Modulus (GPa) = 25.17033 36.78584 30.97808
#
# Velocity S-wave (km/s) = 3.27882 3.96382 3.63748
# Velocity P-wave (km/s) = 5.16194 6.50452 5.87173
#
# Compressibility (1/GPa) = 0.03469277
#
# Stress axis : x y z
#
# Youngs Moduli (GPa) = 156.55017 32.49990 69.30862
#
# Poissons Ratio (x) = 0.04517 0.06812
# Poissons Ratio (y) = 0.21758 0.42095
# Poissons Ratio (z) = 0.15386 0.19739
#
# Static dielectric constant tensor:
#      x y z
#    x 2.002160 0.033060 0.068370 
#    y 0.033060 1.930000 -0.012780 
#    z 0.068370 -0.012780 1.993390 
# 
# From -- ./inp_files/244724.got.cif
#   From: 2010.05.17/outbox.cif.g08.bks.cpg/sg2_123_cif.got.tgz:244724.got - 2010.06.03 11:33:40.
