data_PCOD9107736
_publ_section_title
;
Structure prediction by ZEFSAII (Michael W. Deem and Ramdas Pophale) SiO2 
 PCOD9107736
Probable space group: P -1
;
_chemical_formula_sum "Si O2"
_cell_formula_units_Z 14
_cell_length_a 8.727156
_cell_length_b 7.583248
_cell_length_c 16.695595
_cell_angle_alpha 42.675118
_cell_angle_beta 82.837892
_cell_angle_gamma 104.030409
_cell_volume 644.937267
_symmetry_space_group_name_H-M "P -1"
_symmetry_group_IT_number 2
_symmetry_cell_setting 'triclinic'
loop_
_space_group_symop_operation_xyz
x,y,z
-x,-y,-z
loop_
_atom_site_type_symbol
_atom_site_label
_atom_site_fract_x
_atom_site_fract_y
_atom_site_fract_z
Si Si1 0.278426 0.686004 0.603156
Si Si2 0.134406 0.992834 0.825627
Si Si3 0.215611 0.646433 0.208785
Si Si4 0.079239 0.819238 0.707780
Si Si5 0.439786 0.402576 0.770059
Si Si6 0.970944 0.294365 0.494604
Si Si7 0.164200 0.176914 0.993229
O O1 0.453844 0.665124 0.621452
O O2 0.216357 0.793315 0.648591
O O3 0.230327 0.826414 0.484137
O O4 0.147483 0.323126 0.717232
O O5 0.148459 0.909917 0.762231
O O6 0.942679 0.757745 0.953185
O O7 0.306731 0.087549 0.838067
O O8 0.100892 0.495218 0.186846
O O9 0.387345 0.609029 0.213724
O O10 0.098489 0.468831 0.353107
O O11 0.239563 0.975197 0.094622
O O12 0.022165 0.049736 0.599473
O O13 0.327458 0.411029 0.850820
O O14 0.000000 0.500000 0.500000
O O15 0.000000 0.000000 0.000000
#
# Coordination Sequence:
#
# PCOD9107736 Si02
#       7
#     2   2   2   2   2   2   2
#     4   9  18  35  53  76 112 137 182 215 266 318
#     4   9  18  35  57  76 109 143 183 210 267 324
#     4  11  20  33  56  86 108 137 183 228 268 312
#     4  11  19  35  58  80 102 145 189 221 259 324
#     4   9  20  36  53  78 117 140 172 229 276 308
#     4  11  18  35  57  79 105 146 184 220 265 328
#     4  10  16  35  58  78 108 151 174 217 268 325
#
# _framework density 21.707536999999999
#
# number of rings (size 3 to 8) (size 9 to 14) (size 15 to 20)
#    0.857    1.143    4.286    2.143    0.000    0.000 
#    0.000   15.714    0.000    0.000    0.000    0.000 
#    0.000    0.000    0.000    0.000    0.000    0.000 
#
# Total GULP energy -77959.112075 kJ/mol
# GULP energy per Si atom -5568.508005 kJ/mol
# Density = 2.165813 g / cm^3
# Si number density = 21.707537 Si / 1000 Ang^3
#
#
#
# Elastic Constant Matrix: (Units=GPa)
#
#
# Indices 1 2 3 4 5 6 
#
# 1 120.0263 17.1441 12.8426 -10.6698 9.4141 5.0539
# 2 17.1441 121.3126 9.2603 21.9162 -10.3633 -9.3277
# 3 12.8426 9.2603 45.5240 0.4782 13.2499 -6.1936
# 4 -10.6698 21.9162 0.4782 18.9512 -7.6473 2.3379
# 5 9.4141 -10.3633 13.2499 -7.6473 37.4645 -3.8476
# 6 5.0539 -9.3277 -6.1936 2.3379 -3.8476 24.0117
#
#
#
# Elastic Compliance Matrix: (Units=1/GPa)
#
#
# Indices 1 2 3 4 5 6 
#
# 1 0.010383 -0.003649 -0.002722 0.010366 -0.001104 -0.005491
# 2 -0.003649 0.012585 -0.000964 -0.016646 0.002098 0.007365
# 3 -0.002722 -0.000964 0.026589 -0.005681 -0.009521 0.006084
# 4 0.010366 -0.016646 -0.005681 0.084200 0.010275 -0.016665
# 5 -0.001104 0.002098 -0.009521 0.010275 0.033315 0.002929
# 6 -0.005491 0.007365 0.006084 -0.016665 0.002929 0.049325
#
#
# Mechanical properties :
#
#
# Convention : Reuss Voigt Hill
#
# Bulk Modulus (GPa) = 28.66332 40.59522 34.62927
# Shear Modulus (GPa) = 20.60192 32.59320 26.59756
#
# Velocity S-wave (km/s) = 3.08404 3.87908 3.50418
# Velocity P-wave (km/s) = 5.09065 6.22934 5.68856
#
# Compressibility (1/GPa) = 0.03488779
#
# Stress axis : x y z
#
# Youngs Moduli (GPa) = 96.30918 79.45781 37.60960
#
# Poissons Ratio (x) = 0.28993 0.10236
# Poissons Ratio (y) = 0.35142 0.03627
# Poissons Ratio (z) = 0.26212 0.07662
#
# Static dielectric constant tensor:
#      x y z
#    x 1.826230 0.029620 -0.007150 
#    y 0.029620 1.806380 -0.054770 
#    z -0.007150 -0.054770 1.918420 
# 
# From -- ./inp_files/554905.got.cif
#   From: 2010.05.17/outbox.cif.g08.bks.cpg/sg2_278_cif.got.tgz:554905.got - 2010.06.03 11:33:40.
