data_PCOD9107180
_publ_section_title
;
Structure prediction by ZEFSAII (Michael W. Deem and Ramdas Pophale) SiO2 
 PCOD9107180
Probable space group: P -1
;
_chemical_formula_sum "Si O2"
_cell_formula_units_Z 16
_cell_length_a 11.722554
_cell_length_b 21.537866
_cell_length_c 5.011654
_cell_angle_alpha 68.195221
_cell_angle_beta 84.597523
_cell_angle_gamma 42.057719
_cell_volume 752.671098
_symmetry_space_group_name_H-M "P -1"
_symmetry_group_IT_number 2
_symmetry_cell_setting 'triclinic'
loop_
_space_group_symop_operation_xyz
x,y,z
-x,-y,-z
loop_
_atom_site_type_symbol
_atom_site_label
_atom_site_fract_x
_atom_site_fract_y
_atom_site_fract_z
Si Si1 0.207060 0.147960 0.252398
Si Si2 0.691825 0.386578 0.569273
Si Si3 0.984975 0.667990 0.336624
Si Si4 0.064446 0.035646 0.767002
Si Si5 0.708050 0.033341 0.668438
Si Si6 0.682638 0.766505 0.636747
Si Si7 0.939688 0.570958 0.150772
Si Si8 0.836509 0.253382 0.271798
O O1 0.305913 0.164609 0.346331
O O2 0.023913 0.209132 0.341255
O O3 0.304727 0.035959 0.339507
O O4 0.133800 0.214634 0.894551
O O5 0.500000 0.500000 0.500000
O O6 0.694174 0.345896 0.358501
O O7 0.828557 0.387861 0.514095
O O8 0.769826 0.301447 0.914647
O O9 0.850923 0.688064 0.525033
O O10 0.018768 0.608691 0.157147
O O11 0.897055 0.152253 0.502071
O O12 0.188487 0.972010 0.578960
O O13 0.179491 0.021382 0.995931
O O14 0.000000 0.000000 0.000000
O O15 0.513214 0.150793 0.572054
O O16 0.733798 0.685245 0.965180
O O17 0.000000 0.500000 0.500000
O O18 0.000000 0.500000 0.000000
#
# Coordination Sequence:
#
# PCOD9107180 Si02
#       8
#     2   2   2   2   2   2   2   2
#     4   9  20  36  61  96 133 160 193 251 330 387
#     4  11  22  39  64  95 127 157 214 266 313 372
#     4  10  21  38  65  91 127 170 199 253 328 374
#     4  11  24  45  66  86 129 175 215 255 310 375
#     4  11  25  38  66 100 126 164 211 259 312 377
#     4  11  22  39  65  97 130 160 209 258 316 384
#     4  11  23  41  62  83 120 173 212 253 311 369
#     4  10  20  40  63  90 125 170 201 257 325 371
#
# _framework density 21.257622999999999
#
# number of rings (size 3 to 8) (size 9 to 14) (size 15 to 20)
#    0.000    1.500    2.500    3.375    5.250    0.500 
#    0.000    3.750    0.000    0.000    0.000    0.000 
#    0.000    0.000    0.000    0.000    0.000    0.000 
#
# Total GULP energy -89156.108683 kJ/mol
# GULP energy per Si atom -5572.256793 kJ/mol
# Density = 2.120924 g / cm^3
# Si number density = 21.257623 Si / 1000 Ang^3
#
#
#
# Elastic Constant Matrix: (Units=GPa)
#
#
# Indices 1 2 3 4 5 6 
#
# 1 31.6915 26.8442 18.2231 -12.6495 -8.5391 1.2690
# 2 26.8442 88.9505 25.3737 -6.4506 0.5794 -8.4579
# 3 18.2231 25.3737 95.9351 -1.1137 -20.5692 -1.3643
# 4 -12.6495 -6.4506 -1.1137 45.5505 7.7995 2.4443
# 5 -8.5391 0.5794 -20.5692 7.7995 28.1505 0.5345
# 6 1.2690 -8.4579 -1.3643 2.4443 0.5345 28.4309
#
#
#
# Elastic Compliance Matrix: (Units=1/GPa)
#
#
# Indices 1 2 3 4 5 6 
#
# 1 0.054817 -0.015458 -0.003944 0.011500 0.011038 -0.008431
# 2 -0.015458 0.017330 -0.003108 -0.001008 -0.007150 0.005917
# 3 -0.003944 -0.003108 0.014099 -0.002898 0.009973 -0.000010
# 4 0.011500 -0.001008 -0.002898 0.026089 -0.005778 -0.003086
# 5 0.011038 -0.007150 0.009973 -0.005778 0.047955 -0.002546
# 6 -0.008431 0.005917 -0.000010 -0.003086 -0.002546 0.037622
#
#
# Mechanical properties :
#
#
# Convention : Reuss Voigt Hill
#
# Bulk Modulus (GPa) = 24.25566 39.71768 31.98667
# Shear Modulus (GPa) = 19.47996 30.16879 24.82438
#
# Velocity S-wave (km/s) = 3.03045 3.77131 3.42100
# Velocity P-wave (km/s) = 4.86621 6.13908 5.53932
#
# Compressibility (1/GPa) = 0.04122749
#
# Stress axis : x y z
#
# Youngs Moduli (GPa) = 18.24239 57.70402 70.92532
#
# Poissons Ratio (x) = 0.89197 0.27973
# Poissons Ratio (y) = 0.28199 0.22042
# Poissons Ratio (z) = 0.07195 0.17933
#
# Static dielectric constant tensor:
#      x y z
#    x 1.846560 0.020810 -0.050030 
#    y 0.020810 1.796390 0.042790 
#    z -0.050030 0.042790 1.853050 
# 
# From -- ./inp_files/82535.got.cif
#   From: 2010.05.17/outbox.cif.g08.bks.cpg/sg2_42_cif.got.tgz:82535.got - 2010.06.03 11:33:40.
