data_PCOD9107082
_publ_section_title
;
Structure prediction by ZEFSAII (Michael W. Deem and Ramdas Pophale) SiO2 
 PCOD9107082
Probable space group: P -1
;
_chemical_formula_sum "Si O2"
_cell_formula_units_Z 12
_cell_length_a 9.506421
_cell_length_b 12.720659
_cell_length_c 8.416928
_cell_angle_alpha 65.001691
_cell_angle_beta 80.210088
_cell_angle_gamma 37.612454
_cell_volume 537.468217
_symmetry_space_group_name_H-M "P -1"
_symmetry_group_IT_number 2
_symmetry_cell_setting 'triclinic'
loop_
_space_group_symop_operation_xyz
x,y,z
-x,-y,-z
loop_
_atom_site_type_symbol
_atom_site_label
_atom_site_fract_x
_atom_site_fract_y
_atom_site_fract_z
Si Si1 0.714786 0.100098 0.588886
Si Si2 0.574868 0.589870 0.786837
Si Si3 0.943191 0.546306 0.796362
Si Si4 0.755486 0.890447 0.472824
Si Si5 0.357155 0.147768 0.788236
Si Si6 0.129696 0.834967 0.943912
O O1 0.572697 0.305408 0.418468
O O2 0.526615 0.130754 0.679737
O O3 0.804606 0.980326 0.485354
O O4 0.930311 0.965942 0.758192
O O5 0.702349 0.630843 0.756940
O O6 0.384446 0.705954 0.895150
O O7 0.780535 0.354195 0.899774
O O8 0.935537 0.682852 0.653760
O O9 0.137205 0.359029 0.769515
O O10 0.000000 0.500000 0.000000
O O11 0.743681 0.884158 0.290998
O O12 0.500000 0.000000 0.500000
O O13 0.500000 0.000000 0.000000
O O14 0.000000 0.000000 0.000000
#
# Coordination Sequence:
#
# PCOD9107082 Si02
#       6
#     2   2   2   2   2   2
#     4  11  24  46  70 102 139 183 227 285 351 415
#     4  11  25  47  70  98 142 180 238 287 345 414
#     4  12  23  39  67 103 139 178 217 285 351 419
#     4  10  20  40  62  98 138 169 216 276 344 416
#     4  11  23  38  64 102 140 177 223 274 350 419
#     4  11  27  49  71 100 133 188 243 292 341 405
#
# _framework density 22.326902
#
# number of rings (size 3 to 8) (size 9 to 14) (size 15 to 20)
#    0.000    1.000    3.333    5.000    2.333    2.000 
#    0.000    0.000    0.000    0.000    0.000    0.000 
#    0.000    0.000    0.000    0.000    0.000    0.000 
#
# Total GULP energy -66984.868096 kJ/mol
# GULP energy per Si atom -5582.072341 kJ/mol
# Density = 2.227608 g / cm^3
# Si number density = 22.326902 Si / 1000 Ang^3
#
#
#
# Elastic Constant Matrix: (Units=GPa)
#
#
# Indices 1 2 3 4 5 6 
#
# 1 52.7094 30.6730 19.8274 -3.7986 -0.6202 -0.7736
# 2 30.6730 126.2140 43.4946 4.6248 14.2320 13.8655
# 3 19.8274 43.4946 167.7270 -13.5612 12.2816 26.8318
# 4 -3.7986 4.6248 -13.5612 36.3561 4.2733 -2.0613
# 5 -0.6202 14.2320 12.2816 4.2733 42.8907 3.6418
# 6 -0.7736 13.8655 26.8318 -2.0613 3.6418 37.2858
#
#
#
# Elastic Compliance Matrix: (Units=1/GPa)
#
#
# Indices 1 2 3 4 5 6 
#
# 1 0.023293 -0.005793 -0.001836 0.002446 0.002212 0.003878
# 2 -0.005793 0.010579 -0.001615 -0.002398 -0.002658 -0.002765
# 3 -0.001836 -0.001615 0.007685 0.002801 -0.001575 -0.004659
# 4 0.002446 -0.002398 0.002801 0.029510 -0.002983 0.000849
# 5 0.002212 -0.002658 -0.001575 -0.002983 0.025015 -0.000441
# 6 0.003878 -0.002765 -0.004659 0.000849 -0.000441 0.031371
#
#
# Mechanical properties :
#
#
# Convention : Reuss Voigt Hill
#
# Bulk Modulus (GPa) = 43.34991 59.40448 51.37720
# Shear Modulus (GPa) = 32.54553 40.15020 36.34787
#
# Velocity S-wave (km/s) = 3.82210 4.24522 4.03921
# Velocity P-wave (km/s) = 6.23988 7.11995 6.69439
#
# Compressibility (1/GPa) = 0.02306810
#
# Stress axis : x y z
#
# Youngs Moduli (GPa) = 42.93153 94.52767 130.12159
#
# Poissons Ratio (x) = 0.54761 0.23888
# Poissons Ratio (y) = 0.24871 0.21021
# Poissons Ratio (z) = 0.07881 0.15271
#
# Static dielectric constant tensor:
#      x y z
#    x 1.835660 -0.015110 -0.037240 
#    y -0.015110 1.857090 -0.007510 
#    z -0.037240 -0.007510 1.884900 
# 
# From -- ./inp_files/185893.got.cif
#   From: 2010.05.17/outbox.cif.g08.bks.cpg/sg2_93_cif.got.tgz:185893.got - 2010.06.03 11:33:40.
