data_PCOD9107024
_publ_section_title
;
Structure prediction by ZEFSAII (Michael W. Deem and Ramdas Pophale) SiO2 
 PCOD9107024
Probable space group: P -1
;
_chemical_formula_sum "Si O2"
_cell_formula_units_Z 14
_cell_length_a 5.367516
_cell_length_b 15.390957
_cell_length_c 8.958328
_cell_angle_alpha 127.525414
_cell_angle_beta 104.920108
_cell_angle_gamma 70.003621
_cell_volume 550.342297
_symmetry_space_group_name_H-M "P -1"
_symmetry_group_IT_number 2
_symmetry_cell_setting 'triclinic'
loop_
_space_group_symop_operation_xyz
x,y,z
-x,-y,-z
loop_
_atom_site_type_symbol
_atom_site_label
_atom_site_fract_x
_atom_site_fract_y
_atom_site_fract_z
Si Si1 0.708545 0.447909 0.282651
Si Si2 0.828646 0.747284 0.962874
Si Si3 0.496213 0.323341 0.388631
Si Si4 0.393569 0.071868 0.408353
Si Si5 0.753713 0.387319 0.758008
Si Si6 0.353396 0.304274 0.805567
Si Si7 0.064893 0.020638 0.707119
O O1 0.639429 0.378057 0.337954
O O2 0.734760 0.571777 0.470261
O O3 0.428676 0.492785 0.197627
O O4 0.954698 0.370659 0.154138
O O5 0.648884 0.739816 0.072190
O O6 0.968572 0.848073 0.124395
O O7 0.644785 0.762760 0.803343
O O8 0.707499 0.300405 0.530463
O O9 0.348995 0.199325 0.586484
O O10 0.500000 0.000000 0.500000
O O11 0.626298 0.037382 0.289504
O O12 0.128992 0.035091 0.286851
O O13 0.600582 0.349737 0.834443
O O14 0.059358 0.384295 0.820396
O O15 0.000000 0.000000 0.500000
#
# Coordination Sequence:
#
# PCOD9107024 Si02
#       7
#     2   2   2   2   2   2   2
#     4   9  23  43  69  92 141 180 233 255 331 403
#     4  12  24  36  75 100 129 173 241 270 322 404
#     4   9  23  45  67  92 135 192 227 259 321 413
#     4  10  20  40  62  92 134 169 215 270 335 398
#     4  10  26  44  64  97 145 178 207 278 348 394
#     4  12  25  40  70 104 134 173 218 283 352 375
#     4  10  21  37  64  98 128 163 219 282 326 373
#
# _framework density 25.438714999999998
#
# number of rings (size 3 to 8) (size 9 to 14) (size 15 to 20)
#    0.857    0.857    2.857    1.286   10.000    1.143 
#    0.000    0.000    0.000    5.143    0.000    0.000 
#    0.000    0.000    0.000    0.000    0.000    0.000 
#
# Total GULP energy -78284.892533 kJ/mol
# GULP energy per Si atom -5591.778038 kJ/mol
# Density = 2.538081 g / cm^3
# Si number density = 25.438715 Si / 1000 Ang^3
#
#
#
# Elastic Constant Matrix: (Units=GPa)
#
#
# Indices 1 2 3 4 5 6 
#
# 1 138.7443 20.8886 16.6455 6.1641 -14.4563 -4.5166
# 2 20.8886 40.3158 13.0964 8.6944 -8.5857 -2.7314
# 3 16.6455 13.0964 125.0108 10.5994 12.7339 -4.2749
# 4 6.1641 8.6944 10.5994 40.5309 -5.8762 4.6527
# 5 -14.4563 -8.5857 12.7339 -5.8762 36.6060 4.3334
# 6 -4.5166 -2.7314 -4.2749 4.6527 4.3334 32.4967
#
#
#
# Elastic Compliance Matrix: (Units=1/GPa)
#
#
# Indices 1 2 3 4 5 6 
#
# 1 0.008119 -0.003286 -0.001015 0.000098 0.002764 0.000336
# 2 -0.003286 0.029723 -0.002830 -0.004478 0.005756 0.001543
# 3 -0.001015 -0.002830 0.009212 -0.002571 -0.004901 0.001854
# 4 0.000098 -0.004478 -0.002571 0.027618 0.004945 -0.005315
# 5 0.002764 0.005756 -0.004901 0.004945 0.032834 -0.004863
# 6 0.000336 0.001543 0.001854 -0.005315 -0.004863 0.032602
#
#
# Mechanical properties :
#
#
# Convention : Reuss Voigt Hill
#
# Bulk Modulus (GPa) = 30.49745 45.03686 37.76715
# Shear Modulus (GPa) = 30.24805 38.82276 34.53540
#
# Velocity S-wave (km/s) = 3.45201 3.91081 3.68855
# Velocity P-wave (km/s) = 5.28234 6.17536 5.74622
#
# Compressibility (1/GPa) = 0.03278963
#
# Stress axis : x y z
#
# Youngs Moduli (GPa) = 123.17239 33.64454 108.55846
#
# Poissons Ratio (x) = 0.11057 0.11020
# Poissons Ratio (y) = 0.40479 0.30723
# Poissons Ratio (z) = 0.12504 0.09522
#
# Static dielectric constant tensor:
#      x y z
#    x 2.015990 -0.020840 0.031910 
#    y -0.020840 2.022950 -0.006460 
#    z 0.031910 -0.006460 2.070600 
# 
# From -- ./inp_files/138258.got.cif
#   From: 2010.05.17/outbox.cif.g08.bks.cpg/sg2_70_cif.got.tgz:138258.got - 2010.06.03 11:33:40.
