data_PCOD9107160
_publ_section_title
;
Structure prediction by ZEFSAII (Michael W. Deem and Ramdas Pophale) SiO2 
 PCOD9107160
Probable space group: P -1
;
_chemical_formula_sum "Si O2"
_cell_formula_units_Z 16
_cell_length_a 16.346256
_cell_length_b 13.867327
_cell_length_c 12.667925
_cell_angle_alpha 55.377499
_cell_angle_beta 134.629272
_cell_angle_gamma 161.073109
_cell_volume 602.336897
_symmetry_space_group_name_H-M "P -1"
_symmetry_group_IT_number 2
_symmetry_cell_setting 'triclinic'
loop_
_space_group_symop_operation_xyz
x,y,z
-x,-y,-z
loop_
_atom_site_type_symbol
_atom_site_label
_atom_site_fract_x
_atom_site_fract_y
_atom_site_fract_z
Si Si1 0.695518 0.887341 0.125089
Si Si2 0.707672 0.290310 0.145813
Si Si3 0.715763 0.598260 0.098970
Si Si4 0.718224 0.121060 0.531345
Si Si5 0.702588 0.370939 0.380145
Si Si6 0.367863 0.215358 0.635879
Si Si7 0.265975 0.661738 0.100487
Si Si8 0.168938 0.147262 0.300545
O O1 0.774960 0.967530 0.270370
O O2 0.612572 0.937826 0.978467
O O3 0.351102 0.499023 0.021791
O O4 0.932112 0.029249 0.187614
O O5 0.995207 0.591860 0.299593
O O6 0.592620 0.048471 0.173924
O O7 0.801814 0.421252 0.032908
O O8 0.611736 0.392609 0.210376
O O9 0.500000 0.500000 0.000000
O O10 0.069353 0.979992 0.211514
O O11 0.595608 0.136782 0.391392
O O12 0.914463 0.268260 0.515866
O O13 0.448097 0.779242 0.546352
O O14 0.640707 0.379397 0.747711
O O15 0.151030 0.039728 0.448998
O O16 0.496555 0.466624 0.632748
O O17 0.000000 0.500000 0.000000
#
# Coordination Sequence:
#
# PCOD9107160 Si02
#       8
#     2   2   2   2   2   2   2   2
#     4  10  20  40  63  89 125 174 212 280 329 410
#     4  10  21  36  60  92 119 170 216 270 338 401
#     4  10  22  40  63  98 131 174 223 283 334 412
#     4  10  22  40  70  90 134 176 224 274 352 408
#     4  10  22  43  62  99 131 177 221 280 343 412
#     4  10  22  40  64  88 125 177 218 276 333 404
#     4  10  22  37  58  91 125 165 221 279 328 404
#     4  10  22  40  61  93 127 170 225 272 335 396
#
# _framework density 26.563206000000001
#
# number of rings (size 3 to 8) (size 9 to 14) (size 15 to 20)
#    0.000    2.000    1.250    1.125    3.500    4.500 
#    4.500    0.000    0.000    0.000    0.000    0.000 
#    0.000    0.000    0.000    0.000    0.000    0.000 
#
# Total GULP energy -89263.895601 kJ/mol
# GULP energy per Si atom -5578.993475 kJ/mol
# Density = 2.650275 g / cm^3
# Si number density = 26.563206 Si / 1000 Ang^3
#
#
#
# Elastic Constant Matrix: (Units=GPa)
#
#
# Indices 1 2 3 4 5 6 
#
# 1 91.1624 28.6252 33.0595 -2.0204 13.4737 -5.7523
# 2 28.6252 84.0749 14.4914 -19.4114 1.8808 3.7967
# 3 33.0595 14.4914 117.7115 -20.8557 10.9023 -11.6151
# 4 -2.0204 -19.4114 -20.8557 35.2300 -17.1701 -0.0547
# 5 13.4737 1.8808 10.9023 -17.1701 50.4263 4.6398
# 6 -5.7523 3.7967 -11.6151 -0.0547 4.6398 51.1086
#
#
#
# Elastic Compliance Matrix: (Units=1/GPa)
#
#
# Indices 1 2 3 4 5 6 
#
# 1 0.015233 -0.006224 -0.004197 -0.007846 -0.005762 0.001738
# 2 -0.006224 0.016544 0.001142 0.011889 0.005042 -0.002115
# 3 -0.004197 0.001142 0.010923 0.007374 0.001059 0.001837
# 4 -0.007846 0.011889 0.007374 0.046693 0.016096 -0.001502
# 5 -0.005762 0.005042 0.001059 0.016096 0.026728 -0.003192
# 6 0.001738 -0.002115 0.001837 -0.001502 -0.003192 0.020624
#
#
# Mechanical properties :
#
#
# Convention : Reuss Voigt Hill
#
# Bulk Modulus (GPa) = 41.42112 49.47789 45.44950
# Shear Modulus (GPa) = 30.60882 41.80450 36.20666
#
# Velocity S-wave (km/s) = 3.39824 3.97139 3.69594
# Velocity P-wave (km/s) = 5.56998 6.30049 5.94646
#
# Compressibility (1/GPa) = 0.02414227
#
# Stress axis : x y z
#
# Youngs Moduli (GPa) = 65.64574 60.44459 91.54865
#
# Poissons Ratio (x) = 0.37622 0.38423
# Poissons Ratio (y) = 0.40859 -0.10456
# Poissons Ratio (z) = 0.27552 -0.06903
#
# Static dielectric constant tensor:
#      x y z
#    x 2.076860 0.024350 0.018350 
#    y 0.024350 2.272960 0.052640 
#    z 0.018350 0.052640 2.166180 
# 
# From -- ./inp_files/538812.got.cif
#   From: 2010.05.17/outbox.cif.g08.bks.cpg/sg2_270_cif.got.tgz:538812.got - 2010.06.03 11:33:40.
