data_PCOD9107257
_publ_section_title
;
Structure prediction by ZEFSAII (Michael W. Deem and Ramdas Pophale) SiO2 
 PCOD9107257
Probable space group: P -1
;
_chemical_formula_sum "Si O2"
_cell_formula_units_Z 16
_cell_length_a 19.979215
_cell_length_b 8.963646
_cell_length_c 12.849114
_cell_angle_alpha 132.823767
_cell_angle_beta 153.969374
_cell_angle_gamma 46.235345
_cell_volume 716.887587
_symmetry_space_group_name_H-M "P -1"
_symmetry_group_IT_number 2
_symmetry_cell_setting 'triclinic'
loop_
_space_group_symop_operation_xyz
x,y,z
-x,-y,-z
loop_
_atom_site_type_symbol
_atom_site_label
_atom_site_fract_x
_atom_site_fract_y
_atom_site_fract_z
Si Si1 0.652649 0.803723 0.127055
Si Si2 0.287046 0.254453 0.048134
Si Si3 0.352378 0.366861 0.730487
Si Si4 0.795681 0.196321 0.305128
Si Si5 0.460738 0.965916 0.549345
Si Si6 0.116188 0.956765 0.013132
Si Si7 0.039115 0.037877 0.402659
Si Si8 0.003133 0.643194 0.828591
O O1 0.636954 0.684062 0.155505
O O2 0.817790 0.873519 0.398822
O O3 0.658077 0.699272 0.970246
O O4 0.500000 0.000000 0.000000
O O5 0.417030 0.214831 0.301852
O O6 0.134073 0.438101 0.946424
O O7 0.246627 0.027719 0.873038
O O8 0.352615 0.608122 0.821978
O O9 0.169297 0.384430 0.447651
O O10 0.442963 0.178423 0.693141
O O11 0.873057 0.174875 0.516667
O O12 0.932914 0.192629 0.411634
O O13 0.289508 0.921445 0.283531
O O14 0.500000 0.000000 0.500000
O O15 0.059228 0.747531 0.854943
O O16 0.011615 0.166400 0.019981
O O17 0.089640 0.998022 0.874513
#
# Coordination Sequence:
#
# PCOD9107257 Si02
#       8
#     2   2   2   2   2   2   2   2
#     4  11  22  39  65  97 133 164 203 279 324 378
#     4  11  24  44  65  98 132 167 218 267 327 375
#     4  11  22  42  67  97 129 168 218 261 330 382
#     4  10  23  39  66  98 128 167 215 269 317 388
#     4  11  25  44  64  92 137 173 211 264 321 387
#     4  10  22  41  67  94 126 171 218 263 311 384
#     4  10  20  40  63  95 130 161 217 264 317 382
#     4  10  22  39  68  96 123 166 219 271 308 379
#
# _framework density 22.318701000000001
#
# number of rings (size 3 to 8) (size 9 to 14) (size 15 to 20)
#    0.000    1.500    2.500    3.000    1.750    3.000 
#    0.000    3.125    0.000    0.000    0.000    0.000 
#    0.000    0.000    0.000    0.000    0.000    0.000 
#
# Total GULP energy -89330.098949 kJ/mol
# GULP energy per Si atom -5583.131184 kJ/mol
# Density = 2.226790 g / cm^3
# Si number density = 22.318701 Si / 1000 Ang^3
#
#
#
# Elastic Constant Matrix: (Units=GPa)
#
#
# Indices 1 2 3 4 5 6 
#
# 1 97.6912 24.1003 15.6271 -9.7253 -17.8113 0.2758
# 2 24.1003 108.2877 30.6897 -38.4741 -14.3187 -1.4420
# 3 15.6271 30.6897 114.6650 -30.5674 -28.6051 -3.0615
# 4 -9.7253 -38.4741 -30.5674 41.9084 9.8456 8.0552
# 5 -17.8113 -14.3187 -28.6051 9.8456 36.3736 -9.5617
# 6 0.2758 -1.4420 -3.0615 8.0552 -9.5617 19.7145
#
#
#
# Elastic Compliance Matrix: (Units=1/GPa)
#
#
# Indices 1 2 3 4 5 6 
#
# 1 0.011765 -0.002269 0.000347 -0.001223 0.006339 0.003297
# 2 -0.002269 0.014537 -0.000174 0.013729 -0.000499 -0.004784
# 3 0.000347 -0.000174 0.012906 0.006289 0.009623 0.004084
# 4 -0.001223 0.013729 0.006289 0.046865 -0.008530 -0.021288
# 5 0.006339 -0.000499 0.009623 -0.008530 0.047624 0.027952
# 6 0.003297 -0.004784 0.004084 -0.021288 0.027952 0.073217
#
#
# Mechanical properties :
#
#
# Convention : Reuss Voigt Hill
#
# Bulk Modulus (GPa) = 28.55711 51.27532 39.91622
# Shear Modulus (GPa) = 22.44374 36.28109 29.36242
#
# Velocity S-wave (km/s) = 3.17456 4.03624 3.63105
# Velocity P-wave (km/s) = 5.12446 6.68922 5.95843
#
# Compressibility (1/GPa) = 0.03501754
#
# Stress axis : x y z
#
# Youngs Moduli (GPa) = 84.99596 68.78894 77.48078
#
# Poissons Ratio (x) = 0.15610 -0.02691
# Poissons Ratio (y) = 0.19287 0.01347
# Poissons Ratio (z) = -0.02952 0.01196
#
# Static dielectric constant tensor:
#      x y z
#    x 1.933050 0.033300 0.040060 
#    y 0.033300 1.835590 0.009020 
#    z 0.040060 0.009020 1.902750 
# 
# From -- ./inp_files/470166.got.cif
#   From: 2010.05.17/outbox.cif.g08.bks.cpg/sg2_236_cif.got.tgz:470166.got - 2010.06.03 11:33:40.
