data_PCOD9107675
_publ_section_title
;
Structure prediction by ZEFSAII (Michael W. Deem and Ramdas Pophale) SiO2 
 PCOD9107675
Probable space group: P -1
;
_chemical_formula_sum "Si O2"
_cell_formula_units_Z 16
_cell_length_a 13.859597
_cell_length_b 19.031843
_cell_length_c 7.828941
_cell_angle_alpha 120.804197
_cell_angle_beta 121.502656
_cell_angle_gamma 22.421108
_cell_volume 668.865920
_symmetry_space_group_name_H-M "P -1"
_symmetry_group_IT_number 2
_symmetry_cell_setting 'triclinic'
loop_
_space_group_symop_operation_xyz
x,y,z
-x,-y,-z
loop_
_atom_site_type_symbol
_atom_site_label
_atom_site_fract_x
_atom_site_fract_y
_atom_site_fract_z
Si Si1 0.469051 0.923036 0.345952
Si Si2 0.225844 0.262445 0.924146
Si Si3 0.302554 0.790161 0.535633
Si Si4 0.598223 0.043735 0.292749
Si Si5 0.353236 0.769682 0.179067
Si Si6 0.031276 0.841600 0.813120
Si Si7 0.838853 0.291555 0.598479
Si Si8 0.330966 0.419525 0.096015
O O1 0.675569 0.766163 0.199841
O O2 0.489761 0.875272 0.497578
O O3 0.500000 0.000000 0.500000
O O4 0.189238 0.074367 0.209556
O O5 0.925719 0.458293 0.926300
O O6 0.318010 0.106733 0.811334
O O7 0.381088 0.197633 0.145786
O O8 0.431395 0.724935 0.392250
O O9 0.320201 0.682332 0.456232
O O10 0.434501 0.748117 0.765993
O O11 0.000000 0.000000 0.500000
O O12 0.863916 0.914193 0.330139
O O13 0.121812 0.983060 0.196013
O O14 0.567540 0.653473 0.093486
O O15 0.237652 0.753538 0.012674
O O16 0.148111 0.716747 0.606270
O O17 0.743796 0.436683 0.771136
#
# Coordination Sequence:
#
# PCOD9107675 Si02
#       8
#     2   2   2   2   2   2   2   2
#     4   9  18  34  60  90 118 159 212 258 302 365
#     4   9  18  35  57  86 120 157 195 258 311 362
#     4  12  23  40  65  89 124 175 212 245 321 395
#     4   8  17  33  58  87 115 153 205 252 308 360
#     4  11  23  39  61  93 129 171 204 254 325 382
#     4  10  20  41  64  90 129 164 212 264 310 376
#     4  10  20  40  65  91 125 164 208 272 308 361
#     4  11  24  42  61  94 137 155 209 275 314 362
#
# _framework density 23.92109
#
# number of rings (size 3 to 8) (size 9 to 14) (size 15 to 20)
#    0.000    2.000    2.500    1.875    1.750    1.500 
#    0.000    3.125    0.000    2.250    0.000    0.000 
#    0.000    0.000    0.000    0.000    0.000    0.000 
#
# Total GULP energy -89494.798006 kJ/mol
# GULP energy per Si atom -5593.424875 kJ/mol
# Density = 2.386664 g / cm^3
# Si number density = 23.921090 Si / 1000 Ang^3
#
#
#
# Elastic Constant Matrix: (Units=GPa)
#
#
# Indices 1 2 3 4 5 6 
#
# 1 122.0894 32.2213 37.8355 1.2309 -11.0333 -34.3603
# 2 32.2213 110.2763 43.2667 1.5449 -16.7524 -33.1421
# 3 37.8355 43.2667 111.5613 7.2402 -27.5272 -21.4525
# 4 1.2309 1.5449 7.2402 41.9755 -9.5550 7.6240
# 5 -11.0333 -16.7524 -27.5272 -9.5550 47.2448 12.7623
# 6 -34.3603 -33.1421 -21.4525 7.6240 12.7623 36.5060
#
#
#
# Elastic Compliance Matrix: (Units=1/GPa)
#
#
# Indices 1 2 3 4 5 6 
#
# 1 0.011865 0.000695 -0.002394 -0.002536 -0.002032 0.011632
# 2 0.000695 0.013624 -0.003242 -0.002218 -0.000522 0.011763
# 3 -0.002394 -0.003242 0.012478 -0.000851 0.005261 0.000474
# 4 -0.002536 -0.002218 -0.000851 0.028261 0.007464 -0.013412
# 5 -0.002032 -0.000522 0.005261 0.007464 0.027952 -0.010626
# 6 0.011632 0.011763 0.000474 -0.013412 -0.010626 0.055814
#
#
# Mechanical properties :
#
#
# Convention : Reuss Voigt Hill
#
# Bulk Modulus (GPa) = 35.60713 63.39712 49.50212
# Shear Modulus (GPa) = 29.54427 40.51883 35.03155
#
# Velocity S-wave (km/s) = 3.51817 4.12011 3.83098
# Velocity P-wave (km/s) = 5.60544 7.01384 6.34881
#
# Compressibility (1/GPa) = 0.02808426
#
# Stress axis : x y z
#
# Youngs Moduli (GPa) = 84.28501 73.39827 80.14386
#
# Poissons Ratio (x) = -0.05101 0.19183
# Poissons Ratio (y) = -0.05857 0.25986
# Poissons Ratio (z) = 0.20174 0.23799
#
# Static dielectric constant tensor:
#      x y z
#    x 1.984590 0.015860 0.068400 
#    y 0.015860 1.907780 -0.001000 
#    z 0.068400 -0.001000 1.917350 
# 
# From -- ./inp_files/319066.got.cif
#   From: 2010.05.17/outbox.cif.g08.bks.cpg/sg2_160_cif.got.tgz:319066.got - 2010.06.03 11:33:40.
