data_PCOD9107271
_publ_section_title
;
Structure prediction by ZEFSAII (Michael W. Deem and Ramdas Pophale) SiO2 
 PCOD9107271
Probable space group: P -1
;
_chemical_formula_sum "Si O2"
_cell_formula_units_Z 13
_cell_length_a 14.393042
_cell_length_b 8.552528
_cell_length_c 7.051567
_cell_angle_alpha 104.316691
_cell_angle_beta 124.478574
_cell_angle_gamma 42.783659
_cell_volume 463.576584
_symmetry_space_group_name_H-M "P -1"
_symmetry_group_IT_number 2
_symmetry_cell_setting 'triclinic'
loop_
_space_group_symop_operation_xyz
x,y,z
-x,-y,-z
loop_
_atom_site_type_symbol
_atom_site_label
_atom_site_fract_x
_atom_site_fract_y
_atom_site_fract_z
Si Si1 0.039073 0.633009 0.511649
Si Si2 0.497989 0.710173 0.651861
Si Si3 0.240516 0.449273 0.375667
Si Si4 0.829931 0.130711 0.561576
Si Si5 0.763853 0.868385 0.956564
Si Si6 0.325469 0.686587 0.970080
Si Si7 0.500000 0.000000 0.000000
O O1 0.000000 0.500000 0.500000
O O2 0.227979 0.451359 0.592402
O O3 0.970520 0.841273 0.638228
O O4 0.932612 0.733397 0.225151
O O5 0.580843 0.685033 0.545985
O O6 0.343521 0.748961 0.508024
O O7 0.647648 0.479986 0.892474
O O8 0.434874 0.933796 0.754320
O O9 0.136233 0.725079 0.283271
O O10 0.207522 0.307068 0.210529
O O11 0.801337 0.184515 0.316806
O O12 0.706236 0.108835 0.903266
O O13 0.631273 0.935375 0.971210
O O14 0.500000 0.500000 0.000000
#
# Coordination Sequence:
#
# PCOD9107271 Si02
#       7
#     2   2   2   2   2   2   1
#     4  11  24  45  63  85 127 173 207 250 313 375
#     4  10  20  38  65  92 126 158 210 257 306 363
#     4  11  24  38  63  95 124 162 208 261 311 358
#     4  10  21  43  61  88 130 163 208 255 306 373
#     4  10  21  40  64  90 127 155 215 254 301 371
#     4   9  17  37  64  87 121 164 199 249 311 363
#     4  10  16  34  64  90 114 160 200 244 308 352
#
# _framework density 28.042829999999999
#
# number of rings (size 3 to 8) (size 9 to 14) (size 15 to 20)
#    0.000    1.846    4.615    1.385    0.000    3.692 
#    0.000    7.692    0.000    0.000    0.000    0.000 
#    0.000    0.000    0.000    0.000    0.000    0.000 
#
# Total GULP energy -72451.215154 kJ/mol
# GULP energy per Si atom -5573.170396 kJ/mol
# Density = 2.797900 g / cm^3
# Si number density = 28.042830 Si / 1000 Ang^3
#
#
#
# Elastic Constant Matrix: (Units=GPa)
#
#
# Indices 1 2 3 4 5 6 
#
# 1 149.8093 28.5842 13.9095 3.7543 -11.9296 -7.0208
# 2 28.5842 174.6299 27.4123 28.4629 -3.5048 14.1872
# 3 13.9095 27.4123 71.8194 9.0670 6.3226 -0.7805
# 4 3.7543 28.4629 9.0670 30.3137 4.4204 2.5804
# 5 -11.9296 -3.5048 6.3226 4.4204 44.0375 14.6948
# 6 -7.0208 14.1872 -0.7805 2.5804 14.6948 46.8540
#
#
#
# Elastic Compliance Matrix: (Units=1/GPa)
#
#
# Indices 1 2 3 4 5 6 
#
# 1 0.007154 -0.001041 -0.001146 0.000111 0.001736 0.000818
# 2 -0.001041 0.007542 -0.002092 -0.006409 0.002200 -0.002812
# 3 -0.001146 -0.002092 0.015518 -0.002239 -0.003085 0.001811
# 4 0.000111 -0.006409 -0.002239 0.040232 -0.004577 0.001140
# 5 0.001736 0.002200 -0.003085 -0.004577 0.027167 -0.008726
# 6 0.000818 -0.002812 0.001811 0.001140 -0.008726 0.025021
#
#
# Mechanical properties :
#
#
# Convention : Reuss Voigt Hill
#
# Bulk Modulus (GPa) = 46.17713 59.56341 52.87027
# Shear Modulus (GPa) = 36.12394 45.99789 41.06092
#
# Velocity S-wave (km/s) = 3.59300 4.05442 3.83067
# Velocity P-wave (km/s) = 5.80649 6.57298 6.20159
#
# Compressibility (1/GPa) = 0.02165574
#
# Stress axis : x y z
#
# Youngs Moduli (GPa) = 139.78376 132.58496 64.43964
#
# Poissons Ratio (x) = 0.13799 0.07386
# Poissons Ratio (y) = 0.14548 0.13483
# Poissons Ratio (z) = 0.16023 0.27742
#
# Static dielectric constant tensor:
#      x y z
#    x 2.451620 0.052720 -0.046950 
#    y 0.052720 2.345980 -0.128160 
#    z -0.046950 -0.128160 2.244000 
# 
# From -- ./inp_files/293042.got.cif
#   From: 2010.05.17/outbox.cif.g08.bks.cpg/sg2_147_cif.got.tgz:293042.got - 2010.06.03 11:33:40.
