data_PCOD9107351
_publ_section_title
;
Structure prediction by ZEFSAII (Michael W. Deem and Ramdas Pophale) SiO2 
 PCOD9107351
Probable space group: P -1
;
_chemical_formula_sum "Si O2"
_cell_formula_units_Z 15
_cell_length_a 7.780102
_cell_length_b 13.539253
_cell_length_c 14.134901
_cell_angle_alpha 31.220471
_cell_angle_beta 102.011629
_cell_angle_gamma 84.021194
_cell_volume 627.178804
_symmetry_space_group_name_H-M "P -1"
_symmetry_group_IT_number 2
_symmetry_cell_setting 'triclinic'
loop_
_space_group_symop_operation_xyz
x,y,z
-x,-y,-z
loop_
_atom_site_type_symbol
_atom_site_label
_atom_site_fract_x
_atom_site_fract_y
_atom_site_fract_z
Si Si1 0.500000 0.000000 0.500000
Si Si2 0.786956 0.409923 0.398495
Si Si3 0.168429 0.967170 0.158367
Si Si4 0.468964 0.241729 0.779267
Si Si5 0.878249 0.782260 0.869200
Si Si6 0.126547 0.539231 0.346730
Si Si7 0.755321 0.694530 0.631361
Si Si8 0.019903 0.059383 0.560967
O O1 0.285708 0.162166 0.277499
O O2 0.427820 0.211863 0.391163
O O3 0.879251 0.196803 0.656375
O O4 0.562070 0.618538 0.242404
O O5 0.822903 0.291728 0.396817
O O6 0.936643 0.503601 0.341890
O O7 0.349830 0.816688 0.226554
O O8 0.228792 0.077142 0.160913
O O9 0.977629 0.192624 0.900127
O O10 0.252464 0.414745 0.556828
O O11 0.500000 0.000000 0.000000
O O12 0.031879 0.860799 0.786889
O O13 0.025822 0.516638 0.129071
O O14 0.280740 0.396484 0.394222
O O15 0.788925 0.902197 0.447889
O O16 0.000000 0.000000 0.500000
#
# Coordination Sequence:
#
# PCOD9107351 Si02
#       8
#     1   2   2   2   2   2   2   2
#     4  12  20  34  62  92 116 160 208 248 304 358
#     4  10  22  40  64  91 122 164 211 247 307 369
#     4  10  22  42  64  88 126 164 203 255 306 362
#     4  12  23  40  65  95 128 160 201 259 311 365
#     4  10  22  40  62  88 123 162 203 252 304 362
#     4  10  22  43  62  89 125 164 205 251 311 368
#     4  10  22  40  62  86 122 163 204 254 303 360
#     4  10  20  40  64  87 122 165 199 252 306 357
#
# _framework density 23.916625
#
# number of rings (size 3 to 8) (size 9 to 14) (size 15 to 20)
#    0.000    1.600    2.667    2.000    0.000    0.533 
#    2.400    2.667    5.867    0.000    0.000    0.000 
#    0.000    0.000    0.000    0.000    0.000    0.000 
#
# Total GULP energy -83566.598088 kJ/mol
# GULP energy per Si atom -5571.106539 kJ/mol
# Density = 2.386219 g / cm^3
# Si number density = 23.916625 Si / 1000 Ang^3
#
#
#
# Elastic Constant Matrix: (Units=GPa)
#
#
# Indices 1 2 3 4 5 6 
#
# 1 50.7683 26.7445 22.5072 -1.2392 -21.0443 7.7829
# 2 26.7445 173.8006 39.4477 -27.4286 9.0792 -25.6827
# 3 22.5072 39.4477 116.4456 -5.2106 -18.8639 -4.9974
# 4 -1.2392 -27.4286 -5.2106 37.6132 0.0138 8.9065
# 5 -21.0443 9.0792 -18.8639 0.0138 33.8664 -3.8533
# 6 7.7829 -25.6827 -4.9974 8.9065 -3.8533 27.1039
#
#
#
# Elastic Compliance Matrix: (Units=1/GPa)
#
#
# Indices 1 2 3 4 5 6 
#
# 1 0.036991 -0.009303 -0.001013 -0.002002 0.023133 -0.015678
# 2 -0.009303 0.010326 -0.002541 0.004702 -0.008923 0.009174
# 3 -0.001013 -0.002541 0.010641 -0.000632 0.006084 0.000917
# 4 -0.002002 0.004702 -0.000632 0.031250 -0.003536 -0.005857
# 5 0.023133 -0.008923 0.006084 -0.003536 0.049019 -0.005845
# 6 -0.015678 0.009174 0.000917 -0.005857 -0.005845 0.051352
#
#
# Mechanical properties :
#
#
# Convention : Reuss Voigt Hill
#
# Bulk Modulus (GPa) = 31.01499 57.60148 44.30823
# Shear Modulus (GPa) = 22.11968 36.53769 29.32869
#
# Velocity S-wave (km/s) = 3.04446 3.91283 3.50564
# Velocity P-wave (km/s) = 5.03532 6.67460 5.91205
#
# Compressibility (1/GPa) = 0.03224247
#
# Stress axis : x y z
#
# Youngs Moduli (GPa) = 27.03368 96.84330 93.97585
#
# Poissons Ratio (x) = 0.90096 0.09521
# Poissons Ratio (y) = 0.25150 0.23882
# Poissons Ratio (z) = 0.02739 0.24610
#
# Static dielectric constant tensor:
#      x y z
#    x 1.990850 -0.067390 -0.018020 
#    y -0.067390 2.004860 -0.001570 
#    z -0.018020 -0.001570 1.860300 
# 
# From -- ./inp_files/505059.got.cif
#   From: 2010.05.17/outbox.cif.g08.bks.cpg/sg2_253_cif.got.tgz:505059.got - 2010.06.03 11:33:40.
