data_PCOD9107771
_publ_section_title
;
Structure prediction by ZEFSAII (Michael W. Deem and Ramdas Pophale) SiO2 
 PCOD9107771
Probable space group: P -1
;
_chemical_formula_sum "Si O2"
_cell_formula_units_Z 16
_cell_length_a 5.543097
_cell_length_b 5.079779
_cell_length_c 26.171260
_cell_angle_alpha 73.756533
_cell_angle_beta 59.021251
_cell_angle_gamma 92.935631
_cell_volume 589.284778
_symmetry_space_group_name_H-M "P -1"
_symmetry_group_IT_number 2
_symmetry_cell_setting 'triclinic'
loop_
_space_group_symop_operation_xyz
x,y,z
-x,-y,-z
loop_
_atom_site_type_symbol
_atom_site_label
_atom_site_fract_x
_atom_site_fract_y
_atom_site_fract_z
Si Si1 0.219578 0.086309 0.695947
Si Si2 0.453096 0.133240 0.051912
Si Si3 0.877895 0.290806 0.087049
Si Si4 0.751411 0.768246 0.511418
Si Si5 0.158739 0.691782 0.630970
Si Si6 0.079527 0.731584 0.197545
Si Si7 0.831365 0.327482 0.604571
Si Si8 0.366780 0.356119 0.824724
O O1 0.214155 0.412694 0.667999
O O2 0.557564 0.090897 0.665803
O O3 0.012451 0.031694 0.770393
O O4 0.116692 0.904925 0.667357
O O5 0.743561 0.261882 0.045998
O O6 0.219642 0.321914 0.057509
O O7 0.278768 0.880322 0.121023
O O8 0.500000 0.000000 0.000000
O O9 0.762187 0.522214 0.118478
O O10 0.731659 0.984740 0.144372
O O11 0.440197 0.813662 0.558293
O O12 0.739477 0.465570 0.555710
O O13 0.873807 0.750904 0.441989
O O14 0.000000 0.000000 0.500000
O O15 0.902037 0.566671 0.626776
O O16 0.288760 0.576392 0.213726
O O17 0.785994 0.554095 0.213385
#
# Coordination Sequence:
#
# PCOD9107771 Si02
#       8
#     2   2   2   2   2   2   2   2
#     4  11  26  43  63  96 133 173 235 279 344 419
#     4  10  21  42  69 103 140 181 232 290 352 417
#     4  10  21  40  66  98 132 173 220 281 343 412
#     4  10  20  40  65  95 134 168 223 277 341 410
#     4  11  25  42  67  97 130 180 223 279 347 410
#     4  10  24  45  67 100 136 185 231 292 350 420
#     4  10  23  41  63  97 132 175 219 284 339 415
#     4  10  22  42  68  95 132 175 228 276 343 410
#
# _framework density 27.151562999999999
#
# number of rings (size 3 to 8) (size 9 to 14) (size 15 to 20)
#    0.000    1.750    1.250    1.500    3.500    4.500 
#    0.000   15.000    0.000    0.000    0.000    0.000 
#    0.000    0.000    0.000    0.000    0.000    0.000 
#
# Total GULP energy -89638.275774 kJ/mol
# GULP energy per Si atom -5602.392236 kJ/mol
# Density = 2.708976 g / cm^3
# Si number density = 27.151563 Si / 1000 Ang^3
#
#
#
# Elastic Constant Matrix: (Units=GPa)
#
#
# Indices 1 2 3 4 5 6 
#
# 1 209.7634 36.9381 49.9945 27.8821 -8.9424 16.7186
# 2 36.9381 91.8159 56.3890 30.3568 3.8413 7.8241
# 3 49.9945 56.3890 156.0276 46.0486 -20.0379 17.4937
# 4 27.8821 30.3568 46.0486 65.1279 4.3317 3.6695
# 5 -8.9424 3.8413 -20.0379 4.3317 36.0727 13.1471
# 6 16.7186 7.8241 17.4937 3.6695 13.1471 50.2041
#
#
#
# Elastic Compliance Matrix: (Units=1/GPa)
#
#
# Indices 1 2 3 4 5 6 
#
# 1 0.005556 -0.001488 -0.000266 -0.001536 0.002308 -0.002018
# 2 -0.001488 0.015680 -0.005194 -0.002738 -0.005105 0.001399
# 3 -0.000266 -0.005194 0.012173 -0.006429 0.010025 -0.005499
# 4 -0.001536 -0.002738 -0.006429 0.022140 -0.007614 0.003554
# 5 0.002308 -0.005105 0.010025 -0.007614 0.040220 -0.013442
# 6 -0.002018 0.001399 -0.005499 0.003554 -0.013442 0.025549
#
#
# Mechanical properties :
#
#
# Convention : Reuss Voigt Hill
#
# Bulk Modulus (GPa) = 51.25286 82.69445 66.97365
# Shear Modulus (GPa) = 35.28090 51.23331 43.25710
#
# Velocity S-wave (km/s) = 3.60864 4.34860 3.99579
# Velocity P-wave (km/s) = 6.02334 7.46569 6.78296
#
# Compressibility (1/GPa) = 0.01951111
#
# Stress axis : x y z
#
# Youngs Moduli (GPa) = 179.97695 63.77621 82.14863
#
# Poissons Ratio (x) = 0.09492 0.02189
# Poissons Ratio (y) = 0.26786 0.42670
# Poissons Ratio (z) = 0.04795 0.33127
#
# Static dielectric constant tensor:
#      x y z
#    x 2.219700 -0.055400 -0.007270 
#    y -0.055400 2.127070 -0.087860 
#    z -0.007270 -0.087860 2.151700 
# 
# From -- ./inp_files/11292.got.cif
#   From: 2010.05.17/outbox.cif.g08.bks.cpg/sg2_6_cif.got.tgz:11292.got - 2010.06.03 11:33:40.
