data_PCOD9107916
_publ_section_title
;
Structure prediction by ZEFSAII (Michael W. Deem and Ramdas Pophale) SiO2 
 PCOD9107916
Probable space group: P -1
;
_chemical_formula_sum "Si O2"
_cell_formula_units_Z 15
_cell_length_a 12.269002
_cell_length_b 6.905006
_cell_length_c 12.640639
_cell_angle_alpha 138.086820
_cell_angle_beta 97.575830
_cell_angle_gamma 89.190317
_cell_volume 703.384600
_symmetry_space_group_name_H-M "P -1"
_symmetry_group_IT_number 2
_symmetry_cell_setting 'triclinic'
loop_
_space_group_symop_operation_xyz
x,y,z
-x,-y,-z
loop_
_atom_site_type_symbol
_atom_site_label
_atom_site_fract_x
_atom_site_fract_y
_atom_site_fract_z
Si Si1 0.750994 0.639084 0.143805
Si Si2 0.612170 0.656570 0.522782
Si Si3 0.977464 0.640396 0.720868
Si Si4 0.958216 0.323326 0.025645
Si Si5 0.500000 0.000000 0.000000
Si Si6 0.412820 0.822214 0.154237
Si Si7 0.822167 0.315603 0.391743
Si Si8 0.429199 0.331065 0.706272
O O1 0.836667 0.405609 0.065725
O O2 0.691811 0.656045 0.255200
O O3 0.801880 0.963656 0.250942
O O4 0.659075 0.494449 0.990578
O O5 0.500000 0.500000 0.500000
O O6 0.704313 0.441105 0.425582
O O7 0.585828 0.797870 0.464481
O O8 0.657028 0.923295 0.713706
O O9 0.886801 0.453165 0.559999
O O10 0.975154 0.565533 0.814494
O O11 0.095278 0.606480 0.665445
O O12 0.963484 0.984371 0.863585
O O13 0.000000 0.500000 0.000000
O O14 0.511578 0.343643 0.174994
O O15 0.460086 0.897106 0.074814
O O16 0.507240 0.811927 0.250063
#
# Coordination Sequence:
#
# PCOD9107916 Si02
#       8
#     2   2   2   2   1   2   2   2
#     4  11  23  42  68 101 132 174 227 278 337 406
#     4  12  24  44  67  99 139 178 227 280 334 400
#     4  10  24  47  71  95 140 175 222 283 337 406
#     4  11  22  46  69 103 129 170 224 279 339 402
#     4  10  20  40  66  90 128 180 212 284 316 396
#     4  11  24  43  66  99 136 181 227 271 335 400
#     4  11  24  45  69 101 132 182 225 277 346 392
#     4  11  24  42  67  95 139 180 228 272 336 404
#
# _framework density 21.32546
#
# number of rings (size 3 to 8) (size 9 to 14) (size 15 to 20)
#    0.000    1.067    2.667    4.400    1.867    0.533 
#    7.200    0.000    0.000    0.000    0.000    0.000 
#    0.000    0.000    0.000    0.000    0.000    0.000 
#
# Total GULP energy -83508.368774 kJ/mol
# GULP energy per Si atom -5567.224585 kJ/mol
# Density = 2.127692 g / cm^3
# Si number density = 21.325460 Si / 1000 Ang^3
#
#
#
# Elastic Constant Matrix: (Units=GPa)
#
#
# Indices 1 2 3 4 5 6 
#
# 1 90.2074 25.1056 26.1175 -15.6829 -16.8106 -8.8379
# 2 25.1056 77.2453 37.1262 -23.5266 11.0395 9.3255
# 3 26.1175 37.1262 143.2718 -20.0494 -9.1004 4.9610
# 4 -15.6829 -23.5266 -20.0494 41.3989 0.0392 -4.3543
# 5 -16.8106 11.0395 -9.1004 0.0392 28.8098 5.8986
# 6 -8.8379 9.3255 4.9610 -4.3543 5.8986 25.0804
#
#
#
# Elastic Compliance Matrix: (Units=1/GPa)
#
#
# Indices 1 2 3 4 5 6 
#
# 1 0.016013 -0.006346 -0.000424 0.002892 0.010379 0.006147
# 2 -0.006346 0.021541 -0.003981 0.007361 -0.012134 -0.005326
# 3 -0.000424 -0.003981 0.008623 0.001635 0.004222 -0.001084
# 4 0.002892 0.007361 0.001635 0.030605 -0.001396 0.003600
# 5 0.010379 -0.012134 0.004222 -0.001396 0.047591 -0.004101
# 6 0.006147 -0.005326 -0.001084 0.003600 -0.004101 0.045822
#
#
# Mechanical properties :
#
#
# Convention : Reuss Voigt Hill
#
# Bulk Modulus (GPa) = 40.52543 54.15815 47.34179
# Shear Modulus (GPa) = 25.00958 33.88284 29.44621
#
# Velocity S-wave (km/s) = 3.42827 3.99036 3.71994
# Velocity P-wave (km/s) = 5.89197 6.83240 6.37954
#
# Compressibility (1/GPa) = 0.02467587
#
# Stress axis : x y z
#
# Youngs Moduli (GPa) = 62.44739 46.42380 115.96636
#
# Poissons Ratio (x) = 0.29459 0.04914
# Poissons Ratio (y) = 0.39627 0.46170
# Poissons Ratio (z) = 0.02646 0.18483
#
# Static dielectric constant tensor:
#      x y z
#    x 1.876560 -0.057560 -0.029940 
#    y -0.057560 1.768490 0.022750 
#    z -0.029940 0.022750 1.800890 
# 
# From -- ./inp_files/411388.got.cif
#   From: 2010.05.17/outbox.cif.g08.bks.cpg/sg2_206_cif.got.tgz:411388.got - 2010.06.03 11:33:40.
