data_PCOD9107608
_publ_section_title
;
Structure prediction by ZEFSAII (Michael W. Deem and Ramdas Pophale) SiO2 
 PCOD9107608
Probable space group: P -1
;
_chemical_formula_sum "Si O2"
_cell_formula_units_Z 14
_cell_length_a 9.359226
_cell_length_b 10.512055
_cell_length_c 9.123607
_cell_angle_alpha 63.753079
_cell_angle_beta 72.937182
_cell_angle_gamma 39.018031
_cell_volume 504.841894
_symmetry_space_group_name_H-M "P -1"
_symmetry_group_IT_number 2
_symmetry_cell_setting 'triclinic'
loop_
_space_group_symop_operation_xyz
x,y,z
-x,-y,-z
loop_
_atom_site_type_symbol
_atom_site_label
_atom_site_fract_x
_atom_site_fract_y
_atom_site_fract_z
Si Si1 0.330923 0.302651 0.007501
Si Si2 0.791461 0.401868 0.336560
Si Si3 0.287666 0.056141 0.317949
Si Si4 0.524463 0.324084 0.374666
Si Si5 0.079391 0.662793 0.136754
Si Si6 0.694240 0.234856 0.073187
Si Si7 0.078797 0.284988 0.558288
O O1 0.348146 0.127220 0.140013
O O2 0.134121 0.515293 0.063888
O O3 0.265217 0.404531 0.814378
O O4 0.565728 0.217027 0.016010
O O5 0.597757 0.427637 0.350453
O O6 0.872360 0.349625 0.505765
O O7 0.031182 0.184759 0.298432
O O8 0.258877 0.155100 0.435820
O O9 0.443035 0.811771 0.436450
O O10 0.295166 0.479469 0.272183
O O11 0.708792 0.160693 0.270502
O O12 0.095040 0.814386 0.004003
O O13 0.876544 0.793732 0.248375
O O14 0.500000 0.500000 0.000000
O O15 0.000000 0.500000 0.500000
#
# Coordination Sequence:
#
# PCOD9107608 Si02
#       7
#     2   2   2   2   2   2   2
#     4  10  16  35  55  83  96 145 185 217 249 315
#     4  10  19  34  58  76 111 139 181 216 259 322
#     4  10  22  30  56  82 113 133 176 227 266 305
#     4  10  18  35  54  88 100 139 182 224 259 304
#     4  10  17  35  59  76 108 138 183 215 257 328
#     4   8  16  29  57  74 105 132 184 217 245 318
#     4  10  22  35  50  83 112 140 173 215 276 317
#
# _framework density 27.731455
#
# number of rings (size 3 to 8) (size 9 to 14) (size 15 to 20)
#    0.857    1.714    5.714    0.857    0.000    2.857 
#    0.000    0.714    0.000    0.857    0.000    0.000 
#    0.000    0.000    0.000    0.000    0.000    0.000 
#
# Total GULP energy -78174.426564 kJ/mol
# GULP energy per Si atom -5583.887612 kJ/mol
# Density = 2.766834 g / cm^3
# Si number density = 27.731455 Si / 1000 Ang^3
#
#
#
# Elastic Constant Matrix: (Units=GPa)
#
#
# Indices 1 2 3 4 5 6 
#
# 1 87.8155 7.0839 -2.5628 -9.2579 0.8143 2.6824
# 2 7.0839 61.0160 34.2432 -23.7615 -3.1908 1.5758
# 3 -2.5628 34.2432 166.8387 -4.2464 -6.5322 -3.0360
# 4 -9.2579 -23.7615 -4.2464 47.9028 1.6168 5.9558
# 5 0.8143 -3.1908 -6.5322 1.6168 36.9659 -6.5705
# 6 2.6824 1.5758 -3.0360 5.9558 -6.5705 23.6999
#
#
#
# Elastic Compliance Matrix: (Units=1/GPa)
#
#
# Indices 1 2 3 4 5 6 
#
# 1 0.011754 -0.000644 0.000305 0.002254 -0.000717 -0.002014
# 2 -0.000644 0.023887 -0.004710 0.011958 -0.000200 -0.005179
# 3 0.000305 -0.004710 0.007002 -0.001950 0.001268 0.002017
# 4 0.002254 0.011958 -0.001950 0.028265 -0.002200 -0.009013
# 5 -0.000717 -0.000200 0.001268 -0.002200 0.028941 0.008833
# 6 -0.002014 -0.005179 0.002017 -0.009013 0.008833 0.047739
#
#
# Mechanical properties :
#
#
# Convention : Reuss Voigt Hill
#
# Bulk Modulus (GPa) = 30.72579 43.68874 37.20727
# Shear Modulus (GPa) = 29.66753 40.17411 34.92082
#
# Velocity S-wave (km/s) = 3.27435 3.81029 3.55244
# Velocity P-wave (km/s) = 5.03974 5.92842 5.50205
#
# Compressibility (1/GPa) = 0.03254594
#
# Stress axis : x y z
#
# Youngs Moduli (GPa) = 85.07648 41.86291 142.81600
#
# Poissons Ratio (x) = 0.02695 -0.04361
# Poissons Ratio (y) = 0.05477 0.67273
# Poissons Ratio (z) = -0.02598 0.19719
#
# Static dielectric constant tensor:
#      x y z
#    x 2.202820 -0.146120 -0.166350 
#    y -0.146120 2.349000 0.139940 
#    z -0.166350 0.139940 2.300200 
# 
# From -- ./inp_files/256765.got.cif
#   From: 2010.05.17/outbox.cif.g08.bks.cpg/sg2_129_cif.got.tgz:256765.got - 2010.06.03 11:33:40.
