data_PCOD9107546
_publ_section_title
;
Structure prediction by ZEFSAII (Michael W. Deem and Ramdas Pophale) SiO2 
 PCOD9107546
Probable space group: P -1
;
_chemical_formula_sum "Si O2"
_cell_formula_units_Z 15
_cell_length_a 16.128144
_cell_length_b 5.231399
_cell_length_c 24.357107
_cell_angle_alpha 64.791192
_cell_angle_beta 159.978912
_cell_angle_gamma 114.630964
_cell_volume 635.665552
_symmetry_space_group_name_H-M "P -1"
_symmetry_group_IT_number 2
_symmetry_cell_setting 'triclinic'
loop_
_space_group_symop_operation_xyz
x,y,z
-x,-y,-z
loop_
_atom_site_type_symbol
_atom_site_label
_atom_site_fract_x
_atom_site_fract_y
_atom_site_fract_z
Si Si1 0.584618 0.674273 0.860268
Si Si2 0.339662 0.163321 0.822245
Si Si3 0.297065 0.912711 0.428717
Si Si4 0.984937 0.333195 0.949073
Si Si5 0.504770 0.616386 0.428500
Si Si6 0.500000 0.500000 0.000000
Si Si7 0.231465 0.172175 0.924589
Si Si8 0.919445 0.168013 0.488111
O O1 0.463483 0.388782 0.836555
O O2 0.369992 0.850823 0.686400
O O3 0.716418 0.840113 0.977723
O O4 0.778017 0.585299 0.945684
O O5 0.074397 0.070718 0.644597
O O6 0.335591 0.334981 0.860123
O O7 0.512727 0.895176 0.943303
O O8 0.320198 0.580134 0.477065
O O9 0.023745 0.977740 0.235689
O O10 0.500000 0.000000 0.500000
O O11 0.385689 0.069074 0.524005
O O12 0.751946 0.391320 0.761123
O O13 0.000000 0.500000 0.000000
O O14 0.000000 0.000000 0.000000
O O15 0.500000 0.500000 0.500000
O O16 0.746286 0.504542 0.111383
O O17 0.000000 0.500000 0.500000
O O18 0.000000 0.000000 0.500000
#
# Coordination Sequence:
#
# PCOD9107546 Si02
#       8
#     2   2   2   2   2   1   2   2
#     4  10  23  41  71  95 131 188 236 284 365 435
#     4  10  22  40  70  94 136 179 232 294 356 445
#     4  10  22  37  67 101 134 177 237 289 337 423
#     4  12  28  47  71 106 151 188 242 308 367 429
#     4  10  22  44  68  98 138 184 239 291 351 426
#     4  10  24  42  58 108 136 176 226 304 364 426
#     4  11  22  40  71  98 136 185 238 291 370 427
#     4  10  20  40  64  99 124 168 232 285 338 424
#
# _framework density 23.597315999999999
#
# number of rings (size 3 to 8) (size 9 to 14) (size 15 to 20)
#    0.000    1.600    1.333    2.800    9.333    0.000 
#    4.800    0.000    0.000    0.000    0.000    0.000 
#    0.000    0.000    0.000    0.000    0.000    0.000 
#
# Total GULP energy -83553.285337 kJ/mol
# GULP energy per Si atom -5570.219022 kJ/mol
# Density = 2.354361 g / cm^3
# Si number density = 23.597316 Si / 1000 Ang^3
#
#
#
# Elastic Constant Matrix: (Units=GPa)
#
#
# Indices 1 2 3 4 5 6 
#
# 1 102.7119 31.1795 85.9924 7.3349 -22.9271 -26.8943
# 2 31.1795 103.1697 36.0189 -3.4093 -17.9156 -48.5082
# 3 85.9924 36.0189 227.6952 7.9523 -21.3321 -34.9090
# 4 7.3349 -3.4093 7.9523 34.8694 -3.7561 -7.4214
# 5 -22.9271 -17.9156 -21.3321 -3.7561 27.4074 5.8796
# 6 -26.8943 -48.5082 -34.9090 -7.4214 5.8796 45.0819
#
#
#
# Elastic Compliance Matrix: (Units=1/GPa)
#
#
# Indices 1 2 3 4 5 6 
#
# 1 0.017403 0.001477 -0.004778 0.000166 0.010337 0.006951
# 2 0.001477 0.024652 0.000713 0.009269 0.013220 0.027761
# 3 -0.004778 0.000713 0.006623 0.000306 0.001031 0.002962
# 4 0.000166 0.009269 0.000306 0.033475 0.007849 0.014797
# 5 0.010337 0.013220 0.001031 0.007849 0.052294 0.015662
# 6 0.006951 0.027761 0.002962 0.014797 0.015662 0.058886
#
#
# Mechanical properties :
#
#
# Convention : Reuss Voigt Hill
#
# Bulk Modulus (GPa) = 22.98619 82.21757 52.60188
# Shear Modulus (GPa) = 23.47314 40.16415 31.81865
#
# Velocity S-wave (km/s) = 3.15737 4.13008 3.67604
# Velocity P-wave (km/s) = 4.80147 7.59349 6.35276
#
# Compressibility (1/GPa) = 0.04350439
#
# Stress axis : x y z
#
# Youngs Moduli (GPa) = 57.46031 40.56482 150.97762
#
# Poissons Ratio (x) = -0.05993 0.72137
# Poissons Ratio (y) = -0.08489 -0.10771
# Poissons Ratio (z) = 0.27454 -0.02894
#
# Static dielectric constant tensor:
#      x y z
#    x 2.061040 0.329020 -0.149510 
#    y 0.329020 2.673210 -0.298120 
#    z -0.149510 -0.298120 2.053200 
# 
# From -- ./inp_files/105272.got.cif
#   From: 2010.05.17/outbox.cif.g08.bks.cpg/sg2_53_cif.got.tgz:105272.got - 2010.06.03 11:33:40.
