data_PCOD9107183
_publ_section_title
;
Structure prediction by ZEFSAII (Michael W. Deem and Ramdas Pophale) SiO2 
 PCOD9107183
Probable space group: P -1
;
_chemical_formula_sum "Si O2"
_cell_formula_units_Z 15
_cell_length_a 10.881151
_cell_length_b 8.902690
_cell_length_c 8.685690
_cell_angle_alpha 94.326419
_cell_angle_beta 72.080471
_cell_angle_gamma 62.870991
_cell_volume 688.990407
_symmetry_space_group_name_H-M "P -1"
_symmetry_group_IT_number 2
_symmetry_cell_setting 'triclinic'
loop_
_space_group_symop_operation_xyz
x,y,z
-x,-y,-z
loop_
_atom_site_type_symbol
_atom_site_label
_atom_site_fract_x
_atom_site_fract_y
_atom_site_fract_z
Si Si1 0.478285 0.235156 0.110201
Si Si2 0.707929 0.631653 0.106735
Si Si3 0.462605 0.549085 0.337808
Si Si4 0.825045 0.035176 0.876909
Si Si5 0.413968 0.005203 0.686110
Si Si6 0.923331 0.253762 0.066498
Si Si7 0.227670 0.846294 0.618294
Si Si8 0.000000 0.000000 0.500000
O O1 0.461127 0.400834 0.225010
O O2 0.478962 0.096413 0.219096
O O3 0.348017 0.307227 0.040369
O O4 0.645084 0.134924 0.963131
O O5 0.580062 0.596034 0.224636
O O6 0.694941 0.795024 0.214213
O O7 0.861785 0.451505 0.056548
O O8 0.500000 0.500000 0.500000
O O9 0.299832 0.719802 0.433154
O O10 0.893515 0.981154 0.676578
O O11 0.876411 0.163349 0.945123
O O12 0.907413 0.867578 0.947824
O O13 0.500000 0.000000 0.500000
O O14 0.333472 0.895905 0.670939
O O15 0.830639 0.245149 0.249339
O O16 0.097366 0.016716 0.602503
#
# Coordination Sequence:
#
# PCOD9107183 Si02
#       8
#     2   2   2   2   2   2   2   1
#     4  12  24  40  64  96 130 168 215 272 311 373
#     4  12  23  37  60  97 127 167 216 257 320 375
#     4  12  19  36  64  95 122 160 216 267 308 364
#     4  10  20  40  63  90 127 155 216 262 327 352
#     4  12  24  41  61  92 138 174 202 256 333 392
#     4  10  21  39  66  89 122 170 213 265 308 382
#     4  11  21  41  63  98 125 164 213 260 327 367
#     4  10  24  36  68  94 118 166 210 278 296 384
#
# _framework density 21.770986000000001
#
# number of rings (size 3 to 8) (size 9 to 14) (size 15 to 20)
#    0.000    0.800    6.667    1.600    1.867    0.000 
#    0.000    0.667    0.000    3.200    0.000    0.000 
#    0.000    0.000    0.000    0.000    0.000    0.000 
#
# Total GULP energy -83521.530650 kJ/mol
# GULP energy per Si atom -5568.102043 kJ/mol
# Density = 2.172143 g / cm^3
# Si number density = 21.770986 Si / 1000 Ang^3
#
#
#
# Elastic Constant Matrix: (Units=GPa)
#
#
# Indices 1 2 3 4 5 6 
#
# 1 36.8653 23.1621 18.2247 2.1848 10.4497 -7.5357
# 2 23.1621 139.7978 42.3698 7.1686 14.4546 -8.3876
# 3 18.2247 42.3698 110.3403 -6.3675 -2.4469 -8.6937
# 4 2.1848 7.1686 -6.3675 43.8182 -6.1398 8.6772
# 5 10.4497 14.4546 -2.4469 -6.1398 30.3215 -6.5749
# 6 -7.5357 -8.3876 -8.6937 8.6772 -6.5749 19.1393
#
#
#
# Elastic Compliance Matrix: (Units=1/GPa)
#
#
# Indices 1 2 3 4 5 6 
#
# 1 0.036531 -0.002608 -0.004811 -0.005554 -0.010714 0.009892
# 2 -0.002608 0.009199 -0.003236 -0.002677 -0.003991 0.001377
# 3 -0.004811 -0.003236 0.011569 0.002683 0.005224 0.002521
# 4 -0.005554 -0.002677 0.002683 0.027247 0.006246 -0.012348
# 5 -0.010714 -0.003991 0.005224 0.006246 0.041996 0.008001
# 6 0.009892 0.001377 0.002521 -0.012348 0.008001 0.066239
#
#
# Mechanical properties :
#
#
# Convention : Reuss Voigt Hill
#
# Bulk Modulus (GPa) = 27.78637 50.50185 39.14411
# Shear Modulus (GPa) = 22.11535 32.20559 27.16047
#
# Velocity S-wave (km/s) = 3.19065 3.85033 3.53590
# Velocity P-wave (km/s) = 5.13462 6.55850 5.88975
#
# Compressibility (1/GPa) = 0.03598887
#
# Stress axis : x y z
#
# Youngs Moduli (GPa) = 27.37392 108.71237 86.43539
#
# Poissons Ratio (x) = 0.28357 0.41583
# Poissons Ratio (y) = 0.07140 0.27969
# Poissons Ratio (z) = 0.13169 0.35178
#
# Static dielectric constant tensor:
#      x y z
#    x 1.866050 -0.109920 -0.051940 
#    y -0.109920 1.966590 0.025410 
#    z -0.051940 0.025410 1.836410 
# 
# From -- ./inp_files/238996.got.cif
#   From: 2010.05.17/outbox.cif.g08.bks.cpg/sg2_120_cif.got.tgz:238996.got - 2010.06.03 11:33:40.
