data_PCOD9107356
_publ_section_title
;
Structure prediction by ZEFSAII (Michael W. Deem and Ramdas Pophale) SiO2 
 PCOD9107356
Probable space group: P -1
;
_chemical_formula_sum "Si O2"
_cell_formula_units_Z 16
_cell_length_a 20.707963
_cell_length_b 14.816138
_cell_length_c 9.063689
_cell_angle_alpha 127.296597
_cell_angle_beta 54.742846
_cell_angle_gamma 160.007433
_cell_volume 756.031578
_symmetry_space_group_name_H-M "P -1"
_symmetry_group_IT_number 2
_symmetry_cell_setting 'triclinic'
loop_
_space_group_symop_operation_xyz
x,y,z
-x,-y,-z
loop_
_atom_site_type_symbol
_atom_site_label
_atom_site_fract_x
_atom_site_fract_y
_atom_site_fract_z
Si Si1 0.377552 0.736843 0.044813
Si Si2 0.345532 0.563123 0.209173
Si Si3 0.805516 0.790503 0.730196
Si Si4 0.822857 0.622909 0.326692
Si Si5 0.785945 0.214919 0.055606
Si Si6 0.282385 0.078240 0.959464
Si Si7 0.825235 0.470700 0.446751
Si Si8 0.047740 0.432963 0.326013
O O1 0.335065 0.584155 0.073463
O O2 0.253109 0.678838 0.219597
O O3 0.606480 0.035909 0.030921
O O4 0.302023 0.602339 0.852559
O O5 0.179531 0.269284 0.203982
O O6 0.350891 0.686451 0.417057
O O7 0.530633 0.732532 0.166019
O O8 0.728720 0.604216 0.522150
O O9 0.002985 0.095503 0.711560
O O10 0.693294 0.758319 0.879579
O O11 0.887692 0.617583 0.361908
O O12 0.748378 0.035274 0.963919
O O13 0.783513 0.287380 0.279040
O O14 0.000000 0.500000 0.000000
O O15 0.103768 0.818283 0.834342
O O16 0.956415 0.639944 0.585215
O O17 0.000000 0.500000 0.500000
#
# Coordination Sequence:
#
# PCOD9107356 Si02
#       8
#     2   2   2   2   2   2   2   2
#     4  10  23  42  64  95 124 165 215 253 313 374
#     4   9  22  39  65  90 121 169 208 263 306 364
#     4  10  20  40  64  87 127 166 212 257 314 354
#     4  10  21  41  63  91 125 169 208 256 310 376
#     4  11  24  41  64  91 133 165 202 258 320 375
#     4  11  21  40  64  92 128 160 215 257 312 366
#     4  10  22  41  61  92 125 166 204 253 320 368
#     4  11  22  39  65  97 124 165 208 260 307 377
#
# _framework density 21.163136999999999
#
# number of rings (size 3 to 8) (size 9 to 14) (size 15 to 20)
#    0.000    1.750    2.500    1.125    1.750    2.500 
#    9.000    2.500    0.000    0.000    0.000    0.000 
#    0.000    0.000    0.000    0.000    0.000    0.000 
#
# Total GULP energy -89170.241088 kJ/mol
# GULP energy per Si atom -5573.140068 kJ/mol
# Density = 2.111497 g / cm^3
# Si number density = 21.163137 Si / 1000 Ang^3
#
#
#
# Elastic Constant Matrix: (Units=GPa)
#
#
# Indices 1 2 3 4 5 6 
#
# 1 94.3944 53.1138 64.2781 -10.5212 -15.1202 0.7072
# 2 53.1138 71.1292 30.5603 -14.1335 9.2410 -0.7712
# 3 64.2781 30.5603 122.1363 -8.4416 -23.6738 12.9671
# 4 -10.5212 -14.1335 -8.4416 22.8542 2.3926 -1.4885
# 5 -15.1202 9.2410 -23.6738 2.3926 41.6056 0.3258
# 6 0.7072 -0.7712 12.9671 -1.4885 0.3258 39.9703
#
#
#
# Elastic Compliance Matrix: (Units=1/GPa)
#
#
# Indices 1 2 3 4 5 6 
#
# 1 0.028884 -0.019728 -0.008706 -0.003062 0.010088 0.001736
# 2 -0.019728 0.033621 -0.000314 0.013339 -0.015596 0.001723
# 3 -0.008706 -0.000314 0.014332 0.000265 0.005081 -0.004533
# 4 -0.003062 0.013339 0.000265 0.051559 -0.006907 0.002202
# 5 0.010088 -0.015596 0.005081 -0.006907 0.034475 -0.002666
# 6 0.001736 0.001723 -0.004533 0.002202 -0.002666 0.026595
#
#
# Mechanical properties :
#
#
# Convention : Reuss Voigt Hill
#
# Bulk Modulus (GPa) = 51.70187 64.84050 58.27118
# Shear Modulus (GPa) = 19.73089 30.19986 24.96538
#
# Velocity S-wave (km/s) = 3.05671 3.78167 3.43835
# Velocity P-wave (km/s) = 6.07792 7.05499 6.58461
#
# Compressibility (1/GPa) = 0.01934166
#
# Stress axis : x y z
#
# Youngs Moduli (GPa) = 34.62080 29.74354 69.77313
#
# Poissons Ratio (x) = 0.58679 0.60741
# Poissons Ratio (y) = 0.68301 0.02189
# Poissons Ratio (z) = 0.30139 0.00933
#
# Static dielectric constant tensor:
#      x y z
#    x 1.813920 -0.011160 -0.011690 
#    y -0.011160 1.815050 -0.051330 
#    z -0.011690 -0.051330 1.779690 
# 
# From -- ./inp_files/347681.got.cif
#   From: 2010.05.17/outbox.cif.g08.bks.cpg/sg2_174_cif.got.tgz:347681.got - 2010.06.03 11:33:40.
