data_PCOD9107264
_publ_section_title
;
Structure prediction by ZEFSAII (Michael W. Deem and Ramdas Pophale) SiO2 
 PCOD9107264
Probable space group: P -1
;
_chemical_formula_sum "Si O2"
_cell_formula_units_Z 16
_cell_length_a 23.342544
_cell_length_b 7.798548
_cell_length_c 15.696482
_cell_angle_alpha 106.614111
_cell_angle_beta 161.959890
_cell_angle_gamma 68.011840
_cell_volume 795.696251
_symmetry_space_group_name_H-M "P -1"
_symmetry_group_IT_number 2
_symmetry_cell_setting 'triclinic'
loop_
_space_group_symop_operation_xyz
x,y,z
-x,-y,-z
loop_
_atom_site_type_symbol
_atom_site_label
_atom_site_fract_x
_atom_site_fract_y
_atom_site_fract_z
Si Si1 0.093754 0.574622 0.399795
Si Si2 0.463193 0.246159 0.939870
Si Si3 0.440874 0.670497 0.718681
Si Si4 0.868936 0.948792 0.735475
Si Si5 0.053513 0.215732 0.355536
Si Si6 0.158423 0.595056 0.765170
Si Si7 0.165182 0.844070 0.657636
Si Si8 0.149057 0.448556 0.281485
O O1 0.988229 0.442225 0.274955
O O2 0.057723 0.773441 0.419974
O O3 0.050512 0.581842 0.241119
O O4 0.324494 0.444354 0.726087
O O5 0.535354 0.281729 0.140809
O O6 0.640826 0.139560 0.111140
O O7 0.708629 0.847116 0.305228
O O8 0.334849 0.513290 0.536267
O O9 0.313196 0.863494 0.518368
O O10 0.652838 0.577321 0.962329
O O11 0.978363 0.885436 0.789474
O O12 0.812188 0.767440 0.661850
O O13 0.000000 0.000000 0.000000
O O14 0.939651 0.229080 0.284269
O O15 0.232406 0.671945 0.796295
O O16 0.000000 0.500000 0.500000
O O17 0.000000 0.000000 0.500000
O O18 0.000000 0.500000 0.000000
#
# Coordination Sequence:
#
# PCOD9107264 Si02
#       8
#     2   2   2   2   2   2   2   2
#     4   9  18  38  61  88 128 173 216 263 332 414
#     4  10  20  40  63  95 134 182 215 269 355 418
#     4  12  23  39  75  96 138 177 225 285 341 409
#     4  11  25  44  68 103 123 181 250 275 321 413
#     4   9  22  40  66  89 140 169 219 280 334 407
#     4  12  22  42  59 101 141 177 208 280 355 408
#     4  12  23  33  59  96 141 169 218 268 335 412
#     4  11  22  42  71  95 132 180 232 283 332 391
#
# _framework density 20.108176
#
# number of rings (size 3 to 8) (size 9 to 14) (size 15 to 20)
#    0.750    0.500    6.250    1.125    1.750    1.500 
#    0.000    0.625    0.000    0.750    0.000    0.000 
#    0.000    0.000    0.000    0.000    0.000    0.000 
#
# Total GULP energy -89184.108694 kJ/mol
# GULP energy per Si atom -5574.006793 kJ/mol
# Density = 2.006241 g / cm^3
# Si number density = 20.108176 Si / 1000 Ang^3
#
#
#
# Elastic Constant Matrix: (Units=GPa)
#
#
# Indices 1 2 3 4 5 6 
#
# 1 132.3607 50.0256 67.7448 -0.9268 -0.2442 -23.4177
# 2 50.0256 111.3515 53.5623 -3.9907 -2.3848 -24.6376
# 3 67.7448 53.5623 107.2089 4.4326 -14.2887 -23.1973
# 4 -0.9268 -3.9907 4.4326 35.7127 -10.1792 -5.8565
# 5 -0.2442 -2.3848 -14.2887 -10.1792 39.0873 -0.0700
# 6 -23.4177 -24.6376 -23.1973 -5.8565 -0.0700 38.2772
#
#
#
# Elastic Compliance Matrix: (Units=1/GPa)
#
#
# Indices 1 2 3 4 5 6 
#
# 1 0.011959 -0.001750 -0.006499 0.000672 -0.002229 0.002350
# 2 -0.001750 0.013154 -0.004493 0.002785 -0.000116 0.005099
# 3 -0.006499 -0.004493 0.017239 -0.000570 0.005845 0.003503
# 4 0.000672 0.002785 -0.000570 0.031866 0.008277 0.006749
# 5 -0.002229 -0.000116 0.005845 0.008277 0.029861 0.003425
# 6 0.002350 0.005099 0.003503 0.006749 0.003425 0.034007
#
#
# Mechanical properties :
#
#
# Convention : Reuss Voigt Hill
#
# Bulk Modulus (GPa) = 59.28407 77.06515 68.17461
# Shear Modulus (GPa) = 29.55193 34.58799 32.06996
#
# Velocity S-wave (km/s) = 3.83776 4.15190 3.99792
# Velocity P-wave (km/s) = 7.01316 7.83536 7.43563
#
# Compressibility (1/GPa) = 0.01686794
#
# Stress axis : x y z
#
# Youngs Moduli (GPa) = 83.61716 76.02464 58.00636
#
# Poissons Ratio (x) = 0.13308 0.37697
# Poissons Ratio (y) = 0.14637 0.26062
# Poissons Ratio (z) = 0.54341 0.34158
#
# Static dielectric constant tensor:
#      x y z
#    x 1.849530 0.109390 0.006670 
#    y 0.109390 1.842570 -0.014780 
#    z 0.006670 -0.014780 1.708930 
# 
# From -- ./inp_files/282044.got.cif
#   From: 2010.05.17/outbox.cif.g08.bks.cpg/sg2_142_cif.got.tgz:282044.got - 2010.06.03 11:33:40.
