data_PCOD9107525
_publ_section_title
;
Structure prediction by ZEFSAII (Michael W. Deem and Ramdas Pophale) SiO2 
 PCOD9107525
Probable space group: P -1
;
_chemical_formula_sum "Si O2"
_cell_formula_units_Z 16
_cell_length_a 9.163026
_cell_length_b 18.387381
_cell_length_c 24.818696
_cell_angle_alpha 18.515577
_cell_angle_beta 144.600042
_cell_angle_gamma 140.953274
_cell_volume 769.074021
_symmetry_space_group_name_H-M "P -1"
_symmetry_group_IT_number 2
_symmetry_cell_setting 'triclinic'
loop_
_space_group_symop_operation_xyz
x,y,z
-x,-y,-z
loop_
_atom_site_type_symbol
_atom_site_label
_atom_site_fract_x
_atom_site_fract_y
_atom_site_fract_z
Si Si1 0.635731 0.516161 0.360533
Si Si2 0.928905 0.051643 0.233685
Si Si3 0.236834 0.999113 0.260082
Si Si4 0.820585 0.529990 0.823484
Si Si5 0.764962 0.004714 0.042162
Si Si6 0.470176 0.325377 0.662711
Si Si7 0.221831 0.810991 0.695845
Si Si8 0.264631 0.006145 0.463889
O O1 0.752471 0.273794 0.552923
O O2 0.362395 0.509165 0.254829
O O3 0.783680 0.734066 0.225940
O O4 0.611451 0.552727 0.391730
O O5 0.017856 0.998358 0.357779
O O6 0.161880 0.046359 0.265848
O O7 0.735471 0.864079 0.284150
O O8 0.819902 0.304607 0.017801
O O9 0.005734 0.079883 0.096911
O O10 0.514436 0.104388 0.258714
O O11 0.729541 0.751099 0.673506
O O12 0.099354 0.591605 0.841694
O O13 0.500000 0.000000 0.000000
O O14 0.713394 0.177480 0.856747
O O15 0.500000 0.500000 0.500000
O O16 0.263524 0.803856 0.649423
O O17 0.000000 0.000000 0.500000
O O18 0.500000 0.000000 0.500000
#
# Coordination Sequence:
#
# PCOD9107525 Si02
#       8
#     2   2   2   2   2   2   2   2
#     4  11  20  40  70  94 126 172 223 278 330 400
#     4  12  23  41  64  96 137 176 227 274 344 408
#     4  12  21  40  72  98 132 177 232 278 333 403
#     4  11  23  42  68  97 135 183 226 279 332 406
#     4  10  20  40  64  97 124 169 224 270 327 406
#     4  11  25  42  65  97 134 176 217 284 347 402
#     4  10  22  41  65  98 131 175 231 277 330 400
#     4  11  22  42  64  99 134 176 225 276 343 402
#
# _framework density 20.804238999999999
#
# number of rings (size 3 to 8) (size 9 to 14) (size 15 to 20)
#    0.000    1.000    7.500    1.500    1.750    0.500 
#    0.000    0.625    0.000    0.000    0.000    0.000 
#    0.000    0.000    0.000    0.000    0.000    0.000 
#
# Total GULP energy -89354.054913 kJ/mol
# GULP energy per Si atom -5584.628432 kJ/mol
# Density = 2.075689 g / cm^3
# Si number density = 20.804239 Si / 1000 Ang^3
#
#
#
# Elastic Constant Matrix: (Units=GPa)
#
#
# Indices 1 2 3 4 5 6 
#
# 1 62.6567 26.7615 29.2619 -1.2441 -7.9997 -1.0785
# 2 26.7615 147.7229 39.6942 22.9366 -4.7403 2.9700
# 3 29.2619 39.6942 97.5828 11.8430 -13.5951 -5.1780
# 4 -1.2441 22.9366 11.8430 36.9929 -5.8904 5.7155
# 5 -7.9997 -4.7403 -13.5951 -5.8904 27.8327 2.7083
# 6 -1.0785 2.9700 -5.1780 5.7155 2.7083 37.6903
#
#
#
# Elastic Compliance Matrix: (Units=1/GPa)
#
#
# Indices 1 2 3 4 5 6 
#
# 1 0.020094 -0.002925 -0.004914 0.004835 0.003987 -0.000889
# 2 -0.002925 0.008627 -0.002254 -0.004930 -0.001494 -0.000218
# 3 -0.004914 -0.002254 0.013656 -0.002806 0.004081 0.002045
# 4 0.004835 -0.004930 -0.002806 0.033042 0.006693 -0.005350
# 5 0.003987 -0.001494 0.004081 0.006693 0.040535 -0.003135
# 6 -0.000889 -0.000218 0.002045 -0.005350 -0.003135 0.027841
#
#
# Mechanical properties :
#
#
# Convention : Reuss Voigt Hill
#
# Bulk Modulus (GPa) = 45.06280 55.48864 50.27572
# Shear Modulus (GPa) = 29.17542 34.65283 31.91412
#
# Velocity S-wave (km/s) = 3.74890 4.08568 3.92091
# Velocity P-wave (km/s) = 6.35975 6.99905 6.68704
#
# Compressibility (1/GPa) = 0.02219125
#
# Stress axis : x y z
#
# Youngs Moduli (GPa) = 49.76633 115.91942 73.22948
#
# Poissons Ratio (x) = 0.33901 0.35988
# Poissons Ratio (y) = 0.14554 0.16503
# Poissons Ratio (z) = 0.24457 0.26123
#
# Static dielectric constant tensor:
#      x y z
#    x 1.767370 0.013340 0.029330 
#    y 0.013340 1.775720 0.015800 
#    z 0.029330 0.015800 1.801160 
# 
# From -- ./inp_files/608437.got.cif
#   From: 2010.05.17/outbox.cif.g08.bks.cpg/sg2_305_cif.got.tgz:608437.got - 2010.06.03 11:33:40.
