data_PCOD9107485
_publ_section_title
;
Structure prediction by ZEFSAII (Michael W. Deem and Ramdas Pophale) SiO2 
 PCOD9107485
Probable space group: P -1
;
_chemical_formula_sum "Si O2"
_cell_formula_units_Z 14
_cell_length_a 13.361464
_cell_length_b 7.949971
_cell_length_c 12.679626
_cell_angle_alpha 112.300301
_cell_angle_beta 34.446177
_cell_angle_gamma 90.326252
_cell_volume 570.602926
_symmetry_space_group_name_H-M "P -1"
_symmetry_group_IT_number 2
_symmetry_cell_setting 'triclinic'
loop_
_space_group_symop_operation_xyz
x,y,z
-x,-y,-z
loop_
_atom_site_type_symbol
_atom_site_label
_atom_site_fract_x
_atom_site_fract_y
_atom_site_fract_z
Si Si1 0.050550 0.480855 0.114882
Si Si2 0.880377 0.938323 0.667299
Si Si3 0.666432 0.206535 0.128941
Si Si4 0.542799 0.290428 0.628611
Si Si5 0.962766 0.834960 0.095437
Si Si6 0.686339 0.766957 0.658732
Si Si7 0.327438 0.562474 0.257527
O O1 0.980453 0.684154 0.143606
O O2 0.921529 0.590900 0.360288
O O3 0.311972 0.332856 0.859924
O O4 0.987273 0.325187 0.084036
O O5 0.704005 0.937851 0.751337
O O6 0.078312 0.688365 0.468892
O O7 0.000000 0.000000 0.500000
O O8 0.798413 0.093812 0.878241
O O9 0.527985 0.477859 0.311701
O O10 0.492112 0.146828 0.259827
O O11 0.852045 0.124502 0.035467
O O12 0.652117 0.282246 0.642170
O O13 0.721978 0.065100 0.358911
O O14 0.627944 0.640744 0.759526
O O15 0.500000 0.500000 0.000000
#
# Coordination Sequence:
#
# PCOD9107485 Si02
#       7
#     2   2   2   2   2   2   2
#     4  10  22  40  66  97 132 170 224 277 325 392
#     4  12  22  40  68  93 135 173 216 274 333 397
#     4  10  22  39  61  93 131 170 217 269 322 393
#     4  10  20  40  64  94 130 167 224 270 329 388
#     4  10  20  42  68  94 127 180 222 268 335 385
#     4  11  24  42  61 101 138 166 226 275 324 401
#     4  11  23  41  65  95 133 179 218 269 337 393
#
# _framework density 24.535451999999999
#
# number of rings (size 3 to 8) (size 9 to 14) (size 15 to 20)
#    0.000    1.429    1.429    5.571    0.000    0.571 
#    2.571    2.857    0.000    0.000    0.000    0.000 
#    0.000    0.000    0.000    0.000    0.000    0.000 
#
# Total GULP energy -78334.199711 kJ/mol
# GULP energy per Si atom -5595.299979 kJ/mol
# Density = 2.447961 g / cm^3
# Si number density = 24.535452 Si / 1000 Ang^3
#
#
#
# Elastic Constant Matrix: (Units=GPa)
#
#
# Indices 1 2 3 4 5 6 
#
# 1 78.9077 32.0482 41.3738 -4.5551 -3.5155 36.5614
# 2 32.0482 73.7153 34.4068 -1.9024 3.7366 11.2414
# 3 41.3738 34.4068 143.9198 21.9103 -8.1964 -1.4278
# 4 -4.5551 -1.9024 21.9103 32.4857 8.4969 -1.6673
# 5 -3.5155 3.7366 -8.1964 8.4969 50.9216 -6.7554
# 6 36.5614 11.2414 -1.4278 -1.6673 -6.7554 39.9896
#
#
#
# Elastic Compliance Matrix: (Units=1/GPa)
#
#
# Indices 1 2 3 4 5 6 
#
# 1 0.036667 -0.004691 -0.012001 0.012720 -0.005562 -0.033043
# 2 -0.004691 0.017702 -0.003598 0.003516 -0.002943 -0.001167
# 3 -0.012001 -0.003598 0.013465 -0.011691 0.005260 0.012865
# 4 0.012720 0.003516 -0.011691 0.042632 -0.010095 -0.012963
# 5 -0.005562 -0.002943 0.005260 -0.010095 0.023276 0.009612
# 6 -0.033043 -0.001167 0.012865 -0.012963 0.009612 0.057087
#
#
# Mechanical properties :
#
#
# Convention : Reuss Voigt Hill
#
# Bulk Modulus (GPa) = 36.68905 56.91117 46.80011
# Shear Modulus (GPa) = 20.79044 37.26029 29.02537
#
# Velocity S-wave (km/s) = 2.91411 3.90119 3.44320
# Velocity P-wave (km/s) = 5.12920 6.59835 5.90960
#
# Compressibility (1/GPa) = 0.02725609
#
# Stress axis : x y z
#
# Youngs Moduli (GPa) = 27.27233 56.48993 74.26424
#
# Poissons Ratio (x) = 0.26499 0.89121
# Poissons Ratio (y) = 0.12793 0.26720
# Poissons Ratio (z) = 0.32728 0.20325
#
# Static dielectric constant tensor:
#      x y z
#    x 0.884760 1.033220 0.975160 
#    y 1.033220 0.939510 -1.004250 
#    z 0.975160 -1.004250 0.922350 
# 
# From -- ./inp_files/528876.got.cif
#   From: 2010.05.17/outbox.cif.g08.bks.cpg/sg2_265_cif.got.tgz:528876.got - 2010.06.03 11:33:40.
