data_PCOD9107506
_publ_section_title
;
Structure prediction by ZEFSAII (Michael W. Deem and Ramdas Pophale) SiO2 
 PCOD9107506
Probable space group: P -1
;
_chemical_formula_sum "Si O2"
_cell_formula_units_Z 16
_cell_length_a 8.938495
_cell_length_b 16.490763
_cell_length_c 9.158601
_cell_angle_alpha 61.642579
_cell_angle_beta 99.667162
_cell_angle_gamma 53.976214
_cell_volume 747.396448
_symmetry_space_group_name_H-M "P -1"
_symmetry_group_IT_number 2
_symmetry_cell_setting 'triclinic'
loop_
_space_group_symop_operation_xyz
x,y,z
-x,-y,-z
loop_
_atom_site_type_symbol
_atom_site_label
_atom_site_fract_x
_atom_site_fract_y
_atom_site_fract_z
Si Si1 0.896160 0.465380 0.105804
Si Si2 0.627476 0.087858 0.170408
Si Si3 0.513900 0.651533 0.111704
Si Si4 0.674707 0.908764 0.746239
Si Si5 0.481488 0.564207 0.766931
Si Si6 0.761777 0.002578 0.930342
Si Si7 0.696244 0.243079 0.704205
Si Si8 0.984109 0.786432 0.654813
O O1 0.767499 0.551827 0.161913
O O2 0.067656 0.298388 0.311414
O O3 0.692448 0.517340 0.923429
O O4 0.000000 0.500000 0.000000
O O5 0.380340 0.165589 0.131933
O O6 0.825274 0.934557 0.415713
O O7 0.649046 0.187630 0.110815
O O8 0.651824 0.054998 0.030319
O O9 0.465582 0.567553 0.141588
O O10 0.484303 0.673693 0.261129
O O11 0.636796 0.994528 0.801750
O O12 0.924102 0.818779 0.789253
O O13 0.500000 0.000000 0.500000
O O14 0.410426 0.646489 0.535473
O O15 0.247984 0.678579 0.732188
O O16 0.743038 0.115886 0.772470
O O17 0.041162 0.846110 0.126518
#
# Coordination Sequence:
#
# PCOD9107506 Si02
#       8
#     2   2   2   2   2   2   2   2
#     4  11  25  44  63  91 132 168 209 266 322 382
#     4  10  20  40  64  95 130 166 211 265 317 370
#     4  10  22  41  66  93 126 164 216 262 310 384
#     4  10  22  37  64  97 133 168 204 259 322 376
#     4  11  23  42  64  93 126 171 212 263 318 374
#     4  10  21  38  63  96 131 161 216 264 315 369
#     4  10  22  40  65  93 122 170 214 270 310 366
#     4  10  21  40  63  95 126 170 214 255 319 371
#
# _framework density 21.407648999999999
#
# number of rings (size 3 to 8) (size 9 to 14) (size 15 to 20)
#    0.000    1.750    1.250    3.000    3.500    4.000 
#    0.000    3.750    0.000    0.000    0.000    0.000 
#    0.000    0.000    0.000    0.000    0.000    0.000 
#
# Total GULP energy -89248.606469 kJ/mol
# GULP energy per Si atom -5578.037904 kJ/mol
# Density = 2.135892 g / cm^3
# Si number density = 21.407649 Si / 1000 Ang^3
#
#
#
# Elastic Constant Matrix: (Units=GPa)
#
#
# Indices 1 2 3 4 5 6 
#
# 1 117.9698 38.3600 57.1649 -0.5125 -27.9692 -3.4712
# 2 38.3600 104.0251 58.3520 -3.6091 -16.4582 -13.2663
# 3 57.1649 58.3520 134.3550 -12.4716 -36.1542 5.7965
# 4 -0.5125 -3.6091 -12.4716 29.6795 0.8880 -8.1181
# 5 -27.9692 -16.4582 -36.1542 0.8880 36.0048 3.7763
# 6 -3.4712 -13.2663 5.7965 -8.1181 3.7763 33.4276
#
#
#
# Elastic Compliance Matrix: (Units=1/GPa)
#
#
# Indices 1 2 3 4 5 6 
#
# 1 0.011762 -0.001941 -0.002823 -0.001385 0.005450 -0.000012
# 2 -0.001941 0.014417 -0.006132 0.001131 -0.001844 0.007066
# 3 -0.002823 -0.006132 0.014611 0.003522 0.010171 -0.005554
# 4 -0.001385 0.001131 0.003522 0.037634 0.001136 0.008706
# 5 0.005450 -0.001844 0.010171 0.001136 0.042022 -0.006401
# 6 -0.000012 0.007066 -0.005554 0.008706 -0.006401 0.036519
#
#
# Mechanical properties :
#
#
# Convention : Reuss Voigt Hill
#
# Bulk Modulus (GPa) = 52.63605 73.78930 63.21267
# Shear Modulus (GPa) = 27.01421 33.32056 30.16738
#
# Velocity S-wave (km/s) = 3.55617 3.94950 3.75799
# Velocity P-wave (km/s) = 6.44226 7.43919 6.95860
#
# Compressibility (1/GPa) = 0.01899839
#
# Stress axis : x y z
#
# Youngs Moduli (GPa) = 85.02281 69.36232 68.44365
#
# Poissons Ratio (x) = 0.13463 0.19319
# Poissons Ratio (y) = 0.16503 0.41967
# Poissons Ratio (z) = 0.23999 0.42531
#
# Static dielectric constant tensor:
#      x y z
#    x 1.835460 -0.039650 0.028950 
#    y -0.039650 1.818500 -0.037790 
#    z 0.028950 -0.037790 1.773060 
# 
# From -- ./inp_files/205978.got.cif
#   From: 2010.05.17/outbox.cif.g08.bks.cpg/sg2_103_cif.got.tgz:205978.got - 2010.06.03 11:33:40.
