data_PCOD9107030
_publ_section_title
;
Structure prediction by ZEFSAII (Michael W. Deem and Ramdas Pophale) SiO2 
 PCOD9107030
Probable space group: P -1
;
_chemical_formula_sum "Si O2"
_cell_formula_units_Z 16
_cell_length_a 20.852642
_cell_length_b 8.078768
_cell_length_c 8.011424
_cell_angle_alpha 81.560166
_cell_angle_beta 62.321688
_cell_angle_gamma 133.000523
_cell_volume 610.428560
_symmetry_space_group_name_H-M "P -1"
_symmetry_group_IT_number 2
_symmetry_cell_setting 'triclinic'
loop_
_space_group_symop_operation_xyz
x,y,z
-x,-y,-z
loop_
_atom_site_type_symbol
_atom_site_label
_atom_site_fract_x
_atom_site_fract_y
_atom_site_fract_z
Si Si1 0.805181 0.271568 0.440806
Si Si2 0.594357 0.397545 0.467571
Si Si3 0.944812 0.399699 0.769991
Si Si4 0.914186 0.977271 0.411023
Si Si5 0.646174 0.618338 0.726907
Si Si6 0.571601 0.031726 0.769238
Si Si7 0.297768 0.891431 0.789668
Si Si8 0.833693 0.723927 0.920421
O O1 0.968631 0.571514 0.239626
O O2 0.760750 0.207497 0.312122
O O3 0.725155 0.942502 0.638088
O O4 0.721644 0.262068 0.618638
O O5 0.590328 0.507121 0.621600
O O6 0.572919 0.160958 0.592751
O O7 0.464387 0.209480 0.547494
O O8 0.737710 0.658637 0.151585
O O9 0.000000 0.500000 0.500000
O O10 0.002798 0.684091 0.742192
O O11 0.779022 0.108604 0.020754
O O12 0.768087 0.720751 0.539248
O O13 0.875675 0.875010 0.666900
O O14 0.019706 0.045300 0.209049
O O15 0.533271 0.335953 0.042146
O O16 0.500000 0.000000 0.000000
O O17 0.247860 0.612396 0.961633
#
# Coordination Sequence:
#
# PCOD9107030 Si02
#       8
#     2   2   2   2   2   2   2   2
#     4  11  23  43  65  92 125 174 201 262 316 369
#     4  11  23  39  65  98 126 166 210 261 312 372
#     4  10  24  43  65  90 123 166 215 258 310 379
#     4   9  21  41  63  88 126 167 209 262 311 366
#     4  10  23  40  61  92 131 163 213 254 311 377
#     4  10  22  40  64  98 125 163 210 259 309 373
#     4  11  23  40  65  93 128 165 213 257 314 376
#     4  10  20  40  62  93 124 166 213 260 314 367
#
# _framework density 26.211095
#
# number of rings (size 3 to 8) (size 9 to 14) (size 15 to 20)
#    0.000    1.750    1.250    1.875    5.250    2.000 
#    4.500    0.000    0.000    0.000    0.000    0.000 
#    0.000    0.000    0.000    0.000    0.000    0.000 
#
# Total GULP energy -89459.991302 kJ/mol
# GULP energy per Si atom -5591.249456 kJ/mol
# Density = 2.615144 g / cm^3
# Si number density = 26.211095 Si / 1000 Ang^3
#
#
#
# Elastic Constant Matrix: (Units=GPa)
#
#
# Indices 1 2 3 4 5 6 
#
# 1 140.6253 30.2012 56.6429 -1.8452 -44.5315 0.6721
# 2 30.2012 51.3306 15.0136 1.7719 -15.0456 -10.1662
# 3 56.6429 15.0136 136.5277 3.7231 -47.1064 1.5244
# 4 -1.8452 1.7719 3.7231 34.8344 -4.4298 0.3392
# 5 -44.5315 -15.0456 -47.1064 -4.4298 54.1618 -6.7505
# 6 0.6721 -10.1662 1.5244 0.3392 -6.7505 54.6095
#
#
#
# Elastic Compliance Matrix: (Units=1/GPa)
#
#
# Indices 1 2 3 4 5 6 
#
# 1 0.010725 -0.004016 -0.001930 0.001763 0.006158 -0.000076
# 2 -0.004016 0.024007 0.000497 -0.000983 0.004348 0.005048
# 3 -0.001930 0.000497 0.010853 -0.000269 0.008070 0.000812
# 4 0.001763 -0.000983 -0.000269 0.029304 0.003343 0.000034
# 5 0.006158 0.004348 0.008070 0.003343 0.032589 0.004516
# 6 -0.000076 0.005048 0.000812 0.000034 0.004516 0.019788
#
#
# Mechanical properties :
#
#
# Convention : Reuss Voigt Hill
#
# Bulk Modulus (GPa) = 28.83032 59.13323 43.98178
# Shear Modulus (GPa) = 33.39395 43.82954 38.61174
#
# Velocity S-wave (km/s) = 3.57324 4.09366 3.84227
# Velocity P-wave (km/s) = 5.29596 6.70473 6.04155
#
# Compressibility (1/GPa) = 0.03468570
#
# Stress axis : x y z
#
# Youngs Moduli (GPa) = 93.24278 41.65379 92.13790
#
# Poissons Ratio (x) = 0.16729 0.17786
# Poissons Ratio (y) = 0.37449 -0.04577
# Poissons Ratio (z) = 0.17999 -0.02069
#
# Static dielectric constant tensor:
#      x y z
#    x 2.120570 -0.014430 -0.053130 
#    y -0.014430 2.105690 -0.076080 
#    z -0.053130 -0.076080 2.168790 
# 
# From -- ./inp_files/271459.got.cif
#   From: 2010.05.17/outbox.cif.g08.bks.cpg/sg2_136_cif.got.tgz:271459.got - 2010.06.03 11:33:40.
