data_PCOD9107286
_publ_section_title
;
Structure prediction by ZEFSAII (Michael W. Deem and Ramdas Pophale) SiO2 
 PCOD9107286
Probable space group: P -1
;
_chemical_formula_sum "Si O2"
_cell_formula_units_Z 16
_cell_length_a 8.701158
_cell_length_b 12.109445
_cell_length_c 18.337066
_cell_angle_alpha 135.880999
_cell_angle_beta 31.998944
_cell_angle_gamma 126.189571
_cell_volume 711.857363
_symmetry_space_group_name_H-M "P -1"
_symmetry_group_IT_number 2
_symmetry_cell_setting 'triclinic'
loop_
_space_group_symop_operation_xyz
x,y,z
-x,-y,-z
loop_
_atom_site_type_symbol
_atom_site_label
_atom_site_fract_x
_atom_site_fract_y
_atom_site_fract_z
Si Si1 0.726097 0.445652 0.987481
Si Si2 0.261323 0.620570 0.895854
Si Si3 0.525412 0.966383 0.183186
Si Si4 0.242235 0.632576 0.462424
Si Si5 0.722002 0.314771 0.781143
Si Si6 0.889134 0.101129 0.481331
Si Si7 0.264036 0.952983 0.013939
Si Si8 0.353346 0.902433 0.651572
O O1 0.870230 0.368842 0.821109
O O2 0.931404 0.579177 0.996974
O O3 0.694249 0.331650 0.014893
O O4 0.422752 0.531870 0.127405
O O5 0.466992 0.466329 0.725371
O O6 0.327820 0.765997 0.887270
O O7 0.529935 0.795044 0.139031
O O8 0.717141 0.966835 0.034442
O O9 0.592671 0.087200 0.278352
O O10 0.195914 0.005781 0.307585
O O11 0.162585 0.771832 0.502125
O O12 0.297946 0.728956 0.559912
O O13 0.000000 0.500000 0.500000
O O14 0.895585 0.204116 0.602309
O O15 0.623274 0.984647 0.542769
O O16 0.500000 0.000000 0.000000
O O17 0.943386 0.991418 0.192391
#
# Coordination Sequence:
#
# PCOD9107286 Si02
#       8
#     2   2   2   2   2   2   2   2
#     4  10  22  37  64  95 126 167 210 274 324 390
#     4  11  23  40  64  92 133 167 223 260 332 394
#     4  11  24  42  70  99 135 171 227 278 337 399
#     4  12  26  44  64  97 139 180 221 278 341 403
#     4  10  20  40  63  98 128 164 216 272 331 386
#     4  11  23  44  69 100 133 175 230 278 334 408
#     4  12  25  45  68  98 136 181 224 276 337 403
#     4  11  25  44  72  99 133 180 232 280 334 401
#
# _framework density 22.476413999999998
#
# number of rings (size 3 to 8) (size 9 to 14) (size 15 to 20)
#    0.000    1.000    1.250    6.750    5.250    0.000 
#    2.250    1.250    0.000    0.000    0.000    0.000 
#    0.000    0.000    0.000    0.000    0.000    0.000 
#
# Total GULP energy -89449.951209 kJ/mol
# GULP energy per Si atom -5590.621951 kJ/mol
# Density = 2.242526 g / cm^3
# Si number density = 22.476414 Si / 1000 Ang^3
#
#
#
# Elastic Constant Matrix: (Units=GPa)
#
#
# Indices 1 2 3 4 5 6 
#
# 1 98.2524 23.7385 26.0670 -2.5161 8.5739 12.0088
# 2 23.7385 71.3991 18.0594 -2.1105 4.7882 10.5189
# 3 26.0670 18.0594 73.2238 0.7635 -14.5273 13.2717
# 4 -2.5161 -2.1105 0.7635 28.8793 0.5046 3.0640
# 5 8.5739 4.7882 -14.5273 0.5046 42.7653 3.3261
# 6 12.0088 10.5189 13.2717 3.0640 3.3261 31.5990
#
#
#
# Elastic Compliance Matrix: (Units=1/GPa)
#
#
# Indices 1 2 3 4 5 6 
#
# 1 0.012469 -0.002537 -0.004178 0.001274 -0.003503 -0.001894
# 2 -0.002537 0.016241 -0.002968 0.001411 -0.002093 -0.003112
# 3 -0.004178 -0.002968 0.018544 -0.000574 0.007942 -0.005993
# 4 0.001274 0.001411 -0.000574 0.035299 -0.000709 -0.004061
# 5 -0.003503 -0.002093 0.007942 -0.000709 0.027347 -0.004118
# 6 -0.001894 -0.003112 -0.005993 -0.004061 -0.004118 0.036747
#
#
# Mechanical properties :
#
#
# Convention : Reuss Voigt Hill
#
# Bulk Modulus (GPa) = 35.85894 42.06721 38.96308
# Shear Modulus (GPa) = 28.52109 32.31607 30.41858
#
# Velocity S-wave (km/s) = 3.56607 3.79592 3.68279
# Velocity P-wave (km/s) = 5.73973 6.16188 5.95455
#
# Compressibility (1/GPa) = 0.02788705
#
# Stress axis : x y z
#
# Youngs Moduli (GPa) = 80.19788 61.57407 53.92564
#
# Poissons Ratio (x) = 0.15623 0.22530
# Poissons Ratio (y) = 0.20349 0.16005
# Poissons Ratio (z) = 0.33507 0.18275
#
# Static dielectric constant tensor:
#      x y z
#    x 1.859210 0.013750 0.024040 
#    y 0.013750 1.828970 -0.017540 
#    z 0.024040 -0.017540 1.853190 
# 
# From -- ./inp_files/559886.got.cif
#   From: 2010.05.17/outbox.cif.g08.bks.cpg/sg2_280_cif.got.tgz:559886.got - 2010.06.03 11:33:40.
