data_PCOD9107843
_publ_section_title
;
Structure prediction by ZEFSAII (Michael W. Deem and Ramdas Pophale) SiO2 
 PCOD9107843
Probable space group: P -1
;
_chemical_formula_sum "Si O2"
_cell_formula_units_Z 13
_cell_length_a 7.784777
_cell_length_b 9.995260
_cell_length_c 6.889273
_cell_angle_alpha 78.550284
_cell_angle_beta 101.409552
_cell_angle_gamma 80.894992
_cell_volume 504.008500
_symmetry_space_group_name_H-M "P -1"
_symmetry_group_IT_number 2
_symmetry_cell_setting 'triclinic'
loop_
_space_group_symop_operation_xyz
x,y,z
-x,-y,-z
loop_
_atom_site_type_symbol
_atom_site_label
_atom_site_fract_x
_atom_site_fract_y
_atom_site_fract_z
Si Si1 0.462691 0.683372 0.567132
Si Si2 0.373789 0.973084 0.688929
Si Si3 0.254687 0.058134 0.026433
Si Si4 0.382706 0.321238 0.815998
Si Si5 0.871021 0.411468 0.389104
Si Si6 0.500000 0.500000 0.000000
Si Si7 0.068017 0.118230 0.353637
O O1 0.410627 0.833577 0.613463
O O2 0.578775 0.677464 0.401201
O O3 0.269530 0.643922 0.488036
O O4 0.554244 0.572761 0.779788
O O5 0.558878 0.003123 0.804667
O O6 0.266971 0.095358 0.496929
O O7 0.257091 0.968023 0.859514
O O8 0.102078 0.082170 0.145699
O O9 0.281315 0.206941 0.903846
O O10 0.268304 0.477532 0.809283
O O11 0.556379 0.337926 0.966608
O O12 0.000000 0.500000 0.500000
O O13 0.971822 0.275875 0.336095
O O14 0.000000 0.000000 0.500000
#
# Coordination Sequence:
#
# PCOD9107843 Si02
#       7
#     2   2   2   2   2   1   2
#     4  11  24  45  74 107 144 191 241 303 361 419
#     4  11  25  45  73 104 140 188 246 298 351 431
#     4  11  27  44  75 109 137 191 250 301 353 429
#     4  11  25  45  74 110 140 191 243 306 356 419
#     4  11  25  45  72 106 144 193 234 294 361 441
#     4  10  20  40  66 104 138 178 238 288 354 412
#     4  12  27  49  71 105 152 194 233 295 375 438
#
# _framework density 25.793216000000001
#
# number of rings (size 3 to 8) (size 9 to 14) (size 15 to 20)
#    0.000    0.923    3.077    3.231    8.615    2.462 
#    2.769    7.692    0.000    0.000    0.000    0.000 
#    0.000    0.000    0.000    0.000    0.000    0.000 
#
# Total GULP energy -72477.659410 kJ/mol
# GULP energy per Si atom -5575.204570 kJ/mol
# Density = 2.573451 g / cm^3
# Si number density = 25.793216 Si / 1000 Ang^3
#
#
#
# Elastic Constant Matrix: (Units=GPa)
#
#
# Indices 1 2 3 4 5 6 
#
# 1 107.8512 42.6503 57.4703 10.1340 -30.5319 3.4802
# 2 42.6503 200.1325 76.2221 13.7201 -25.8466 -15.8179
# 3 57.4703 76.2221 192.5405 23.7817 -49.6537 -4.0935
# 4 10.1340 13.7201 23.7817 49.1215 -5.1668 8.3721
# 5 -30.5319 -25.8466 -49.6537 -5.1668 51.1146 0.8100
# 6 3.4802 -15.8179 -4.0935 8.3721 0.8100 44.8642
#
#
#
# Elastic Compliance Matrix: (Units=1/GPa)
#
#
# Indices 1 2 3 4 5 6 
#
# 1 0.012261 -0.001383 -0.001849 -0.000469 0.004806 -0.001607
# 2 -0.001383 0.006282 -0.001781 -0.000953 0.000487 0.002329
# 3 -0.001849 -0.001781 0.008275 -0.002634 0.005756 0.000658
# 4 -0.000469 -0.000953 -0.002634 0.022707 -0.000949 -0.004760
# 5 0.004806 0.000487 0.005756 -0.000949 0.028177 -0.000008
# 6 -0.001607 0.002329 0.000658 -0.004760 -0.000008 0.024184
#
#
# Mechanical properties :
#
#
# Convention : Reuss Voigt Hill
#
# Bulk Modulus (GPa) = 59.55636 94.80108 77.17872
# Shear Modulus (GPa) = 42.55028 50.63216 46.59122
#
# Velocity S-wave (km/s) = 4.06602 4.43539 4.25471
# Velocity P-wave (km/s) = 6.72186 7.94130 7.35689
#
# Compressibility (1/GPa) = 0.01679082
#
# Stress axis : x y z
#
# Youngs Moduli (GPa) = 81.56181 159.18270 120.85209
#
# Poissons Ratio (x) = 0.22012 0.22345
# Poissons Ratio (y) = 0.11278 0.21529
# Poissons Ratio (z) = 0.15081 0.28358
#
# Static dielectric constant tensor:
#      x y z
#    x 1.649830 -0.173930 -0.325370 
#    y -0.173930 2.034010 -0.134650 
#    z -0.325370 -0.134650 1.789910 
# 
# From -- ./inp_files/24138.got.cif
#   From: 2010.05.17/outbox.cif.g08.bks.cpg/sg2_13_cif.got.tgz:24138.got - 2010.06.03 11:33:40.
