data_PCOD9107507
_publ_section_title
;
Structure prediction by ZEFSAII (Michael W. Deem and Ramdas Pophale) SiO2 
 PCOD9107507
Probable space group: P -1
;
_chemical_formula_sum "Si O2"
_cell_formula_units_Z 16
_cell_length_a 14.217093
_cell_length_b 11.748342
_cell_length_c 9.349048
_cell_angle_alpha 139.103296
_cell_angle_beta 121.762713
_cell_angle_gamma 42.334963
_cell_volume 686.651201
_symmetry_space_group_name_H-M "P -1"
_symmetry_group_IT_number 2
_symmetry_cell_setting 'triclinic'
loop_
_space_group_symop_operation_xyz
x,y,z
-x,-y,-z
loop_
_atom_site_type_symbol
_atom_site_label
_atom_site_fract_x
_atom_site_fract_y
_atom_site_fract_z
Si Si1 0.803759 0.882942 0.575136
Si Si2 0.048579 0.214903 0.668994
Si Si3 0.768963 0.616615 0.527979
Si Si4 0.148412 0.791482 0.980713
Si Si5 0.536034 0.733718 0.882575
Si Si6 0.807765 0.295392 0.734002
Si Si7 0.468703 0.986528 0.623716
Si Si8 0.265023 0.170848 0.009391
O O1 0.941438 0.750790 0.459714
O O2 0.803600 0.725384 0.535927
O O3 0.677040 0.970166 0.446362
O O4 0.775122 0.094909 0.830138
O O5 0.142837 0.245708 0.872662
O O6 0.899288 0.329029 0.733311
O O7 0.129584 0.952725 0.484057
O O8 0.808848 0.394659 0.277374
O O9 0.602546 0.750734 0.554262
O O10 0.805117 0.690025 0.770054
O O11 0.158178 0.704347 0.068759
O O12 0.000000 0.000000 0.000000
O O13 0.629033 0.783149 0.916502
O O14 0.532891 0.828689 0.124133
O O15 0.642126 0.470479 0.733648
O O16 0.373815 0.902090 0.863820
O O17 0.500000 0.000000 0.500000
#
# Coordination Sequence:
#
# PCOD9107507 Si02
#       8
#     2   2   2   2   2   2   2   2
#     4  10  21  42  69  92 129 174 215 267 325 392
#     4  10  22  41  65  98 129 171 225 262 321 397
#     4  10  23  42  65  95 131 174 206 272 332 375
#     4  11  26  44  63  94 135 168 224 273 315 391
#     4  10  20  40  64  95 131 167 213 271 326 382
#     4  10  23  42  66  91 131 176 213 275 326 380
#     4   9  17  36  65  92 124 160 214 258 316 392
#     4  10  22  39  67  99 128 165 218 270 319 394
#
# _framework density 23.301497000000001
#
# number of rings (size 3 to 8) (size 9 to 14) (size 15 to 20)
#    0.000    2.000    1.250    1.500    1.750    5.000 
#    2.250    2.500    0.000    0.000    0.000    0.000 
#    0.000    0.000    0.000    0.000    0.000    0.000 
#
# Total GULP energy -89164.607372 kJ/mol
# GULP energy per Si atom -5572.787961 kJ/mol
# Density = 2.324846 g / cm^3
# Si number density = 23.301497 Si / 1000 Ang^3
#
#
#
# Elastic Constant Matrix: (Units=GPa)
#
#
# Indices 1 2 3 4 5 6 
#
# 1 19.4007 -12.0416 -28.4984 4.7766 -9.5156 -17.8643
# 2 -12.0416 34.8522 4.5713 14.2103 -17.1383 -4.7725
# 3 -28.4984 4.5713 73.2041 9.1835 -13.5037 -34.0046
# 4 4.7766 14.2103 9.1835 47.5073 -7.1436 -8.0920
# 5 -9.5156 -17.1383 -13.5037 -7.1436 29.3243 -1.5651
# 6 -17.8643 -4.7725 -34.0046 -8.0920 -1.5651 5.6882
#
#
#
# Elastic Compliance Matrix: (Units=1/GPa)
#
#
# Indices 1 2 3 4 5 6 
#
# 1 0.010916 0.001731 -0.009602 -0.005268 -0.002748 -0.029917
# 2 0.001731 0.039903 -0.008284 -0.012125 0.015860 -0.023493
# 3 -0.009602 -0.008284 0.004928 -0.000045 -0.006201 -0.009415
# 4 -0.005268 -0.012125 -0.000045 0.026760 -0.001732 0.010602
# 5 -0.002748 0.015860 -0.006201 -0.001732 0.037897 -0.024432
# 6 -0.029917 -0.023493 -0.009415 0.010602 -0.024432 0.014213
#
#
# Mechanical properties :
#
#
# Convention : Reuss Voigt Hill
#
# Bulk Modulus (GPa) = 42.66758 6.16885 24.41822
# Shear Modulus (GPa) = 28.61401 27.39902 28.00651
#
# Velocity S-wave (km/s) = 3.50807 3.43278 3.47063
# Velocity P-wave (km/s) = 5.89573 4.28546 5.15387
#
# Compressibility (1/GPa) = 0.02343700
#
# Stress axis : x y z
#
# Youngs Moduli (GPa) = 91.61226 25.06073 202.91053
#
# Poissons Ratio (x) = -0.04337 1.94829
# Poissons Ratio (y) = -0.15855 1.68089
# Poissons Ratio (z) = 0.87964 0.20760
#
# Static dielectric constant tensor:
#      x y z
#    x 1.900090 -0.016470 -0.018670 
#    y -0.016470 2.086470 -0.057560 
#    z -0.018670 -0.057560 1.942120 
# 
# From -- ./inp_files/308820.got.cif
#   From: 2010.05.17/outbox.cif.g08.bks.cpg/sg2_155_cif.got.tgz:308820.got - 2010.06.03 11:33:40.
