data_PCOD9107294
_publ_section_title
;
Structure prediction by ZEFSAII (Michael W. Deem and Ramdas Pophale) SiO2 
 PCOD9107294
Probable space group: P -1
;
_chemical_formula_sum "Si O2"
_cell_formula_units_Z 16
_cell_length_a 5.470701
_cell_length_b 18.829514
_cell_length_c 12.165583
_cell_angle_alpha 38.656752
_cell_angle_beta 113.161884
_cell_angle_gamma 96.536691
_cell_volume 677.711952
_symmetry_space_group_name_H-M "P -1"
_symmetry_group_IT_number 2
_symmetry_cell_setting 'triclinic'
loop_
_space_group_symop_operation_xyz
x,y,z
-x,-y,-z
loop_
_atom_site_type_symbol
_atom_site_label
_atom_site_fract_x
_atom_site_fract_y
_atom_site_fract_z
Si Si1 0.240906 0.897139 0.444367
Si Si2 0.081823 0.152826 0.115462
Si Si3 0.814342 0.228324 0.194814
Si Si4 0.250173 0.810788 0.210987
Si Si5 0.259129 0.383635 0.921186
Si Si6 0.715880 0.665651 0.768506
Si Si7 0.224282 0.392359 0.385891
Si Si8 0.809994 0.857651 0.271068
O O1 0.269270 0.847199 0.633098
O O2 0.449182 0.785045 0.549182
O O3 0.929672 0.922349 0.308385
O O4 0.307492 0.020201 0.296898
O O5 0.928441 0.144593 0.212155
O O6 0.877251 0.183503 0.938621
O O7 0.187974 0.263973 0.023250
O O8 0.041052 0.278790 0.228801
O O9 0.565014 0.348603 0.962959
O O10 0.455306 0.673329 0.438176
O O11 0.990167 0.857395 0.193445
O O12 0.472951 0.884682 0.166851
O O13 0.984519 0.498189 0.715108
O O14 0.328836 0.389704 0.056364
O O15 0.770960 0.580831 0.775384
O O16 0.098550 0.283034 0.504780
#
# Coordination Sequence:
#
# PCOD9107294 Si02
#       8
#     2   2   2   2   2   2   2   2
#     4  11  21  42  68  93 133 166 222 280 331 395
#     4  11  26  41  62  95 134 180 217 264 332 403
#     4  10  22  41  60  97 130 171 222 264 337 393
#     4  10  24  44  67 101 133 174 224 272 332 394
#     4  10  24  39  64  96 132 175 219 269 332 399
#     4  10  20  40  64 100 125 171 217 281 337 380
#     4  10  21  42  67  97 131 169 223 281 327 392
#     4  10  22  43  69 100 127 173 223 275 337 372
#
# _framework density 23.608848999999999
#
# number of rings (size 3 to 8) (size 9 to 14) (size 15 to 20)
#    0.750    1.000    2.500    0.750    1.750    9.500 
#    0.000    1.250    0.000    0.000    0.000    0.000 
#    0.000    0.000    0.000    0.000    0.000    0.000 
#
# Total GULP energy -89306.035252 kJ/mol
# GULP energy per Si atom -5581.627203 kJ/mol
# Density = 2.355511 g / cm^3
# Si number density = 23.608849 Si / 1000 Ang^3
#
#
#
# Elastic Constant Matrix: (Units=GPa)
#
#
# Indices 1 2 3 4 5 6 
#
# 1 80.7443 19.2638 12.2464 9.5155 15.8365 1.5368
# 2 19.2638 75.4048 22.3480 8.6586 1.2140 -0.3425
# 3 12.2464 22.3480 54.6186 13.0715 17.6148 -2.3705
# 4 9.5155 8.6586 13.0715 37.4761 0.1011 6.4009
# 5 15.8365 1.2140 17.6148 0.1011 28.5579 -10.7282
# 6 1.5368 -0.3425 -2.3705 6.4009 -10.7282 19.2966
#
#
#
# Elastic Compliance Matrix: (Units=1/GPa)
#
#
# Indices 1 2 3 4 5 6 
#
# 1 0.016087 -0.004454 0.002825 -0.002726 -0.013279 -0.007492
# 2 -0.004454 0.016820 -0.008301 -0.000678 0.008626 0.004654
# 3 0.002825 -0.008301 0.029796 -0.008073 -0.021896 -0.006207
# 4 -0.002726 -0.000678 -0.008073 0.032036 0.002678 -0.009925
# 5 -0.013279 0.008626 -0.021896 0.002678 0.069039 0.036016
# 6 -0.007492 0.004654 -0.006207 -0.009925 0.036016 0.075055
#
#
# Mechanical properties :
#
#
# Convention : Reuss Voigt Hill
#
# Bulk Modulus (GPa) = 23.34134 35.38712 29.36423
# Shear Modulus (GPa) = 18.31669 27.52675 22.92172
#
# Velocity S-wave (km/s) = 2.78841 3.41831 3.11930
# Velocity P-wave (km/s) = 4.50279 5.53184 5.04363
#
# Compressibility (1/GPa) = 0.04284244
#
# Stress axis : x y z
#
# Youngs Moduli (GPa) = 62.16113 59.45259 33.56165
#
# Poissons Ratio (x) = 0.26483 -0.09482
# Poissons Ratio (y) = 0.27689 0.27860
# Poissons Ratio (z) = -0.17562 0.49353
#
# Static dielectric constant tensor:
#      x y z
#    x 1.972560 -0.015190 0.005880 
#    y -0.015190 1.818880 -0.044330 
#    z 0.005880 -0.044330 1.970900 
# 
# From -- ./inp_files/370044.got.cif
#   From: 2010.05.17/outbox.cif.g08.bks.cpg/sg2_186_cif.got.tgz:370044.got - 2010.06.03 11:33:40.
