data_PCOD9107943
_publ_section_title
;
Structure prediction by ZEFSAII (Michael W. Deem and Ramdas Pophale) SiO2 
 PCOD9107943
Probable space group: P -1
;
_chemical_formula_sum "Si O2"
_cell_formula_units_Z 13
_cell_length_a 20.765642
_cell_length_b 15.382718
_cell_length_c 10.926836
_cell_angle_alpha 138.227184
_cell_angle_beta 148.819401
_cell_angle_gamma 18.802531
_cell_volume 537.768800
_symmetry_space_group_name_H-M "P -1"
_symmetry_group_IT_number 2
_symmetry_cell_setting 'triclinic'
loop_
_space_group_symop_operation_xyz
x,y,z
-x,-y,-z
loop_
_atom_site_type_symbol
_atom_site_label
_atom_site_fract_x
_atom_site_fract_y
_atom_site_fract_z
Si Si1 0.092933 0.605924 0.553887
Si Si2 0.670794 0.828328 0.826220
Si Si3 0.568145 0.175884 0.141435
Si Si4 0.797979 0.066168 0.735033
Si Si5 0.140755 0.458720 0.930139
Si Si6 0.500000 0.500000 0.500000
Si Si7 0.375706 0.894919 0.253928
O O1 0.390583 0.373309 0.741352
O O2 0.029397 0.511321 0.352035
O O3 0.872182 0.863667 0.364661
O O4 0.988762 0.769201 0.681284
O O5 0.516624 0.889383 0.539152
O O6 0.642006 0.786927 0.868692
O O7 0.000000 0.500000 0.000000
O O8 0.578948 0.064586 0.928012
O O9 0.527695 0.367970 0.291349
O O10 0.320814 0.343539 0.992401
O O11 0.576467 0.310941 0.525928
O O12 0.687554 0.138164 0.766848
O O13 0.000000 0.000000 0.000000
O O14 0.915959 0.781656 0.936970
#
# Coordination Sequence:
#
# PCOD9107943 Si02
#       7
#     2   2   2   2   2   1   2
#     4  10  22  42  66  96 137 165 219 279 325 396
#     4  11  21  38  66  97 131 166 209 272 336 382
#     4  10  20  40  66  91 130 175 215 269 325 385
#     4  11  25  44  65  92 131 179 220 270 327 385
#     4  11  22  40  65 101 131 165 217 276 329 395
#     4  10  22  44  64  88 128 172 228 262 308 398
#     4  12  24  42  68 101 132 170 221 274 332 395
#
# _framework density 24.173957000000001
#
# number of rings (size 3 to 8) (size 9 to 14) (size 15 to 20)
#    0.000    1.231    3.077    6.000    0.000    4.308 
#    0.000    3.077    0.000    0.000    0.000    0.000 
#    0.000    0.000    0.000    0.000    0.000    0.000 
#
# Total GULP energy -72412.937778 kJ/mol
# GULP energy per Si atom -5570.225983 kJ/mol
# Density = 2.411894 g / cm^3
# Si number density = 24.173957 Si / 1000 Ang^3
#
#
#
# Elastic Constant Matrix: (Units=GPa)
#
#
# Indices 1 2 3 4 5 6 
#
# 1 127.7272 59.5771 12.3503 -14.9536 12.5848 0.1248
# 2 59.5771 123.7551 2.6225 -0.3556 29.2568 1.4524
# 3 12.3503 2.6225 48.5387 0.7245 6.6073 2.3671
# 4 -14.9536 -0.3556 0.7245 40.0057 3.2951 3.7998
# 5 12.5848 29.2568 6.6073 3.2951 31.2007 -14.5438
# 6 0.1248 1.4524 2.3671 3.7998 -14.5438 41.7766
#
#
#
# Elastic Compliance Matrix: (Units=1/GPa)
#
#
# Indices 1 2 3 4 5 6 
#
# 1 0.011015 -0.005465 -0.002712 0.004012 0.000963 0.000281
# 2 -0.005465 0.014052 0.002826 -0.000282 -0.014114 -0.005520
# 3 -0.002712 0.002826 0.022471 -0.000318 -0.008240 -0.004203
# 4 0.004012 -0.000282 -0.000318 0.027472 -0.006380 -0.004704
# 5 0.000963 -0.014114 -0.008240 -0.006380 0.057336 0.021496
# 6 0.000281 -0.005520 -0.004203 -0.004704 0.021496 0.032277
#
#
# Mechanical properties :
#
#
# Convention : Reuss Voigt Hill
#
# Bulk Modulus (GPa) = 27.14709 49.90232 38.52470
# Shear Modulus (GPa) = 26.65200 37.62799 32.14000
#
# Velocity S-wave (km/s) = 3.32401 3.94959 3.65023
# Velocity P-wave (km/s) = 5.09768 6.44103 5.80832
#
# Compressibility (1/GPa) = 0.03683636
#
# Stress axis : x y z
#
# Youngs Moduli (GPa) = 90.78637 71.16385 44.50189
#
# Poissons Ratio (x) = 0.38889 0.12069
# Poissons Ratio (y) = 0.49612 -0.12576
# Poissons Ratio (z) = 0.24622 -0.20111
#
# Static dielectric constant tensor:
#      x y z
#    x 2.077120 -0.023680 -0.135720 
#    y -0.023680 1.977190 -0.004970 
#    z -0.135720 -0.004970 2.031580 
# 
# From -- ./inp_files/345770.got.cif
#   From: 2010.05.17/outbox.cif.g08.bks.cpg/sg2_173_cif.got.tgz:345770.got - 2010.06.03 11:33:40.
