data_PCOD9107934
_publ_section_title
;
Structure prediction by ZEFSAII (Michael W. Deem and Ramdas Pophale) SiO2 
 PCOD9107934
Probable space group: P -1
;
_chemical_formula_sum "Si O2"
_cell_formula_units_Z 15
_cell_length_a 5.777643
_cell_length_b 20.352149
_cell_length_c 5.795059
_cell_angle_alpha 90.785862
_cell_angle_beta 90.225941
_cell_angle_gamma 64.032972
_cell_volume 612.574392
_symmetry_space_group_name_H-M "P -1"
_symmetry_group_IT_number 2
_symmetry_cell_setting 'triclinic'
loop_
_space_group_symop_operation_xyz
x,y,z
-x,-y,-z
loop_
_atom_site_type_symbol
_atom_site_label
_atom_site_fract_x
_atom_site_fract_y
_atom_site_fract_z
Si Si1 0.141792 0.723061 0.196507
Si Si2 0.114033 0.587139 0.080022
Si Si3 0.964575 0.858813 0.498419
Si Si4 0.444794 0.451928 0.309498
Si Si5 0.518781 0.058872 0.833300
Si Si6 0.000000 0.000000 0.500000
Si Si7 0.669669 0.812637 0.870618
Si Si8 0.587842 0.680764 0.818127
O O1 0.139543 0.778154 0.395973
O O2 0.148402 0.645225 0.255483
O O3 0.357949 0.709408 0.004515
O O4 0.871668 0.765689 0.064633
O O5 0.332928 0.569589 0.884512
O O6 0.841320 0.628765 0.960057
O O7 0.176520 0.511347 0.201778
O O8 0.747395 0.904373 0.307884
O O9 0.811888 0.846999 0.710779
O O10 0.103436 0.910099 0.545012
O O11 0.500000 0.500000 0.500000
O O12 0.437684 0.375695 0.366079
O O13 0.754870 0.017921 0.665436
O O14 0.549996 0.121002 0.988626
O O15 0.500000 0.000000 0.000000
O O16 0.607411 0.753023 0.735541
#
# Coordination Sequence:
#
# PCOD9107934 Si02
#       8
#     2   2   2   2   2   1   2   2
#     4   9  21  40  62  89 126 170 213 269 328 388
#     4   9  20  39  62  89 129 166 215 272 321 392
#     4  11  24  43  64  95 129 169 220 268 336 400
#     4  10  21  38  61  94 129 167 214 269 332 393
#     4  11  24  45  66  96 134 168 221 283 324 400
#     4  12  24  40  68  96 124 178 214 264 350 382
#     4  10  22  42  62  92 134 168 215 280 322 394
#     4  10  20  40  66  91 126 174 215 268 336 387
#
# _framework density 24.486819000000001
#
# number of rings (size 3 to 8) (size 9 to 14) (size 15 to 20)
#    0.000    1.867    1.333    1.600    0.000    5.333 
#    0.000   13.333    0.000    0.000    0.000    0.000 
#    0.000    0.000    0.000    0.000    0.000    0.000 
#
# Total GULP energy -83660.860326 kJ/mol
# GULP energy per Si atom -5577.390688 kJ/mol
# Density = 2.443109 g / cm^3
# Si number density = 24.486819 Si / 1000 Ang^3
#
#
#
# Elastic Constant Matrix: (Units=GPa)
#
#
# Indices 1 2 3 4 5 6 
#
# 1 49.4455 35.7148 14.3554 12.1980 -0.2251 8.1862
# 2 35.7148 166.6552 34.1893 34.9944 4.1828 26.2123
# 3 14.3554 34.1893 34.9643 16.8974 15.4525 -2.3609
# 4 12.1980 34.9944 16.8974 38.4195 2.4964 -2.8950
# 5 -0.2251 4.1828 15.4525 2.4964 36.9103 0.5064
# 6 8.1862 26.2123 -2.3609 -2.8950 0.5064 51.3395
#
#
#
# Elastic Compliance Matrix: (Units=1/GPa)
#
#
# Indices 1 2 3 4 5 6 
#
# 1 0.026012 -0.002857 -0.008988 -0.002238 0.004441 -0.003272
# 2 -0.002857 0.010093 -0.007420 -0.005584 0.002397 -0.005377
# 3 -0.008988 -0.007420 0.056018 -0.013055 -0.021883 0.007277
# 4 -0.002238 -0.005584 -0.013055 0.037695 0.003471 0.004699
# 5 0.004441 0.002397 -0.021883 0.003471 0.035817 -0.003096
# 6 -0.003272 -0.005377 0.007277 0.004699 -0.003096 0.023376
#
#
# Mechanical properties :
#
#
# Convention : Reuss Voigt Hill
#
# Bulk Modulus (GPa) = 18.65947 46.62045 32.63996
# Shear Modulus (GPa) = 20.37447 36.45422 28.41434
#
# Velocity S-wave (km/s) = 2.88767 3.86259 3.41015
# Velocity P-wave (km/s) = 4.33070 6.24285 5.37253
#
# Compressibility (1/GPa) = 0.05359210
#
# Stress axis : x y z
#
# Youngs Moduli (GPa) = 38.44417 99.07829 17.85142
#
# Poissons Ratio (x) = 0.28311 0.16045
# Poissons Ratio (y) = 0.10985 0.13246
# Poissons Ratio (z) = 0.34553 0.73516
#
# Static dielectric constant tensor:
#      x y z
#    x 1.944510 0.038300 0.095060 
#    y 0.038300 1.951500 0.020330 
#    z 0.095060 0.020330 1.958130 
# 
# From -- ./inp_files/11338.got.cif
#   From: 2010.05.17/outbox.cif.g08.bks.cpg/sg2_6_cif.got.tgz:11338.got - 2010.06.03 11:33:40.
