data_PCOD9107638
_publ_section_title
;
Structure prediction by ZEFSAII (Michael W. Deem and Ramdas Pophale) SiO2 
 PCOD9107638
Probable space group: P -1
;
_chemical_formula_sum "Si O2"
_cell_formula_units_Z 14
_cell_length_a 9.685930
_cell_length_b 8.678818
_cell_length_c 11.516556
_cell_angle_alpha 59.096491
_cell_angle_beta 48.092007
_cell_angle_gamma 62.883327
_cell_volume 608.486279
_symmetry_space_group_name_H-M "P -1"
_symmetry_group_IT_number 2
_symmetry_cell_setting 'triclinic'
loop_
_space_group_symop_operation_xyz
x,y,z
-x,-y,-z
loop_
_atom_site_type_symbol
_atom_site_label
_atom_site_fract_x
_atom_site_fract_y
_atom_site_fract_z
Si Si1 0.717815 0.183189 0.321157
Si Si2 0.073913 0.659826 0.024873
Si Si3 0.732289 0.929774 0.995610
Si Si4 0.543657 0.961923 0.328426
Si Si5 0.056470 0.260957 0.237159
Si Si6 0.807860 0.711672 0.592328
Si Si7 0.845027 0.304987 0.766327
O O1 0.705554 0.026627 0.291331
O O2 0.892714 0.156325 0.324066
O O3 0.532482 0.198863 0.498221
O O4 0.748991 0.349118 0.157198
O O5 0.000720 0.470122 0.146411
O O6 0.125890 0.699829 0.110212
O O7 0.921244 0.824117 0.996077
O O8 0.749342 0.817984 0.909101
O O9 0.741588 0.134689 0.870834
O O10 0.585980 0.928424 0.182625
O O11 0.372769 0.131930 0.370990
O O12 0.085860 0.261827 0.356804
O O13 0.750922 0.511095 0.706038
O O14 0.956608 0.719288 0.403457
#
# Coordination Sequence:
#
# PCOD9107638 Si02
#       7
#     2   2   2   2   2   2   2
#     4  10  21  39  62  91 119 157 199 250 300 347
#     4  10  20  40  65  90 116 163 208 248 286 365
#     4  11  21  36  64  91 118 160 204 248 298 357
#     4  11  24  36  61  97 125 153 196 256 307 350
#     4  10  23  42  65  86 123 163 203 245 297 362
#     4  10  23  42  60  91 123 160 201 247 304 354
#     4  10  21  38  66  85 116 168 210 236 285 378
#
# _framework density 23.007915000000001
#
# number of rings (size 3 to 8) (size 9 to 14) (size 15 to 20)
#    0.000    1.714    1.429    3.857    6.000    3.429 
#    0.000    2.857    3.143    0.000    0.000    0.000 
#    0.000    0.000    0.000    0.000    0.000    0.000 
#
# Total GULP energy -78124.630479 kJ/mol
# GULP energy per Si atom -5580.330748 kJ/mol
# Density = 2.295555 g / cm^3
# Si number density = 23.007915 Si / 1000 Ang^3
#
#
#
# Elastic Constant Matrix: (Units=GPa)
#
#
# Indices 1 2 3 4 5 6 
#
# 1 57.9344 14.0978 5.0974 -13.7220 0.0490 -1.0086
# 2 14.0978 43.7237 21.3840 1.9560 -5.3557 0.7854
# 3 5.0974 21.3840 117.8059 -10.3879 4.3635 -4.9662
# 4 -13.7220 1.9560 -10.3879 27.6883 -5.3703 4.0206
# 5 0.0490 -5.3557 4.3635 -5.3703 19.7172 0.2210
# 6 -1.0086 0.7854 -4.9662 4.0206 0.2210 20.3496
#
#
#
# Elastic Compliance Matrix: (Units=1/GPa)
#
#
# Indices 1 2 3 4 5 6 
#
# 1 0.022067 -0.008353 0.001598 0.012354 0.000695 -0.000642
# 2 -0.008353 0.029761 -0.005993 -0.006757 0.007611 -0.001773
# 3 0.001598 -0.005993 0.010060 0.004171 -0.002744 0.001971
# 4 0.012354 -0.006757 0.004171 0.047358 0.010195 -0.007577
# 5 0.000695 0.007611 -0.002744 0.010195 0.056207 -0.003554
# 6 -0.000642 -0.001773 0.001971 -0.007577 -0.003554 0.051194
#
#
# Mechanical properties :
#
#
# Convention : Reuss Voigt Hill
#
# Bulk Modulus (GPa) = 27.47827 33.40247 30.44037
# Shear Modulus (GPa) = 19.66378 25.47666 22.57022
#
# Velocity S-wave (km/s) = 2.92662 3.33122 3.13545
# Velocity P-wave (km/s) = 4.83622 5.41714 5.13490
#
# Compressibility (1/GPa) = 0.03639240
#
# Stress axis : x y z
#
# Youngs Moduli (GPa) = 45.31635 33.60048 99.40528
#
# Poissons Ratio (x) = 0.28065 -0.15883
# Poissons Ratio (y) = 0.37851 0.59577
# Poissons Ratio (z) = -0.07241 0.20138
#
# Static dielectric constant tensor:
#      x y z
#    x 1.900560 0.007780 -0.039770 
#    y 0.007780 1.893410 0.000700 
#    z -0.039770 0.000700 1.910470 
# 
# From -- ./inp_files/182632.got.cif
#   From: 2010.05.17/outbox.cif.g08.bks.cpg/sg2_92_cif.got.tgz:182632.got - 2010.06.03 11:33:40.
