data_PCOD9107232
_publ_section_title
;
Structure prediction by ZEFSAII (Michael W. Deem and Ramdas Pophale) SiO2 
 PCOD9107232
Probable space group: P -1
;
_chemical_formula_sum "Si O2"
_cell_formula_units_Z 16
_cell_length_a 8.405555
_cell_length_b 8.939743
_cell_length_c 23.587087
_cell_angle_alpha 150.259222
_cell_angle_beta 61.004045
_cell_angle_gamma 109.542074
_cell_volume 753.643432
_symmetry_space_group_name_H-M "P -1"
_symmetry_group_IT_number 2
_symmetry_cell_setting 'triclinic'
loop_
_space_group_symop_operation_xyz
x,y,z
-x,-y,-z
loop_
_atom_site_type_symbol
_atom_site_label
_atom_site_fract_x
_atom_site_fract_y
_atom_site_fract_z
Si Si1 0.095075 0.744682 0.596587
Si Si2 0.551589 0.762847 0.256556
Si Si3 0.288016 0.819310 0.905489
Si Si4 0.268553 0.749452 0.681968
Si Si5 0.496848 0.688242 0.979058
Si Si6 0.522712 0.165427 0.491408
Si Si7 0.031709 0.052127 0.920001
Si Si8 0.823556 0.343308 0.892139
O O1 0.199351 0.603909 0.589672
O O2 0.261217 0.835454 0.560431
O O3 0.000000 0.500000 0.500000
O O4 0.945624 0.042777 0.742445
O O5 0.683180 0.537504 0.203050
O O6 0.479781 0.517389 0.149047
O O7 0.640721 0.974664 0.267885
O O8 0.438601 0.993406 0.397511
O O9 0.175050 0.896802 0.892777
O O10 0.165164 0.978863 0.031695
O O11 0.466972 0.969323 0.920754
O O12 0.412542 0.516021 0.618509
O O13 0.095554 0.895419 0.798606
O O14 0.662161 0.511782 0.932860
O O15 0.296643 0.706565 0.048369
O O16 0.500000 0.000000 0.500000
O O17 0.051489 0.407989 0.032604
#
# Coordination Sequence:
#
# PCOD9107232 Si02
#       8
#     2   2   2   2   2   2   2   2
#     4  11  26  43  68 100 133 172 224 278 318 395
#     4  11  21  39  66  92 128 169 222 266 315 405
#     4  10  22  36  61  97 135 161 215 267 340 369
#     4  11  24  42  72  94 129 179 228 259 333 395
#     4  10  22  38  63 100 131 174 206 278 324 396
#     4  11  26  47  69  94 128 183 221 270 333 393
#     4  10  20  40  63  93 128 174 212 276 313 401
#     4  10  22  39  66  94 133 172 217 260 343 375
#
# _framework density 21.230201000000001
#
# number of rings (size 3 to 8) (size 9 to 14) (size 15 to 20)
#    0.000    1.500    1.250    4.125    5.250    4.000 
#    2.250    0.625    0.000    0.000    0.000    0.000 
#    0.000    0.000    0.000    0.000    0.000    0.000 
#
# Total GULP energy -89313.548466 kJ/mol
# GULP energy per Si atom -5582.096779 kJ/mol
# Density = 2.118188 g / cm^3
# Si number density = 21.230201 Si / 1000 Ang^3
#
#
#
# Elastic Constant Matrix: (Units=GPa)
#
#
# Indices 1 2 3 4 5 6 
#
# 1 55.5213 36.7762 22.2180 6.3148 1.9672 6.7740
# 2 36.7762 146.0668 46.5312 -0.7791 -4.8790 -7.1751
# 3 22.2180 46.5312 95.1582 0.7586 -5.5964 0.7969
# 4 6.3148 -0.7791 0.7586 41.9033 -6.5680 -5.0054
# 5 1.9672 -4.8790 -5.5964 -6.5680 33.8704 0.6000
# 6 6.7740 -7.1751 0.7969 -5.0054 0.6000 27.1077
#
#
#
# Elastic Compliance Matrix: (Units=1/GPa)
#
#
# Indices 1 2 3 4 5 6 
#
# 1 0.024923 -0.005880 -0.003046 -0.005418 -0.003696 -0.008614
# 2 -0.005880 0.009661 -0.003317 0.001887 0.001472 0.004440
# 3 -0.003046 -0.003317 0.012956 0.000409 0.001927 -0.000465
# 4 -0.005418 0.001887 0.000409 0.026382 0.005653 0.006588
# 5 -0.003696 0.001472 0.001927 0.005653 0.031337 0.001607
# 6 -0.008614 0.004440 -0.000465 0.006588 0.001607 0.041412
#
#
# Mechanical properties :
#
#
# Convention : Reuss Voigt Hill
#
# Bulk Modulus (GPa) = 43.37630 56.42190 49.89910
# Shear Modulus (GPa) = 27.95791 33.32435 30.64113
#
# Velocity S-wave (km/s) = 3.63284 3.96620 3.80317
# Velocity P-wave (km/s) = 6.17029 6.89987 6.54526
#
# Compressibility (1/GPa) = 0.02305407
#
# Stress axis : x y z
#
# Youngs Moduli (GPa) = 40.12350 103.51370 77.18596
#
# Poissons Ratio (x) = 0.60868 0.23509
# Poissons Ratio (y) = 0.23594 0.25599
# Poissons Ratio (z) = 0.12221 0.34331
#
# Static dielectric constant tensor:
#      x y z
#    x 1.786700 -0.040330 -0.026710 
#    y -0.040330 1.767060 0.006850 
#    z -0.026710 0.006850 1.802250 
# 
# From -- ./inp_files/333259.got.cif
#   From: 2010.05.17/outbox.cif.g08.bks.cpg/sg2_167_cif.got.tgz:333259.got - 2010.06.03 11:33:40.
