data_PCOD9107400
_publ_section_title
;
Structure prediction by ZEFSAII (Michael W. Deem and Ramdas Pophale) SiO2 
 PCOD9107400
Probable space group: P -1
;
_chemical_formula_sum "Si O2"
_cell_formula_units_Z 16
_cell_length_a 9.442574
_cell_length_b 15.970846
_cell_length_c 8.539903
_cell_angle_alpha 116.845518
_cell_angle_beta 135.752960
_cell_angle_gamma 89.574123
_cell_volume 690.762076
_symmetry_space_group_name_H-M "P -1"
_symmetry_group_IT_number 2
_symmetry_cell_setting 'triclinic'
loop_
_space_group_symop_operation_xyz
x,y,z
-x,-y,-z
loop_
_atom_site_type_symbol
_atom_site_label
_atom_site_fract_x
_atom_site_fract_y
_atom_site_fract_z
Si Si1 0.821874 0.852217 0.578480
Si Si2 0.211725 0.633469 0.553301
Si Si3 0.963162 0.688470 0.656458
Si Si4 0.278544 0.889310 0.288895
Si Si5 0.108573 0.770425 0.346660
Si Si6 0.239216 0.438591 0.311083
Si Si7 0.812594 0.912595 0.956423
Si Si8 0.292379 0.184582 0.871703
O O1 0.699100 0.861329 0.330954
O O2 0.847011 0.745893 0.514889
O O3 0.706826 0.855780 0.656171
O O4 0.082977 0.959108 0.871829
O O5 0.059219 0.625844 0.575996
O O6 0.192134 0.720492 0.503353
O O7 0.141040 0.521219 0.318018
O O8 0.490437 0.692312 0.856301
O O9 0.776150 0.608241 0.567138
O O10 0.182401 0.786687 0.007768
O O11 0.306939 0.854557 0.457189
O O12 0.048080 0.901882 0.134969
O O13 0.500000 0.000000 0.500000
O O14 0.957939 0.821710 0.333876
O O15 0.926950 0.666437 0.011941
O O16 0.500000 0.500000 0.500000
O O17 0.703183 0.869707 0.005371
#
# Coordination Sequence:
#
# PCOD9107400 Si02
#       8
#     2   2   2   2   2   2   2   2
#     4  10  20  40  64  89 134 175 220 272 326 385
#     4  12  24  41  68  96 131 170 220 276 344 388
#     4  10  23  42  64  96 133 163 223 282 320 404
#     4   9  20  39  62  92 134 173 214 268 327 390
#     4  10  22  44  65  96 130 170 222 275 323 405
#     4  11  23  46  70  92 128 174 221 280 343 397
#     4   9  21  38  64  92 135 182 225 265 322 402
#     4  11  22  41  65  98 136 175 219 272 333 396
#
# _framework density 23.162821999999998
#
# number of rings (size 3 to 8) (size 9 to 14) (size 15 to 20)
#    0.000    1.750    2.500    1.875    1.750    3.000 
#    2.250    5.000    0.000    0.000    0.000    0.000 
#    0.000    0.000    0.000    0.000    0.000    0.000 
#
# Total GULP energy -89374.349070 kJ/mol
# GULP energy per Si atom -5585.896817 kJ/mol
# Density = 2.311010 g / cm^3
# Si number density = 23.162822 Si / 1000 Ang^3
#
#
#
# Elastic Constant Matrix: (Units=GPa)
#
#
# Indices 1 2 3 4 5 6 
#
# 1 148.9197 54.4484 35.4775 -0.5985 0.8353 29.1675
# 2 54.4484 89.7059 7.9743 -0.1040 -5.9535 23.4173
# 3 35.4775 7.9743 35.8338 -2.3616 -12.2434 24.0311
# 4 -0.5985 -0.1040 -2.3616 31.0798 13.6974 -5.6111
# 5 0.8353 -5.9535 -12.2434 13.6974 32.1129 -1.2898
# 6 29.1675 23.4173 24.0311 -5.6111 -1.2898 48.6422
#
#
#
# Elastic Compliance Matrix: (Units=1/GPa)
#
#
# Indices 1 2 3 4 5 6 
#
# 1 0.013098 -0.008418 -0.017882 0.004391 -0.010380 0.005265
# 2 -0.008418 0.018874 0.016241 -0.006485 0.012175 -0.012487
# 3 -0.017882 0.016241 0.079793 -0.018832 0.040420 -0.037617
# 4 0.004391 -0.006485 -0.018832 0.045420 -0.027295 0.014308
# 5 -0.010380 0.012175 0.040420 -0.027295 0.059870 -0.021167
# 6 0.005265 -0.012487 -0.037617 0.014308 -0.021167 0.043087
#
#
# Mechanical properties :
#
#
# Convention : Reuss Voigt Hill
#
# Bulk Modulus (GPa) = 10.91155 52.25111 31.58133
# Shear Modulus (GPa) = 16.08709 34.13759 25.11234
#
# Velocity S-wave (km/s) = 2.63824 3.84319 3.29624
# Velocity P-wave (km/s) = 3.74185 6.50389 5.30575
#
# Compressibility (1/GPa) = 0.09164603
#
# Stress axis : x y z
#
# Youngs Moduli (GPa) = 76.34846 52.98388 12.53241
#
# Poissons Ratio (x) = 0.44604 0.22411
# Poissons Ratio (y) = 0.64273 -0.20354
# Poissons Ratio (z) = 1.36527 -0.86052
#
# Static dielectric constant tensor:
#      x y z
#    x 1.887940 0.007750 -0.023300 
#    y 0.007750 1.891750 -0.045910 
#    z -0.023300 -0.045910 1.880480 
# 
# From -- ./inp_files/218420.got.cif
#   From: 2010.05.17/outbox.cif.g08.bks.cpg/sg2_110_cif.got.tgz:218420.got - 2010.06.03 11:33:40.
