data_PCOD9107599
_publ_section_title
;
Structure prediction by ZEFSAII (Michael W. Deem and Ramdas Pophale) SiO2 
 PCOD9107599
Probable space group: P -1
;
_chemical_formula_sum "Si O2"
_cell_formula_units_Z 12
_cell_length_a 15.035936
_cell_length_b 8.941102
_cell_length_c 9.966759
_cell_angle_alpha 87.450296
_cell_angle_beta 71.882138
_cell_angle_gamma 33.521780
_cell_volume 641.713730
_symmetry_space_group_name_H-M "P -1"
_symmetry_group_IT_number 2
_symmetry_cell_setting 'triclinic'
loop_
_space_group_symop_operation_xyz
x,y,z
-x,-y,-z
loop_
_atom_site_type_symbol
_atom_site_label
_atom_site_fract_x
_atom_site_fract_y
_atom_site_fract_z
Si Si1 0.099124 0.819122 0.319191
Si Si2 0.745013 0.878672 0.690532
Si Si3 0.891843 0.816419 0.372617
Si Si4 0.284187 0.837508 0.082280
Si Si5 0.803006 0.839158 0.121524
Si Si6 0.532504 0.897245 0.835351
O O1 0.153494 0.890270 0.205132
O O2 0.293765 0.457202 0.249854
O O3 0.957044 0.896357 0.317647
O O4 0.000000 0.000000 0.500000
O O5 0.762367 0.968660 0.555532
O O6 0.585696 0.978059 0.733710
O O7 0.926098 0.528145 0.652340
O O8 0.725631 0.002286 0.827407
O O9 0.807629 0.864656 0.276016
O O10 0.500000 0.500000 0.000000
O O11 0.228424 0.964945 0.954850
O O12 0.644960 0.941296 0.146390
O O13 0.000000 0.500000 0.000000
O O14 0.500000 0.000000 0.000000
#
# Coordination Sequence:
#
# PCOD9107599 Si02
#       6
#     2   2   2   2   2   2
#     4  11  22  40  67  94 129 175 215 259 331 390
#     4  10  20  40  65  87 125 174 213 247 329 394
#     4  10  22  39  63  94 126 166 213 267 313 384
#     4  12  22  40  66  93 126 174 212 261 327 386
#     4  12  23  39  65  98 130 161 225 275 309 378
#     4  11  21  40  66  93 126 178 218 258 321 400
#
# _framework density 18.699928
#
# number of rings (size 3 to 8) (size 9 to 14) (size 15 to 20)
#    0.000    1.000    6.667    1.000    0.000    1.333 
#    0.000    3.333    0.000    0.000    0.000    0.000 
#    0.000    0.000    0.000    0.000    0.000    0.000 
#
# Total GULP energy -66912.991864 kJ/mol
# GULP energy per Si atom -5576.082655 kJ/mol
# Density = 1.865737 g / cm^3
# Si number density = 18.699928 Si / 1000 Ang^3
#
#
#
# Elastic Constant Matrix: (Units=GPa)
#
#
# Indices 1 2 3 4 5 6 
#
# 1 155.2039 20.2876 29.5836 -14.1686 -16.4836 -15.1846
# 2 20.2876 50.0112 18.8731 -3.8259 -9.0175 -7.6099
# 3 29.5836 18.8731 77.5014 -10.4268 -0.5122 -16.1031
# 4 -14.1686 -3.8259 -10.4268 34.7987 5.5879 2.4265
# 5 -16.4836 -9.0175 -0.5122 5.5879 42.6664 -6.4112
# 6 -15.1846 -7.6099 -16.1031 2.4265 -6.4112 30.9724
#
#
#
# Elastic Compliance Matrix: (Units=1/GPa)
#
#
# Indices 1 2 3 4 5 6 
#
# 1 0.007716 -0.001362 -0.001727 0.001801 0.002888 0.003007
# 2 -0.001362 0.023712 -0.004456 -0.000370 0.005069 0.003920
# 3 -0.001727 -0.004456 0.016373 0.003439 -0.000946 0.006105
# 4 0.001801 -0.000370 0.003439 0.031061 -0.003496 -0.000577
# 5 0.002888 0.005069 -0.000946 -0.003496 0.027287 0.008092
# 6 0.003007 0.003920 0.006105 -0.000577 0.008092 0.039619
#
#
# Mechanical properties :
#
#
# Convention : Reuss Voigt Hill
#
# Bulk Modulus (GPa) = 30.57295 46.68944 38.63120
# Shear Modulus (GPa) = 29.11010 35.95230 32.53120
#
# Velocity S-wave (km/s) = 3.94978 4.38949 4.17543
# Velocity P-wave (km/s) = 6.09801 7.12124 6.62940
#
# Compressibility (1/GPa) = 0.03270865
#
# Stress axis : x y z
#
# Youngs Moduli (GPa) = 129.60484 42.17291 61.07798
#
# Poissons Ratio (x) = 0.05744 0.10551
# Poissons Ratio (y) = 0.17653 0.27218
# Poissons Ratio (z) = 0.22389 0.18793
#
# Static dielectric constant tensor:
#      x y z
#    x 1.646150 0.005280 -0.048130 
#    y 0.005280 1.783780 0.074660 
#    z -0.048130 0.074660 1.683520 
# 
# From -- ./inp_files/145901.got.cif
#   From: 2010.05.17/outbox.cif.g08.bks.cpg/sg2_73_cif.got.tgz:145901.got - 2010.06.03 11:33:40.
