data_PCOD9107375
_publ_section_title
;
Structure prediction by ZEFSAII (Michael W. Deem and Ramdas Pophale) SiO2 
 PCOD9107375
Probable space group: P -1
;
_chemical_formula_sum "Si O2"
_cell_formula_units_Z 16
_cell_length_a 13.855478
_cell_length_b 11.323069
_cell_length_c 8.727292
_cell_angle_alpha 82.637234
_cell_angle_beta 92.403670
_cell_angle_gamma 31.575112
_cell_volume 680.248747
_symmetry_space_group_name_H-M "P -1"
_symmetry_group_IT_number 2
_symmetry_cell_setting 'triclinic'
loop_
_space_group_symop_operation_xyz
x,y,z
-x,-y,-z
loop_
_atom_site_type_symbol
_atom_site_label
_atom_site_fract_x
_atom_site_fract_y
_atom_site_fract_z
Si Si1 0.405614 0.976043 0.544545
Si Si2 0.965686 0.894160 0.035947
Si Si3 0.168120 0.295696 0.208456
Si Si4 0.803738 0.546063 0.025476
Si Si5 0.840355 0.391722 0.351952
Si Si6 0.787849 0.117125 0.689639
Si Si7 0.589380 0.556422 0.549594
Si Si8 0.061676 0.265262 0.676161
O O1 0.282578 0.086510 0.362121
O O2 0.258792 0.114389 0.651351
O O3 0.500000 0.000000 0.500000
O O4 0.567524 0.703524 0.610499
O O5 0.912856 0.880762 0.192375
O O6 0.153069 0.621563 0.033099
O O7 0.797541 0.050869 0.870647
O O8 0.000000 0.000000 0.000000
O O9 0.015155 0.379718 0.093905
O O10 0.052054 0.513337 0.271789
O O11 0.295183 0.245022 0.114852
O O12 0.742829 0.578956 0.186622
O O13 0.679804 0.482782 0.402355
O O14 0.939883 0.359065 0.501607
O O15 0.006328 0.134385 0.328305
O O16 0.734256 0.312322 0.679787
O O17 0.625685 0.259223 0.528813
#
# Coordination Sequence:
#
# PCOD9107375 Si02
#       8
#     2   2   2   2   2   2   2   2
#     4  12  24  39  58  93 136 167 213 263 306 378
#     4  10  21  40  66  96 125 165 210 264 326 381
#     4  10  20  40  64  88 125 166 210 261 314 365
#     4   9  20  37  64  92 120 159 214 259 311 379
#     4  11  20  40  69  94 125 166 211 261 324 379
#     4  10  22  44  65  91 133 160 208 272 315 383
#     4  11  23  39  66  95 123 170 217 255 322 379
#     4  11  22  39  68  94 126 172 213 257 321 380
#
# _framework density 23.520809
#
# number of rings (size 3 to 8) (size 9 to 14) (size 15 to 20)
#    0.000    1.500    2.500    3.000    1.750    2.000 
#    2.250    1.250    0.000    0.000    0.000    0.000 
#    0.000    0.000    0.000    0.000    0.000    0.000 
#
# Total GULP energy -89282.774842 kJ/mol
# GULP energy per Si atom -5580.173428 kJ/mol
# Density = 2.346727 g / cm^3
# Si number density = 23.520809 Si / 1000 Ang^3
#
#
#
# Elastic Constant Matrix: (Units=GPa)
#
#
# Indices 1 2 3 4 5 6 
#
# 1 83.5698 23.3807 16.3247 1.7790 -16.7589 19.2372
# 2 23.3807 81.6867 23.0177 -4.7101 -10.0421 16.5045
# 3 16.3247 23.0177 122.2991 6.5075 -34.6604 8.2600
# 4 1.7790 -4.7101 6.5075 16.0210 5.4690 -8.8814
# 5 -16.7589 -10.0421 -34.6604 5.4690 46.8979 1.4767
# 6 19.2372 16.5045 8.2600 -8.8814 1.4767 45.5219
#
#
#
# Elastic Compliance Matrix: (Units=1/GPa)
#
#
# Indices 1 2 3 4 5 6 
#
# 1 0.016274 -0.003105 0.001850 -0.010923 0.008059 -0.008480
# 2 -0.003105 0.014579 -0.002417 0.004166 -0.000175 -0.002717
# 3 0.001850 -0.002417 0.012503 -0.012504 0.010998 -0.004970
# 4 -0.010923 0.004166 -0.012504 0.091287 -0.023652 0.023952
# 5 0.008059 -0.000175 0.010998 -0.023652 0.035402 -0.011101
# 6 -0.008480 -0.002717 -0.004970 0.023952 -0.011101 0.032471
#
#
# Mechanical properties :
#
#
# Convention : Reuss Voigt Hill
#
# Bulk Modulus (GPa) = 27.76905 45.88909 36.82907
# Shear Modulus (GPa) = 22.53636 36.67701 29.60668
#
# Velocity S-wave (km/s) = 3.09875 3.95314 3.55173
# Velocity P-wave (km/s) = 4.96335 6.35521 5.70191
#
# Compressibility (1/GPa) = 0.03601131
#
# Stress axis : x y z
#
# Youngs Moduli (GPa) = 61.44801 68.58984 79.98221
#
# Poissons Ratio (x) = 0.21298 -0.14796
# Poissons Ratio (y) = 0.19080 0.19333
# Poissons Ratio (z) = -0.11367 0.16579
#
# Static dielectric constant tensor:
#      x y z
#    x 2.032840 0.040800 0.034470 
#    y 0.040800 1.887240 -0.036830 
#    z 0.034470 -0.036830 2.020600 
# 
# From -- ./inp_files/220293.got.cif
#   From: 2010.05.17/outbox.cif.g08.bks.cpg/sg2_111_cif.got.tgz:220293.got - 2010.06.03 11:33:40.
