data_PCOD9107037
_publ_section_title
;
Structure prediction by ZEFSAII (Michael W. Deem and Ramdas Pophale) SiO2 
 PCOD9107037
Probable space group: P -1
;
_chemical_formula_sum "Si O2"
_cell_formula_units_Z 16
_cell_length_a 17.576220
_cell_length_b 7.544461
_cell_length_c 18.185731
_cell_angle_alpha 45.329062
_cell_angle_beta 153.915608
_cell_angle_gamma 118.601968
_cell_volume 658.016157
_symmetry_space_group_name_H-M "P -1"
_symmetry_group_IT_number 2
_symmetry_cell_setting 'triclinic'
loop_
_space_group_symop_operation_xyz
x,y,z
-x,-y,-z
loop_
_atom_site_type_symbol
_atom_site_label
_atom_site_fract_x
_atom_site_fract_y
_atom_site_fract_z
Si Si1 0.908779 0.312540 0.008417
Si Si2 0.211379 0.896192 0.176929
Si Si3 0.317971 0.306382 0.919041
Si Si4 0.267523 0.187459 0.756662
Si Si5 0.916064 0.565572 0.169071
Si Si6 0.219647 0.955119 0.633439
Si Si7 0.220257 0.693995 0.475909
Si Si8 0.484170 0.303232 0.378112
O O1 0.799926 0.246881 0.866391
O O2 0.740404 0.463065 0.877480
O O3 0.000000 0.500000 0.000000
O O4 0.086611 0.025457 0.277458
O O5 0.380266 0.688761 0.439278
O O6 0.211042 0.190933 0.071320
O O7 0.000000 0.000000 0.000000
O O8 0.230558 0.197352 0.808688
O O9 0.221663 0.333252 0.907067
O O10 0.251067 0.637869 0.747049
O O11 0.558805 0.106827 0.182427
O O12 0.186009 0.060544 0.659793
O O13 0.229717 0.498089 0.608172
O O14 0.500000 0.000000 0.000000
O O15 0.031536 0.224958 0.353607
O O16 0.102825 0.613600 0.336746
O O17 0.420921 0.657643 0.625432
O O18 0.500000 0.000000 0.500000
#
# Coordination Sequence:
#
# PCOD9107037 Si02
#       8
#     2   2   2   2   2   2   2   2
#     4  11  22  42  67  95 133 173 221 276 326 398
#     4  11  22  44  66  96 131 172 220 270 335 399
#     4  10  20  40  62  93 129 167 217 266 326 395
#     4   9  20  40  64  91 129 171 212 272 327 390
#     4  10  21  39  65  90 129 167 216 269 327 394
#     4   9  20  39  62  90 132 165 212 272 322 393
#     4  10  22  41  63  94 132 168 222 265 335 397
#     4  12  23  45  66  91 135 176 213 282 332 391
#
# _framework density 24.315512999999999
#
# number of rings (size 3 to 8) (size 9 to 14) (size 15 to 20)
#    0.000    1.750    3.750    0.750    0.000    8.000 
#   13.500    1.250    2.750    0.000    0.000    0.000 
#    0.000    0.000    0.000    0.000    0.000    0.000 
#
# Total GULP energy -89379.903470 kJ/mol
# GULP energy per Si atom -5586.243967 kJ/mol
# Density = 2.426017 g / cm^3
# Si number density = 24.315513 Si / 1000 Ang^3
#
#
#
# Elastic Constant Matrix: (Units=GPa)
#
#
# Indices 1 2 3 4 5 6 
#
# 1 111.4951 24.8430 41.8710 -2.7592 26.9369 -6.7387
# 2 24.8430 70.2100 9.2326 -10.1790 7.9758 -9.5281
# 3 41.8710 9.2326 121.6169 -23.6665 22.2075 2.3680
# 4 -2.7592 -10.1790 -23.6665 32.6940 3.0654 -0.1850
# 5 26.9369 7.9758 22.2075 3.0654 50.6432 4.6292
# 6 -6.7387 -9.5281 2.3680 -0.1850 4.6292 31.5168
#
#
#
# Elastic Compliance Matrix: (Units=1/GPa)
#
#
# Indices 1 2 3 4 5 6 
#
# 1 0.012257 -0.003321 -0.003618 -0.002181 -0.004510 0.002538
# 2 -0.003321 0.017053 0.001412 0.006298 -0.002351 0.004722
# 3 -0.003618 0.001412 0.011874 0.009102 -0.004001 -0.000598
# 4 -0.002181 0.006298 0.009102 0.039562 -0.006393 0.001925
# 5 -0.004510 -0.002351 -0.004001 -0.006393 0.025123 -0.005102
# 6 0.002538 0.004722 -0.000598 0.001925 -0.005102 0.034505
#
#
# Mechanical properties :
#
#
# Convention : Reuss Voigt Hill
#
# Bulk Modulus (GPa) = 33.18918 50.57946 41.88432
# Shear Modulus (GPa) = 30.96514 38.12916 34.54715
#
# Velocity S-wave (km/s) = 3.57245 3.96422 3.77342
# Velocity P-wave (km/s) = 5.54035 6.46528 6.02061
#
# Compressibility (1/GPa) = 0.03013030
#
# Stress axis : x y z
#
# Youngs Moduli (GPa) = 81.58880 58.63958 84.21436
#
# Poissons Ratio (x) = 0.19472 0.30470
# Poissons Ratio (y) = 0.27092 -0.11888
# Poissons Ratio (z) = 0.29520 -0.08278
#
# Static dielectric constant tensor:
#      x y z
#    x 1.822980 0.091360 0.010230 
#    y 0.091360 1.863460 -0.018450 
#    z 0.010230 -0.018450 1.949500 
# 
# From -- ./inp_files/599177.got.cif
#   From: 2010.05.17/outbox.cif.g08.bks.cpg/sg2_300_cif.got.tgz:599177.got - 2010.06.03 11:33:40.
