data_PCOD9107690
_publ_section_title
;
Structure prediction by ZEFSAII (Michael W. Deem and Ramdas Pophale) SiO2 
 PCOD9107690
Probable space group: P -1
;
_chemical_formula_sum "Si O2"
_cell_formula_units_Z 16
_cell_length_a 8.934908
_cell_length_b 11.989038
_cell_length_c 20.690971
_cell_angle_alpha 36.555309
_cell_angle_beta 41.289057
_cell_angle_gamma 38.775342
_cell_volume 778.821283
_symmetry_space_group_name_H-M "P -1"
_symmetry_group_IT_number 2
_symmetry_cell_setting 'triclinic'
loop_
_space_group_symop_operation_xyz
x,y,z
-x,-y,-z
loop_
_atom_site_type_symbol
_atom_site_label
_atom_site_fract_x
_atom_site_fract_y
_atom_site_fract_z
Si Si1 0.728877 0.168807 0.532637
Si Si2 0.997900 0.032199 0.093382
Si Si3 0.239030 0.892293 0.303615
Si Si4 0.677196 0.214870 0.301017
Si Si5 0.724131 0.870942 0.352788
Si Si6 0.614378 0.539350 0.593804
Si Si7 0.419507 0.871340 0.927458
Si Si8 0.823679 0.437664 0.041349
O O1 0.747598 0.207971 0.583456
O O2 0.525415 0.075829 0.634253
O O3 0.618189 0.364380 0.428250
O O4 0.000000 0.000000 0.500000
O O5 0.774738 0.095527 0.083100
O O6 0.980808 0.239089 0.037516
O O7 0.931530 0.902760 0.229286
O O8 0.259393 0.912551 0.026411
O O9 0.274983 0.708473 0.327826
O O10 0.453367 0.971061 0.190880
O O11 0.967209 0.091669 0.289671
O O12 0.497090 0.348339 0.354625
O O13 0.668034 0.363023 0.175699
O O14 0.633336 0.028476 0.369647
O O15 0.794522 0.636789 0.461816
O O16 0.640707 0.636309 0.966858
O O17 0.000000 0.500000 0.000000
#
# Coordination Sequence:
#
# PCOD9107690 Si02
#       8
#     2   2   2   2   2   2   2   2
#     4  10  20  40  65  92 124 161 203 259 311 368
#     4  10  23  43  66  92 127 169 209 263 319 367
#     4  12  22  39  65  94 126 161 210 258 309 377
#     4  11  23  41  61  93 125 168 204 259 318 368
#     4   9  21  42  62  90 132 156 209 258 309 381
#     4  10  23  38  66  92 123 161 209 251 316 372
#     4  11  23  42  66  93 128 168 213 263 312 374
#     4  11  24  41  63  93 129 167 214 259 311 375
#
# _framework density 20.543865
#
# number of rings (size 3 to 8) (size 9 to 14) (size 15 to 20)
#    0.750    0.750    3.750    1.125    1.750    3.000 
#    0.000    7.500    0.000    0.000    0.000    0.000 
#    0.000    0.000    0.000    0.000    0.000    0.000 
#
# Total GULP energy -89319.869875 kJ/mol
# GULP energy per Si atom -5582.491867 kJ/mol
# Density = 2.049711 g / cm^3
# Si number density = 20.543865 Si / 1000 Ang^3
#
#
#
# Elastic Constant Matrix: (Units=GPa)
#
#
# Indices 1 2 3 4 5 6 
#
# 1 64.7323 15.3875 -0.4476 -1.3723 0.0459 15.4092
# 2 15.3875 62.8091 18.7468 4.5228 -2.6232 11.9941
# 3 -0.4476 18.7468 45.9024 -5.1129 0.1464 8.9723
# 4 -1.3723 4.5228 -5.1129 30.5406 6.9330 6.2090
# 5 0.0459 -2.6232 0.1464 6.9330 34.6137 -5.5084
# 6 15.4092 11.9941 8.9723 6.2090 -5.5084 31.7719
#
#
#
# Elastic Compliance Matrix: (Units=1/GPa)
#
#
# Indices 1 2 3 4 5 6 
#
# 1 0.019167 -0.004604 0.004687 0.005147 -0.003084 -0.010422
# 2 -0.004604 0.020378 -0.008582 -0.004836 0.002286 -0.001695
# 3 0.004687 -0.008582 0.028212 0.009063 -0.004100 -0.009483
# 4 0.005147 -0.004836 0.009063 0.040222 -0.010523 -0.012915
# 5 -0.003084 0.002286 -0.004100 -0.010523 0.032707 0.009518
# 6 -0.010422 -0.001695 -0.009483 -0.012915 0.009518 0.044021
#
#
# Mechanical properties :
#
#
# Convention : Reuss Voigt Hill
#
# Bulk Modulus (GPa) = 19.70041 26.75747 23.22894
# Shear Modulus (GPa) = 22.87018 28.70239 25.78628
#
# Velocity S-wave (km/s) = 3.34014 3.74187 3.54670
# Velocity P-wave (km/s) = 4.94830 5.63220 5.30129
#
# Compressibility (1/GPa) = 0.05076037
#
# Stress axis : x y z
#
# Youngs Moduli (GPa) = 52.17222 49.07250 35.44579
#
# Poissons Ratio (x) = 0.22593 -0.16615
# Poissons Ratio (y) = 0.24020 0.30419
# Poissons Ratio (z) = -0.24455 0.42114
#
# Static dielectric constant tensor:
#      x y z
#    x 1.756660 -0.006940 0.005820 
#    y -0.006940 1.696620 -0.018590 
#    z 0.005820 -0.018590 1.734770 
# 
# From -- ./inp_files/589443.got.cif
#   From: 2010.05.17/outbox.cif.g08.bks.cpg/sg2_295_cif.got.tgz:589443.got - 2010.06.03 11:33:40.
