data_PCOD9107166
_publ_section_title
;
Structure prediction by ZEFSAII (Michael W. Deem and Ramdas Pophale) SiO2 
 PCOD9107166
Probable space group: P -1
;
_chemical_formula_sum "Si O2"
_cell_formula_units_Z 16
_cell_length_a 15.797409
_cell_length_b 15.338399
_cell_length_c 8.096827
_cell_angle_alpha 63.330044
_cell_angle_beta 92.234230
_cell_angle_gamma 145.740660
_cell_volume 741.488526
_symmetry_space_group_name_H-M "P -1"
_symmetry_group_IT_number 2
_symmetry_cell_setting 'triclinic'
loop_
_space_group_symop_operation_xyz
x,y,z
-x,-y,-z
loop_
_atom_site_type_symbol
_atom_site_label
_atom_site_fract_x
_atom_site_fract_y
_atom_site_fract_z
Si Si1 0.292864 0.378339 0.507511
Si Si2 0.373270 0.151550 0.359568
Si Si3 0.591522 0.553120 0.193324
Si Si4 0.781265 0.361060 0.938520
Si Si5 0.518782 0.785851 0.048538
Si Si6 0.746537 0.185107 0.390277
Si Si7 0.233442 0.773076 0.271807
Si Si8 0.094581 0.015666 0.380975
O O1 0.395321 0.406894 0.366684
O O2 0.280044 0.321590 0.736670
O O3 0.444044 0.627729 0.305047
O O4 0.079515 0.190056 0.586575
O O5 0.533942 0.386048 0.264450
O O6 0.166287 0.994616 0.501579
O O7 0.366627 0.029756 0.499371
O O8 0.405405 0.186515 0.134879
O O9 0.715196 0.738595 0.906128
O O10 0.671055 0.348269 0.914100
O O11 0.705430 0.221588 0.891421
O O12 0.023332 0.612094 0.742503
O O13 0.734146 0.257639 0.194775
O O14 0.694074 0.040002 0.909603
O O15 0.686653 0.158595 0.592287
O O16 0.000000 0.500000 0.500000
O O17 0.000000 0.000000 0.500000
#
# Coordination Sequence:
#
# PCOD9107166 Si02
#       8
#     2   2   2   2   2   2   2   2
#     4  11  24  42  66  94 133 168 218 271 331 392
#     4  11  22  40  64  94 129 166 221 262 325 390
#     4  11  24  43  63  97 131 168 216 278 326 391
#     4  10  20  40  63  89 129 166 213 264 330 376
#     4  11  22  39  66  92 126 171 217 261 321 398
#     4   9  21  38  63  92 124 167 214 267 314 399
#     4   9  20  38  60  88 127 165 207 268 323 373
#     4  12  22  41  69  90 129 177 213 270 332 386
#
# _framework density 21.578216999999999
#
# number of rings (size 3 to 8) (size 9 to 14) (size 15 to 20)
#    0.000    1.500    2.500    2.625    1.750    2.000 
#    2.250    0.000   11.000    0.000    0.000    0.000 
#    0.000    0.000    0.000    0.000    0.000    0.000 
#
# Total GULP energy -89287.762610 kJ/mol
# GULP energy per Si atom -5580.485163 kJ/mol
# Density = 2.152910 g / cm^3
# Si number density = 21.578217 Si / 1000 Ang^3
#
#
#
# Elastic Constant Matrix: (Units=GPa)
#
#
# Indices 1 2 3 4 5 6 
#
# 1 79.7107 19.0532 7.9925 7.2549 -1.5717 -14.4417
# 2 19.0532 59.2530 19.3816 -21.5955 -6.7642 -19.0313
# 3 7.9925 19.3816 53.5455 6.3882 8.1862 -15.9343
# 4 7.2549 -21.5955 6.3882 38.0713 -2.2402 -4.9234
# 5 -1.5717 -6.7642 8.1862 -2.2402 28.2420 -3.2903
# 6 -14.4417 -19.0313 -15.9343 -4.9234 -3.2903 36.4126
#
#
#
# Elastic Compliance Matrix: (Units=1/GPa)
#
#
# Indices 1 2 3 4 5 6 
#
# 1 0.015281 -0.008567 0.002580 -0.008168 -0.002436 0.001388
# 2 -0.008567 0.046701 -0.016942 0.034795 0.020730 0.020175
# 3 0.002580 -0.016942 0.028739 -0.015520 -0.013307 0.001443
# 4 -0.008168 0.034795 -0.015520 0.053466 0.018607 0.017065
# 5 -0.002436 0.020730 -0.013307 0.018607 0.046828 0.010792
# 6 0.001388 0.020175 0.001443 0.017065 0.010792 0.042472
#
#
# Mechanical properties :
#
#
# Convention : Reuss Voigt Hill
#
# Bulk Modulus (GPa) = 22.29048 31.70711 26.99880
# Shear Modulus (GPa) = 16.98947 30.28397 23.63672
#
# Velocity S-wave (km/s) = 2.80901 3.75033 3.31327
# Velocity P-wave (km/s) = 4.56872 5.78612 5.21308
#
# Compressibility (1/GPa) = 0.04486219
#
# Stress axis : x y z
#
# Youngs Moduli (GPa) = 65.43956 21.41284 34.79618
#
# Poissons Ratio (x) = 0.18345 -0.08977
# Poissons Ratio (y) = 0.56063 0.58952
# Poissons Ratio (z) = -0.16882 0.36278
#
# Static dielectric constant tensor:
#      x y z
#    x 1.803060 0.012780 -0.035370 
#    y 0.012780 1.793450 -0.032070 
#    z -0.035370 -0.032070 1.814590 
# 
# From -- ./inp_files/312778.got.cif
#   From: 2010.05.17/outbox.cif.g08.bks.cpg/sg2_157_cif.got.tgz:312778.got - 2010.06.03 11:33:40.
