data_PCOD9107014
_publ_section_title
;
Structure prediction by ZEFSAII (Michael W. Deem and Ramdas Pophale) SiO2 
 PCOD9107014
Probable space group: P -1
;
_chemical_formula_sum "Si O2"
_cell_formula_units_Z 16
_cell_length_a 12.941698
_cell_length_b 15.072615
_cell_length_c 13.393802
_cell_angle_alpha 30.078268
_cell_angle_beta 37.449046
_cell_angle_gamma 46.178017
_cell_volume 796.075129
_symmetry_space_group_name_H-M "P -1"
_symmetry_group_IT_number 2
_symmetry_cell_setting 'triclinic'
loop_
_space_group_symop_operation_xyz
x,y,z
-x,-y,-z
loop_
_atom_site_type_symbol
_atom_site_label
_atom_site_fract_x
_atom_site_fract_y
_atom_site_fract_z
Si Si1 0.007920 0.544285 0.333779
Si Si2 0.325880 0.432424 0.560464
Si Si3 0.948150 0.990298 0.662917
Si Si4 0.033419 0.948367 0.910881
Si Si5 0.184173 0.221440 0.396840
Si Si6 0.126672 0.380873 0.952992
Si Si7 0.682534 0.976035 0.024978
Si Si8 0.414312 0.277813 0.986065
O O1 0.818251 0.549018 0.430845
O O2 0.000000 0.500000 0.500000
O O3 0.108263 0.395475 0.338702
O O4 0.077581 0.740927 0.073626
O O5 0.234240 0.482099 0.687688
O O6 0.375776 0.225967 0.733993
O O7 0.477804 0.552859 0.292822
O O8 0.969268 0.778530 0.876004
O O9 0.755582 0.027995 0.809508
O O10 0.000000 0.000000 0.500000
O O11 0.061236 0.128380 0.501034
O O12 0.853464 0.983219 0.956150
O O13 0.179250 0.069860 0.633374
O O14 0.000000 0.000000 0.000000
O O15 0.346129 0.271504 0.157881
O O16 0.257451 0.287531 0.020071
O O17 0.000000 0.500000 0.000000
O O18 0.536351 0.108772 0.041184
#
# Coordination Sequence:
#
# PCOD9107014 Si02
#       8
#     2   2   2   2   2   2   2   2
#     4  11  22  42  75  94 123 172 224 276 323 381
#     4  10  23  41  61  96 133 167 219 268 323 388
#     4  10  20  40  62  92 125 168 222 263 303 381
#     4  10  20  41  72  96 120 163 227 275 314 380
#     4  11  23  40  63 100 126 168 219 264 328 388
#     4  11  24  41  65  96 128 177 228 266 314 389
#     4   9  23  39  62  91 130 170 213 264 325 380
#     4  12  24  40  64  94 141 175 203 266 339 388
#
# _framework density 20.098606
#
# number of rings (size 3 to 8) (size 9 to 14) (size 15 to 20)
#    0.000    1.500    2.500    3.375    1.750    4.000 
#    0.000    1.250    0.000    0.000    0.000    0.000 
#    0.000    0.000    0.000    0.000    0.000    0.000 
#
# Total GULP energy -89293.866513 kJ/mol
# GULP energy per Si atom -5580.866657 kJ/mol
# Density = 2.005286 g / cm^3
# Si number density = 20.098606 Si / 1000 Ang^3
#
#
#
# Elastic Constant Matrix: (Units=GPa)
#
#
# Indices 1 2 3 4 5 6 
#
# 1 62.2610 39.6801 33.2091 8.6017 24.8356 14.0395
# 2 39.6801 154.8950 75.7834 4.8072 5.8487 18.7015
# 3 33.2091 75.7834 179.5971 10.2069 19.6608 13.3318
# 4 8.6017 4.8072 10.2069 32.1367 10.8455 6.5151
# 5 24.8356 5.8487 19.6608 10.8455 27.9838 2.9745
# 6 14.0395 18.7015 13.3318 6.5151 2.9745 33.8540
#
#
#
# Elastic Compliance Matrix: (Units=1/GPa)
#
#
# Indices 1 2 3 4 5 6 
#
# 1 0.032817 -0.006555 0.000220 0.003359 -0.028336 -0.008232
# 2 -0.006555 0.009832 -0.003496 -0.000460 0.006592 -0.001827
# 3 0.000220 -0.003496 0.007573 -0.000243 -0.004618 -0.000690
# 4 0.003359 -0.000460 -0.000243 0.037287 -0.016445 -0.006774
# 5 -0.028336 0.006592 -0.004618 -0.016445 0.068371 0.007086
# 6 -0.008232 -0.001827 -0.000690 -0.006774 0.007086 0.034914
#
#
# Mechanical properties :
#
#
# Convention : Reuss Voigt Hill
#
# Bulk Modulus (GPa) = 32.72323 77.12203 54.92263
# Shear Modulus (GPa) = 22.66103 35.33360 28.99732
#
# Velocity S-wave (km/s) = 3.36146 4.19741 3.80248
# Velocity P-wave (km/s) = 5.60201 7.87059 6.83113
#
# Compressibility (1/GPa) = 0.03055933
#
# Stress axis : x y z
#
# Youngs Moduli (GPa) = 30.47189 101.71110 132.04410
#
# Poissons Ratio (x) = 0.66671 -0.02905
# Poissons Ratio (y) = 0.19974 0.46168
# Poissons Ratio (z) = -0.00670 0.35563
#
# Static dielectric constant tensor:
#      x y z
#    x 1.739430 0.019430 0.015980 
#    y 0.019430 1.701540 -0.021740 
#    z 0.015980 -0.021740 1.768460 
# 
# From -- ./inp_files/350313.got.cif
#   From: 2010.05.17/outbox.cif.g08.bks.cpg/sg2_176_cif.got.tgz:350313.got - 2010.06.03 11:33:40.
