data_PCOD9107656
_publ_section_title
;
Structure prediction by ZEFSAII (Michael W. Deem and Ramdas Pophale) SiO2 
 PCOD9107656
Probable space group: P -1
;
_chemical_formula_sum "Si O2"
_cell_formula_units_Z 16
_cell_length_a 12.386611
_cell_length_b 18.406394
_cell_length_c 6.502608
_cell_angle_alpha 119.802330
_cell_angle_beta 85.043357
_cell_angle_gamma 137.573309
_cell_volume 761.832800
_symmetry_space_group_name_H-M "P -1"
_symmetry_group_IT_number 2
_symmetry_cell_setting 'triclinic'
loop_
_space_group_symop_operation_xyz
x,y,z
-x,-y,-z
loop_
_atom_site_type_symbol
_atom_site_label
_atom_site_fract_x
_atom_site_fract_y
_atom_site_fract_z
Si Si1 0.665130 0.547610 0.447467
Si Si2 0.492126 0.117784 0.535365
Si Si3 0.231584 0.942736 0.973697
Si Si4 0.202739 0.249096 0.622656
Si Si5 0.088183 0.303556 0.028484
Si Si6 0.207965 0.824844 0.413895
Si Si7 0.437240 0.278968 0.856984
Si Si8 0.862553 0.958190 0.122690
O O1 0.500000 0.500000 0.500000
O O2 0.780555 0.688204 0.499801
O O3 0.783784 0.578534 0.651170
O O4 0.596016 0.434964 0.141117
O O5 0.689848 0.200089 0.648396
O O6 0.483378 0.211246 0.709883
O O7 0.352120 0.981834 0.517234
O O8 0.415276 0.047759 0.222684
O O9 0.186069 0.841639 0.675624
O O10 0.068367 0.842972 0.025777
O O11 0.238976 0.033261 0.975164
O O12 0.350223 0.268523 0.655718
O O13 0.220857 0.324452 0.912275
O O14 0.999590 0.087000 0.441521
O O15 0.973815 0.283625 0.848037
O O16 0.279803 0.183468 0.924386
O O17 0.000000 0.000000 0.000000
#
# Coordination Sequence:
#
# PCOD9107656 Si02
#       8
#     2   2   2   2   2   2   2   2
#     4  12  25  42  63  92 129 176 209 247 316 385
#     4  10  22  38  61  96 128 164 205 268 320 365
#     4  11  19  38  64  92 123 164 208 257 315 374
#     4  12  23  43  63  89 130 168 205 257 319 382
#     4  11  21  40  66  88 119 173 216 249 306 381
#     4  10  20  40  65  90 127 165 213 259 318 372
#     4  12  24  40  61  97 133 161 210 264 312 372
#     4  12  21  36  61  95 129 159 205 262 317 369
#
# _framework density 21.001982999999999
#
# number of rings (size 3 to 8) (size 9 to 14) (size 15 to 20)
#    0.000    0.750    5.000    4.125    0.000    0.000 
#    0.000    0.625    0.000    3.000    0.000    0.000 
#    0.000    0.000    0.000    0.000    0.000    0.000 
#
# Total GULP energy -89406.541689 kJ/mol
# GULP energy per Si atom -5587.908856 kJ/mol
# Density = 2.095418 g / cm^3
# Si number density = 21.001983 Si / 1000 Ang^3
#
#
#
# Elastic Constant Matrix: (Units=GPa)
#
#
# Indices 1 2 3 4 5 6 
#
# 1 138.1080 16.1926 49.2013 -4.1699 7.6992 -10.6792
# 2 16.1926 32.9657 13.1232 -1.3003 -3.0349 0.4153
# 3 49.2013 13.1232 98.0914 -6.7789 18.0767 -9.9688
# 4 -4.1699 -1.3003 -6.7789 28.5530 4.2389 -3.0553
# 5 7.6992 -3.0349 18.0767 4.2389 31.7992 -3.2917
# 6 -10.6792 0.4153 -9.9688 -3.0553 -3.2917 17.6905
#
#
#
# Elastic Compliance Matrix: (Units=1/GPa)
#
#
# Indices 1 2 3 4 5 6 
#
# 1 0.009261 -0.003062 -0.003800 0.000713 -0.000094 0.003626
# 2 -0.003062 0.034346 -0.004803 -0.001458 0.006488 -0.004406
# 3 -0.003800 -0.004803 0.015144 0.004639 -0.008183 0.005631
# 4 0.000713 -0.001458 0.004639 0.038117 -0.007168 0.008328
# 5 -0.000094 0.006488 -0.008183 -0.007168 0.037797 0.000975
# 6 0.003626 -0.004406 0.005631 0.008328 0.000975 0.063613
#
#
# Mechanical properties :
#
#
# Convention : Reuss Voigt Hill
#
# Bulk Modulus (GPa) = 28.23302 47.35546 37.79424
# Shear Modulus (GPa) = 21.42093 28.31841 24.86967
#
# Velocity S-wave (km/s) = 3.19713 3.67600 3.44489
# Velocity P-wave (km/s) = 5.20587 6.37294 5.81874
#
# Compressibility (1/GPa) = 0.03541952
#
# Stress axis : x y z
#
# Youngs Moduli (GPa) = 107.98235 29.11542 66.03190
#
# Poissons Ratio (x) = 0.08916 0.25094
# Poissons Ratio (y) = 0.33066 0.31717
# Poissons Ratio (z) = 0.41037 0.13985
#
# Static dielectric constant tensor:
#      x y z
#    x 1.760510 0.016650 -0.011150 
#    y 0.016650 1.739200 -0.014840 
#    z -0.011150 -0.014840 1.827040 
# 
# From -- ./inp_files/77428.got.cif
#   From: 2010.05.17/outbox.cif.g08.bks.cpg/sg2_39_cif.got.tgz:77428.got - 2010.06.03 11:33:40.
