data_PCOD9107828
_publ_section_title
;
Structure prediction by ZEFSAII (Michael W. Deem and Ramdas Pophale) SiO2 
 PCOD9107828
Probable space group: P -1
;
_chemical_formula_sum "Si O2"
_cell_formula_units_Z 16
_cell_length_a 14.788822
_cell_length_b 15.945192
_cell_length_c 9.090537
_cell_angle_alpha 53.707719
_cell_angle_beta 72.211003
_cell_angle_gamma 27.207683
_cell_volume 632.321938
_symmetry_space_group_name_H-M "P -1"
_symmetry_group_IT_number 2
_symmetry_cell_setting 'triclinic'
loop_
_space_group_symop_operation_xyz
x,y,z
-x,-y,-z
loop_
_atom_site_type_symbol
_atom_site_label
_atom_site_fract_x
_atom_site_fract_y
_atom_site_fract_z
Si Si1 0.306180 0.585361 0.136728
Si Si2 0.257093 0.104552 0.247339
Si Si3 0.143353 0.534833 0.155485
Si Si4 0.866727 0.085657 0.339348
Si Si5 0.904443 0.832936 0.457832
Si Si6 0.696838 0.802382 0.371210
Si Si7 0.623372 0.592111 0.432600
Si Si8 0.676193 0.059119 0.051068
O O1 0.297149 0.486059 0.149197
O O2 0.577708 0.359879 0.229611
O O3 0.257891 0.612635 0.305220
O O4 0.118943 0.851299 0.871530
O O5 0.203193 0.144511 0.405097
O O6 0.451463 0.997141 0.215157
O O7 0.403755 0.856120 0.370437
O O8 0.992284 0.365685 0.027911
O O9 0.288414 0.289453 0.401162
O O10 0.916920 0.794142 0.107562
O O11 0.000000 0.000000 0.500000
O O12 0.972839 0.864249 0.486456
O O13 0.161713 0.538851 0.560333
O O14 0.739666 0.046120 0.187251
O O15 0.613383 0.006459 0.194382
O O16 0.000000 0.500000 0.500000
O O17 0.505708 0.697752 0.220822
#
# Coordination Sequence:
#
# PCOD9107828 Si02
#       8
#     2   2   2   2   2   2   2   2
#     4  11  22  44  70  98 135 174 224 278 334 405
#     4  11  23  41  70  97 140 184 226 278 335 393
#     4  10  20  41  71  94 137 183 222 280 339 393
#     4  11  26  43  72 103 133 173 229 278 341 412
#     4  12  24  45  68  99 135 180 225 277 342 401
#     4  10  20  40  66 101 135 184 231 274 333 397
#     4  11  23  43  67  99 135 179 222 273 336 399
#     4  10  24  39  66  97 138 176 228 278 329 402
#
# _framework density 25.303564999999999
#
# number of rings (size 3 to 8) (size 9 to 14) (size 15 to 20)
#    0.000    1.250    3.750    1.500    1.750   10.500 
#    0.000    2.500    0.000    0.000    0.000    0.000 
#    0.000    0.000    0.000    0.000    0.000    0.000 
#
# Total GULP energy -89200.134072 kJ/mol
# GULP energy per Si atom -5575.008379 kJ/mol
# Density = 2.524597 g / cm^3
# Si number density = 25.303565 Si / 1000 Ang^3
#
#
#
# Elastic Constant Matrix: (Units=GPa)
#
#
# Indices 1 2 3 4 5 6 
#
# 1 100.0875 4.5109 41.5813 0.1167 9.8738 -22.2907
# 2 4.5109 98.2452 48.5882 7.5207 1.1662 -22.6611
# 3 41.5813 48.5882 121.1153 5.2796 32.0913 -23.9799
# 4 0.1167 7.5207 5.2796 28.3647 -2.0170 -2.3140
# 5 9.8738 1.1662 32.0913 -2.0170 39.9688 -4.0411
# 6 -22.2907 -22.6611 -23.9799 -2.3140 -4.0411 25.4463
#
#
#
# Elastic Compliance Matrix: (Units=1/GPa)
#
#
# Indices 1 2 3 4 5 6 
#
# 1 0.014349 0.004423 -0.004626 0.000738 0.001334 0.012429
# 2 0.004423 0.016352 -0.006865 -0.001680 0.005134 0.012630
# 3 -0.004626 -0.006865 0.016393 -0.001767 -0.011576 0.003284
# 4 0.000738 -0.001680 -0.001767 0.036365 0.003253 0.001308
# 5 0.001334 0.005134 -0.011576 0.003253 0.034053 0.000535
# 6 0.012429 0.012630 0.003284 0.001308 0.000535 0.064732
#
#
# Mechanical properties :
#
#
# Convention : Reuss Voigt Hill
#
# Bulk Modulus (GPa) = 30.34040 56.53431 43.43736
# Shear Modulus (GPa) = 24.11208 33.74046 28.92627
#
# Velocity S-wave (km/s) = 3.09028 3.65557 3.38475
# Velocity P-wave (km/s) = 4.97490 6.34102 5.69905
#
# Compressibility (1/GPa) = 0.03295935
#
# Stress axis : x y z
#
# Youngs Moduli (GPa) = 69.69026 61.15638 61.00053
#
# Poissons Ratio (x) = -0.27052 0.28217
# Poissons Ratio (y) = -0.30826 0.41877
# Poissons Ratio (z) = 0.32237 0.41983
#
# Static dielectric constant tensor:
#      x y z
#    x 2.041440 -0.021550 0.052080 
#    y -0.021550 2.102860 -0.032950 
#    z 0.052080 -0.032950 2.043120 
# 
# From -- ./inp_files/318035.got.cif
#   From: 2010.05.17/outbox.cif.g08.bks.cpg/sg2_160_cif.got.tgz:318035.got - 2010.06.03 11:33:40.
