data_PCOD9107671
_publ_section_title
;
Structure prediction by ZEFSAII (Michael W. Deem and Ramdas Pophale) SiO2 
 PCOD9107671
Probable space group: P -1
;
_chemical_formula_sum "Si O2"
_cell_formula_units_Z 13
_cell_length_a 18.278356
_cell_length_b 8.276142
_cell_length_c 4.955140
_cell_angle_alpha 88.567172
_cell_angle_beta 60.748869
_cell_angle_gamma 120.145373
_cell_volume 527.984010
_symmetry_space_group_name_H-M "P -1"
_symmetry_group_IT_number 2
_symmetry_cell_setting 'triclinic'
loop_
_space_group_symop_operation_xyz
x,y,z
-x,-y,-z
loop_
_atom_site_type_symbol
_atom_site_label
_atom_site_fract_x
_atom_site_fract_y
_atom_site_fract_z
Si Si1 0.339310 0.855262 0.093827
Si Si2 0.500055 0.204553 0.155003
Si Si3 0.500000 0.500000 0.000000
Si Si4 0.013481 0.233857 0.196986
Si Si5 0.846781 0.862009 0.798441
Si Si6 0.128294 0.444400 0.473660
Si Si7 0.641007 0.780008 0.215744
O O1 0.224205 0.665186 0.367603
O O2 0.407721 0.987614 0.223749
O O3 0.413038 0.795955 0.849012
O O4 0.338385 0.009574 0.899836
O O5 0.547794 0.366470 0.825062
O O6 0.445560 0.303824 0.386338
O O7 0.602418 0.652034 0.020638
O O8 0.071900 0.125602 0.137965
O O9 0.075394 0.420340 0.283726
O O10 0.036641 0.327151 0.859738
O O11 0.900328 0.065550 0.520887
O O12 0.826931 0.685976 0.648312
O O13 0.744467 0.811326 0.122558
#
# Coordination Sequence:
#
# PCOD9107671 Si02
#       7
#     2   2   1   2   2   2   2
#     4  10  23  38  57  89 120 169 205 247 316 373
#     4  10  22  40  59  82 127 158 206 258 303 377
#     4  10  22  38  56  94 114 154 212 248 306 366
#     4   9  21  39  66  93 123 158 215 257 313 358
#     4   9  21  37  64  92 120 162 207 263 307 368
#     4  10  20  40  65  91 122 164 207 258 309 373
#     4  11  22  40  60  90 123 164 201 258 311 371
#
# _framework density 24.621959
#
# number of rings (size 3 to 8) (size 9 to 14) (size 15 to 20)
#    0.923    1.231    0.000    2.308    2.154    3.692 
#    2.769    1.538    0.000    0.000    0.000    0.000 
#    0.000    0.000    0.000    0.000    0.000    0.000 
#
# Total GULP energy -72391.568896 kJ/mol
# GULP energy per Si atom -5568.582223 kJ/mol
# Density = 2.456592 g / cm^3
# Si number density = 24.621959 Si / 1000 Ang^3
#
#
#
# Elastic Constant Matrix: (Units=GPa)
#
#
# Indices 1 2 3 4 5 6 
#
# 1 42.0205 3.4924 6.6874 4.4256 -5.5814 -12.5003
# 2 3.4924 103.7821 20.7291 -25.2777 -1.0936 1.2351
# 3 6.6874 20.7291 91.2277 -6.4582 -0.3799 -5.0903
# 4 4.4256 -25.2777 -6.4582 43.2038 -0.2810 5.0150
# 5 -5.5814 -1.0936 -0.3799 -0.2810 26.9683 7.4706
# 6 -12.5003 1.2351 -5.0903 5.0150 7.4706 20.7001
#
#
#
# Elastic Compliance Matrix: (Units=1/GPa)
#
#
# Indices 1 2 3 4 5 6 
#
# 1 0.031079 -0.002871 -0.001015 -0.007362 0.000615 0.020252
# 2 -0.002871 0.012145 -0.002300 0.007693 0.001445 -0.005409
# 3 -0.001015 -0.002300 0.011718 0.000193 -0.000877 0.002676
# 4 -0.007362 0.007693 0.000193 0.029969 0.002733 -0.013104
# 5 0.000615 0.001445 -0.000877 0.002733 0.041606 -0.015609
# 6 0.020252 -0.005409 0.002676 -0.013104 -0.015609 0.070327
#
#
# Mechanical properties :
#
#
# Convention : Reuss Voigt Hill
#
# Bulk Modulus (GPa) = 23.49016 33.20534 28.34775
# Shear Modulus (GPa) = 22.38070 31.91588 27.14829
#
# Velocity S-wave (km/s) = 3.01819 3.60423 3.32415
# Velocity P-wave (km/s) = 4.65908 5.55302 5.12557
#
# Compressibility (1/GPa) = 0.04257101
#
# Stress axis : x y z
#
# Youngs Moduli (GPa) = 32.17568 82.33804 85.33887
#
# Poissons Ratio (x) = 0.23637 0.08658
# Poissons Ratio (y) = 0.09237 0.19631
# Poissons Ratio (z) = 0.03264 0.18941
#
# Static dielectric constant tensor:
#      x y z
#    x 2.031570 -0.052000 0.057330 
#    y -0.052000 2.032090 0.023180 
#    z 0.057330 0.023180 2.085370 
# 
# From -- ./inp_files/42864.got.cif
#   From: 2010.05.17/outbox.cif.g08.bks.cpg/sg2_22_cif.got.tgz:42864.got - 2010.06.03 11:33:40.
