data_PCOD9107321
_publ_section_title
;
Structure prediction by ZEFSAII (Michael W. Deem and Ramdas Pophale) SiO2 
 PCOD9107321
Probable space group: P -1
;
_chemical_formula_sum "Si O2"
_cell_formula_units_Z 16
_cell_length_a 21.738092
_cell_length_b 9.634595
_cell_length_c 28.370268
_cell_angle_alpha 27.036824
_cell_angle_beta 163.386445
_cell_angle_gamma 145.860630
_cell_volume 756.797910
_symmetry_space_group_name_H-M "P -1"
_symmetry_group_IT_number 2
_symmetry_cell_setting 'triclinic'
loop_
_space_group_symop_operation_xyz
x,y,z
-x,-y,-z
loop_
_atom_site_type_symbol
_atom_site_label
_atom_site_fract_x
_atom_site_fract_y
_atom_site_fract_z
Si Si1 0.068097 0.913759 0.641740
Si Si2 0.416914 0.635210 0.100155
Si Si3 0.966601 0.633526 0.987560
Si Si4 0.975514 0.373184 0.865398
Si Si5 0.497136 0.470188 0.703045
Si Si6 0.883511 0.344450 0.705257
Si Si7 0.630120 0.153589 0.206550
Si Si8 0.230730 0.261992 0.739396
O O1 0.033571 0.562863 0.726681
O O2 0.215882 0.947803 0.695154
O O3 0.820940 0.119992 0.396183
O O4 0.187842 0.016424 0.742914
O O5 0.559170 0.509700 0.288807
O O6 0.577513 0.584797 0.188282
O O7 0.208206 0.469785 0.995149
O O8 0.321406 0.012071 0.922500
O O9 0.715281 0.607060 0.819665
O O10 0.997927 0.986685 0.900790
O O11 0.086405 0.498335 0.165651
O O12 0.000000 0.500000 0.000000
O O13 0.830681 0.463972 0.684309
O O14 0.000000 0.000000 0.000000
O O15 0.320585 0.635426 0.485919
O O16 0.517914 0.103650 0.816570
O O17 0.500000 0.500000 0.000000
O O18 0.000000 0.500000 0.500000
#
# Coordination Sequence:
#
# PCOD9107321 Si02
#       8
#     2   2   2   2   2   2   2   2
#     4  10  21  39  57  91 121 160 208 248 307 368
#     4  10  21  41  61  90 127 165 208 256 313 373
#     4  10  22  39  62  93 118 155 213 260 311 373
#     4   9  19  40  67  83 119 168 201 251 320 372
#     4  10  21  39  60  88 121 161 209 253 317 368
#     4  10  20  40  64  83 122 164 200 256 313 372
#     4  10  22  36  60  86 124 163 201 253 305 366
#     4  11  23  38  63  90 129 167 211 253 310 377
#
# _framework density 21.141707
#
# number of rings (size 3 to 8) (size 9 to 14) (size 15 to 20)
#    0.000    2.000    2.500    0.375    3.500    0.000 
#    4.500    1.875    0.000    0.000    0.000    0.000 
#    0.000    0.000    0.000    0.000    0.000    0.000 
#
# Total GULP energy -89084.270471 kJ/mol
# GULP energy per Si atom -5567.766904 kJ/mol
# Density = 2.109359 g / cm^3
# Si number density = 21.141707 Si / 1000 Ang^3
#
#
#
# Elastic Constant Matrix: (Units=GPa)
#
#
# Indices 1 2 3 4 5 6 
#
# 1 91.2981 5.5782 24.8007 7.7908 -20.3866 -4.1887
# 2 5.5782 60.4422 6.5222 0.8376 0.2017 19.4172
# 3 24.8007 6.5222 71.5992 2.6627 -10.5941 1.3882
# 4 7.7908 0.8376 2.6627 24.1503 -10.1475 -13.0319
# 5 -20.3866 0.2017 -10.5941 -10.1475 35.1733 10.0416
# 6 -4.1887 19.4172 1.3882 -13.0319 10.0416 45.6644
#
#
#
# Elastic Compliance Matrix: (Units=1/GPa)
#
#
# Indices 1 2 3 4 5 6 
#
# 1 0.013521 -0.000841 -0.003611 -0.001279 0.006404 -0.000066
# 2 -0.000841 0.020131 -0.001075 -0.005722 0.000369 -0.010318
# 3 -0.003611 -0.001075 0.015769 0.000208 0.002995 -0.000953
# 4 -0.001279 -0.005722 0.000208 0.054942 0.010744 0.015626
# 5 0.006404 0.000369 0.002995 0.010744 0.037525 -0.004846
# 6 -0.000066 -0.010318 -0.000953 0.015626 -0.004846 0.031835
#
#
# Mechanical properties :
#
#
# Convention : Reuss Voigt Hill
#
# Bulk Modulus (GPa) = 26.06294 33.01574 29.53934
# Shear Modulus (GPa) = 25.30791 33.42683 29.36737
#
# Velocity S-wave (km/s) = 3.46361 3.98060 3.73107
# Velocity P-wave (km/s) = 5.32447 6.06442 5.70645
#
# Compressibility (1/GPa) = 0.03836866
#
# Stress axis : x y z
#
# Youngs Moduli (GPa) = 73.95651 49.67405 63.41509
#
# Poissons Ratio (x) = 0.04176 0.22896
# Poissons Ratio (y) = 0.06218 0.06819
# Poissons Ratio (z) = 0.26703 0.05341
#
# Static dielectric constant tensor:
#      x y z
#    x 2.044370 -0.033060 -0.088300 
#    y -0.033060 1.760170 0.015330 
#    z -0.088300 0.015330 1.820920 
# 
# From -- ./inp_files/620685.got.cif
#   From: 2010.05.17/outbox.cif.g08.bks.cpg/sg2_311_cif.got.tgz:620685.got - 2010.06.03 11:33:40.
