data_PCOD9107174
_publ_section_title
;
Structure prediction by ZEFSAII (Michael W. Deem and Ramdas Pophale) SiO2 
 PCOD9107174
Probable space group: P -1
;
_chemical_formula_sum "Si O2"
_cell_formula_units_Z 16
_cell_length_a 9.209673
_cell_length_b 13.777309
_cell_length_c 11.733486
_cell_angle_alpha 148.587392
_cell_angle_beta 85.023741
_cell_angle_gamma 106.331055
_cell_volume 708.843829
_symmetry_space_group_name_H-M "P -1"
_symmetry_group_IT_number 2
_symmetry_cell_setting 'triclinic'
loop_
_space_group_symop_operation_xyz
x,y,z
-x,-y,-z
loop_
_atom_site_type_symbol
_atom_site_label
_atom_site_fract_x
_atom_site_fract_y
_atom_site_fract_z
Si Si1 0.104710 0.457417 0.675570
Si Si2 0.285518 0.869565 0.219991
Si Si3 0.186136 0.635251 0.531832
Si Si4 0.136409 0.637112 0.211599
Si Si5 0.350824 0.259088 0.488219
Si Si6 0.379220 0.065452 0.833501
Si Si7 0.517909 0.287122 0.281848
Si Si8 0.689339 0.573857 0.862175
O O1 0.236976 0.367418 0.567071
O O2 0.001175 0.428217 0.537890
O O3 0.968564 0.327785 0.645862
O O4 0.185032 0.679841 0.952917
O O5 0.259595 0.067643 0.381762
O O6 0.470951 0.924179 0.239564
O O7 0.245100 0.815279 0.300339
O O8 0.301059 0.687583 0.686432
O O9 0.222015 0.457916 0.288552
O O10 0.272429 0.839062 0.653455
O O11 0.234319 0.510911 0.128100
O O12 0.000000 0.500000 0.000000
O O13 0.417238 0.181241 0.295208
O O14 0.504459 0.423951 0.706529
O O15 0.446760 0.181172 0.063655
O O16 0.297295 0.197337 0.907202
O O17 0.500000 0.500000 0.500000
#
# Coordination Sequence:
#
# PCOD9107174 Si02
#       8
#     2   2   2   2   2   2   2   2
#     4  10  22  44  60  88 133 158 197 262 310 355
#     4  11  22  40  64  91 124 163 205 256 299 365
#     4  10  22  38  63  93 119 162 206 248 310 361
#     4   9  22  41  63  90 125 163 202 251 315 358
#     4  11  22  39  64  94 121 161 211 247 302 374
#     4  12  21  39  69  89 122 163 207 256 298 360
#     4  11  20  40  66  89 123 164 205 252 303 362
#     4  10  20  40  63  90 122 159 206 254 293 367
#
# _framework density 22.571966
#
# number of rings (size 3 to 8) (size 9 to 14) (size 15 to 20)
#    0.000    1.500    6.250    0.375    0.000    4.500 
#    0.000    3.125    0.000    0.000    0.000    0.000 
#    0.000    0.000    0.000    0.000    0.000    0.000 
#
# Total GULP energy -89359.524074 kJ/mol
# GULP energy per Si atom -5584.970255 kJ/mol
# Density = 2.252059 g / cm^3
# Si number density = 22.571966 Si / 1000 Ang^3
#
#
#
# Elastic Constant Matrix: (Units=GPa)
#
#
# Indices 1 2 3 4 5 6 
#
# 1 153.6630 34.0567 28.5802 2.6461 11.9868 -32.3024
# 2 34.0567 93.2815 -6.8642 2.0402 3.0293 -16.8166
# 3 28.5802 -6.8642 40.3588 4.8247 -2.2268 -5.0516
# 4 2.6461 2.0402 4.8247 38.5598 -10.4889 2.4958
# 5 11.9868 3.0293 -2.2268 -10.4889 23.6797 -2.2122
# 6 -32.3024 -16.8166 -5.0516 2.4958 -2.2122 38.1667
#
#
#
# Elastic Compliance Matrix: (Units=1/GPa)
#
#
# Indices 1 2 3 4 5 6 
#
# 1 0.010249 -0.002925 -0.007095 -0.001588 -0.005603 0.006225
# 2 -0.002925 0.012888 0.004921 -0.001332 0.000073 0.003946
# 3 -0.007095 0.004921 0.031290 -0.002401 0.004911 0.000746
# 4 -0.001588 -0.001332 -0.002401 0.030417 0.013901 -0.003432
# 5 -0.005603 0.000073 0.004911 0.013901 0.051491 -0.001984
# 6 0.006225 0.003946 0.000746 -0.003432 -0.001984 0.033416
#
#
# Mechanical properties :
#
#
# Convention : Reuss Voigt Hill
#
# Bulk Modulus (GPa) = 22.61003 44.31655 33.46329
# Shear Modulus (GPa) = 25.68134 35.51660 30.59897
#
# Velocity S-wave (km/s) = 3.37672 3.97102 3.68587
# Velocity P-wave (km/s) = 5.02410 6.37976 5.74208
#
# Compressibility (1/GPa) = 0.04422816
#
# Stress axis : x y z
#
# Youngs Moduli (GPa) = 97.57339 77.58973 31.95861
#
# Poissons Ratio (x) = 0.22694 0.22675
# Poissons Ratio (y) = 0.28539 -0.15725
# Poissons Ratio (z) = 0.69231 -0.38178
#
# Static dielectric constant tensor:
#      x y z
#    x 1.834560 0.015110 0.033530 
#    y 0.015110 1.955740 -0.011290 
#    z 0.033530 -0.011290 1.839480 
# 
# From -- ./inp_files/359001.got.cif
#   From: 2010.05.17/outbox.cif.g08.bks.cpg/sg2_180_cif.got.tgz:359001.got - 2010.06.03 11:33:40.
