data_PCOD9107373
_publ_section_title
;
Structure prediction by ZEFSAII (Michael W. Deem and Ramdas Pophale) SiO2 
 PCOD9107373
Probable space group: P -1
;
_chemical_formula_sum "Si O2"
_cell_formula_units_Z 16
_cell_length_a 14.202076
_cell_length_b 7.610009
_cell_length_c 11.699540
_cell_angle_alpha 125.007274
_cell_angle_beta 63.380208
_cell_angle_gamma 139.630011
_cell_volume 670.696999
_symmetry_space_group_name_H-M "P -1"
_symmetry_group_IT_number 2
_symmetry_cell_setting 'triclinic'
loop_
_space_group_symop_operation_xyz
x,y,z
-x,-y,-z
loop_
_atom_site_type_symbol
_atom_site_label
_atom_site_fract_x
_atom_site_fract_y
_atom_site_fract_z
Si Si1 0.795569 0.608906 0.127168
Si Si2 0.339994 0.138907 0.718440
Si Si3 0.562931 0.379128 0.858640
Si Si4 0.846749 0.034676 0.675863
Si Si5 0.691598 0.200391 0.816278
Si Si6 0.889003 0.929825 0.844613
Si Si7 0.843658 0.222603 0.531172
Si Si8 0.127391 0.662667 0.852641
O O1 0.677799 0.630858 0.201408
O O2 0.807850 0.459229 0.168596
O O3 0.955506 0.946903 0.158990
O O4 0.765506 0.425464 0.964281
O O5 0.496586 0.286255 0.733760
O O6 0.275188 0.954345 0.568846
O O7 0.236107 0.915012 0.795088
O O8 0.545671 0.125686 0.837040
O O9 0.735586 0.648581 0.872965
O O10 0.500000 0.500000 0.000000
O O11 0.697992 0.957272 0.755868
O O12 0.868773 0.884695 0.701788
O O13 0.849790 0.014966 0.530046
O O14 0.982210 0.382538 0.762166
O O15 0.786461 0.309906 0.689134
O O16 0.901591 0.194635 0.982935
O O17 0.000000 0.500000 0.500000
#
# Coordination Sequence:
#
# PCOD9107373 Si02
#       8
#     2   2   2   2   2   2   2   2
#     4  11  22  38  69  99 117 165 216 270 321 356
#     4  12  25  42  62  96 134 159 214 270 306 384
#     4  12  25  38  59 100 130 166 210 261 319 378
#     4   9  19  38  63  91 118 161 213 257 313 370
#     4  10  20  40  64  88 124 169 210 245 326 371
#     4  11  20  37  63  94 132 159 207 273 312 377
#     4  10  21  40  68  90 123 168 210 262 316 377
#     4  11  18  37  65  94 128 157 211 271 320 363
#
# _framework density 23.855778999999998
#
# number of rings (size 3 to 8) (size 9 to 14) (size 15 to 20)
#    0.750    0.500    6.250    0.750    3.500    1.500 
#    2.250    6.250    0.000    0.000    0.000    0.000 
#    0.000    0.000    0.000    0.000    0.000    0.000 
#
# Total GULP energy -89257.137906 kJ/mol
# GULP energy per Si atom -5578.571119 kJ/mol
# Density = 2.380148 g / cm^3
# Si number density = 23.855779 Si / 1000 Ang^3
#
#
#
# Elastic Constant Matrix: (Units=GPa)
#
#
# Indices 1 2 3 4 5 6 
#
# 1 132.9490 -3.6630 29.7254 8.0784 23.0076 1.2907
# 2 -3.6630 28.6846 -1.5872 1.5860 4.2296 1.1506
# 3 29.7254 -1.5872 82.2929 3.9536 27.0898 -0.8858
# 4 8.0784 1.5860 3.9536 19.8249 3.6702 8.6293
# 5 23.0076 4.2296 27.0898 3.6702 49.6386 1.4998
# 6 1.2907 1.1506 -0.8858 8.6293 1.4998 25.3083
#
#
#
# Elastic Compliance Matrix: (Units=1/GPa)
#
#
# Indices 1 2 3 4 5 6 
#
# 1 0.008686 0.001560 -0.002017 -0.002998 -0.002855 0.000607
# 2 0.001560 0.035999 0.001752 -0.002846 -0.004524 -0.000416
# 3 -0.002017 0.001752 0.015516 -0.001700 -0.007605 0.001596
# 4 -0.002998 -0.002846 -0.001700 0.061473 -0.001362 -0.020657
# 5 -0.002855 -0.004524 -0.007605 -0.001362 0.026135 -0.000999
# 6 0.000607 -0.000416 0.001596 -0.020657 -0.000999 0.046659
#
#
# Mechanical properties :
#
#
# Convention : Reuss Voigt Hill
#
# Bulk Modulus (GPa) = 15.92567 32.54186 24.23376
# Shear Modulus (GPa) = 23.49514 33.58445 28.53979
#
# Velocity S-wave (km/s) = 3.14169 3.75615 3.46258
# Velocity P-wave (km/s) = 4.45540 5.69932 5.11531
#
# Compressibility (1/GPa) = 0.06279170
#
# Stress axis : x y z
#
# Youngs Moduli (GPa) = 115.12869 27.77838 64.44798
#
# Poissons Ratio (x) = -0.04333 0.13000
# Poissons Ratio (y) = -0.17959 -0.11293
# Poissons Ratio (z) = 0.23223 -0.04868
#
# Static dielectric constant tensor:
#      x y z
#    x 2.034880 -0.121130 -0.022870 
#    y -0.121130 2.069520 -0.009160 
#    z -0.022870 -0.009160 1.887470 
# 
# From -- ./inp_files/448039.got.cif
#   From: 2010.05.17/outbox.cif.g08.bks.cpg/sg2_225_cif.got.tgz:448039.got - 2010.06.03 11:33:40.
