data_PCOD9107724
_publ_section_title
;
Structure prediction by ZEFSAII (Michael W. Deem and Ramdas Pophale) SiO2 
 PCOD9107724
Probable space group: P -1
;
_chemical_formula_sum "Si O2"
_cell_formula_units_Z 10
_cell_length_a 12.124041
_cell_length_b 11.604438
_cell_length_c 9.685500
_cell_angle_alpha 52.543323
_cell_angle_beta 33.050169
_cell_angle_gamma 36.887371
_cell_volume 437.945532
_symmetry_space_group_name_H-M "P -1"
_symmetry_group_IT_number 2
_symmetry_cell_setting 'triclinic'
loop_
_space_group_symop_operation_xyz
x,y,z
-x,-y,-z
loop_
_atom_site_type_symbol
_atom_site_label
_atom_site_fract_x
_atom_site_fract_y
_atom_site_fract_z
Si Si1 0.996760 0.098136 0.756677
Si Si2 0.479252 0.354042 0.463580
Si Si3 0.238634 0.065654 0.807640
Si Si4 0.040800 0.565347 0.553420
Si Si5 0.179107 0.528412 0.928922
O O1 0.021433 0.143578 0.855056
O O2 0.981839 0.251180 0.573768
O O3 0.275122 0.875503 0.599109
O O4 0.759251 0.091202 0.003923
O O5 0.259672 0.449328 0.747248
O O6 0.596265 0.460530 0.270006
O O7 0.334450 0.398000 0.437623
O O8 0.500000 0.000000 0.500000
O O9 0.105117 0.246767 0.917418
O O10 0.000000 0.500000 0.500000
O O11 0.832685 0.597348 0.859216
#
# Coordination Sequence:
#
# PCOD9107724 Si02
#       5
#     2   2   2   2   2
#     4  10  23  40  64  98 128 173 223 262 334 389
#     4  10  24  45  68  90 139 176 213 280 323 399
#     4  10  20  40  65  93 131 171 213 273 327 391
#     4  12  24  40  66 103 131 172 227 269 323 394
#     4  10  22  45  65  96 133 177 217 267 347 380
#
# _framework density 22.833888999999999
#
# number of rings (size 3 to 8) (size 9 to 14) (size 15 to 20)
#    0.000    1.600    2.000    1.800    0.000    3.200 
#    0.000    9.000    0.000    0.000    0.000    0.000 
#    0.000    0.000    0.000    0.000    0.000    0.000 
#
# Total GULP energy -55886.915845 kJ/mol
# GULP energy per Si atom -5588.691585 kJ/mol
# Density = 2.278192 g / cm^3
# Si number density = 22.833889 Si / 1000 Ang^3
#
#
#
# Elastic Constant Matrix: (Units=GPa)
#
#
# Indices 1 2 3 4 5 6 
#
# 1 108.7395 38.0772 43.0469 0.0305 1.2285 13.7478
# 2 38.0772 151.6513 103.4906 -35.1340 -4.2632 22.7183
# 3 43.0469 103.4906 208.8479 -18.5392 -3.8082 16.8387
# 4 0.0305 -35.1340 -18.5392 62.8962 14.2276 -0.8227
# 5 1.2285 -4.2632 -3.8082 14.2276 39.2150 1.2438
# 6 13.7478 22.7183 16.8387 -0.8227 1.2438 30.8875
#
#
#
# Elastic Compliance Matrix: (Units=1/GPa)
#
#
# Indices 1 2 3 4 5 6 
#
# 1 0.010647 -0.001722 -0.001234 -0.001355 -0.000059 -0.002833
# 2 -0.001722 0.012492 -0.004900 0.005676 -0.000947 -0.005561
# 3 -0.001234 -0.004900 0.007415 -0.000654 0.000461 0.000075
# 4 -0.001355 0.005676 -0.000654 0.020366 -0.006717 -0.002402
# 5 -0.000059 -0.000947 0.000461 -0.006717 0.027907 -0.000831
# 6 -0.002833 -0.005561 0.000075 -0.002402 -0.000831 0.037655
#
#
# Mechanical properties :
#
#
# Convention : Reuss Voigt Hill
#
# Bulk Modulus (GPa) = 67.38070 93.16311 80.27190
# Shear Modulus (GPa) = 36.45850 45.57468 41.01659
#
# Velocity S-wave (km/s) = 4.00019 4.47242 4.24288
# Velocity P-wave (km/s) = 7.13502 8.21943 7.69635
#
# Compressibility (1/GPa) = 0.01484105
#
# Stress axis : x y z
#
# Youngs Moduli (GPa) = 93.92206 80.05160 134.86174
#
# Poissons Ratio (x) = 0.13787 0.16642
# Poissons Ratio (y) = 0.16176 0.66085
# Poissons Ratio (z) = 0.11590 0.39227
#
# Static dielectric constant tensor:
#      x y z
#    x 1.881430 0.017300 -0.077680 
#    y 0.017300 1.886740 -0.018650 
#    z -0.077680 -0.018650 1.945600 
# 
# From -- ./inp_files/191412.got.cif
#   From: 2010.05.17/outbox.cif.g08.bks.cpg/sg2_96_cif.got.tgz:191412.got - 2010.06.03 11:33:40.
