data_PCOD9107892
_publ_section_title
;
Structure prediction by ZEFSAII (Michael W. Deem and Ramdas Pophale) SiO2 
 PCOD9107892
Probable space group: P -1
;
_chemical_formula_sum "Si O2"
_cell_formula_units_Z 16
_cell_length_a 15.110168
_cell_length_b 21.583051
_cell_length_c 8.985340
_cell_angle_alpha 66.459018
_cell_angle_beta 75.902472
_cell_angle_gamma 19.833883
_cell_volume 825.164245
_symmetry_space_group_name_H-M "P -1"
_symmetry_group_IT_number 2
_symmetry_cell_setting 'triclinic'
loop_
_space_group_symop_operation_xyz
x,y,z
-x,-y,-z
loop_
_atom_site_type_symbol
_atom_site_label
_atom_site_fract_x
_atom_site_fract_y
_atom_site_fract_z
Si Si1 0.869197 0.165831 0.894185
Si Si2 0.185205 0.694641 0.968584
Si Si3 0.736869 0.857843 0.841672
Si Si4 0.840512 0.921791 0.309316
Si Si5 0.173430 0.641538 0.729828
Si Si6 0.982528 0.714524 0.196360
Si Si7 0.872753 0.658689 0.464194
Si Si8 0.232529 0.298012 0.196738
O O1 0.519488 0.405037 0.801527
O O2 0.011975 0.110694 0.759240
O O3 0.954511 0.150373 0.019473
O O4 0.000000 0.000000 0.000000
O O5 0.059536 0.771541 0.782686
O O6 0.500000 0.500000 0.000000
O O7 0.210776 0.603093 0.125121
O O8 0.669322 0.833099 0.821669
O O9 0.037430 0.667648 0.821202
O O10 0.464125 0.095279 0.679134
O O11 0.788728 0.827506 0.026274
O O12 0.022118 0.763577 0.521023
O O13 0.868911 0.850486 0.227462
O O14 0.501644 0.158259 0.256036
O O15 0.032953 0.611180 0.370083
O O16 0.882602 0.648775 0.649046
O O17 0.000000 0.500000 0.500000
O O18 0.000000 0.500000 0.000000
#
# Coordination Sequence:
#
# PCOD9107892 Si02
#       8
#     2   2   2   2   2   2   2   2
#     4  10  22  40  65  96 123 159 217 273 321 380
#     4   8  18  39  64  89 121 165 209 254 325 380
#     4  11  22  42  65  92 130 173 209 266 325 385
#     4  11  22  41  64  91 128 170 217 259 327 384
#     4  10  20  40  66  89 124 172 209 257 322 389
#     4  10  21  38  65  90 126 170 212 259 318 384
#     4  12  24  40  60  95 128 165 221 264 319 386
#     4  12  26  41  64  92 134 173 220 265 324 391
#
# _framework density 19.390079
#
# number of rings (size 3 to 8) (size 9 to 14) (size 15 to 20)
#    0.000    1.500    2.500    2.625    3.500    0.000 
#    2.250    0.625    0.000    0.000    0.000    0.000 
#    0.000    0.000    0.000    0.000    0.000    0.000 
#
# Total GULP energy -89073.853076 kJ/mol
# GULP energy per Si atom -5567.115817 kJ/mol
# Density = 1.934595 g / cm^3
# Si number density = 19.390079 Si / 1000 Ang^3
#
#
#
# Elastic Constant Matrix: (Units=GPa)
#
#
# Indices 1 2 3 4 5 6 
#
# 1 111.0894 50.0765 50.6050 3.6274 -15.9586 -20.8031
# 2 50.0765 70.4736 58.7654 1.6860 -8.1961 -11.9896
# 3 50.6050 58.7654 136.1564 16.1021 0.0567 0.6724
# 4 3.6274 1.6860 16.1021 34.5788 0.2216 -3.8998
# 5 -15.9586 -8.1961 0.0567 0.2216 39.0221 4.9134
# 6 -20.8031 -11.9896 0.6724 -3.8998 4.9134 43.3342
#
#
#
# Elastic Compliance Matrix: (Units=1/GPa)
#
#
# Indices 1 2 3 4 5 6 
#
# 1 0.014823 -0.007210 -0.002477 0.000461 0.003950 0.004753
# 2 -0.007210 0.029018 -0.010429 0.004731 0.002521 0.004869
# 3 -0.002477 -0.010429 0.013501 -0.006012 -0.002619 -0.004528
# 4 0.000461 0.004731 -0.006012 0.031939 0.000450 0.004447
# 5 0.003950 0.002521 -0.002619 0.000450 0.027833 -0.000481
# 6 0.004753 0.004869 -0.004528 0.004447 -0.000481 0.027230
#
#
# Mechanical properties :
#
#
# Convention : Reuss Voigt Hill
#
# Bulk Modulus (GPa) = 58.44792 70.73479 64.59136
# Shear Modulus (GPa) = 26.27730 33.93852 30.10791
#
# Velocity S-wave (km/s) = 3.68529 4.18820 3.94477
# Velocity P-wave (km/s) = 6.95105 7.74255 7.35745
#
# Compressibility (1/GPa) = 0.01710925
#
# Stress axis : x y z
#
# Youngs Moduli (GPa) = 67.46407 34.46161 74.07079
#
# Poissons Ratio (x) = 0.24848 0.18345
# Poissons Ratio (y) = 0.48644 0.77247
# Poissons Ratio (z) = 0.16709 0.35939
#
# Static dielectric constant tensor:
#      x y z
#    x 1.734870 0.003450 -0.007850 
#    y 0.003450 1.834040 0.044780 
#    z -0.007850 0.044780 1.659550 
# 
# From -- ./inp_files/207193.got.cif
#   From: 2010.05.17/outbox.cif.g08.bks.cpg/sg2_104_cif.got.tgz:207193.got - 2010.06.03 11:33:40.
