data_PCOD9107528
_publ_section_title
;
Structure prediction by ZEFSAII (Michael W. Deem and Ramdas Pophale) SiO2 
 PCOD9107528
Probable space group: P -1
;
_chemical_formula_sum "Si O2"
_cell_formula_units_Z 12
_cell_length_a 14.020746
_cell_length_b 6.132959
_cell_length_c 12.193859
_cell_angle_alpha 98.072823
_cell_angle_beta 148.463212
_cell_angle_gamma 69.215998
_cell_volume 483.786324
_symmetry_space_group_name_H-M "P -1"
_symmetry_group_IT_number 2
_symmetry_cell_setting 'triclinic'
loop_
_space_group_symop_operation_xyz
x,y,z
-x,-y,-z
loop_
_atom_site_type_symbol
_atom_site_label
_atom_site_fract_x
_atom_site_fract_y
_atom_site_fract_z
Si Si1 0.997913 0.026431 0.831423
Si Si2 0.354280 0.304790 0.723971
Si Si3 0.390005 0.124580 0.191803
Si Si4 0.001144 0.163092 0.408574
Si Si5 0.828979 0.419857 0.863960
Si Si6 0.565109 0.621422 0.962952
O O1 0.827747 0.240485 0.753565
O O2 0.927453 0.008004 0.640609
O O3 0.192448 0.080509 0.012772
O O4 0.081743 0.764574 0.957926
O O5 0.149404 0.295168 0.561951
O O6 0.388561 0.544777 0.752121
O O7 0.425071 0.144607 0.670218
O O8 0.514942 0.770764 0.038687
O O9 0.366900 0.328144 0.274645
O O10 0.386959 0.246536 0.080385
O O11 0.000000 0.000000 0.500000
O O12 0.774210 0.374158 0.174363
O O13 0.000000 0.500000 0.000000
#
# Coordination Sequence:
#
# PCOD9107528 Si02
#       6
#     2   2   2   2   2   2
#     4  10  20  40  64  97 127 168 217 260 317 383
#     4  11  25  38  64  93 130 171 216 259 319 382
#     4  11  19  40  66  92 125 170 216 263 314 376
#     4  12  25  42  64  98 133 169 211 264 321 388
#     4   9  19  36  69  93 123 172 217 260 318 375
#     4  11  24  43  60  91 133 176 212 260 318 381
#
# _framework density 24.804337
#
# number of rings (size 3 to 8) (size 9 to 14) (size 15 to 20)
#    0.000    1.333    3.333    2.000    4.667    0.000 
#    0.000    0.833    0.000   14.000    0.000    0.000 
#    0.000    0.000    0.000    0.000    0.000    0.000 
#
# Total GULP energy -66984.252524 kJ/mol
# GULP energy per Si atom -5582.021044 kJ/mol
# Density = 2.474788 g / cm^3
# Si number density = 24.804337 Si / 1000 Ang^3
#
#
#
# Elastic Constant Matrix: (Units=GPa)
#
#
# Indices 1 2 3 4 5 6 
#
# 1 151.1678 59.6473 23.8292 12.9271 4.9409 -5.0047
# 2 59.6473 119.4272 47.2247 8.4828 10.1693 -4.6769
# 3 23.8292 47.2247 77.2551 21.1438 24.3806 15.4888
# 4 12.9271 8.4828 21.1438 17.5132 7.8885 7.3130
# 5 4.9409 10.1693 24.3806 7.8885 34.8879 3.4990
# 6 -5.0047 -4.6769 15.4888 7.3130 3.4990 91.2383
#
#
#
# Elastic Compliance Matrix: (Units=1/GPa)
#
#
# Indices 1 2 3 4 5 6 
#
# 1 0.008723 -0.004577 0.001724 -0.006659 0.000352 0.000471
# 2 -0.004577 0.014004 -0.009985 0.007225 0.001758 0.001515
# 3 0.001724 -0.009985 0.030074 -0.026023 -0.012168 -0.002970
# 4 -0.006659 0.007225 -0.026023 0.092786 -0.003669 -0.002873
# 5 0.000352 0.001758 -0.012168 -0.003669 0.037330 0.001038
# 6 0.000471 0.001515 -0.002970 -0.002873 0.001038 0.011759
#
#
# Mechanical properties :
#
#
# Convention : Reuss Voigt Hill
#
# Bulk Modulus (GPa) = 36.86632 67.69471 52.28052
# Shear Modulus (GPa) = 21.79679 43.20446 32.50063
#
# Velocity S-wave (km/s) = 2.96759 4.17803 3.62371
# Velocity P-wave (km/s) = 5.16113 7.11515 6.21540
#
# Compressibility (1/GPa) = 0.02712503
#
# Stress axis : x y z
#
# Youngs Moduli (GPa) = 114.64167 71.40907 33.25157
#
# Poissons Ratio (x) = 0.32683 -0.05732
# Poissons Ratio (y) = 0.52469 0.33201
# Poissons Ratio (z) = -0.19762 0.71300
#
# Static dielectric constant tensor:
#      x y z
#    x 1.965550 -0.074040 0.030780 
#    y -0.074040 2.111820 -0.008060 
#    z 0.030780 -0.008060 1.940220 
# 
# From -- ./inp_files/139650.got.cif
#   From: 2010.05.17/outbox.cif.g08.bks.cpg/sg2_70_cif.got.tgz:139650.got - 2010.06.03 11:33:40.
