data_PCOD9107134
_publ_section_title
;
Structure prediction by ZEFSAII (Michael W. Deem and Ramdas Pophale) SiO2 
 PCOD9107134
Probable space group: P -1
;
_chemical_formula_sum "Si O2"
_cell_formula_units_Z 16
_cell_length_a 16.050979
_cell_length_b 18.762536
_cell_length_c 7.749441
_cell_angle_alpha 122.051553
_cell_angle_beta 68.270994
_cell_angle_gamma 158.788427
_cell_volume 654.040538
_symmetry_space_group_name_H-M "P -1"
_symmetry_group_IT_number 2
_symmetry_cell_setting 'triclinic'
loop_
_space_group_symop_operation_xyz
x,y,z
-x,-y,-z
loop_
_atom_site_type_symbol
_atom_site_label
_atom_site_fract_x
_atom_site_fract_y
_atom_site_fract_z
Si Si1 0.368789 0.704508 0.024881
Si Si2 0.318262 0.467232 0.393365
Si Si3 0.255425 0.252367 0.970323
Si Si4 0.323421 0.009942 0.518362
Si Si5 0.745918 0.399334 0.413953
Si Si6 0.792090 0.264875 0.673585
Si Si7 0.127613 0.009648 0.508155
Si Si8 0.338533 0.486018 0.806513
O O1 0.610954 0.928340 0.250347
O O2 0.201691 0.639103 0.119111
O O3 0.400697 0.735208 0.832344
O O4 0.284730 0.537634 0.933013
O O5 0.177707 0.266972 0.152211
O O6 0.195150 0.449589 0.424452
O O7 0.610133 0.735140 0.454622
O O8 0.334681 0.464500 0.579120
O O9 0.392719 0.304613 0.056076
O O10 0.500000 0.500000 0.000000
O O11 0.071023 0.038200 0.714392
O O12 0.574341 0.225035 0.483755
O O13 0.192606 0.981047 0.525117
O O14 0.173041 0.792008 0.320288
O O15 0.993004 0.558757 0.407992
O O16 0.500000 0.000000 0.500000
O O17 0.888130 0.769839 0.273412
#
# Coordination Sequence:
#
# PCOD9107134 Si02
#       8
#     2   2   2   2   2   2   2   2
#     4  10  21  38  63  90 121 163 205 257 310 363
#     4   9  21  38  60  92 122 156 209 255 298 373
#     4  10  21  39  64  89 123 161 205 255 307 371
#     4  10  20  40  63  87 129 165 203 258 314 364
#     4  10  21  39  62  89 126 162 206 259 309 370
#     4  10  22  39  62  92 123 162 212 254 308 381
#     4  10  21  39  64  89 122 168 204 248 315 367
#     4  11  21  40  63  86 127 161 202 261 309 362
#
# _framework density 24.463315000000001
#
# number of rings (size 3 to 8) (size 9 to 14) (size 15 to 20)
#    0.000    2.000    1.250    2.250    0.000    5.000 
#    0.000   15.000    2.750    0.000    0.000    0.000 
#    0.000    0.000    0.000    0.000    0.000    0.000 
#
# Total GULP energy -89375.296378 kJ/mol
# GULP energy per Si atom -5585.956024 kJ/mol
# Density = 2.440764 g / cm^3
# Si number density = 24.463315 Si / 1000 Ang^3
#
#
#
# Elastic Constant Matrix: (Units=GPa)
#
#
# Indices 1 2 3 4 5 6 
#
# 1 104.3206 13.3899 46.6192 -4.1637 -32.5881 0.4321
# 2 13.3899 71.5075 41.0781 1.3535 -1.0251 -9.5005
# 3 46.6192 41.0781 126.5312 11.3492 -43.6434 12.4614
# 4 -4.1637 1.3535 11.3492 30.7345 1.9473 -4.9282
# 5 -32.5881 -1.0251 -43.6434 1.9473 55.5442 1.6781
# 6 0.4321 -9.5005 12.4614 -4.9282 1.6781 29.0788
#
#
#
# Elastic Compliance Matrix: (Units=1/GPa)
#
#
# Indices 1 2 3 4 5 6 
#
# 1 0.012693 -0.000205 -0.003428 0.002934 0.004604 0.001445
# 2 -0.000205 0.023516 -0.013494 0.007070 -0.010999 0.015302
# 3 -0.003428 -0.013494 0.021570 -0.011460 0.015587 -0.016443
# 4 0.002934 0.007070 -0.011460 0.039737 -0.008981 0.014430
# 5 0.004604 -0.010999 0.015587 -0.008981 0.033481 -0.013796
# 6 0.001445 0.015302 -0.016443 0.014430 -0.013796 0.049655
#
#
# Mechanical properties :
#
#
# Convention : Reuss Voigt Hill
#
# Bulk Modulus (GPa) = 42.50582 56.05930 49.28256
# Shear Modulus (GPa) = 22.44679 36.48963 29.46821
#
# Velocity S-wave (km/s) = 3.03243 3.86632 3.47448
# Velocity P-wave (km/s) = 5.44737 6.54955 6.02373
#
# Compressibility (1/GPa) = 0.02352619
#
# Stress axis : x y z
#
# Youngs Moduli (GPa) = 78.78255 42.52403 46.35978
#
# Poissons Ratio (x) = 0.00874 0.15890
# Poissons Ratio (y) = 0.01618 0.62557
# Poissons Ratio (z) = 0.27003 0.57381
#
# Static dielectric constant tensor:
#      x y z
#    x 1.997490 0.038880 0.035190 
#    y 0.038880 2.014240 0.013640 
#    z 0.035190 0.013640 1.978180 
# 
# From -- ./inp_files/337816.got.cif
#   From: 2010.05.17/outbox.cif.g08.bks.cpg/sg2_169_cif.got.tgz:337816.got - 2010.06.03 11:33:40.
