data_PCOD9107597
_publ_section_title
;
Structure prediction by ZEFSAII (Michael W. Deem and Ramdas Pophale) SiO2 
 PCOD9107597
Probable space group: P -1
;
_chemical_formula_sum "Si O2"
_cell_formula_units_Z 14
_cell_length_a 8.742220
_cell_length_b 9.248991
_cell_length_c 11.435287
_cell_angle_alpha 64.368132
_cell_angle_beta 110.780801
_cell_angle_gamma 132.486737
_cell_volume 612.014382
_symmetry_space_group_name_H-M "P -1"
_symmetry_group_IT_number 2
_symmetry_cell_setting 'triclinic'
loop_
_space_group_symop_operation_xyz
x,y,z
-x,-y,-z
loop_
_atom_site_type_symbol
_atom_site_label
_atom_site_fract_x
_atom_site_fract_y
_atom_site_fract_z
Si Si1 0.790672 0.778681 0.989671
Si Si2 0.309644 0.864863 0.584167
Si Si3 0.447846 0.610233 0.779177
Si Si4 0.309648 0.453540 0.314200
Si Si5 0.347931 0.086533 0.757801
Si Si6 0.977735 0.305142 0.095458
Si Si7 0.085109 0.184653 0.548861
O O1 0.613535 0.763041 0.871881
O O2 0.872930 0.695426 0.952008
O O3 0.679367 0.615844 0.121336
O O4 0.000000 0.000000 0.000000
O O5 0.306172 0.675737 0.685369
O O6 0.102253 0.806762 0.485387
O O7 0.500000 0.000000 0.500000
O O8 0.350173 0.996554 0.665255
O O9 0.576228 0.620603 0.699036
O O10 0.434962 0.692817 0.242656
O O11 0.271233 0.388271 0.461292
O O12 0.079709 0.336548 0.238884
O O13 0.182343 0.134843 0.693359
O O14 0.254162 0.906844 0.889038
O O15 0.000000 0.500000 0.000000
O O16 0.000000 0.000000 0.500000
#
# Coordination Sequence:
#
# PCOD9107597 Si02
#       7
#     2   2   2   2   2   2   2
#     4  10  22  39  64  89 122 163 204 249 308 362
#     4  11  23  40  65  92 128 158 202 261 309 360
#     4  10  22  41  61  92 126 159 200 259 306 353
#     4  11  22  41  67  90 124 165 205 251 307 374
#     4  11  23  41  66  93 121 166 210 247 306 376
#     4  11  23  39  65  89 126 164 206 255 302 359
#     4  10  20  40  65  87 123 164 199 249 312 365
#
# _framework density 22.875281999999999
#
# number of rings (size 3 to 8) (size 9 to 14) (size 15 to 20)
#    0.000    1.429    2.857    3.857    2.000    1.714 
#    0.000    1.429    0.000    0.000    0.000    0.000 
#    0.000    0.000    0.000    0.000    0.000    0.000 
#
# Total GULP energy -78268.673595 kJ/mol
# GULP energy per Si atom -5590.619543 kJ/mol
# Density = 2.282322 g / cm^3
# Si number density = 22.875282 Si / 1000 Ang^3
#
#
#
# Elastic Constant Matrix: (Units=GPa)
#
#
# Indices 1 2 3 4 5 6 
#
# 1 111.5987 22.3324 36.7678 -11.6548 1.8544 7.6788
# 2 22.3324 89.5039 23.5026 -16.4079 11.8590 24.7255
# 3 36.7678 23.5026 74.5591 -27.5298 3.4290 -0.3619
# 4 -11.6548 -16.4079 -27.5298 36.1428 -1.0259 -7.6703
# 5 1.8544 11.8590 3.4290 -1.0259 30.8775 -9.7583
# 6 7.6788 24.7255 -0.3619 -7.6703 -9.7583 34.9901
#
#
#
# Elastic Compliance Matrix: (Units=1/GPa)
#
#
# Indices 1 2 3 4 5 6 
#
# 1 0.011035 -0.000794 -0.005838 -0.001788 -0.000548 -0.002466
# 2 -0.000794 0.018839 -0.004758 0.000884 -0.011774 -0.016277
# 3 -0.005838 -0.004758 0.023596 0.015974 0.003004 0.009227
# 4 -0.001788 0.000884 0.015974 0.041807 0.002477 0.009789
# 5 -0.000548 -0.011774 0.003004 0.002477 0.043360 0.021107
# 6 -0.002466 -0.016277 0.009227 0.009789 0.021107 0.048750
#
#
# Mechanical properties :
#
#
# Convention : Reuss Voigt Hill
#
# Bulk Modulus (GPa) = 32.58583 48.98524 40.78553
# Shear Modulus (GPa) = 22.68618 33.27267 27.97943
#
# Velocity S-wave (km/s) = 3.15260 3.81796 3.50112
# Velocity P-wave (km/s) = 5.24669 6.39502 5.84910
#
# Compressibility (1/GPa) = 0.03068819
#
# Stress axis : x y z
#
# Youngs Moduli (GPa) = 90.61883 53.08177 42.38050
#
# Poissons Ratio (x) = 0.04217 0.24744
# Poissons Ratio (y) = 0.07199 0.20164
# Poissons Ratio (z) = 0.52907 0.25256
#
# Static dielectric constant tensor:
#      x y z
#    x 1.806080 0.021850 0.009270 
#    y 0.021850 1.907290 0.028580 
#    z 0.009270 0.028580 1.927030 
# 
# From -- ./inp_files/202844.got.cif
#   From: 2010.05.17/outbox.cif.g08.bks.cpg/sg2_102_cif.got.tgz:202844.got - 2010.06.03 11:33:40.
