data_PCOD9107961
_publ_section_title
;
Structure prediction by ZEFSAII (Michael W. Deem and Ramdas Pophale) SiO2 
 PCOD9107961
Probable space group: P -1
;
_chemical_formula_sum "Si O2"
_cell_formula_units_Z 13
_cell_length_a 11.472320
_cell_length_b 13.881607
_cell_length_c 6.717827
_cell_angle_alpha 54.021923
_cell_angle_beta 65.369336
_cell_angle_gamma 30.881630
_cell_volume 434.411901
_symmetry_space_group_name_H-M "P -1"
_symmetry_group_IT_number 2
_symmetry_cell_setting 'triclinic'
loop_
_space_group_symop_operation_xyz
x,y,z
-x,-y,-z
loop_
_atom_site_type_symbol
_atom_site_label
_atom_site_fract_x
_atom_site_fract_y
_atom_site_fract_z
Si Si1 0.792801 0.074198 0.804467
Si Si2 0.035045 0.729068 0.573066
Si Si3 0.268116 0.810211 0.750793
Si Si4 0.316599 0.193574 0.197589
Si Si5 0.500000 0.500000 0.500000
Si Si6 0.242159 0.494721 0.106730
Si Si7 0.774637 0.810361 0.178852
O O1 0.745500 0.178899 0.497847
O O2 0.630679 0.287658 0.786236
O O3 0.720035 0.994396 0.962889
O O4 0.065597 0.879592 0.886608
O O5 0.281252 0.578581 0.498677
O O6 0.894526 0.716708 0.664418
O O7 0.095385 0.683891 0.820897
O O8 0.841751 0.977915 0.365280
O O9 0.540570 0.602127 0.848207
O O10 0.319408 0.321029 0.133929
O O11 0.259185 0.232804 0.952510
O O12 0.569887 0.933124 0.326949
O O13 0.051206 0.597808 0.278244
#
# Coordination Sequence:
#
# PCOD9107961 Si02
#       7
#     2   2   2   2   1   2   2
#     4  10  20  42  60  91 128 164 208 264 320 365
#     4  10  20  43  61  90 125 166 202 259 314 364
#     4  10  22  40  63  89 130 163 208 264 313 371
#     4  10  21  39  67  92 130 168 209 257 314 373
#     4  10  22  38  70  90 116 170 212 252 322 378
#     4  11  22  40  67  96 124 172 211 252 319 375
#     4  10  20  40  66  92 127 172 206 258 316 373
#
# _framework density 29.925515000000001
#
# number of rings (size 3 to 8) (size 9 to 14) (size 15 to 20)
#    0.000    1.846    3.077    2.769    0.000    2.462 
#    5.538    4.615    0.000    0.000    0.000    0.000 
#    0.000    0.000    0.000    0.000    0.000    0.000 
#
# Total GULP energy -72624.361516 kJ/mol
# GULP energy per Si atom -5586.489347 kJ/mol
# Density = 2.985740 g / cm^3
# Si number density = 29.925515 Si / 1000 Ang^3
#
#
#
# Elastic Constant Matrix: (Units=GPa)
#
#
# Indices 1 2 3 4 5 6 
#
# 1 212.9204 68.0273 43.7090 -3.6512 -4.1805 -47.3742
# 2 68.0273 207.6293 43.1334 7.8529 7.0478 -54.1445
# 3 43.7090 43.1334 66.7900 -4.6599 6.2525 -9.0755
# 4 -3.6512 7.8529 -4.6599 63.2478 -12.3130 11.0320
# 5 -4.1805 7.0478 6.2525 -12.3130 55.6342 -22.4005
# 6 -47.3742 -54.1445 -9.0755 11.0320 -22.4005 66.0669
#
#
#
# Elastic Compliance Matrix: (Units=1/GPa)
#
#
# Indices 1 2 3 4 5 6 
#
# 1 0.006777 -0.000117 -0.003941 -0.000214 0.003050 0.005292
# 2 -0.000117 0.007365 -0.004118 -0.002006 0.001599 0.006263
# 3 -0.003941 -0.004118 0.020004 0.001927 -0.003608 -0.004998
# 4 -0.000214 -0.002006 0.001927 0.017285 0.002395 -0.003607
# 5 0.003050 0.001599 -0.003608 0.002395 0.023144 0.010449
# 6 0.005292 0.006263 -0.004998 -0.003607 0.010449 0.027523
#
#
# Mechanical properties :
#
#
# Convention : Reuss Voigt Hill
#
# Bulk Modulus (GPa) = 56.20015 88.56434 72.38224
# Shear Modulus (GPa) = 40.19935 59.15446 49.67690
#
# Velocity S-wave (km/s) = 3.66910 4.45086 4.07875
# Velocity P-wave (km/s) = 6.06387 7.48817 6.81334
#
# Compressibility (1/GPa) = 0.01779355
#
# Stress axis : x y z
#
# Youngs Moduli (GPa) = 147.56676 135.77488 49.99038
#
# Poissons Ratio (x) = 0.01590 0.19699
# Poissons Ratio (y) = 0.01728 0.20588
# Poissons Ratio (z) = 0.58149 0.55917
#
# Static dielectric constant tensor:
#      x y z
#    x 1.969640 -0.688740 0.014710 
#    y -0.688740 0.594730 -0.150990 
#    z 0.014710 -0.150990 2.444870 
# 
# From -- ./inp_files/267086.got.cif
#   From: 2010.05.17/outbox.cif.g08.bks.cpg/sg2_134_cif.got.tgz:267086.got - 2010.06.03 11:33:40.
