data_PCOD9107178
_publ_section_title
;
Structure prediction by ZEFSAII (Michael W. Deem and Ramdas Pophale) SiO2 
 PCOD9107178
Probable space group: P -1
;
_chemical_formula_sum "Si O2"
_cell_formula_units_Z 16
_cell_length_a 9.248479
_cell_length_b 13.593858
_cell_length_c 8.874085
_cell_angle_alpha 138.587141
_cell_angle_beta 89.355657
_cell_angle_gamma 90.554720
_cell_volume 737.947115
_symmetry_space_group_name_H-M "P -1"
_symmetry_group_IT_number 2
_symmetry_cell_setting 'triclinic'
loop_
_space_group_symop_operation_xyz
x,y,z
-x,-y,-z
loop_
_atom_site_type_symbol
_atom_site_label
_atom_site_fract_x
_atom_site_fract_y
_atom_site_fract_z
Si Si1 0.660608 0.315233 0.167821
Si Si2 0.081829 0.838378 0.195564
Si Si3 0.355410 0.555142 0.987213
Si Si4 0.159579 0.379570 0.999783
Si Si5 0.643926 0.834502 0.043879
Si Si6 0.738336 0.134405 0.510079
Si Si7 0.071724 0.137786 0.075357
Si Si8 0.145109 0.664765 0.530255
O O1 0.723684 0.355588 0.375983
O O2 0.786880 0.218929 0.976417
O O3 0.637867 0.444674 0.193222
O O4 0.510799 0.226556 0.072814
O O5 0.153457 0.927721 0.432944
O O6 0.972671 0.892162 0.131409
O O7 0.987777 0.709629 0.128975
O O8 0.227438 0.452910 0.935446
O O9 0.333986 0.724040 0.242849
O O10 0.500000 0.500000 0.000000
O O11 0.122793 0.512352 0.267517
O O12 0.280224 0.277005 0.964025
O O13 0.637336 0.999436 0.304660
O O14 0.756499 0.846204 0.916357
O O15 0.812843 0.208940 0.448183
O O16 0.994093 0.281504 0.312002
O O17 0.000000 0.000000 0.000000
#
# Coordination Sequence:
#
# PCOD9107178 Si02
#       8
#     2   2   2   2   2   2   2   2
#     4  10  22  39  65  90 128 160 205 251 309 363
#     4   9  22  40  65  89 123 163 206 251 307 365
#     4  10  20  41  64  91 125 160 203 256 302 366
#     4  10  22  41  67  90 122 161 210 254 305 363
#     4  11  22  39  66  92 126 161 206 253 307 364
#     4  10  22  40  67  88 125 166 205 250 309 363
#     4  10  20  40  63  90 125 160 205 256 300 364
#     4  10  22  42  65  88 125 166 205 253 307 361
#
# _framework density 21.681771999999999
#
# number of rings (size 3 to 8) (size 9 to 14) (size 15 to 20)
#    0.000    2.000    2.500    0.000    0.000   14.000 
#    0.000    0.000    0.000    0.000    0.000    0.000 
#    0.000    0.000    0.000    0.000    0.000    0.000 
#
# Total GULP energy -89324.337421 kJ/mol
# GULP energy per Si atom -5582.771089 kJ/mol
# Density = 2.163242 g / cm^3
# Si number density = 21.681772 Si / 1000 Ang^3
#
#
#
# Elastic Constant Matrix: (Units=GPa)
#
#
# Indices 1 2 3 4 5 6 
#
# 1 92.2077 8.2030 8.9494 2.8617 15.7018 23.5748
# 2 8.2030 80.4522 14.2592 -6.5142 5.7402 17.8110
# 3 8.9494 14.2592 53.0371 -3.8159 6.2522 2.6413
# 4 2.8617 -6.5142 -3.8159 36.3064 -5.6051 5.3852
# 5 15.7018 5.7402 6.2522 -5.6051 26.1666 10.7403
# 6 23.5748 17.8110 2.6413 5.3852 10.7403 27.8320
#
#
#
# Elastic Compliance Matrix: (Units=1/GPa)
#
#
# Indices 1 2 3 4 5 6 
#
# 1 0.014532 0.001749 -0.001879 0.000142 -0.003772 -0.011823
# 2 0.001749 0.016114 -0.003956 0.004785 0.002914 -0.013469
# 3 -0.001879 -0.003956 0.020591 0.000358 -0.004408 0.003801
# 4 0.000142 0.004785 0.000358 0.032236 0.011365 -0.013840
# 5 -0.003772 0.002914 -0.004408 0.011365 0.051703 -0.020402
# 6 -0.011823 -0.013469 0.003801 -0.013840 -0.020402 0.064754
#
#
# Mechanical properties :
#
#
# Convention : Reuss Voigt Hill
#
# Bulk Modulus (GPa) = 23.21971 32.05782 27.63876
# Shear Modulus (GPa) = 22.47628 31.01334 26.74481
#
# Velocity S-wave (km/s) = 3.22319 3.78615 3.51595
# Velocity P-wave (km/s) = 4.95828 5.82503 5.40904
#
# Compressibility (1/GPa) = 0.04306686
#
# Stress axis : x y z
#
# Youngs Moduli (GPa) = 68.81159 62.05842 48.56389
#
# Poissons Ratio (x) = -0.10856 0.09124
# Poissons Ratio (y) = -0.12037 0.19211
# Poissons Ratio (z) = 0.12928 0.24550
#
# Static dielectric constant tensor:
#      x y z
#    x 1.852520 -0.036080 -0.040310 
#    y -0.036080 1.858320 0.013610 
#    z -0.040310 0.013610 1.777840 
# 
# From -- ./inp_files/209399.got.cif
#   From: 2010.05.17/outbox.cif.g08.bks.cpg/sg2_105_cif.got.tgz:209399.got - 2010.06.03 11:33:40.
