data_PCOD9107344
_publ_section_title
;
Structure prediction by ZEFSAII (Michael W. Deem and Ramdas Pophale) SiO2 
 PCOD9107344
Probable space group: P -1
;
_chemical_formula_sum "Si O2"
_cell_formula_units_Z 16
_cell_length_a 8.090397
_cell_length_b 7.231894
_cell_length_c 13.471671
_cell_angle_alpha 126.683460
_cell_angle_beta 82.172434
_cell_angle_gamma 79.010336
_cell_volume 588.374252
_symmetry_space_group_name_H-M "P -1"
_symmetry_group_IT_number 2
_symmetry_cell_setting 'triclinic'
loop_
_space_group_symop_operation_xyz
x,y,z
-x,-y,-z
loop_
_atom_site_type_symbol
_atom_site_label
_atom_site_fract_x
_atom_site_fract_y
_atom_site_fract_z
Si Si1 0.929495 0.131688 0.399051
Si Si2 0.664531 0.596872 0.992961
Si Si3 0.086950 0.721928 0.975765
Si Si4 0.776973 0.658568 0.549020
Si Si5 0.518816 0.914330 0.358009
Si Si6 0.098303 0.358077 0.695176
Si Si7 0.516200 0.408164 0.175466
Si Si8 0.729502 0.068904 0.201122
O O1 0.819146 0.414069 0.532974
O O2 0.112153 0.172019 0.367560
O O3 0.969053 0.876027 0.373254
O O4 0.804289 0.117182 0.314415
O O5 0.849856 0.413971 0.964353
O O6 0.649326 0.849722 0.128598
O O7 0.500000 0.500000 0.000000
O O8 0.626459 0.660641 0.900198
O O9 0.017585 0.592597 0.848079
O O10 0.285632 0.712930 0.927887
O O11 0.917669 0.958991 0.090072
O O12 0.849665 0.596610 0.407584
O O13 0.577360 0.837299 0.612436
O O14 0.722814 0.753194 0.290811
O O15 0.436615 0.703317 0.277377
O O16 0.500000 0.000000 0.500000
O O17 0.577401 0.305054 0.245851
#
# Coordination Sequence:
#
# PCOD9107344 Si02
#       8
#     2   2   2   2   2   2   2   2
#     4  11  23  38  63  93 125 161 211 262 308 374
#     4  10  22  39  58  87 122 162 204 254 310 373
#     4  10  21  38  62  92 125 162 205 251 319 378
#     4  10  23  41  61  92 125 164 212 260 311 368
#     4   9  19  38  63  85 118 165 205 248 314 362
#     4  10  20  40  64  86 124 166 204 260 313 369
#     4  10  22  38  62  89 129 161 204 265 309 375
#     4  12  22  38  63  95 123 165 209 254 318 380
#
# _framework density 27.193577000000001
#
# number of rings (size 3 to 8) (size 9 to 14) (size 15 to 20)
#    0.000    1.750    1.250    3.750    1.750    0.500 
#    0.000    0.000    0.000    0.000    0.000    0.000 
#    0.000    0.000    0.000    0.000    0.000    0.000 
#
# Total GULP energy -89174.786869 kJ/mol
# GULP energy per Si atom -5573.424179 kJ/mol
# Density = 2.713168 g / cm^3
# Si number density = 27.193577 Si / 1000 Ang^3
#
#
#
# Elastic Constant Matrix: (Units=GPa)
#
#
# Indices 1 2 3 4 5 6 
#
# 1 111.5476 19.5224 18.7943 0.7294 20.2080 -18.9244
# 2 19.5224 124.7120 17.3259 9.4092 -6.0596 -15.7414
# 3 18.7943 17.3259 49.3932 5.0528 19.9768 -14.2192
# 4 0.7294 9.4092 5.0528 50.4861 -11.1946 7.0108
# 5 20.2080 -6.0596 19.9768 -11.1946 47.5227 2.4848
# 6 -18.9244 -15.7414 -14.2192 7.0108 2.4848 50.6531
#
#
#
# Elastic Compliance Matrix: (Units=1/GPa)
#
#
# Indices 1 2 3 4 5 6 
#
# 1 0.010894 -0.001295 -0.000189 -0.001647 -0.005320 0.004103
# 2 -0.001295 0.009065 -0.003340 -0.000902 0.002826 0.001382
# 3 -0.000189 -0.003340 0.031326 -0.007313 -0.015731 0.009469
# 4 -0.001647 -0.000902 -0.007313 0.023796 0.009616 -0.006713
# 5 -0.005320 0.002826 -0.015731 0.009616 0.032986 -0.008475
# 6 0.004103 0.001382 0.009469 -0.006713 -0.008475 0.025708
#
#
# Mechanical properties :
#
#
# Convention : Reuss Voigt Hill
#
# Bulk Modulus (GPa) = 24.01780 44.10421 34.06101
# Shear Modulus (GPa) = 31.78600 45.06640 38.42620
#
# Velocity S-wave (km/s) = 3.42260 4.07534 3.76315
# Velocity P-wave (km/s) = 4.94674 6.19664 5.60663
#
# Compressibility (1/GPa) = 0.04163578
#
# Stress axis : x y z
#
# Youngs Moduli (GPa) = 91.79230 110.31439 31.92273
#
# Poissons Ratio (x) = 0.14290 0.00604
# Poissons Ratio (y) = 0.11891 0.10661
# Poissons Ratio (z) = 0.01738 0.36842
#
# Static dielectric constant tensor:
#      x y z
#    x 2.248590 0.297150 -0.009880 
#    y 0.297150 2.451760 -0.021420 
#    z -0.009880 -0.021420 2.175900 
# 
# From -- ./inp_files/557672.got.cif
#   From: 2010.05.17/outbox.cif.g08.bks.cpg/sg2_279_cif.got.tgz:557672.got - 2010.06.03 11:33:40.
