data_PCOD9107222
_publ_section_title
;
Structure prediction by ZEFSAII (Michael W. Deem and Ramdas Pophale) SiO2 
 PCOD9107222
Probable space group: P -1
;
_chemical_formula_sum "Si O2"
_cell_formula_units_Z 14
_cell_length_a 17.106137
_cell_length_b 13.088971
_cell_length_c 7.239024
_cell_angle_alpha 135.762338
_cell_angle_beta 133.698994
_cell_angle_gamma 30.329326
_cell_volume 558.780639
_symmetry_space_group_name_H-M "P -1"
_symmetry_group_IT_number 2
_symmetry_cell_setting 'triclinic'
loop_
_space_group_symop_operation_xyz
x,y,z
-x,-y,-z
loop_
_atom_site_type_symbol
_atom_site_label
_atom_site_fract_x
_atom_site_fract_y
_atom_site_fract_z
Si Si1 0.667699 0.753877 0.981192
Si Si2 0.114225 0.059244 0.454616
Si Si3 0.278728 0.152332 0.414893
Si Si4 0.560359 0.720300 0.229547
Si Si5 0.475420 0.695058 0.658563
Si Si6 0.878857 0.286746 0.063194
Si Si7 0.974344 0.363864 0.965711
O O1 0.609238 0.644183 0.692017
O O2 0.838211 0.601436 0.961518
O O3 0.722807 0.770351 0.289082
O O4 0.500000 0.000000 0.000000
O O5 0.017501 0.215941 0.324984
O O6 0.042969 0.191330 0.697594
O O7 0.302161 0.892222 0.551782
O O8 0.088322 0.911485 0.197372
O O9 0.363378 0.198175 0.494340
O O10 0.390830 0.897333 0.282677
O O11 0.116852 0.285764 0.218294
O O12 0.713142 0.462622 0.134742
O O13 0.496939 0.763840 0.972676
O O14 0.500000 0.500000 0.500000
O O15 0.876872 0.371317 0.974688
#
# Coordination Sequence:
#
# PCOD9107222 Si02
#       7
#     2   2   2   2   2   2   2
#     4  11  26  41  64 100 138 171 225 282 327 398
#     4  11  25  41  67  99 128 172 227 271 332 402
#     4  10  22  39  64  91 131 178 215 262 338 393
#     4  10  20  40  63  92 129 173 213 269 328 393
#     4  11  20  43  68  93 130 180 220 269 337 395
#     4  11  24  43  65  97 133 168 221 282 330 396
#     4  12  23  44  67  93 133 177 215 277 339 390
#
# _framework density 25.054554
#
# number of rings (size 3 to 8) (size 9 to 14) (size 15 to 20)
#    0.000    1.143    5.714    0.857    4.000    0.000 
#    0.000    1.429    0.000    5.143    0.000    0.000 
#    0.000    0.000    0.000    0.000    0.000    0.000 
#
# Total GULP energy -78031.037731 kJ/mol
# GULP energy per Si atom -5573.645552 kJ/mol
# Density = 2.499753 g / cm^3
# Si number density = 25.054554 Si / 1000 Ang^3
#
#
#
# Elastic Constant Matrix: (Units=GPa)
#
#
# Indices 1 2 3 4 5 6 
#
# 1 27.5342 37.1940 26.4640 5.1892 -1.0851 -5.1366
# 2 37.1940 201.4373 89.5155 -28.1354 -3.2155 -28.9288
# 3 26.4640 89.5155 153.6678 -18.8695 1.9202 -14.4174
# 4 5.1892 -28.1354 -18.8695 67.7020 -2.2597 3.6472
# 5 -1.0851 -3.2155 1.9202 -2.2597 28.3695 -4.3336
# 6 -5.1366 -28.9288 -14.4174 3.6472 -4.3336 33.8062
#
#
#
# Elastic Compliance Matrix: (Units=1/GPa)
#
#
# Indices 1 2 3 4 5 6 
#
# 1 0.055854 -0.009333 -0.005437 -0.009618 0.000572 -0.000707
# 2 -0.009333 0.009226 -0.002877 0.003537 0.001947 0.005118
# 3 -0.005437 -0.002877 0.009388 0.001784 -0.000966 0.000399
# 4 -0.009618 0.003537 0.001784 0.017488 0.001400 0.000619
# 5 0.000572 0.001947 -0.000966 0.001400 0.036566 0.005877
# 6 -0.000707 0.005118 0.000399 0.000619 0.005877 0.034709
#
#
# Mechanical properties :
#
#
# Convention : Reuss Voigt Hill
#
# Bulk Modulus (GPa) = 25.52622 76.55404 51.04013
# Shear Modulus (GPa) = 23.63115 41.27326 32.45220
#
# Velocity S-wave (km/s) = 3.07447 4.06314 3.60288
# Velocity P-wave (km/s) = 4.77635 7.25489 6.14194
#
# Compressibility (1/GPa) = 0.03917541
#
# Stress axis : x y z
#
# Youngs Moduli (GPa) = 17.90371 108.38708 106.51383
#
# Poissons Ratio (x) = 1.01156 0.57910
# Poissons Ratio (y) = 0.16709 0.30645
# Poissons Ratio (z) = 0.09734 0.31184
#
# Static dielectric constant tensor:
#      x y z
#    x 2.274200 0.092990 -0.003160 
#    y 0.092990 2.161490 0.000740 
#    z -0.003160 0.000740 1.896130 
# 
# From -- ./inp_files/175567.got.cif
#   From: 2010.05.17/outbox.cif.g08.bks.cpg/sg2_88_cif.got.tgz:175567.got - 2010.06.03 11:33:40.
