data_PCOD9107640
_publ_section_title
;
Structure prediction by ZEFSAII (Michael W. Deem and Ramdas Pophale) SiO2 
 PCOD9107640
Probable space group: P -1
;
_chemical_formula_sum "Si O2"
_cell_formula_units_Z 16
_cell_length_a 14.938726
_cell_length_b 8.955642
_cell_length_c 8.763985
_cell_angle_alpha 131.499859
_cell_angle_beta 52.304712
_cell_angle_gamma 106.688584
_cell_volume 680.945134
_symmetry_space_group_name_H-M "P -1"
_symmetry_group_IT_number 2
_symmetry_cell_setting 'triclinic'
loop_
_space_group_symop_operation_xyz
x,y,z
-x,-y,-z
loop_
_atom_site_type_symbol
_atom_site_label
_atom_site_fract_x
_atom_site_fract_y
_atom_site_fract_z
Si Si1 0.683532 0.586705 0.790861
Si Si2 0.247577 0.187822 0.712334
Si Si3 0.285450 0.599927 0.069827
Si Si4 0.326609 0.880570 0.958528
Si Si5 0.981342 0.194182 0.538200
Si Si6 0.487545 0.954623 0.301473
Si Si7 0.161343 0.088015 0.038816
Si Si8 0.193719 0.310800 0.525023
O O1 0.687781 0.405017 0.781144
O O2 0.730109 0.547979 0.543745
O O3 0.774240 0.726612 0.851457
O O4 0.558146 0.731385 0.032711
O O5 0.354165 0.010714 0.437298
O O6 0.170418 0.098832 0.855621
O O7 0.185883 0.301156 0.707233
O O8 0.305186 0.361726 0.846855
O O9 0.150324 0.699865 0.261513
O O10 0.344152 0.705141 0.946142
O O11 0.445267 0.905004 0.774269
O O12 0.237208 0.895117 0.918267
O O13 0.264357 0.084009 0.252622
O O14 0.064656 0.338254 0.613310
O O15 0.035895 0.127623 0.271036
O O16 0.000000 0.000000 0.500000
O O17 0.500000 0.000000 0.500000
#
# Coordination Sequence:
#
# PCOD9107640 Si02
#       8
#     2   2   2   2   2   2   2   2
#     4   8  18  32  53  76 107 139 186 205 250 331
#     4  11  21  33  56  82 112 134 177 231 267 297
#     4  11  19  33  58  83 101 138 185 226 254 308
#     4   9  18  33  57  78 104 141 190 203 254 337
#     4  10  18  35  60  74 104 146 178 216 266 319
#     4  10  16  35  56  78 107 149 175 215 260 318
#     4   8  16  32  51  77  99 142 178 206 254 332
#     4   9  20  37  52  80 109 144 175 216 268 326
#
# _framework density 23.496752000000001
#
# number of rings (size 3 to 8) (size 9 to 14) (size 15 to 20)
#    0.000    3.000    6.250    0.000    0.000    7.500 
#    0.000    1.875    0.000    1.500    0.000    0.000 
#    0.000    0.000    0.000    0.000    0.000    0.000 
#
# Total GULP energy -89221.414508 kJ/mol
# GULP energy per Si atom -5576.338407 kJ/mol
# Density = 2.344327 g / cm^3
# Si number density = 23.496752 Si / 1000 Ang^3
#
#
#
# Elastic Constant Matrix: (Units=GPa)
#
#
# Indices 1 2 3 4 5 6 
#
# 1 33.0152 25.0399 26.9587 -17.8410 -8.3092 -17.5518
# 2 25.0399 171.2586 58.5790 -41.4178 0.5877 -26.6329
# 3 26.9587 58.5790 99.9991 -37.7035 -20.7881 -5.0365
# 4 -17.8410 -41.4178 -37.7035 53.5386 -4.8992 15.1148
# 5 -8.3092 0.5877 -20.7881 -4.8992 30.4446 -6.1707
# 6 -17.5518 -26.6329 -5.0365 15.1148 -6.1707 32.5945
#
#
#
# Elastic Compliance Matrix: (Units=1/GPa)
#
#
# Indices 1 2 3 4 5 6 
#
# 1 0.064254 0.000820 -0.009092 0.007851 0.019449 0.033907
# 2 0.000820 0.008643 -0.004581 0.002018 -0.001620 0.005554
# 3 -0.009092 -0.004581 0.022199 0.012689 0.013060 -0.008620
# 4 0.007851 0.002018 0.012689 0.034703 0.015265 -0.005366
# 5 0.019449 -0.001620 0.013060 0.015265 0.052399 0.014008
# 6 0.033907 0.005554 -0.008620 -0.005366 0.014008 0.057285
#
#
# Mechanical properties :
#
#
# Convention : Reuss Voigt Hill
#
# Bulk Modulus (GPa) = 14.41091 58.38090 36.39591
# Shear Modulus (GPa) = 17.34192 36.22856 26.78524
#
# Velocity S-wave (km/s) = 2.71967 3.93090 3.37998
# Velocity P-wave (km/s) = 4.00107 6.74559 5.54579
#
# Compressibility (1/GPa) = 0.06939188
#
# Stress axis : x y z
#
# Youngs Moduli (GPa) = 15.56322 115.69733 45.04613
#
# Poissons Ratio (x) = -0.09488 0.40955
# Poissons Ratio (y) = -0.01276 0.20634
# Poissons Ratio (z) = 0.14150 0.52997
#
# Static dielectric constant tensor:
#      x y z
#    x 1.984870 0.000410 0.107480 
#    y 0.000410 1.941780 -0.024550 
#    z 0.107480 -0.024550 1.937790 
# 
# From -- ./inp_files/326401.got.cif
#   From: 2010.05.17/outbox.cif.g08.bks.cpg/sg2_164_cif.got.tgz:326401.got - 2010.06.03 11:33:40.
