data_PCOD9107248
_publ_section_title
;
Structure prediction by ZEFSAII (Michael W. Deem and Ramdas Pophale) SiO2 
 PCOD9107248
Probable space group: P -1
;
_chemical_formula_sum "Si O2"
_cell_formula_units_Z 16
_cell_length_a 19.376976
_cell_length_b 20.262087
_cell_length_c 16.502744
_cell_angle_alpha 160.974013
_cell_angle_beta 158.222554
_cell_angle_gamma 19.983736
_cell_volume 673.274328
_symmetry_space_group_name_H-M "P -1"
_symmetry_group_IT_number 2
_symmetry_cell_setting 'triclinic'
loop_
_space_group_symop_operation_xyz
x,y,z
-x,-y,-z
loop_
_atom_site_type_symbol
_atom_site_label
_atom_site_fract_x
_atom_site_fract_y
_atom_site_fract_z
Si Si1 0.868870 0.246491 0.098246
Si Si2 0.003312 0.161498 0.433290
Si Si3 0.591240 0.311936 0.609017
Si Si4 0.880301 0.497352 0.125170
Si Si5 0.545516 0.686556 0.365938
Si Si6 0.277133 0.429578 0.268372
Si Si7 0.170693 0.150408 0.179948
Si Si8 0.970778 0.253741 0.769285
O O1 0.692322 0.257716 0.854572
O O2 0.722001 0.452213 0.239581
O O3 0.055709 0.254340 0.260505
O O4 0.000000 0.000000 0.000000
O O5 0.865814 0.352935 0.573745
O O6 0.195881 0.935124 0.424870
O O7 0.102666 0.276828 0.616263
O O8 0.859739 0.070062 0.127074
O O9 0.651141 0.516176 0.913726
O O10 0.434866 0.344230 0.551352
O O11 0.502449 0.303217 0.414139
O O12 0.961644 0.332461 0.942727
O O13 0.031142 0.349243 0.191686
O O14 0.593642 0.884918 0.615496
O O15 0.242420 0.547780 0.280285
O O16 0.168434 0.269289 0.963031
O O17 0.000000 0.000000 0.500000
#
# Coordination Sequence:
#
# PCOD9107248 Si02
#       8
#     2   2   2   2   2   2   2   2
#     4  11  26  46  68 102 134 173 222 279 339 401
#     4  10  22  43  64  98 133 175 222 276 335 383
#     4  11  23  42  66 101 129 176 230 269 332 406
#     4  10  22  41  68  94 140 175 217 287 324 394
#     4  11  24  45  69  99 136 176 223 274 340 400
#     4  10  23  39  64  95 133 174 225 277 327 398
#     4  11  23  44  70  98 135 175 223 281 327 403
#     4  10  20  40  63  94 133 178 222 273 337 385
#
# _framework density 23.764458999999999
#
# number of rings (size 3 to 8) (size 9 to 14) (size 15 to 20)
#    0.000    1.500    2.500    3.375    3.500    3.000 
#    0.000    8.750    0.000    0.000    0.000    0.000 
#    0.000    0.000    0.000    0.000    0.000    0.000 
#
# Total GULP energy -89539.355782 kJ/mol
# GULP energy per Si atom -5596.209736 kJ/mol
# Density = 2.371037 g / cm^3
# Si number density = 23.764459 Si / 1000 Ang^3
#
#
#
# Elastic Constant Matrix: (Units=GPa)
#
#
# Indices 1 2 3 4 5 6 
#
# 1 87.1259 10.9660 -4.1442 12.8143 12.0035 17.7025
# 2 10.9660 65.2540 14.7407 16.3865 0.7249 11.9998
# 3 -4.1442 14.7407 121.0180 27.6930 20.9779 4.5762
# 4 12.8143 16.3865 27.6930 38.4463 3.4398 2.1243
# 5 12.0035 0.7249 20.9779 3.4398 45.7439 0.9311
# 6 17.7025 11.9998 4.5762 2.1243 0.9311 39.2976
#
#
#
# Elastic Compliance Matrix: (Units=1/GPa)
#
#
# Indices 1 2 3 4 5 6 
#
# 1 0.014462 -0.000371 0.002949 -0.006030 -0.004560 -0.006311
# 2 -0.000371 0.018177 -0.000555 -0.007012 0.000692 -0.004956
# 3 0.002949 -0.000555 0.011327 -0.008327 -0.005295 -0.001903
# 4 -0.006030 -0.007012 -0.008327 0.036557 0.002686 0.003787
# 5 -0.004560 0.000692 -0.005295 0.002686 0.025238 0.001716
# 6 -0.006311 -0.004956 -0.001903 0.003787 0.001716 0.029779
#
#
# Mechanical properties :
#
#
# Convention : Reuss Voigt Hill
#
# Bulk Modulus (GPa) = 20.82785 35.16921 27.99853
# Shear Modulus (GPa) = 33.89899 41.48658 37.69278
#
# Velocity S-wave (km/s) = 3.78094 4.18274 3.98691
# Velocity P-wave (km/s) = 5.27674 6.17724 5.74466
#
# Compressibility (1/GPa) = 0.04801263
#
# Stress axis : x y z
#
# Youngs Moduli (GPa) = 69.14703 55.01459 88.28486
#
# Poissons Ratio (x) = 0.02042 -0.26038
# Poissons Ratio (y) = 0.02567 0.04897
# Poissons Ratio (z) = -0.20394 0.03052
#
# Static dielectric constant tensor:
#      x y z
#    x 1.904600 -0.025670 0.023200 
#    y -0.025670 1.899870 -0.042640 
#    z 0.023200 -0.042640 1.971520 
# 
# From -- ./inp_files/578527.got.cif
#   From: 2010.05.17/outbox.cif.g08.bks.cpg/sg2_290_cif.got.tgz:578527.got - 2010.06.03 11:33:40.
