data_PCOD9107924
_publ_section_title
;
Structure prediction by ZEFSAII (Michael W. Deem and Ramdas Pophale) SiO2 
 PCOD9107924
Probable space group: P -1
;
_chemical_formula_sum "Si O2"
_cell_formula_units_Z 16
_cell_length_a 9.890252
_cell_length_b 27.229719
_cell_length_c 12.962333
_cell_angle_alpha 158.159121
_cell_angle_beta 37.856416
_cell_angle_gamma 140.265083
_cell_volume 786.953658
_symmetry_space_group_name_H-M "P -1"
_symmetry_group_IT_number 2
_symmetry_cell_setting 'triclinic'
loop_
_space_group_symop_operation_xyz
x,y,z
-x,-y,-z
loop_
_atom_site_type_symbol
_atom_site_label
_atom_site_fract_x
_atom_site_fract_y
_atom_site_fract_z
Si Si1 0.735729 0.792030 0.162277
Si Si2 0.524668 0.277601 0.242794
Si Si3 0.616787 0.456709 0.104161
Si Si4 0.816194 0.406058 0.667261
Si Si5 0.508928 0.001378 0.169996
Si Si6 0.276858 0.416363 0.516207
Si Si7 0.816608 0.123454 0.052971
Si Si8 0.027580 0.383531 0.172312
O O1 0.583539 0.895927 0.497708
O O2 0.572555 0.659698 0.966570
O O3 0.869582 0.732774 0.059299
O O4 0.923819 0.857001 0.095541
O O5 0.475010 0.404013 0.587044
O O6 0.362597 0.286877 0.260666
O O7 0.788776 0.318175 0.142215
O O8 0.473755 0.136465 0.052704
O O9 0.781565 0.498705 0.182779
O O10 0.697539 0.408759 0.853643
O O11 0.741580 0.270522 0.384583
O O12 0.817588 0.538257 0.856644
O O13 0.073554 0.399107 0.527922
O O14 0.735946 0.063327 0.095222
O O15 0.321669 0.966520 0.125973
O O16 0.500000 0.500000 0.500000
O O17 0.000000 0.500000 0.500000
#
# Coordination Sequence:
#
# PCOD9107924 Si02
#       8
#     2   2   2   2   2   2   2   2
#     4  12  22  41  64  92 130 167 204 256 318 373
#     4  10  21  40  60  91 125 155 213 253 309 363
#     4  10  23  38  65  97 120 160 212 263 308 367
#     4  12  21  39  64  96 127 159 214 262 314 364
#     4  11  24  42  59  91 133 168 205 254 310 386
#     4  10  20  40  66  91 120 164 205 269 313 357
#     4  11  23  37  63  88 126 172 204 249 318 374
#     4  12  20  35  63  95 122 159 207 260 313 373
#
# _framework density 20.331565000000001
#
# number of rings (size 3 to 8) (size 9 to 14) (size 15 to 20)
#    0.750    0.250    6.250    1.500    0.000    2.500 
#    0.000    0.625    0.000    1.500    0.000    0.000 
#    0.000    0.000    0.000    0.000    0.000    0.000 
#
# Total GULP energy -89247.233668 kJ/mol
# GULP energy per Si atom -5577.952104 kJ/mol
# Density = 2.028529 g / cm^3
# Si number density = 20.331565 Si / 1000 Ang^3
#
#
#
# Elastic Constant Matrix: (Units=GPa)
#
#
# Indices 1 2 3 4 5 6 
#
# 1 30.4659 -1.1012 6.5313 3.5599 1.4032 3.9161
# 2 -1.1012 144.2592 42.7377 5.9269 -2.7296 -20.5381
# 3 6.5313 42.7377 96.4857 11.2488 2.5631 -9.7146
# 4 3.5599 5.9269 11.2488 28.2083 -11.6508 0.3907
# 5 1.4032 -2.7296 2.5631 -11.6508 22.0311 -0.8077
# 6 3.9161 -20.5381 -9.7146 0.3907 -0.8077 21.7032
#
#
#
# Elastic Compliance Matrix: (Units=1/GPa)
#
#
# Indices 1 2 3 4 5 6 
#
# 1 0.035176 0.000037 -0.002367 -0.005530 -0.005159 -0.007464
# 2 0.000037 0.008947 -0.003313 0.000079 0.001792 0.007042
# 3 -0.002367 -0.003313 0.013187 -0.006398 -0.005063 0.003121
# 4 -0.005530 0.000079 -0.006398 0.050076 0.027527 -0.001668
# 5 -0.005159 0.001792 -0.005063 0.027527 0.061166 0.002141
# 6 -0.007464 0.007042 0.003121 -0.001668 0.002141 0.055594
#
#
# Mechanical properties :
#
#
# Convention : Reuss Voigt Hill
#
# Bulk Modulus (GPa) = 21.72877 40.83849 31.28363
# Shear Modulus (GPa) = 19.93833 29.25804 24.59818
#
# Velocity S-wave (km/s) = 3.13494 3.79759 3.48207
# Velocity P-wave (km/s) = 4.87998 6.27366 5.62019
#
# Compressibility (1/GPa) = 0.04602194
#
# Stress axis : x y z
#
# Youngs Moduli (GPa) = 28.42881 111.76802 75.83380
#
# Poissons Ratio (x) = -0.00410 0.17951
# Poissons Ratio (y) = -0.00104 0.25126
# Poissons Ratio (z) = 0.06729 0.37033
#
# Static dielectric constant tensor:
#      x y z
#    x 1.741320 0.001540 0.012920 
#    y 0.001540 1.777780 -0.012380 
#    z 0.012920 -0.012380 1.714140 
# 
# From -- ./inp_files/327491.got.cif
#   From: 2010.05.17/outbox.cif.g08.bks.cpg/sg2_164_cif.got.tgz:327491.got - 2010.06.03 11:33:40.
