data_PCOD9107853
_publ_section_title
;
Structure prediction by ZEFSAII (Michael W. Deem and Ramdas Pophale) SiO2 
 PCOD9107853
Probable space group: P -1
;
_chemical_formula_sum "Si O2"
_cell_formula_units_Z 16
_cell_length_a 10.607143
_cell_length_b 8.696215
_cell_length_c 17.704096
_cell_angle_alpha 30.293830
_cell_angle_beta 69.764737
_cell_angle_gamma 62.302663
_cell_volume 723.736530
_symmetry_space_group_name_H-M "P -1"
_symmetry_group_IT_number 2
_symmetry_cell_setting 'triclinic'
loop_
_space_group_symop_operation_xyz
x,y,z
-x,-y,-z
loop_
_atom_site_type_symbol
_atom_site_label
_atom_site_fract_x
_atom_site_fract_y
_atom_site_fract_z
Si Si1 0.954742 0.760210 0.557955
Si Si2 0.252635 0.302699 0.926523
Si Si3 0.156630 0.673519 0.408988
Si Si4 0.482845 0.934936 0.917276
Si Si5 0.721647 0.042196 0.375651
Si Si6 0.587291 0.633184 0.754180
Si Si7 0.117465 0.820482 0.183669
Si Si8 0.590466 0.137815 0.660219
O O1 0.970611 0.399258 0.738095
O O2 0.043876 0.713947 0.481531
O O3 0.791994 0.939382 0.486509
O O4 0.000000 0.000000 0.500000
O O5 0.216562 0.685322 0.782954
O O6 0.348351 0.204857 0.871813
O O7 0.369338 0.117883 0.045083
O O8 0.119898 0.172194 0.008998
O O9 0.095046 0.816488 0.279656
O O10 0.265820 0.844789 0.340274
O O11 0.236562 0.287336 0.541823
O O12 0.503591 0.023292 0.790624
O O13 0.454732 0.601086 0.078707
O O14 0.550690 0.207915 0.337208
O O15 0.719872 0.401057 0.778108
O O16 0.620731 0.899363 0.684184
O O17 0.500000 0.500000 0.500000
#
# Coordination Sequence:
#
# PCOD9107853 Si02
#       8
#     2   2   2   2   2   2   2   2
#     4  11  25  44  61  81 121 165 201 252 302 354
#     4   9  18  36  63  90 115 162 198 249 297 352
#     4  11  23  40  58  87 122 161 201 244 298 359
#     4   9  19  35  57  87 132 158 193 241 306 358
#     4  10  21  39  61  88 123 150 208 241 300 357
#     4  10  21  37  60  94 121 159 192 251 310 347
#     4  10  20  40  66  85 119 160 201 241 304 363
#     4  12  22  35  58  94 126 156 204 244 294 358
#
# _framework density 22.107493000000002
#
# number of rings (size 3 to 8) (size 9 to 14) (size 15 to 20)
#    0.000    1.750    2.500    3.375    0.000    5.000 
#    0.000    3.125    0.000    0.000    0.000    0.000 
#    0.000    0.000    0.000    0.000    0.000    0.000 
#
# Total GULP energy -89367.369711 kJ/mol
# GULP energy per Si atom -5585.460607 kJ/mol
# Density = 2.205718 g / cm^3
# Si number density = 22.107493 Si / 1000 Ang^3
#
#
#
# Elastic Constant Matrix: (Units=GPa)
#
#
# Indices 1 2 3 4 5 6 
#
# 1 50.3313 17.8722 15.9273 -4.7040 -23.8781 26.8199
# 2 17.8722 87.5830 28.9516 3.4698 -11.6971 16.6931
# 3 15.9273 28.9516 109.5082 2.5141 -33.4647 8.1464
# 4 -4.7040 3.4698 2.5141 40.3271 9.2776 -16.1014
# 5 -23.8781 -11.6971 -33.4647 9.2776 36.4543 -12.7213
# 6 26.8199 16.6931 8.1464 -16.1014 -12.7213 32.1527
#
#
#
# Elastic Compliance Matrix: (Units=1/GPa)
#
#
# Indices 1 2 3 4 5 6 
#
# 1 0.053515 0.000477 0.004542 -0.018166 0.028724 -0.043769
# 2 0.000477 0.014313 -0.003029 -0.004762 0.000047 -0.009428
# 3 0.004542 -0.003029 0.014274 -0.004439 0.015576 -0.001893
# 4 -0.018166 -0.004762 -0.004439 0.040040 -0.016418 0.032305
# 5 0.028724 0.000047 0.015576 -0.016418 0.060472 -0.012227
# 6 -0.043769 -0.009428 -0.001893 0.032305 -0.012227 0.084326
#
#
# Mechanical properties :
#
#
# Convention : Reuss Voigt Hill
#
# Bulk Modulus (GPa) = 11.61681 41.43606 26.52644
# Shear Modulus (GPa) = 17.14352 34.09824 25.62088
#
# Velocity S-wave (km/s) = 2.78773 3.93158 3.40799
# Velocity P-wave (km/s) = 3.95323 6.27642 5.24507
#
# Compressibility (1/GPa) = 0.08608215
#
# Stress axis : x y z
#
# Youngs Moduli (GPa) = 18.68645 69.86457 70.05511
#
# Poissons Ratio (x) = -0.03331 -0.31816
# Poissons Ratio (y) = -0.00891 0.21216
# Poissons Ratio (z) = -0.08487 0.21159
#
# Static dielectric constant tensor:
#      x y z
#    x 1.859040 -0.004450 -0.046780 
#    y -0.004450 1.793060 -0.020840 
#    z -0.046780 -0.020840 1.885410 
# 
# From -- ./inp_files/565629.got.cif
#   From: 2010.05.17/outbox.cif.g08.bks.cpg/sg2_283_cif.got.tgz:565629.got - 2010.06.03 11:33:40.
