data_PCOD9107046
_publ_section_title
;
Structure prediction by ZEFSAII (Michael W. Deem and Ramdas Pophale) SiO2 
 PCOD9107046
Probable space group: P -1
;
_chemical_formula_sum "Si O2"
_cell_formula_units_Z 14
_cell_length_a 7.925179
_cell_length_b 13.381742
_cell_length_c 12.233245
_cell_angle_alpha 64.905809
_cell_angle_beta 95.546231
_cell_angle_gamma 144.239556
_cell_volume 606.907363
_symmetry_space_group_name_H-M "P -1"
_symmetry_group_IT_number 2
_symmetry_cell_setting 'triclinic'
loop_
_space_group_symop_operation_xyz
x,y,z
-x,-y,-z
loop_
_atom_site_type_symbol
_atom_site_label
_atom_site_fract_x
_atom_site_fract_y
_atom_site_fract_z
Si Si1 0.956405 0.538182 0.137231
Si Si2 0.112696 0.612217 0.571446
Si Si3 0.534352 0.140130 0.145311
Si Si4 0.555733 0.597151 0.787196
Si Si5 0.318558 0.413992 0.414964
Si Si6 0.281387 0.984725 0.700478
Si Si7 0.033813 0.974603 0.332051
O O1 0.933842 0.500319 0.281689
O O2 0.783695 0.341187 0.152281
O O3 0.763955 0.547661 0.096466
O O4 0.320580 0.750774 0.014110
O O5 0.000000 0.500000 0.500000
O O6 0.887783 0.590753 0.597391
O O7 0.482188 0.862490 0.459478
O O8 0.543356 0.014392 0.222973
O O9 0.192511 0.000890 0.227244
O O10 0.460422 0.482399 0.724613
O O11 0.699417 0.801318 0.695219
O O12 0.902222 0.733960 0.778975
O O13 0.500000 0.500000 0.500000
O O14 0.084452 0.177888 0.516409
O O15 0.230328 0.081264 0.697017
#
# Coordination Sequence:
#
# PCOD9107046 Si02
#       7
#     2   2   2   2   2   2   2
#     4  10  22  39  61  93 131 155 208 257 312 368
#     4  12  25  40  63  91 126 166 213 260 314 370
#     4  10  20  40  62  94 124 167 198 259 312 370
#     4   9  21  36  59  92 123 159 204 259 306 363
#     4  12  22  37  62  90 127 160 209 266 315 361
#     4  10  21  38  66  88 123 161 212 252 308 367
#     4   9  20  37  60  90 125 156 208 256 300 375
#
# _framework density 23.067769999999999
#
# number of rings (size 3 to 8) (size 9 to 14) (size 15 to 20)
#    0.857    0.857    1.429    3.857    4.000    1.714 
#    2.571    0.714    0.000    1.714    0.000    0.000 
#    0.000    0.000    0.000    0.000    0.000    0.000 
#
# Total GULP energy -77969.534556 kJ/mol
# GULP energy per Si atom -5569.252468 kJ/mol
# Density = 2.301527 g / cm^3
# Si number density = 23.067770 Si / 1000 Ang^3
#
#
#
# Elastic Constant Matrix: (Units=GPa)
#
#
# Indices 1 2 3 4 5 6 
#
# 1 181.6359 8.8073 35.1153 -3.7643 -12.2298 -3.7520
# 2 8.8073 35.3323 7.3313 13.5786 1.9833 -1.6470
# 3 35.1153 7.3313 111.3633 4.4767 -13.7454 0.6277
# 4 -3.7643 13.5786 4.4767 16.0094 0.1931 -1.1066
# 5 -12.2298 1.9833 -13.7454 0.1931 23.4326 -2.7415
# 6 -3.7520 -1.6470 0.6277 -1.1066 -2.7415 22.0319
#
#
#
# Elastic Compliance Matrix: (Units=1/GPa)
#
#
# Indices 1 2 3 4 5 6 
#
# 1 0.006280 -0.003085 -0.001636 0.004619 0.002711 0.001455
# 2 -0.003085 0.044149 -0.001115 -0.037777 -0.005666 0.000204
# 3 -0.001636 -0.001115 0.010320 -0.002396 0.005300 -0.000117
# 4 0.004619 -0.037777 -0.002396 0.096446 0.003799 0.003348
# 5 0.002711 -0.005666 0.005300 0.003799 0.048361 0.006096
# 6 0.001455 0.000204 -0.000117 0.003348 0.006096 0.046582
#
#
# Mechanical properties :
#
#
# Convention : Reuss Voigt Hill
#
# Bulk Modulus (GPa) = 20.37709 47.87103 34.12406
# Shear Modulus (GPa) = 17.84634 30.76663 24.30648
#
# Velocity S-wave (km/s) = 2.78447 3.65602 3.24959
# Velocity P-wave (km/s) = 4.38069 6.21445 5.37633
#
# Compressibility (1/GPa) = 0.04907472
#
# Stress axis : x y z
#
# Youngs Moduli (GPa) = 159.24172 22.65066 96.89728
#
# Poissons Ratio (x) = 0.06988 0.15855
# Poissons Ratio (y) = 0.49130 0.10809
# Poissons Ratio (z) = 0.26057 0.02527
#
# Static dielectric constant tensor:
#      x y z
#    x 1.906770 0.041220 -0.032150 
#    y 0.041220 2.056300 -0.029710 
#    z -0.032150 -0.029710 1.874010 
# 
# From -- ./inp_files/397206.got.cif
#   From: 2010.05.17/outbox.cif.g08.bks.cpg/sg2_199_cif.got.tgz:397206.got - 2010.06.03 11:33:40.
