data_PCOD9107042
_publ_section_title
;
Structure prediction by ZEFSAII (Michael W. Deem and Ramdas Pophale) SiO2 
 PCOD9107042
Probable space group: P -1
;
_chemical_formula_sum "Si O2"
_cell_formula_units_Z 16
_cell_length_a 8.055487
_cell_length_b 10.237993
_cell_length_c 18.268643
_cell_angle_alpha 145.204919
_cell_angle_beta 48.946917
_cell_angle_gamma 117.174119
_cell_volume 636.280998
_symmetry_space_group_name_H-M "P -1"
_symmetry_group_IT_number 2
_symmetry_cell_setting 'triclinic'
loop_
_space_group_symop_operation_xyz
x,y,z
-x,-y,-z
loop_
_atom_site_type_symbol
_atom_site_label
_atom_site_fract_x
_atom_site_fract_y
_atom_site_fract_z
Si Si1 0.935949 0.521759 0.929646
Si Si2 0.079714 0.559242 0.749375
Si Si3 0.538491 0.268082 0.328368
Si Si4 0.629956 0.943243 0.858477
Si Si5 0.085908 0.983571 0.690077
Si Si6 0.413741 0.086982 0.422939
Si Si7 0.643460 0.427837 0.081182
Si Si8 0.787272 0.298780 0.617390
O O1 0.936371 0.597004 0.881427
O O2 0.126187 0.628801 0.965580
O O3 0.703535 0.584955 0.069745
O O4 0.010138 0.241584 0.793956
O O5 0.197627 0.764377 0.781099
O O6 0.284083 0.340094 0.605804
O O7 0.938094 0.461555 0.684192
O O8 0.500000 0.500000 0.500000
O O9 0.434113 0.241075 0.265661
O O10 0.442413 0.096698 0.331810
O O11 0.901343 0.910696 0.764702
O O12 0.500000 0.000000 0.000000
O O13 0.430765 0.794035 0.035410
O O14 0.336184 0.962006 0.638873
O O15 0.108057 0.804586 0.534715
O O16 0.260606 0.907723 0.411037
O O17 0.460195 0.548411 0.246341
#
# Coordination Sequence:
#
# PCOD9107042 Si02
#       8
#     2   2   2   2   2   2   2   2
#     4  10  20  40  62  93 133 176 222 284 344 401
#     4  11  23  39  66  93 137 177 229 286 340 395
#     4  10  24  46  67  98 135 185 231 280 339 407
#     4  11  25  47  71  99 143 186 229 282 352 417
#     4  11  22  40  72 100 131 182 235 284 338 411
#     4  11  22  40  68 102 136 172 231 289 339 399
#     4  10  23  39  63  97 134 172 231 279 344 409
#     4  12  23  40  68 106 134 180 235 285 343 407
#
# _framework density 25.146121999999998
#
# number of rings (size 3 to 8) (size 9 to 14) (size 15 to 20)
#    0.000    1.250    2.500    3.750    3.500    2.500 
#    0.000    5.000    0.000    0.000    0.000    0.000 
#    0.000    0.000    0.000    0.000    0.000    0.000 
#
# Total GULP energy -89342.227375 kJ/mol
# GULP energy per Si atom -5583.889211 kJ/mol
# Density = 2.508889 g / cm^3
# Si number density = 25.146122 Si / 1000 Ang^3
#
#
#
# Elastic Constant Matrix: (Units=GPa)
#
#
# Indices 1 2 3 4 5 6 
#
# 1 65.3562 32.6910 33.7724 -18.6752 16.3461 18.8055
# 2 32.6910 89.0360 30.1305 -32.0953 1.6297 15.0062
# 3 33.7724 30.1305 101.3852 -23.9599 23.0370 3.5921
# 4 -18.6752 -32.0953 -23.9599 46.7120 1.9000 2.8242
# 5 16.3461 1.6297 23.0370 1.9000 38.8567 -4.1587
# 6 18.8055 15.0062 3.5921 2.8242 -4.1587 36.0844
#
#
#
# Elastic Compliance Matrix: (Units=1/GPa)
#
#
# Indices 1 2 3 4 5 6 
#
# 1 0.028581 -0.003454 -0.003108 0.008873 -0.012101 -0.015238
# 2 -0.003454 0.017827 -0.001569 0.010420 0.000460 -0.006220
# 3 -0.003108 -0.001569 0.014337 0.005362 -0.007435 -0.000432
# 4 0.008873 0.010420 0.005362 0.036113 -0.010563 -0.013535
# 5 -0.012101 0.000460 -0.007435 -0.010563 0.037010 0.011947
# 6 -0.015238 -0.006220 -0.000432 -0.013535 0.011947 0.040720
#
#
# Mechanical properties :
#
#
# Convention : Reuss Voigt Hill
#
# Bulk Modulus (GPa) = 22.48084 49.88503 36.18293
# Shear Modulus (GPa) = 24.31012 34.94285 29.62648
#
# Velocity S-wave (km/s) = 3.11264 3.73177 3.43618
# Velocity P-wave (km/s) = 4.67734 6.20075 5.49212
#
# Compressibility (1/GPa) = 0.04448232
#
# Stress axis : x y z
#
# Youngs Moduli (GPa) = 34.98853 56.09598 69.75112
#
# Poissons Ratio (x) = 0.19376 0.21677
# Poissons Ratio (y) = 0.12086 0.10944
# Poissons Ratio (z) = 0.10874 0.08801
#
# Static dielectric constant tensor:
#      x y z
#    x 1.973080 -0.021910 -0.039660 
#    y -0.021910 2.073930 0.035720 
#    z -0.039660 0.035720 2.078780 
# 
# From -- ./inp_files/186726.got.cif
#   From: 2010.05.17/outbox.cif.g08.bks.cpg/sg2_94_cif.got.tgz:186726.got - 2010.06.03 11:33:40.
