data_PCOD9107320
_publ_section_title
;
Structure prediction by ZEFSAII (Michael W. Deem and Ramdas Pophale) SiO2 
 PCOD9107320
Probable space group: P -1
;
_chemical_formula_sum "Si O2"
_cell_formula_units_Z 16
_cell_length_a 15.359176
_cell_length_b 7.177257
_cell_length_c 14.444369
_cell_angle_alpha 80.503296
_cell_angle_beta 149.053771
_cell_angle_gamma 82.662750
_cell_volume 684.432480
_symmetry_space_group_name_H-M "P -1"
_symmetry_group_IT_number 2
_symmetry_cell_setting 'triclinic'
loop_
_space_group_symop_operation_xyz
x,y,z
-x,-y,-z
loop_
_atom_site_type_symbol
_atom_site_label
_atom_site_fract_x
_atom_site_fract_y
_atom_site_fract_z
Si Si1 0.732629 0.003400 0.926268
Si Si2 0.085221 0.113235 0.420501
Si Si3 0.528264 0.206971 0.534140
Si Si4 0.130547 0.937241 0.272304
Si Si5 0.863196 0.410665 0.917026
Si Si6 0.499204 0.806781 0.919602
Si Si7 0.253982 0.438013 0.993155
Si Si8 0.294526 0.916083 0.902702
O O1 0.632359 0.147788 0.733087
O O2 0.668953 0.148443 0.950013
O O3 0.686222 0.812474 0.909822
O O4 0.973175 0.864224 0.148922
O O5 0.154971 0.015399 0.388693
O O6 0.951238 0.380519 0.261395
O O7 0.926694 0.044515 0.315822
O O8 0.282982 0.013457 0.670586
O O9 0.326697 0.444731 0.331770
O O10 0.500000 0.000000 0.500000
O O11 0.661910 0.213760 0.574218
O O12 0.010591 0.147318 0.076112
O O13 0.781078 0.464346 0.943347
O O14 0.000000 0.500000 0.000000
O O15 0.661110 0.881954 0.075412
O O16 0.580729 0.618051 0.930281
O O17 0.444932 0.755985 0.974394
#
# Coordination Sequence:
#
# PCOD9107320 Si02
#       8
#     2   2   2   2   2   2   2   2
#     4  10  21  39  57  81 122 149 190 245 288 340
#     4  10  21  38  63  87 118 155 195 236 297 346
#     4  12  21  35  62  84 110 157 194 227 293 350
#     4  10  22  38  56  86 118 149 190 244 285 343
#     4  11  21  35  56  86 114 147 196 235 281 346
#     4  10  20  40  64  83 121 156 191 242 298 340
#     4  10  21  37  60  88 113 154 197 238 287 350
#     4   9  21  39  59  90 118 152 196 245 287 349
#
# _framework density 23.377033000000001
#
# number of rings (size 3 to 8) (size 9 to 14) (size 15 to 20)
#    0.000    1.750    2.500    1.500    1.750    1.000 
#    0.000   14.375    0.000    0.000    0.000    0.000 
#    0.000    0.000    0.000    0.000    0.000    0.000 
#
# Total GULP energy -89236.956254 kJ/mol
# GULP energy per Si atom -5577.309766 kJ/mol
# Density = 2.332383 g / cm^3
# Si number density = 23.377033 Si / 1000 Ang^3
#
#
#
# Elastic Constant Matrix: (Units=GPa)
#
#
# Indices 1 2 3 4 5 6 
#
# 1 153.2955 28.9985 22.3382 10.7500 20.8232 -12.9631
# 2 28.9985 48.7686 7.7105 6.3150 4.4285 -1.0523
# 3 22.3382 7.7105 90.8153 3.9459 8.1326 -3.3249
# 4 10.7500 6.3150 3.9459 20.7111 -4.1459 0.2171
# 5 20.8232 4.4285 8.1326 -4.1459 33.3038 -1.9621
# 6 -12.9631 -1.0523 -3.3249 0.2171 -1.9621 41.8445
#
#
#
# Elastic Compliance Matrix: (Units=1/GPa)
#
#
# Indices 1 2 3 4 5 6 
#
# 1 0.008566 -0.003899 -0.001073 -0.004067 -0.004948 0.002259
# 2 -0.003899 0.023725 -0.000739 -0.005310 -0.001239 -0.000700
# 3 -0.001073 -0.000739 0.011642 -0.001897 -0.002282 0.000477
# 4 -0.004067 -0.005310 -0.001897 0.054474 0.010415 -0.001339
# 5 -0.004948 -0.001239 -0.002282 0.010415 0.035130 -0.000152
# 6 0.002259 -0.000700 0.000477 -0.001339 -0.000152 0.024618
#
#
# Mechanical properties :
#
#
# Convention : Reuss Voigt Hill
#
# Bulk Modulus (GPa) = 30.75959 45.66375 38.21167
# Shear Modulus (GPa) = 27.71392 34.76069 31.23730
#
# Velocity S-wave (km/s) = 3.44687 3.86029 3.65943
# Velocity P-wave (km/s) = 5.38775 6.28054 5.85120
#
# Compressibility (1/GPa) = 0.03251018
#
# Stress axis : x y z
#
# Youngs Moduli (GPa) = 116.74446 42.14929 85.89311
#
# Poissons Ratio (x) = 0.16434 0.09219
# Poissons Ratio (y) = 0.45517 0.06350
# Poissons Ratio (z) = 0.12531 0.03116
#
# Static dielectric constant tensor:
#      x y z
#    x 1.963840 -0.019560 0.041960 
#    y -0.019560 1.993840 0.069100 
#    z 0.041960 0.069100 1.882130 
# 
# From -- ./inp_files/206175.got.cif
#   From: 2010.05.17/outbox.cif.g08.bks.cpg/sg2_104_cif.got.tgz:206175.got - 2010.06.03 11:33:40.
