data_PCOD9107315
_publ_section_title
;
Structure prediction by ZEFSAII (Michael W. Deem and Ramdas Pophale) SiO2 
 PCOD9107315
Probable space group: P -1
;
_chemical_formula_sum "Si O2"
_cell_formula_units_Z 14
_cell_length_a 9.975623
_cell_length_b 15.206104
_cell_length_c 8.963985
_cell_angle_alpha 145.588328
_cell_angle_beta 106.786723
_cell_angle_gamma 64.974179
_cell_volume 691.472888
_symmetry_space_group_name_H-M "P -1"
_symmetry_group_IT_number 2
_symmetry_cell_setting 'triclinic'
loop_
_space_group_symop_operation_xyz
x,y,z
-x,-y,-z
loop_
_atom_site_type_symbol
_atom_site_label
_atom_site_fract_x
_atom_site_fract_y
_atom_site_fract_z
Si Si1 0.515029 0.175117 0.195183
Si Si2 0.889063 0.087431 0.864813
Si Si3 0.596033 0.031257 0.709496
Si Si4 0.052174 0.318117 0.184940
Si Si5 0.165492 0.804941 0.657023
Si Si6 0.038830 0.513592 0.199929
Si Si7 0.256019 0.264504 0.426928
O O1 0.668799 0.197296 0.326352
O O2 0.377993 0.306266 0.423478
O O3 0.500000 0.000000 0.000000
O O4 0.514396 0.166611 0.001825
O O5 0.737059 0.067645 0.736115
O O6 0.863197 0.126974 0.087981
O O7 0.035060 0.923045 0.675009
O O8 0.925402 0.238734 0.015720
O O9 0.667078 0.868743 0.608819
O O10 0.500000 0.000000 0.500000
O O11 0.166801 0.203981 0.183343
O O12 0.000000 0.500000 0.500000
O O13 0.113291 0.346724 0.085008
O O14 0.137550 0.630907 0.409489
O O15 0.874822 0.596665 0.336836
O O16 0.000000 0.500000 0.000000
#
# Coordination Sequence:
#
# PCOD9107315 Si02
#       7
#     2   2   2   2   2   2   2
#     4   9  19  34  60  89 116 158 196 245 293 358
#     4  10  16  34  65  89 113 159 200 249 286 361
#     4  10  20  34  60  96 128 148 195 256 310 340
#     4  10  19  36  64  86 115 155 205 238 293 366
#     4  10  18  36  65  90 112 156 211 238 294 364
#     4  11  23  40  61  89 123 157 200 258 304 347
#     4  10  19  40  60  82 122 161 199 240 296 359
#
# _framework density 20.246637
#
# number of rings (size 3 to 8) (size 9 to 14) (size 15 to 20)
#    0.000    2.000    4.286    2.571    0.000    1.143 
#    5.143    2.143    3.143    0.000    0.000    0.000 
#    0.000    0.000    0.000    0.000    0.000    0.000 
#
# Total GULP energy -77942.427450 kJ/mol
# GULP energy per Si atom -5567.316246 kJ/mol
# Density = 2.020056 g / cm^3
# Si number density = 20.246637 Si / 1000 Ang^3
#
#
#
# Elastic Constant Matrix: (Units=GPa)
#
#
# Indices 1 2 3 4 5 6 
#
# 1 169.4272 31.6781 61.5448 -9.2729 29.7158 6.3476
# 2 31.6781 97.2156 41.8919 -20.9886 18.6633 6.6564
# 3 61.5448 41.8919 57.0150 -21.1620 22.6269 -3.9407
# 4 -9.2729 -20.9886 -21.1620 28.7751 1.5077 8.9207
# 5 29.7158 18.6633 22.6269 1.5077 42.6188 -2.5283
# 6 6.3476 6.6564 -3.9407 8.9207 -2.5283 20.1958
#
#
#
# Elastic Compliance Matrix: (Units=1/GPa)
#
#
# Indices 1 2 3 4 5 6 
#
# 1 0.011269 0.002843 -0.015788 -0.004030 -0.000927 -0.005896
# 2 0.002843 0.018804 -0.011849 0.010782 -0.005186 -0.014815
# 3 -0.015788 -0.011849 0.062388 0.031571 -0.017754 0.004873
# 4 -0.004030 0.010782 0.031571 0.075846 -0.023288 -0.032544
# 5 -0.000927 -0.005186 -0.017754 -0.023288 0.037432 0.013509
# 6 -0.005896 -0.014815 0.004873 -0.032544 0.013509 0.073269
#
#
# Mechanical properties :
#
#
# Convention : Reuss Voigt Hill
#
# Bulk Modulus (GPa) = 23.32456 65.98748 44.65602
# Shear Modulus (GPa) = 14.58208 30.88746 22.73477
#
# Velocity S-wave (km/s) = 2.68661 3.91008 3.35459
# Velocity P-wave (km/s) = 4.60098 7.28337 6.09166
#
# Compressibility (1/GPa) = 0.04287327
#
# Stress axis : x y z
#
# Youngs Moduli (GPa) = 88.74135 53.18076 16.02865
#
# Poissons Ratio (x) = -0.15120 0.25306
# Poissons Ratio (y) = -0.25231 0.18992
# Poissons Ratio (z) = 1.40106 0.63012
#
# Static dielectric constant tensor:
#      x y z
#    x 1.775340 -0.046130 -0.040380 
#    y -0.046130 1.810480 0.044390 
#    z -0.040380 0.044390 1.763780 
# 
# From -- ./inp_files/172733.got.cif
#   From: 2010.05.17/outbox.cif.g08.bks.cpg/sg2_87_cif.got.tgz:172733.got - 2010.06.03 11:33:40.
