data_PCOD9107095
_publ_section_title
;
Structure prediction by ZEFSAII (Michael W. Deem and Ramdas Pophale) SiO2 
 PCOD9107095
Probable space group: P -1
;
_chemical_formula_sum "Si O2"
_cell_formula_units_Z 15
_cell_length_a 13.515278
_cell_length_b 11.582215
_cell_length_c 12.722076
_cell_angle_alpha 142.571355
_cell_angle_beta 30.307068
_cell_angle_gamma 141.909609
_cell_volume 576.404761
_symmetry_space_group_name_H-M "P -1"
_symmetry_group_IT_number 2
_symmetry_cell_setting 'triclinic'
loop_
_space_group_symop_operation_xyz
x,y,z
-x,-y,-z
loop_
_atom_site_type_symbol
_atom_site_label
_atom_site_fract_x
_atom_site_fract_y
_atom_site_fract_z
Si Si1 0.500000 0.000000 0.500000
Si Si2 0.306401 0.592004 0.474111
Si Si3 0.326413 0.359459 0.708138
Si Si4 0.599768 0.263221 0.212579
Si Si5 0.214074 0.964340 0.248550
Si Si6 0.896568 0.327088 0.682577
Si Si7 0.252851 0.425570 0.173463
Si Si8 0.072512 0.963336 0.739994
O O1 0.625912 0.170607 0.423037
O O2 0.721568 0.026464 0.377184
O O3 0.513860 0.540528 0.271743
O O4 0.219883 0.519946 0.383487
O O5 0.115613 0.468463 0.630517
O O6 0.480855 0.269060 0.434186
O O7 0.284669 0.514007 0.776648
O O8 0.125788 0.194780 0.822896
O O9 0.401943 0.163784 0.245858
O O10 0.744013 0.123839 0.965244
O O11 0.234594 0.796401 0.191062
O O12 0.000000 0.000000 0.500000
O O13 0.812079 0.467289 0.787728
O O14 0.927851 0.156480 0.454345
O O15 0.129515 0.185392 0.120398
O O16 0.500000 0.500000 0.000000
#
# Coordination Sequence:
#
# PCOD9107095 Si02
#       8
#     1   2   2   2   2   2   2   2
#     4  10  16  34  62  88 124 176 224 270 340 412
#     4  10  20  36  66  90 132 181 229 276 350 413
#     4  10  21  41  71 103 140 185 224 309 360 419
#     4  10  23  45  69 100 140 179 246 295 362 424
#     4  11  24  44  72 100 134 189 244 295 355 435
#     4  11  20  41  65  95 129 188 233 285 344 427
#     4  11  23  39  63 101 144 184 238 283 347 448
#     4  10  19  39  67  94 135 186 229 281 359 423
#
# _framework density 26.023378999999998
#
# number of rings (size 3 to 8) (size 9 to 14) (size 15 to 20)
#    0.000    1.600    4.000    1.600    1.867    0.000 
#    2.400   10.000    2.933    0.000    0.000    0.000 
#    0.000    0.000    0.000    0.000    0.000    0.000 
#
# Total GULP energy -83527.189554 kJ/mol
# GULP energy per Si atom -5568.479304 kJ/mol
# Density = 2.596415 g / cm^3
# Si number density = 26.023379 Si / 1000 Ang^3
#
#
#
# Elastic Constant Matrix: (Units=GPa)
#
#
# Indices 1 2 3 4 5 6 
#
# 1 77.8779 27.4020 15.8033 -1.9522 -11.1428 -2.8313
# 2 27.4020 197.1142 10.1560 -31.7722 -21.3554 -6.6251
# 3 15.8033 10.1560 108.0591 -6.7297 1.7002 13.2216
# 4 -1.9522 -31.7722 -6.7297 26.8942 13.5000 -9.8287
# 5 -11.1428 -21.3554 1.7002 13.5000 32.1011 -10.8258
# 6 -2.8313 -6.6251 13.2216 -9.8287 -10.8258 38.4182
#
#
#
# Elastic Compliance Matrix: (Units=1/GPa)
#
#
# Indices 1 2 3 4 5 6 
#
# 1 0.014977 -0.001796 -0.002701 -0.004169 0.006765 0.002563
# 2 -0.001796 0.007063 -0.000370 0.008666 0.001776 0.003931
# 3 -0.002701 -0.000370 0.010450 0.002517 -0.004288 -0.004424
# 4 -0.004169 0.008666 0.002517 0.060560 -0.017625 0.010848
# 5 0.006765 0.001776 -0.004288 -0.017625 0.045935 0.010715
# 6 0.002563 0.003931 -0.004424 0.010848 0.010715 0.034213
#
#
# Mechanical properties :
#
#
# Convention : Reuss Voigt Hill
#
# Bulk Modulus (GPa) = 43.94638 54.41931 49.18285
# Shear Modulus (GPa) = 26.24425 41.46202 33.85314
#
# Velocity S-wave (km/s) = 3.17911 3.99590 3.61068
# Velocity P-wave (km/s) = 5.51358 6.49975 6.02687
#
# Compressibility (1/GPa) = 0.02275500
#
# Stress axis : x y z
#
# Youngs Moduli (GPa) = 66.76769 141.57473 95.69823
#
# Poissons Ratio (x) = 0.25425 0.25851
# Poissons Ratio (y) = 0.11990 0.03545
# Poissons Ratio (z) = 0.18036 0.05244
#
# Static dielectric constant tensor:
#      x y z
#    x 2.094480 0.006860 -0.016050 
#    y 0.006860 2.089170 -0.076430 
#    z -0.016050 -0.076430 2.495410 
# 
# From -- ./inp_files/531286.got.cif
#   From: 2010.05.17/outbox.cif.g08.bks.cpg/sg2_266_cif.got.tgz:531286.got - 2010.06.03 11:33:40.
