data_PCOD9107055
_publ_section_title
;
Structure prediction by ZEFSAII (Michael W. Deem and Ramdas Pophale) SiO2 
 PCOD9107055
Probable space group: P -1
;
_chemical_formula_sum "Si O2"
_cell_formula_units_Z 16
_cell_length_a 8.104838
_cell_length_b 10.238823
_cell_length_c 14.185102
_cell_angle_alpha 125.861090
_cell_angle_beta 118.208389
_cell_angle_gamma 44.502953
_cell_volume 665.575348
_symmetry_space_group_name_H-M "P -1"
_symmetry_group_IT_number 2
_symmetry_cell_setting 'triclinic'
loop_
_space_group_symop_operation_xyz
x,y,z
-x,-y,-z
loop_
_atom_site_type_symbol
_atom_site_label
_atom_site_fract_x
_atom_site_fract_y
_atom_site_fract_z
Si Si1 0.390526 0.789559 0.041128
Si Si2 0.724541 0.174096 0.616686
Si Si3 0.370890 0.421912 0.484075
Si Si4 0.349633 0.337280 0.752442
Si Si5 0.005330 0.191635 0.151494
Si Si6 0.902374 0.435542 0.714083
Si Si7 0.562302 0.787844 0.891619
Si Si8 0.855581 0.180589 0.305712
O O1 0.532666 0.674068 0.122721
O O2 0.158963 0.803348 0.970513
O O3 0.530329 0.704369 0.945201
O O4 0.276425 0.028562 0.125514
O O5 0.564846 0.209686 0.497851
O O6 0.547043 0.234676 0.681878
O O7 0.791445 0.325801 0.676341
O O8 0.971724 0.962725 0.623368
O O9 0.500000 0.500000 0.500000
O O10 0.209832 0.448944 0.367124
O O11 0.224256 0.595511 0.597099
O O12 0.145128 0.570809 0.771129
O O13 0.183088 0.271573 0.703886
O O14 0.993345 0.107096 0.213100
O O15 0.818223 0.611668 0.843058
O O16 0.369578 0.816186 0.776905
O O17 0.500000 0.000000 0.000000
#
# Coordination Sequence:
#
# PCOD9107055 Si02
#       8
#     2   2   2   2   2   2   2   2
#     4  10  22  38  63  95 132 184 225 263 339 402
#     4  11  23  44  73  97 137 178 226 283 336 401
#     4  10  21  46  70  96 135 177 229 279 338 402
#     4  12  23  42  68  99 136 174 226 279 334 406
#     4  10  20  40  62  94 136 177 223 272 333 401
#     4  11  26  45  68 104 135 179 229 278 342 399
#     4  11  23  43  63  99 146 177 219 285 333 398
#     4  11  21  42  72  96 132 185 223 273 346 396
#
# _framework density 24.039352000000001
#
# number of rings (size 3 to 8) (size 9 to 14) (size 15 to 20)
#    0.000    1.250    5.000    1.875    1.750    3.000 
#    2.250    0.625    0.000    0.000    0.000    0.000 
#    0.000    0.000    0.000    0.000    0.000    0.000 
#
# Total GULP energy -89218.510965 kJ/mol
# GULP energy per Si atom -5576.156935 kJ/mol
# Density = 2.398464 g / cm^3
# Si number density = 24.039352 Si / 1000 Ang^3
#
#
#
# Elastic Constant Matrix: (Units=GPa)
#
#
# Indices 1 2 3 4 5 6 
#
# 1 89.0188 20.0330 27.7390 -6.7023 -18.2564 -24.5995
# 2 20.0330 102.5973 28.0715 -22.3441 -5.6530 2.0790
# 3 27.7390 28.0715 90.3258 -23.6955 -21.1993 -9.4078
# 4 -6.7023 -22.3441 -23.6955 53.5934 2.2395 -1.8463
# 5 -18.2564 -5.6530 -21.1993 2.2395 30.7299 2.1565
# 6 -24.5995 2.0790 -9.4078 -1.8463 2.1565 19.9565
#
#
#
# Elastic Compliance Matrix: (Units=1/GPa)
#
#
# Indices 1 2 3 4 5 6 
#
# 1 0.021428 -0.003832 0.000117 0.001602 0.010170 0.025916
# 2 -0.003832 0.011994 -0.002876 0.003089 -0.001798 -0.006848
# 3 0.000117 -0.002876 0.016686 0.006041 0.010065 0.007781
# 4 0.001602 0.003089 0.006041 0.022883 0.003582 0.006230
# 5 0.010170 -0.001798 0.010065 0.003582 0.044020 0.013043
# 6 0.025916 -0.006848 0.007781 0.006230 0.013043 0.085603
#
#
# Mechanical properties :
#
#
# Convention : Reuss Voigt Hill
#
# Bulk Modulus (GPa) = 27.08080 48.18097 37.63088
# Shear Modulus (GPa) = 21.91975 34.59588 28.25781
#
# Velocity S-wave (km/s) = 3.02292 3.79771 3.43225
# Velocity P-wave (km/s) = 4.84497 6.27026 5.60312
#
# Compressibility (1/GPa) = 0.03692653
#
# Stress axis : x y z
#
# Youngs Moduli (GPa) = 46.66891 83.37255 59.92941
#
# Poissons Ratio (x) = 0.31947 -0.00700
# Poissons Ratio (y) = 0.17883 0.17235
# Poissons Ratio (z) = -0.00545 0.23977
#
# Static dielectric constant tensor:
#      x y z
#    x 1.778650 0.291350 0.443380 
#    y 0.291350 1.778550 -0.209750 
#    z 0.443380 -0.209750 1.494860 
# 
# From -- ./inp_files/500729.got.cif
#   From: 2010.05.17/outbox.cif.g08.bks.cpg/sg2_251_cif.got.tgz:500729.got - 2010.06.03 11:33:40.
