data_PCOD9107300
_publ_section_title
;
Structure prediction by ZEFSAII (Michael W. Deem and Ramdas Pophale) SiO2 
 PCOD9107300
Probable space group: P -1
;
_chemical_formula_sum "Si O2"
_cell_formula_units_Z 16
_cell_length_a 5.673700
_cell_length_b 15.189346
_cell_length_c 10.921523
_cell_angle_alpha 84.979926
_cell_angle_beta 73.224253
_cell_angle_gamma 51.830272
_cell_volume 703.294829
_symmetry_space_group_name_H-M "P -1"
_symmetry_group_IT_number 2
_symmetry_cell_setting 'triclinic'
loop_
_space_group_symop_operation_xyz
x,y,z
-x,-y,-z
loop_
_atom_site_type_symbol
_atom_site_label
_atom_site_fract_x
_atom_site_fract_y
_atom_site_fract_z
Si Si1 0.357013 0.410548 0.303860
Si Si2 0.269210 0.138218 0.642024
Si Si3 0.420068 0.148097 0.022532
Si Si4 0.741268 0.967290 0.796317
Si Si5 0.700686 0.276455 0.024329
Si Si6 0.687831 0.372700 0.764064
Si Si7 0.802758 0.036013 0.400791
Si Si8 0.616815 0.571899 0.438487
O O1 0.520878 0.331498 0.172216
O O2 0.393153 0.507445 0.259591
O O3 0.464927 0.359541 0.431266
O O4 0.983663 0.481357 0.364343
O O5 0.444398 0.115862 0.489823
O O6 0.050032 0.266523 0.700522
O O7 0.519007 0.063443 0.719640
O O8 0.108077 0.078312 0.657666
O O9 0.351833 0.113390 0.164729
O O10 0.583405 0.205929 0.006863
O O11 0.073518 0.214531 0.001038
O O12 0.668811 0.033211 0.925152
O O13 0.092248 0.909216 0.709622
O O14 0.601644 0.360633 0.914315
O O15 0.531199 0.358978 0.672504
O O16 0.000000 0.000000 0.500000
O O17 0.500000 0.500000 0.500000
#
# Coordination Sequence:
#
# PCOD9107300 Si02
#       8
#     2   2   2   2   2   2   2   2
#     4  10  24  47  68 100 144 180 235 292 354 427
#     4  10  20  40  64 100 139 174 240 282 355 417
#     4  11  27  44  71 102 142 191 230 295 351 419
#     4  10  22  43  67  92 144 182 234 280 362 413
#     4  12  27  46  72 111 140 183 247 290 350 419
#     4  11  23  42  74 101 137 190 230 295 355 417
#     4   9  20  38  61  94 136 177 228 291 334 423
#     4   9  22  45  67  95 133 189 226 290 355 415
#
# _framework density 22.750059
#
# number of rings (size 3 to 8) (size 9 to 14) (size 15 to 20)
#    0.000    1.750    1.250    1.125    7.000    3.500 
#   13.500    0.000    0.000    0.000    0.000    0.000 
#    0.000    0.000    0.000    0.000    0.000    0.000 
#
# Total GULP energy -89237.881887 kJ/mol
# GULP energy per Si atom -5577.367618 kJ/mol
# Density = 2.269828 g / cm^3
# Si number density = 22.750059 Si / 1000 Ang^3
#
#
#
# Elastic Constant Matrix: (Units=GPa)
#
#
# Indices 1 2 3 4 5 6 
#
# 1 76.7848 11.6625 23.9337 -2.9247 -0.6655 4.7982
# 2 11.6625 32.7329 13.5364 -6.1573 13.3729 -1.7678
# 3 23.9337 13.5364 130.2929 -8.0392 -1.6371 -8.8828
# 4 -2.9247 -6.1573 -8.0392 17.5409 0.2936 14.7025
# 5 -0.6655 13.3729 -1.6371 0.2936 28.7186 -5.7479
# 6 4.7982 -1.7678 -8.8828 14.7025 -5.7479 26.6004
#
#
#
# Elastic Compliance Matrix: (Units=1/GPa)
#
#
# Indices 1 2 3 4 5 6 
#
# 1 0.015029 -0.003860 -0.002464 0.005747 0.000577 -0.006842
# 2 -0.003860 0.050910 -0.004353 0.034969 -0.028999 -0.022968
# 3 -0.002464 -0.004353 0.008834 -0.002214 0.003514 0.005088
# 4 0.005747 0.034969 -0.002214 0.140918 -0.034697 -0.084837
# 5 0.000577 -0.028999 0.003514 -0.034697 0.054935 0.030191
# 6 -0.006842 -0.022968 0.005088 -0.084837 0.030191 0.092415
#
#
# Mechanical properties :
#
#
# Convention : Reuss Voigt Hill
#
# Bulk Modulus (GPa) = 18.71958 37.56399 28.14178
# Shear Modulus (GPa) = 12.43155 27.28386 19.85770
#
# Velocity S-wave (km/s) = 2.34014 3.46683 2.95763
# Velocity P-wave (km/s) = 3.94308 5.70725 4.90513
#
# Compressibility (1/GPa) = 0.05342001
#
# Stress axis : x y z
#
# Youngs Moduli (GPa) = 66.53679 19.64238 113.19409
#
# Poissons Ratio (x) = 0.07582 0.27895
# Poissons Ratio (y) = 0.25682 0.49270
# Poissons Ratio (z) = 0.16397 0.08550
#
# Static dielectric constant tensor:
#      x y z
#    x 1.944330 -0.016320 0.009780 
#    y -0.016320 1.856010 -0.010620 
#    z 0.009780 -0.010620 1.879670 
# 
# From -- ./inp_files/367763.got.cif
#   From: 2010.05.17/outbox.cif.g08.bks.cpg/sg2_184_cif.got.tgz:367763.got - 2010.06.03 11:33:40.
