data_PCOD9107563
_publ_section_title
;
Structure prediction by ZEFSAII (Michael W. Deem and Ramdas Pophale) SiO2 
 PCOD9107563
Probable space group: P -1
;
_chemical_formula_sum "Si O2"
_cell_formula_units_Z 16
_cell_length_a 6.053601
_cell_length_b 32.278681
_cell_length_c 13.544819
_cell_angle_alpha 156.876120
_cell_angle_beta 77.826149
_cell_angle_gamma 117.232193
_cell_volume 738.485286
_symmetry_space_group_name_H-M "P -1"
_symmetry_group_IT_number 2
_symmetry_cell_setting 'triclinic'
loop_
_space_group_symop_operation_xyz
x,y,z
-x,-y,-z
loop_
_atom_site_type_symbol
_atom_site_label
_atom_site_fract_x
_atom_site_fract_y
_atom_site_fract_z
Si Si1 0.161384 0.328554 0.290515
Si Si2 0.939797 0.354079 0.171628
Si Si3 0.647491 0.943053 0.915567
Si Si4 0.274331 0.121187 0.811164
Si Si5 0.510295 0.855941 0.955735
Si Si6 0.409028 0.653359 0.224338
Si Si7 0.712635 0.608384 0.964211
Si Si8 0.706642 0.429898 0.737962
O O1 0.398712 0.481581 0.656900
O O2 0.139362 0.358709 0.246044
O O3 0.829089 0.224978 0.147905
O O4 0.273020 0.245267 0.103024
O O5 0.000000 0.500000 0.500000
O O6 0.022728 0.338134 0.020718
O O7 0.594652 0.208649 0.914622
O O8 0.597067 0.942529 0.036693
O O9 0.432322 0.781178 0.536371
O O10 0.500000 0.000000 0.000000
O O11 0.000000 0.000000 0.000000
O O12 0.272111 0.064699 0.794642
O O13 0.000000 0.000000 0.500000
O O14 0.475329 0.722834 0.633555
O O15 0.452387 0.605494 0.218500
O O16 0.664023 0.705614 0.232855
O O17 0.065281 0.515713 0.915998
O O18 0.720991 0.531441 0.886077
#
# Coordination Sequence:
#
# PCOD9107563 Si02
#       8
#     2   2   2   2   2   2   2   2
#     4  11  22  41  70  96 131 182 230 293 370 434
#     4  11  24  41  65 102 137 176 240 302 366 425
#     4  11  28  51  71 105 152 195 243 298 368 446
#     4  11  25  46  67  97 137 191 245 292 363 454
#     4  10  22  44  72  97 136 187 238 296 368 432
#     4  10  24  40  67 100 137 177 237 290 351 432
#     4  12  21  37  70 102 136 173 229 302 373 416
#     4  10  20  40  65 103 130 171 230 292 354 428
#
# _framework density 21.665970000000002
#
# number of rings (size 3 to 8) (size 9 to 14) (size 15 to 20)
#    0.000    1.250    3.750    1.500    3.500    2.000 
#    6.750    0.000    0.000    0.000    0.000    0.000 
#    0.000    0.000    0.000    0.000    0.000    0.000 
#
# Total GULP energy -89274.364250 kJ/mol
# GULP energy per Si atom -5579.647766 kJ/mol
# Density = 2.161666 g / cm^3
# Si number density = 21.665970 Si / 1000 Ang^3
#
#
#
# Elastic Constant Matrix: (Units=GPa)
#
#
# Indices 1 2 3 4 5 6 
#
# 1 67.7845 59.7539 13.2862 -8.9675 -0.2718 -14.3102
# 2 59.7539 164.2205 40.1942 -25.3498 -4.0272 -5.2873
# 3 13.2862 40.1942 73.5270 -18.9457 19.1215 -6.1327
# 4 -8.9675 -25.3498 -18.9457 28.8918 -0.5964 -3.1096
# 5 -0.2718 -4.0272 19.1215 -0.5964 31.9068 -2.9684
# 6 -14.3102 -5.2873 -6.1327 -3.1096 -2.9684 40.4076
#
#
#
# Elastic Compliance Matrix: (Units=1/GPa)
#
#
# Indices 1 2 3 4 5 6 
#
# 1 0.023852 -0.008631 0.001843 0.001836 -0.001245 0.007647
# 2 -0.008631 0.011002 -0.004662 0.003813 0.004019 -0.001736
# 3 0.001843 -0.004662 0.022545 0.011344 -0.013561 0.003341
# 4 0.001836 0.003813 0.011344 0.046522 -0.004865 0.006094
# 5 -0.001245 0.004019 -0.013561 -0.004865 0.039928 0.000586
# 6 0.007647 -0.001736 0.003341 0.006094 0.000586 0.028248
#
#
# Mechanical properties :
#
#
# Convention : Reuss Voigt Hill
#
# Bulk Modulus (GPa) = 28.98687 59.11120 44.04904
# Shear Modulus (GPa) = 24.21333 33.06108 28.63720
#
# Velocity S-wave (km/s) = 3.34664 3.91057 3.63955
# Velocity P-wave (km/s) = 5.32366 6.90886 6.16740
#
# Compressibility (1/GPa) = 0.03449837
#
# Stress axis : x y z
#
# Youngs Moduli (GPa) = 41.92493 90.89013 44.35664
#
# Poissons Ratio (x) = 0.78446 -0.08174
# Poissons Ratio (y) = 0.36185 0.20680
# Poissons Ratio (z) = -0.07726 0.42376
#
# Static dielectric constant tensor:
#      x y z
#    x 1.830750 0.019790 0.002680 
#    y 0.019790 1.807010 0.010690 
#    z 0.002680 0.010690 1.786410 
# 
# From -- ./inp_files/371604.got.cif
#   From: 2010.05.17/outbox.cif.g08.bks.cpg/sg2_186_cif.got.tgz:371604.got - 2010.06.03 11:33:40.
