data_PCOD9107568
_publ_section_title
;
Structure prediction by ZEFSAII (Michael W. Deem and Ramdas Pophale) SiO2 
 PCOD9107568
Probable space group: P -1
;
_chemical_formula_sum "Si O2"
_cell_formula_units_Z 15
_cell_length_a 12.842731
_cell_length_b 11.804658
_cell_length_c 8.193473
_cell_angle_alpha 81.962895
_cell_angle_beta 64.266618
_cell_angle_gamma 35.133438
_cell_volume 585.805645
_symmetry_space_group_name_H-M "P -1"
_symmetry_group_IT_number 2
_symmetry_cell_setting 'triclinic'
loop_
_space_group_symop_operation_xyz
x,y,z
-x,-y,-z
loop_
_atom_site_type_symbol
_atom_site_label
_atom_site_fract_x
_atom_site_fract_y
_atom_site_fract_z
Si Si1 0.039094 0.917667 0.668075
Si Si2 0.356756 0.060110 0.722230
Si Si3 0.263444 0.545438 0.759624
Si Si4 0.061896 0.497856 0.725147
Si Si5 0.937898 0.863432 0.214491
Si Si6 0.799333 0.551625 0.720565
Si Si7 0.500000 0.000000 0.000000
Si Si8 0.591965 0.175534 0.859810
O O1 0.817187 0.029992 0.810831
O O2 0.058294 0.012847 0.747131
O O3 0.000000 0.000000 0.500000
O O4 0.241847 0.663402 0.616786
O O5 0.144534 0.319291 0.804621
O O6 0.294115 0.986205 0.722938
O O7 0.500000 0.000000 0.500000
O O8 0.433841 0.001794 0.863714
O O9 0.141316 0.539312 0.763333
O O10 0.492903 0.322020 0.735906
O O11 0.107835 0.714236 0.980351
O O12 0.171964 0.426418 0.485881
O O13 0.820643 0.648953 0.807486
O O14 0.011406 0.702468 0.326447
O O15 0.592612 0.658056 0.907731
O O16 0.401798 0.962198 0.162858
#
# Coordination Sequence:
#
# PCOD9107568 Si02
#       8
#     2   2   2   2   2   2   1   2
#     4  12  28  48  72 103 146 199 251 298 361 445
#     4  11  24  41  71 105 150 190 243 311 366 448
#     4  11  24  45  72 101 146 189 239 310 360 441
#     4  10  20  40  65 107 143 187 238 297 384 427
#     4  10  24  45  67 103 141 197 241 300 373 434
#     4   9  21  39  70 100 145 186 237 308 366 441
#     4  12  24  42  70 112 144 180 248 298 372 440
#     4  11  26  44  71 107 137 196 240 305 368 440
#
# _framework density 25.605761999999999
#
# number of rings (size 3 to 8) (size 9 to 14) (size 15 to 20)
#    0.000    1.333    1.333    2.800    5.600    4.267 
#    0.000    2.667    0.000    0.000    0.000    0.000 
#    0.000    0.000    0.000    0.000    0.000    0.000 
#
# Total GULP energy -83762.516147 kJ/mol
# GULP energy per Si atom -5584.167743 kJ/mol
# Density = 2.554748 g / cm^3
# Si number density = 25.605762 Si / 1000 Ang^3
#
#
#
# Elastic Constant Matrix: (Units=GPa)
#
#
# Indices 1 2 3 4 5 6 
#
# 1 193.7975 57.4209 -6.7284 -6.9434 -0.2343 6.3614
# 2 57.4209 134.4943 13.6357 -54.5484 -1.3492 -18.0774
# 3 -6.7284 13.6357 70.1829 -19.8048 7.2017 -13.4736
# 4 -6.9434 -54.5484 -19.8048 47.8141 -8.3192 1.9319
# 5 -0.2343 -1.3492 7.2017 -8.3192 37.2535 -2.2545
# 6 6.3614 -18.0774 -13.4736 1.9319 -2.2545 47.0434
#
#
#
# Elastic Compliance Matrix: (Units=1/GPa)
#
#
# Indices 1 2 3 4 5 6 
#
# 1 0.006668 -0.005470 -0.000264 -0.005527 -0.001516 -0.002925
# 2 -0.005470 0.020976 0.003669 0.025372 0.006233 0.009108
# 3 -0.000264 0.003669 0.017896 0.011235 -0.000451 0.006088
# 4 -0.005527 0.025372 0.011235 0.055275 0.011783 0.012010
# 5 -0.001516 0.006233 -0.000451 0.011783 0.029985 0.003424
# 6 -0.002925 0.009108 0.006088 0.012010 0.003424 0.026567
#
#
# Mechanical properties :
#
#
# Convention : Reuss Voigt Hill
#
# Bulk Modulus (GPa) = 24.14893 58.57014 41.35954
# Shear Modulus (GPa) = 28.52268 48.69862 38.61065
#
# Velocity S-wave (km/s) = 3.34116 4.36577 3.88737
# Velocity P-wave (km/s) = 4.93315 6.95246 6.02796
#
# Compressibility (1/GPa) = 0.04140970
#
# Stress axis : x y z
#
# Youngs Moduli (GPa) = 149.97579 47.67445 55.87865
#
# Poissons Ratio (x) = 0.26078 0.01473
# Poissons Ratio (y) = 0.82036 -0.20500
# Poissons Ratio (z) = 0.03953 -0.17490
#
# Static dielectric constant tensor:
#      x y z
#    x 2.021980 -0.165360 -0.025080 
#    y -0.165360 2.113710 0.048550 
#    z -0.025080 0.048550 2.052460 
# 
# From -- ./inp_files/257379.got.cif
#   From: 2010.05.17/outbox.cif.g08.bks.cpg/sg2_129_cif.got.tgz:257379.got - 2010.06.03 11:33:40.
