data_PCOD9107305
_publ_section_title
;
Structure prediction by ZEFSAII (Michael W. Deem and Ramdas Pophale) SiO2 
 PCOD9107305
Probable space group: P -1
;
_chemical_formula_sum "Si O2"
_cell_formula_units_Z 15
_cell_length_a 7.180339
_cell_length_b 14.322491
_cell_length_c 11.639986
_cell_angle_alpha 43.368314
_cell_angle_beta 128.686031
_cell_angle_gamma 104.776809
_cell_volume 595.625541
_symmetry_space_group_name_H-M "P -1"
_symmetry_group_IT_number 2
_symmetry_cell_setting 'triclinic'
loop_
_space_group_symop_operation_xyz
x,y,z
-x,-y,-z
loop_
_atom_site_type_symbol
_atom_site_label
_atom_site_fract_x
_atom_site_fract_y
_atom_site_fract_z
Si Si1 0.246047 0.097612 0.493827
Si Si2 0.943086 0.062215 0.747824
Si Si3 0.500000 0.000000 0.500000
Si Si4 0.792885 0.533657 0.619066
Si Si5 0.739708 0.373935 0.291430
Si Si6 0.639703 0.223491 0.179004
Si Si7 0.460484 0.442555 0.729927
Si Si8 0.594375 0.142240 0.766488
O O1 0.361788 0.160183 0.380793
O O2 0.390947 0.926083 0.654683
O O3 0.380155 0.092477 0.669760
O O4 0.944451 0.160054 0.326776
O O5 0.920744 0.207914 0.542483
O O6 0.797985 0.120001 0.761409
O O7 0.791526 0.978918 0.694316
O O8 0.234378 0.956273 0.979296
O O9 0.762993 0.504321 0.499117
O O10 0.562640 0.691116 0.409337
O O11 0.062444 0.547262 0.733458
O O12 0.715873 0.429963 0.768922
O O13 0.594171 0.345616 0.149295
O O14 0.587362 0.443730 0.285646
O O15 0.490907 0.294090 0.943118
#
# Coordination Sequence:
#
# PCOD9107305 Si02
#       8
#     2   2   1   2   2   2   2   2
#     4  10  22  41  64 103 133 169 224 284 337 409
#     4  10  22  38  70 101 137 175 218 280 346 402
#     4  10  20  40  64 102 140 168 214 286 336 406
#     4  11  25  46  69  97 137 180 231 288 330 408
#     4  12  23  46  68 100 137 180 228 284 333 414
#     4  11  24  43  68  98 135 177 225 280 349 400
#     4  11  27  47  66  96 139 182 233 281 338 406
#     4  10  21  42  67 100 136 175 222 275 347 399
#
# _framework density 25.183608
#
# number of rings (size 3 to 8) (size 9 to 14) (size 15 to 20)
#    0.000    1.333    4.000    0.800    3.733    1.067 
#    2.400    0.000    0.000    0.000    0.000    0.000 
#    0.000    0.000    0.000    0.000    0.000    0.000 
#
# Total GULP energy -83696.431341 kJ/mol
# GULP energy per Si atom -5579.762089 kJ/mol
# Density = 2.512629 g / cm^3
# Si number density = 25.183608 Si / 1000 Ang^3
#
#
#
# Elastic Constant Matrix: (Units=GPa)
#
#
# Indices 1 2 3 4 5 6 
#
# 1 113.4111 20.5219 27.9093 7.8066 -1.2173 -10.6242
# 2 20.5219 110.8650 17.3198 17.0390 -3.3150 -19.1682
# 3 27.9093 17.3198 99.2745 10.1780 0.8331 -7.9524
# 4 7.8066 17.0390 10.1780 23.1985 -1.7778 0.5363
# 5 -1.2173 -3.3150 0.8331 -1.7778 39.6150 5.2171
# 6 -10.6242 -19.1682 -7.9524 0.5363 5.2171 38.5081
#
#
#
# Elastic Compliance Matrix: (Units=1/GPa)
#
#
# Indices 1 2 3 4 5 6 
#
# 1 0.009828 -0.000886 -0.002288 -0.001698 -0.000041 0.001827
# 2 -0.000886 0.011436 -0.000483 -0.008027 -0.000142 0.005479
# 3 -0.002288 -0.000483 0.011341 -0.003946 -0.000740 0.001626
# 4 -0.001698 -0.008027 -0.003946 0.051644 0.002511 -0.006339
# 5 -0.000041 -0.000142 -0.000740 0.002511 0.025855 -0.003773
# 6 0.001827 0.005479 0.001626 -0.006339 -0.003773 0.030135
#
#
# Mechanical properties :
#
#
# Convention : Reuss Voigt Hill
#
# Bulk Modulus (GPa) = 39.53740 50.56140 45.04940
# Shear Modulus (GPa) = 32.05443 37.45098 34.75271
#
# Velocity S-wave (km/s) = 3.57154 3.86050 3.71883
# Velocity P-wave (km/s) = 5.72203 6.32392 6.03049
#
# Compressibility (1/GPa) = 0.02529251
#
# Stress axis : x y z
#
# Youngs Moduli (GPa) = 101.74554 87.44061 88.17209
#
# Poissons Ratio (x) = 0.07749 0.20171
# Poissons Ratio (y) = 0.09017 0.04258
# Poissons Ratio (z) = 0.23276 0.04223
#
# Static dielectric constant tensor:
#      x y z
#    x 2.063250 0.020870 -0.045180 
#    y 0.020870 2.051540 -0.006540 
#    z -0.045180 -0.006540 2.025080 
# 
# From -- ./inp_files/282231.got.cif
#   From: 2010.05.17/outbox.cif.g08.bks.cpg/sg2_142_cif.got.tgz:282231.got - 2010.06.03 11:33:40.
