data_PCOD9107523
_publ_section_title
;
Structure prediction by ZEFSAII (Michael W. Deem and Ramdas Pophale) SiO2 
 PCOD9107523
Probable space group: P -1
;
_chemical_formula_sum "Si O2"
_cell_formula_units_Z 14
_cell_length_a 5.730218
_cell_length_b 16.355836
_cell_length_c 10.370775
_cell_angle_alpha 130.331911
_cell_angle_beta 118.032538
_cell_angle_gamma 95.180899
_cell_volume 529.838455
_symmetry_space_group_name_H-M "P -1"
_symmetry_group_IT_number 2
_symmetry_cell_setting 'triclinic'
loop_
_space_group_symop_operation_xyz
x,y,z
-x,-y,-z
loop_
_atom_site_type_symbol
_atom_site_label
_atom_site_fract_x
_atom_site_fract_y
_atom_site_fract_z
Si Si1 0.717138 0.527027 0.453312
Si Si2 0.804862 0.237593 0.064487
Si Si3 0.665880 0.354234 0.773368
Si Si4 0.719977 0.884430 0.710143
Si Si5 0.689803 0.024405 0.207602
Si Si6 0.557736 0.659001 0.037885
Si Si7 0.192112 0.849061 0.280707
O O1 0.500000 0.500000 0.500000
O O2 0.493049 0.447908 0.190256
O O3 0.000000 0.500000 0.500000
O O4 0.954102 0.686028 0.677360
O O5 0.938750 0.191407 0.942342
O O6 0.472036 0.114522 0.907872
O O7 0.733248 0.330324 0.066413
O O8 0.496030 0.277673 0.516555
O O9 0.722746 0.249685 0.745504
O O10 0.457660 0.367370 0.841774
O O11 0.000000 0.500000 0.000000
O O12 0.436374 0.906023 0.669510
O O13 0.942786 0.914651 0.672903
O O14 0.000000 0.000000 0.000000
O O15 0.500000 0.000000 0.000000
O O16 0.885370 0.803623 0.242298
O O17 0.500000 0.000000 0.500000
#
# Coordination Sequence:
#
# PCOD9107523 Si02
#       7
#     2   2   2   2   2   2   2
#     4  10  20  40  64  96 137 175 229 288 355 427
#     4  10  22  38  67  99 138 185 237 303 358 437
#     4  11  27  47  70 105 149 194 245 311 376 448
#     4  10  24  47  70 100 141 187 246 298 367 438
#     4  10  23  42  67 104 139 186 241 303 365 431
#     4  10  24  42  67 105 139 191 242 301 374 440
#     4  11  24  42  70 103 142 189 247 298 374 438
#
# _framework density 26.423148000000001
#
# number of rings (size 3 to 8) (size 9 to 14) (size 15 to 20)
#    0.000    1.714    1.429    0.857    8.000    4.000 
#    5.143    0.000    0.000    0.000    0.000    0.000 
#    0.000    0.000    0.000    0.000    0.000    0.000 
#
# Total GULP energy -77978.436542 kJ/mol
# GULP energy per Si atom -5569.888324 kJ/mol
# Density = 2.636301 g / cm^3
# Si number density = 26.423148 Si / 1000 Ang^3
#
#
#
# Elastic Constant Matrix: (Units=GPa)
#
#
# Indices 1 2 3 4 5 6 
#
# 1 165.8558 37.6942 58.9407 1.2908 3.9606 23.5713
# 2 37.6942 58.1807 39.5990 -3.6883 -7.9056 3.7285
# 3 58.9407 39.5990 240.2335 5.5339 -15.7099 19.2245
# 4 1.2908 -3.6883 5.5339 37.9251 10.5685 13.1308
# 5 3.9606 -7.9056 -15.7099 10.5685 42.3847 -1.5979
# 6 23.5713 3.7285 19.2245 13.1308 -1.5979 55.3479
#
#
#
# Elastic Compliance Matrix: (Units=1/GPa)
#
#
# Indices 1 2 3 4 5 6 
#
# 1 0.007919 -0.004398 -0.001160 0.001188 -0.002401 -0.003024
# 2 -0.004398 0.022198 -0.002475 0.001397 0.003324 0.001002
# 3 -0.001160 -0.002475 0.005060 -0.001172 0.001786 -0.000767
# 4 0.001188 0.001397 -0.001172 0.031766 -0.008506 -0.007975
# 5 -0.002401 0.003324 0.001786 -0.008506 0.027333 0.002985
# 6 -0.003024 0.001002 -0.000767 -0.007975 0.002985 0.021533
#
#
# Mechanical properties :
#
#
# Convention : Reuss Voigt Hill
#
# Bulk Modulus (GPa) = 52.32677 81.85978 67.09327
# Shear Modulus (GPa) = 36.16761 49.00061 42.58411
#
# Velocity S-wave (km/s) = 3.70372 4.31101 4.01886
# Velocity P-wave (km/s) = 6.17547 7.47177 6.85434
#
# Compressibility (1/GPa) = 0.01911068
#
# Stress axis : x y z
#
# Youngs Moduli (GPa) = 126.27652 45.04992 197.61217
#
# Poissons Ratio (x) = 0.19813 0.22930
# Poissons Ratio (y) = 0.55536 0.48908
# Poissons Ratio (z) = 0.14652 0.11150
#
# Static dielectric constant tensor:
#      x y z
#    x 2.135780 -0.052310 -0.135100 
#    y -0.052310 2.111020 -0.022310 
#    z -0.135100 -0.022310 1.941290 
# 
# From -- ./inp_files/370457.got.cif
#   From: 2010.05.17/outbox.cif.g08.bks.cpg/sg2_186_cif.got.tgz:370457.got - 2010.06.03 11:33:40.
