data_PCOD9107937
_publ_section_title
;
Structure prediction by ZEFSAII (Michael W. Deem and Ramdas Pophale) SiO2 
 PCOD9107937
Probable space group: P -1
;
_chemical_formula_sum "Si O2"
_cell_formula_units_Z 16
_cell_length_a 19.225265
_cell_length_b 12.021620
_cell_length_c 13.041842
_cell_angle_alpha 124.422646
_cell_angle_beta 18.885718
_cell_angle_gamma 124.082417
_cell_volume 801.115078
_symmetry_space_group_name_H-M "P -1"
_symmetry_group_IT_number 2
_symmetry_cell_setting 'triclinic'
loop_
_space_group_symop_operation_xyz
x,y,z
-x,-y,-z
loop_
_atom_site_type_symbol
_atom_site_label
_atom_site_fract_x
_atom_site_fract_y
_atom_site_fract_z
Si Si1 0.476721 0.838870 0.706230
Si Si2 0.056753 0.689703 0.577519
Si Si3 0.749090 0.500512 0.629107
Si Si4 0.205152 0.589284 0.710975
Si Si5 0.633612 0.597111 0.224644
Si Si6 0.139000 0.662901 0.210261
Si Si7 0.290763 0.915082 0.798798
Si Si8 0.094862 0.988711 0.746650
O O1 0.574629 0.712235 0.445713
O O2 0.358841 0.921557 0.826715
O O3 0.679485 0.919682 0.519991
O O4 0.292459 0.782976 0.011759
O O5 0.156881 0.579075 0.449343
O O6 0.121965 0.674585 0.361939
O O7 0.135189 0.835255 0.588347
O O8 0.799497 0.666273 0.944827
O O9 0.788870 0.431542 0.429594
O O10 0.895369 0.643856 0.497644
O O11 0.500000 0.500000 0.000000
O O12 0.416463 0.537161 0.441124
O O13 0.239518 0.752072 0.766490
O O14 0.000000 0.500000 0.000000
O O15 0.751268 0.474440 0.044183
O O16 0.500000 0.000000 0.500000
O O17 0.081132 0.973785 0.072410
O O18 0.000000 0.000000 0.000000
#
# Coordination Sequence:
#
# PCOD9107937 Si02
#       8
#     2   2   2   2   2   2   2   2
#     4  11  24  41  66  97 129 168 214 271 324 375
#     4  11  23  42  64  92 125 173 218 255 317 402
#     4  11  22  40  65  93 127 168 211 260 326 397
#     4  11  23  37  63 102 128 159 216 280 326 372
#     4  10  20  40  66  91 127 167 208 263 323 389
#     4  11  24  41  62  93 134 163 208 269 336 377
#     4  11  23  40  64  97 130 168 222 267 317 396
#     4  12  22  42  69  91 124 174 222 260 316 392
#
# _framework density 19.972161
#
# number of rings (size 3 to 8) (size 9 to 14) (size 15 to 20)
#    0.000    1.000    2.500    6.375    3.500    0.500 
#    2.250    0.625    0.000    0.000    0.000    0.000 
#    0.000    0.000    0.000    0.000    0.000    0.000 
#
# Total GULP energy -89328.602417 kJ/mol
# GULP energy per Si atom -5583.037651 kJ/mol
# Density = 1.992670 g / cm^3
# Si number density = 19.972161 Si / 1000 Ang^3
#
#
#
# Elastic Constant Matrix: (Units=GPa)
#
#
# Indices 1 2 3 4 5 6 
#
# 1 80.9717 24.2185 54.0866 -25.2835 -11.4809 5.3636
# 2 24.2185 87.3017 47.0251 -40.1757 1.8201 9.9456
# 3 54.0866 47.0251 131.4713 -51.0479 -9.3231 1.7730
# 4 -25.2835 -40.1757 -51.0479 44.2541 10.5518 -0.7733
# 5 -11.4809 1.8201 -9.3231 10.5518 30.6434 -4.7260
# 6 5.3636 9.9456 1.7730 -0.7733 -4.7260 29.6859
#
#
#
# Elastic Compliance Matrix: (Units=1/GPa)
#
#
# Indices 1 2 3 4 5 6 
#
# 1 0.017879 -0.000968 -0.006272 0.001068 0.004197 -0.001835
# 2 -0.000968 0.023891 0.000665 0.024462 -0.011398 -0.009046
# 3 -0.006272 0.000665 0.016048 0.016277 -0.003130 -0.000123
# 4 0.001068 0.024462 0.016277 0.069150 -0.021609 -0.011000
# 5 0.004197 -0.011398 -0.003130 -0.021609 0.042837 0.009504
# 6 -0.001835 -0.009046 -0.000123 -0.011000 0.009504 0.038282
#
#
# Mechanical properties :
#
#
# Convention : Reuss Voigt Hill
#
# Bulk Modulus (GPa) = 22.38758 61.15612 41.77185
# Shear Modulus (GPa) = 21.17502 32.54431 26.85967
#
# Velocity S-wave (km/s) = 3.25964 4.04107 3.67121
# Velocity P-wave (km/s) = 5.03992 7.24298 6.23945
#
# Compressibility (1/GPa) = 0.04466762
#
# Stress axis : x y z
#
# Youngs Moduli (GPa) = 55.93051 41.85754 62.31271
#
# Poissons Ratio (x) = 0.04053 0.39082
# Poissons Ratio (y) = 0.05416 -0.04145
# Poissons Ratio (z) = 0.35079 -0.02784
#
# Static dielectric constant tensor:
#      x y z
#    x 1.693140 -0.006320 -0.026400 
#    y -0.006320 1.746450 -0.023850 
#    z -0.026400 -0.023850 1.737520 
# 
# From -- ./inp_files/282944.got.cif
#   From: 2010.05.17/outbox.cif.g08.bks.cpg/sg2_142_cif.got.tgz:282944.got - 2010.06.03 11:33:40.
