data_PCOD9107716
_publ_section_title
;
Structure prediction by ZEFSAII (Michael W. Deem and Ramdas Pophale) SiO2 
 PCOD9107716
Probable space group: P -1
;
_chemical_formula_sum "Si O2"
_cell_formula_units_Z 16
_cell_length_a 16.450273
_cell_length_b 19.366742
_cell_length_c 25.612554
_cell_angle_alpha 17.992092
_cell_angle_beta 18.614906
_cell_angle_gamma 27.667791
_cell_volume 794.297444
_symmetry_space_group_name_H-M "P -1"
_symmetry_group_IT_number 2
_symmetry_cell_setting 'triclinic'
loop_
_space_group_symop_operation_xyz
x,y,z
-x,-y,-z
loop_
_atom_site_type_symbol
_atom_site_label
_atom_site_fract_x
_atom_site_fract_y
_atom_site_fract_z
Si Si1 0.856322 0.250923 0.583950
Si Si2 0.252316 0.318198 0.795442
Si Si3 0.650788 0.873426 0.340716
Si Si4 0.860393 0.765859 0.188080
Si Si5 0.701851 0.321221 0.147605
Si Si6 0.294782 0.513366 0.331037
Si Si7 0.518295 0.066238 0.015889
Si Si8 0.659112 0.908197 0.549402
O O1 0.628004 0.206444 0.797476
O O2 0.879948 0.501440 0.367451
O O3 0.110159 0.219785 0.483560
O O4 0.770808 0.058043 0.731135
O O5 0.500000 0.500000 0.500000
O O6 0.184966 0.174941 0.886431
O O7 0.001356 0.429289 0.883123
O O8 0.328124 0.144250 0.916953
O O9 0.712129 0.665615 0.488333
O O10 0.642789 0.807472 0.332420
O O11 0.410416 0.958474 0.453125
O O12 0.881524 0.082087 0.058015
O O13 0.491296 0.440123 0.220831
O O14 0.583485 0.257332 0.208461
O O15 0.722643 0.091841 0.332497
O O16 0.419325 0.758497 0.100953
O O17 0.000000 0.500000 0.500000
#
# Coordination Sequence:
#
# PCOD9107716 Si02
#       8
#     2   2   2   2   2   2   2   2
#     4  11  22  40  64  93 127 168 212 262 317 383
#     4  12  23  44  65  90 132 177 210 259 325 390
#     4  10  22  39  62  92 128 163 206 267 323 374
#     4  11  22  40  61  93 128 164 212 254 328 376
#     4  10  22  39  65  98 124 169 217 263 319 387
#     4  11  22  40  68  98 128 164 218 272 315 375
#     4  11  23  41  64  93 125 172 217 255 318 388
#     4  10  20  40  65  93 127 160 220 268 316 377
#
# _framework density 20.143587
#
# number of rings (size 3 to 8) (size 9 to 14) (size 15 to 20)
#    0.000    1.250    5.000    1.500    1.750    0.500 
#    2.250    1.875    0.000    0.000    0.000    0.000 
#    0.000    0.000    0.000    0.000    0.000    0.000 
#
# Total GULP energy -89248.738770 kJ/mol
# GULP energy per Si atom -5578.046173 kJ/mol
# Density = 2.009774 g / cm^3
# Si number density = 20.143587 Si / 1000 Ang^3
#
#
#
# Elastic Constant Matrix: (Units=GPa)
#
#
# Indices 1 2 3 4 5 6 
#
# 1 75.5772 26.3199 6.4184 5.9801 -6.2184 2.3349
# 2 26.3199 64.7728 29.9870 4.3991 -6.9205 -1.7064
# 3 6.4184 29.9870 90.4911 -2.1358 -11.5930 -9.6624
# 4 5.9801 4.3991 -2.1358 32.8901 0.6404 -0.4193
# 5 -6.2184 -6.9205 -11.5930 0.6404 32.0315 2.8735
# 6 2.3349 -1.7064 -9.6624 -0.4193 2.8735 25.3880
#
#
#
# Elastic Compliance Matrix: (Units=1/GPa)
#
#
# Indices 1 2 3 4 5 6 
#
# 1 0.015841 -0.006630 0.001126 -0.001987 0.002248 -0.001761
# 2 -0.006630 0.021434 -0.006615 -0.002119 0.001048 -0.000621
# 3 0.001126 -0.006615 0.014121 0.001586 0.003468 0.004460
# 4 -0.001987 -0.002119 0.001586 0.031188 -0.001007 0.001273
# 5 0.002248 0.001048 0.003468 -0.001007 0.033392 -0.002612
# 6 -0.001761 -0.000621 0.004460 0.001273 -0.002612 0.041523
#
#
# Mechanical properties :
#
#
# Convention : Reuss Voigt Hill
#
# Bulk Modulus (GPa) = 36.81811 39.58796 38.20303
# Shear Modulus (GPa) = 26.20701 29.26965 27.73833
#
# Velocity S-wave (km/s) = 3.61086 3.81603 3.71486
# Velocity P-wave (km/s) = 5.97511 6.25393 6.11611
#
# Compressibility (1/GPa) = 0.02716055
#
# Stress axis : x y z
#
# Youngs Moduli (GPa) = 63.12637 46.65401 70.81702
#
# Poissons Ratio (x) = 0.30930 -0.07977
# Poissons Ratio (y) = 0.41851 0.46844
# Poissons Ratio (z) = -0.07111 0.30860
#
# Static dielectric constant tensor:
#      x y z
#    x 1.741380 0.034650 -0.011520 
#    y 0.034650 1.715780 0.017090 
#    z -0.011520 0.017090 1.733970 
# 
# From -- ./inp_files/244502.got.cif
#   From: 2010.05.17/outbox.cif.g08.bks.cpg/sg2_123_cif.got.tgz:244502.got - 2010.06.03 11:33:40.
