data_PCOD9107130
_publ_section_title
;
Structure prediction by ZEFSAII (Michael W. Deem and Ramdas Pophale) SiO2 
 PCOD9107130
Probable space group: P -1
;
_chemical_formula_sum "Si O2"
_cell_formula_units_Z 16
_cell_length_a 8.722609
_cell_length_b 17.726858
_cell_length_c 14.550378
_cell_angle_alpha 41.030521
_cell_angle_beta 39.372402
_cell_angle_gamma 34.336026
_cell_volume 761.509304
_symmetry_space_group_name_H-M "P -1"
_symmetry_group_IT_number 2
_symmetry_cell_setting 'triclinic'
loop_
_space_group_symop_operation_xyz
x,y,z
-x,-y,-z
loop_
_atom_site_type_symbol
_atom_site_label
_atom_site_fract_x
_atom_site_fract_y
_atom_site_fract_z
Si Si1 0.354753 0.680089 0.239783
Si Si2 0.201884 0.052156 0.828288
Si Si3 0.337760 0.255685 0.113943
Si Si4 0.666664 0.360824 0.329955
Si Si5 0.640144 0.363284 0.995218
Si Si6 0.591678 0.642589 0.361671
Si Si7 0.267268 0.132561 0.925062
Si Si8 0.841342 0.520660 0.651566
O O1 0.480061 0.528626 0.278887
O O2 0.432454 0.642690 0.344752
O O3 0.010351 0.807067 0.263164
O O4 0.538544 0.728665 0.055082
O O5 0.291480 0.088282 0.848238
O O6 0.481747 0.908254 0.788529
O O7 0.000000 0.000000 0.000000
O O8 0.999868 0.310686 0.208433
O O9 0.410213 0.339229 0.075854
O O10 0.609807 0.308667 0.498589
O O11 0.498163 0.347298 0.334042
O O12 0.804739 0.398506 0.811748
O O13 0.921098 0.214652 0.040533
O O14 0.500000 0.500000 0.000000
O O15 0.650600 0.757985 0.204820
O O16 0.919491 0.499221 0.366658
O O17 0.500000 0.000000 0.000000
O O18 0.000000 0.500000 0.500000
#
# Coordination Sequence:
#
# PCOD9107130 Si02
#       8
#     2   2   2   2   2   2   2   2
#     4  11  20  39  66  89 121 169 213 248 301 375
#     4  10  20  40  63  87 121 167 209 248 301 374
#     4  11  23  39  64  94 128 164 205 259 317 364
#     4  11  22  39  61  93 130 159 203 264 318 359
#     4  11  23  38  61  97 128 153 205 268 315 357
#     4  10  23  37  62  95 124 160 214 255 305 373
#     4  11  21  40  66  89 120 165 216 251 297 381
#     4   9  20  39  57  83 127 163 198 247 307 371
#
# _framework density 21.010905000000001
#
# number of rings (size 3 to 8) (size 9 to 14) (size 15 to 20)
#    0.000    1.500    3.750    3.000    3.500    1.000 
#    0.000    1.250    0.000    0.000    0.000    0.000 
#    0.000    0.000    0.000    0.000    0.000    0.000 
#
# Total GULP energy -89110.713059 kJ/mol
# GULP energy per Si atom -5569.419566 kJ/mol
# Density = 2.096308 g / cm^3
# Si number density = 21.010905 Si / 1000 Ang^3
#
#
#
# Elastic Constant Matrix: (Units=GPa)
#
#
# Indices 1 2 3 4 5 6 
#
# 1 127.8695 65.9143 16.7785 -0.6620 13.0238 -32.6130
# 2 65.9143 117.6748 28.9077 -6.6220 6.3235 -26.4201
# 3 16.7785 28.9077 51.0506 5.1303 2.9517 -27.2155
# 4 -0.6620 -6.6220 5.1303 17.8106 -14.9134 0.2329
# 5 13.0238 6.3235 2.9517 -14.9134 34.2561 -4.5596
# 6 -32.6130 -26.4201 -27.2155 0.2329 -4.5596 42.6130
#
#
#
# Elastic Compliance Matrix: (Units=1/GPa)
#
#
# Indices 1 2 3 4 5 6 
#
# 1 0.013921 -0.007405 0.006006 -0.010685 -0.007882 0.009114
# 2 -0.007405 0.014790 -0.008191 0.012800 0.006212 -0.001134
# 3 0.006006 -0.008191 0.036970 -0.022996 -0.011030 0.022075
# 4 -0.010685 0.012800 -0.022996 0.108913 0.049738 -0.010201
# 5 -0.007882 0.006212 -0.011030 0.049738 0.053138 -0.003811
# 6 0.009114 -0.001134 0.022075 -0.010201 -0.003811 0.043486
#
#
# Mechanical properties :
#
#
# Convention : Reuss Voigt Hill
#
# Bulk Modulus (GPa) = 21.50496 57.75511 39.63003
# Shear Modulus (GPa) = 16.34527 31.26888 23.80707
#
# Velocity S-wave (km/s) = 2.79219 3.86193 3.36978
# Velocity P-wave (km/s) = 4.54450 6.88722 5.83465
#
# Compressibility (1/GPa) = 0.04650090
#
# Stress axis : x y z
#
# Youngs Moduli (GPa) = 71.83145 67.61445 27.04917
#
# Poissons Ratio (x) = 0.50067 -0.16245
# Poissons Ratio (y) = 0.53189 0.22156
# Poissons Ratio (z) = -0.43141 0.55384
#
# Static dielectric constant tensor:
#      x y z
#    x 1.903000 -0.054170 0.006840 
#    y -0.054170 1.813490 -0.016550 
#    z 0.006840 -0.016550 1.775060 
# 
# From -- ./inp_files/402210.got.cif
#   From: 2010.05.17/outbox.cif.g08.bks.cpg/sg2_202_cif.got.tgz:402210.got - 2010.06.03 11:33:40.
