data_PCOD9107121
_publ_section_title
;
Structure prediction by ZEFSAII (Michael W. Deem and Ramdas Pophale) SiO2 
 PCOD9107121
Probable space group: P -1
;
_chemical_formula_sum "Si O2"
_cell_formula_units_Z 16
_cell_length_a 8.704400
_cell_length_b 10.969117
_cell_length_c 18.604715
_cell_angle_alpha 50.152456
_cell_angle_beta 99.068660
_cell_angle_gamma 137.679848
_cell_volume 726.454089
_symmetry_space_group_name_H-M "P -1"
_symmetry_group_IT_number 2
_symmetry_cell_setting 'triclinic'
loop_
_space_group_symop_operation_xyz
x,y,z
-x,-y,-z
loop_
_atom_site_type_symbol
_atom_site_label
_atom_site_fract_x
_atom_site_fract_y
_atom_site_fract_z
Si Si1 0.585498 0.729378 0.657428
Si Si2 0.763037 0.533735 0.761997
Si Si3 0.699091 0.286082 0.097193
Si Si4 0.123713 0.410949 0.409281
Si Si5 0.685902 0.279041 0.458754
Si Si6 0.295285 0.447050 0.885422
Si Si7 0.380892 0.074706 0.664954
Si Si8 0.655434 0.886944 0.989327
O O1 0.601432 0.555066 0.719214
O O2 0.339172 0.582981 0.641498
O O3 0.513980 0.705381 0.744246
O O4 0.889928 0.069692 0.529224
O O5 0.842832 0.520934 0.697964
O O6 0.556809 0.262377 0.902706
O O7 0.052100 0.832410 0.712676
O O8 0.716217 0.462799 0.077208
O O9 0.455564 0.105673 0.087769
O O10 0.632661 0.090523 0.222598
O O11 0.000000 0.500000 0.000000
O O12 0.425196 0.634802 0.385743
O O13 0.987875 0.449724 0.422409
O O14 0.535375 0.173688 0.563355
O O15 0.500000 0.000000 0.500000
O O16 0.368319 0.323812 0.948613
O O17 0.982425 0.192828 0.921404
#
# Coordination Sequence:
#
# PCOD9107121 Si02
#       8
#     2   2   2   2   2   2   2   2
#     4  10  22  43  67  92 125 174 206 265 319 373
#     4  11  23  43  64  94 132 160 215 265 317 373
#     4  12  25  40  65  96 130 168 211 264 319 371
#     4  11  24  40  67  93 130 165 211 261 317 382
#     4  10  20  40  63  86 127 164 204 255 312 373
#     4  10  24  45  69  92 128 168 219 261 317 376
#     4  12  25  40  63  97 132 167 210 258 320 383
#     4  10  24  45  68  94 124 173 215 264 314 380
#
# _framework density 22.024792999999999
#
# number of rings (size 3 to 8) (size 9 to 14) (size 15 to 20)
#    0.000    1.250    3.750    2.625    3.500    1.000 
#    0.000    0.000    0.000    0.000    0.000    0.000 
#    0.000    0.000    0.000    0.000    0.000    0.000 
#
# Total GULP energy -89458.996612 kJ/mol
# GULP energy per Si atom -5591.187288 kJ/mol
# Density = 2.197466 g / cm^3
# Si number density = 22.024793 Si / 1000 Ang^3
#
#
#
# Elastic Constant Matrix: (Units=GPa)
#
#
# Indices 1 2 3 4 5 6 
#
# 1 32.9583 -5.8225 18.1529 14.2210 -5.1039 9.0182
# 2 -5.8225 61.9909 18.2730 15.0700 -2.4102 4.3566
# 3 18.1529 18.2730 67.2671 19.5734 -11.0155 -9.3354
# 4 14.2210 15.0700 19.5734 28.9364 5.4875 3.2874
# 5 -5.1039 -2.4102 -11.0155 5.4875 32.1427 8.6654
# 6 9.0182 4.3566 -9.3354 3.2874 8.6654 33.5360
#
#
#
# Elastic Compliance Matrix: (Units=1/GPa)
#
#
# Indices 1 2 3 4 5 6 
#
# 1 0.068715 0.022315 -0.014204 -0.036735 0.021333 -0.027242
# 2 0.022315 0.026562 -0.007431 -0.020244 0.009690 -0.012039
# 3 -0.014204 -0.007431 0.025510 -0.008532 0.004253 0.011624
# 4 -0.036735 -0.020244 -0.008532 0.072631 -0.025246 0.009537
# 5 0.021333 0.009690 0.004253 -0.025246 0.045029 -0.014972
# 6 -0.027242 -0.012039 0.011624 0.009537 -0.014972 0.044878
#
#
# Mechanical properties :
#
#
# Convention : Reuss Voigt Hill
#
# Bulk Modulus (GPa) = 8.18680 24.82480 16.50580
# Shear Modulus (GPa) = 15.49524 27.69722 21.59623
#
# Velocity S-wave (km/s) = 2.65530 3.55004 3.13476
# Velocity P-wave (km/s) = 3.62298 5.30089 4.54013
#
# Compressibility (1/GPa) = 0.12214779
#
# Stress axis : x y z
#
# Youngs Moduli (GPa) = 14.55285 37.64793 39.20032
#
# Poissons Ratio (x) = -0.84012 0.55679
# Poissons Ratio (y) = -0.32475 0.29130
# Poissons Ratio (z) = 0.20670 0.27976
#
# Static dielectric constant tensor:
#      x y z
#    x 1.854760 -0.003540 -0.009430 
#    y -0.003540 1.799350 -0.014300 
#    z -0.009430 -0.014300 1.810900 
# 
# From -- ./inp_files/559784.got.cif
#   From: 2010.05.17/outbox.cif.g08.bks.cpg/sg2_280_cif.got.tgz:559784.got - 2010.06.03 11:33:40.
