data_PCOD9107861
_publ_section_title
;
Structure prediction by ZEFSAII (Michael W. Deem and Ramdas Pophale) SiO2 
 PCOD9107861
Probable space group: P -1
;
_chemical_formula_sum "Si O2"
_cell_formula_units_Z 16
_cell_length_a 17.264180
_cell_length_b 7.565655
_cell_length_c 6.958890
_cell_angle_alpha 69.763878
_cell_angle_beta 48.546878
_cell_angle_gamma 75.138891
_cell_volume 638.705597
_symmetry_space_group_name_H-M "P -1"
_symmetry_group_IT_number 2
_symmetry_cell_setting 'triclinic'
loop_
_space_group_symop_operation_xyz
x,y,z
-x,-y,-z
loop_
_atom_site_type_symbol
_atom_site_label
_atom_site_fract_x
_atom_site_fract_y
_atom_site_fract_z
Si Si1 0.665478 0.114053 0.665339
Si Si2 0.773835 0.335413 0.876842
Si Si3 0.437404 0.848344 0.778901
Si Si4 0.894038 0.196227 0.395225
Si Si5 0.299485 0.276310 0.253301
Si Si6 0.509562 0.447428 0.722800
Si Si7 0.081693 0.216821 0.459745
Si Si8 0.929921 0.453386 0.893830
O O1 0.781133 0.163377 0.502354
O O2 0.607529 0.306710 0.628098
O O3 0.674283 0.918856 0.602322
O O4 0.601784 0.070259 0.982947
O O5 0.863940 0.224876 0.656327
O O6 0.745055 0.510782 0.711306
O O7 0.826227 0.400173 0.963575
O O8 0.670312 0.220078 0.113819
O O9 0.503516 0.648346 0.769064
O O10 0.500000 0.000000 0.500000
O O11 0.953046 0.993295 0.364118
O O12 0.928834 0.365222 0.139534
O O13 0.205882 0.215026 0.291589
O O14 0.408919 0.331544 0.972786
O O15 0.500000 0.500000 0.500000
O O16 0.065059 0.322591 0.242544
O O17 0.025298 0.351459 0.659958
#
# Coordination Sequence:
#
# PCOD9107861 Si02
#       8
#     2   2   2   2   2   2   2   2
#     4  10  21  37  58  84 114 160 194 243 303 350
#     4   9  21  39  62  91 120 156 206 248 293 368
#     4  10  21  39  57  84 122 153 197 250 292 353
#     4  10  21  39  62  87 126 156 203 253 300 359
#     4   9  19  38  58  80 123 148 197 251 286 355
#     4  11  22  34  59  86 116 158 197 238 296 362
#     4   9  20  38  61  92 122 158 203 253 300 364
#     4  10  20  40  66  86 123 164 197 251 314 350
#
# _framework density 25.050664999999999
#
# number of rings (size 3 to 8) (size 9 to 14) (size 15 to 20)
#    0.000    2.250    0.000    1.875    5.250    0.500 
#    2.250    9.375    0.000    0.000    0.000    0.000 
#    0.000    0.000    0.000    0.000    0.000    0.000 
#
# Total GULP energy -89257.348989 kJ/mol
# GULP energy per Si atom -5578.584312 kJ/mol
# Density = 2.499365 g / cm^3
# Si number density = 25.050665 Si / 1000 Ang^3
#
#
#
# Elastic Constant Matrix: (Units=GPa)
#
#
# Indices 1 2 3 4 5 6 
#
# 1 69.8777 26.3373 40.8719 -14.2112 -10.9676 -18.9217
# 2 26.3373 166.0314 45.5417 -32.1191 -11.1619 -25.6878
# 3 40.8719 45.5417 128.8535 -37.8936 -4.3357 -5.4438
# 4 -14.2112 -32.1191 -37.8936 44.8240 3.3619 -4.1049
# 5 -10.9676 -11.1619 -4.3357 3.3619 32.9854 -6.0722
# 6 -18.9217 -25.6878 -5.4438 -4.1049 -6.0722 43.8518
#
#
#
# Elastic Compliance Matrix: (Units=1/GPa)
#
#
# Indices 1 2 3 4 5 6 
#
# 1 0.022273 0.000938 -0.005674 0.003292 0.008660 0.010963
# 2 0.000938 0.008525 -0.001266 0.005639 0.003610 0.006269
# 3 -0.005674 -0.001266 0.012122 0.007559 -0.001716 -0.001215
# 4 0.003292 0.005639 0.007559 0.034463 0.002175 0.009189
# 5 0.008660 0.003610 -0.001716 0.002175 0.035962 0.010822
# 6 0.010963 0.006269 -0.001215 0.009189 0.010822 0.033415
#
#
# Mechanical properties :
#
#
# Convention : Reuss Voigt Hill
#
# Bulk Modulus (GPa) = 32.34480 65.58493 48.96486
# Shear Modulus (GPa) = 29.57377 41.13304 35.35341
#
# Velocity S-wave (km/s) = 3.43965 4.05655 3.76077
# Velocity P-wave (km/s) = 5.35861 6.94108 6.20053
#
# Compressibility (1/GPa) = 0.03091687
#
# Stress axis : x y z
#
# Youngs Moduli (GPa) = 44.89695 117.30344 82.49529
#
# Poissons Ratio (x) = -0.11008 0.46808
# Poissons Ratio (y) = -0.04213 0.10443
# Poissons Ratio (z) = 0.25475 0.14850
#
# Static dielectric constant tensor:
#      x y z
#    x 1.928560 0.153660 -0.171230 
#    y 0.153660 1.987940 0.095580 
#    z -0.171230 0.095580 1.766620 
# 
# From -- ./inp_files/201775.got.cif
#   From: 2010.05.17/outbox.cif.g08.bks.cpg/sg2_101_cif.got.tgz:201775.got - 2010.06.03 11:33:40.
