data_PCOD9107011
_publ_section_title
;
Structure prediction by ZEFSAII (Michael W. Deem and Ramdas Pophale) SiO2 
 PCOD9107011
Probable space group: P -1
;
_chemical_formula_sum "Si O2"
_cell_formula_units_Z 16
_cell_length_a 20.736797
_cell_length_b 5.311270
_cell_length_c 18.330104
_cell_angle_alpha 129.092540
_cell_angle_beta 32.507857
_cell_angle_gamma 113.722205
_cell_volume 800.475354
_symmetry_space_group_name_H-M "P -1"
_symmetry_group_IT_number 2
_symmetry_cell_setting 'triclinic'
loop_
_space_group_symop_operation_xyz
x,y,z
-x,-y,-z
loop_
_atom_site_type_symbol
_atom_site_label
_atom_site_fract_x
_atom_site_fract_y
_atom_site_fract_z
Si Si1 0.491024 0.767978 0.121298
Si Si2 0.711647 0.832448 0.519303
Si Si3 0.693558 0.404285 0.240020
Si Si4 0.447454 0.630284 0.438609
Si Si5 0.782075 0.622880 0.043104
Si Si6 0.407987 0.603581 0.890408
Si Si7 0.967027 0.191195 0.144204
Si Si8 0.788447 0.886311 0.313387
O O1 0.544435 0.571658 0.109929
O O2 0.344552 0.979458 0.318833
O O3 0.564205 0.036335 0.078037
O O4 0.500000 0.500000 0.000000
O O5 0.596093 0.705116 0.578702
O O6 0.839737 0.513356 0.337757
O O7 0.738007 0.057943 0.469912
O O8 0.547061 0.619612 0.404699
O O9 0.762883 0.460368 0.109635
O O10 0.767584 0.521424 0.255959
O O11 0.699529 0.017533 0.179061
O O12 0.518780 0.605534 0.288679
O O13 0.313099 0.919598 0.615412
O O14 0.734600 0.399013 0.988791
O O15 0.920214 0.666638 0.915419
O O16 0.927782 0.902913 0.174382
O O17 0.000000 0.000000 0.000000
#
# Coordination Sequence:
#
# PCOD9107011 Si02
#       8
#     2   2   2   2   2   2   2   2
#     4  11  22  42  71  97 119 146 192 259 328 385
#     4  10  22  37  58  86 122 158 204 255 308 363
#     4  11  23  34  56  82 118 168 207 247 298 344
#     4   9  20  35  53  83 120 155 194 252 310 363
#     4  11  23  39  57  83 122 168 208 246 289 351
#     4  10  20  40  62  92 122 152 193 248 318 375
#     4  11  23  39  56  84 124 177 221 246 279 342
#     4  11  21  35  55  80 122 162 211 258 288 350
#
# _framework density 19.988123000000002
#
# number of rings (size 3 to 8) (size 9 to 14) (size 15 to 20)
#    0.000    1.500    2.500    3.750    5.250    1.500 
#    0.000    0.000    0.000    1.500    0.000    0.000 
#    0.000    0.000    0.000    0.000    0.000    0.000 
#
# Total GULP energy -89147.812812 kJ/mol
# GULP energy per Si atom -5571.738301 kJ/mol
# Density = 1.994263 g / cm^3
# Si number density = 19.988123 Si / 1000 Ang^3
#
#
#
# Elastic Constant Matrix: (Units=GPa)
#
#
# Indices 1 2 3 4 5 6 
#
# 1 90.5811 49.2094 50.5518 -4.8179 -1.4471 7.1625
# 2 49.2094 133.1314 44.1406 -14.9901 5.4455 7.6723
# 3 50.5518 44.1406 95.2970 -7.2162 -2.6870 16.0887
# 4 -4.8179 -14.9901 -7.2162 33.6063 3.3085 -1.6741
# 5 -1.4471 5.4455 -2.6870 3.3085 34.5789 -3.1619
# 6 7.1625 7.6723 16.0887 -1.6741 -3.1619 33.1966
#
#
#
# Elastic Compliance Matrix: (Units=1/GPa)
#
#
# Indices 1 2 3 4 5 6 
#
# 1 0.017360 -0.004139 -0.007491 -0.001018 0.000974 0.000883
# 2 -0.004139 0.010350 -0.002312 0.003740 -0.002379 -0.000416
# 3 -0.007491 -0.002312 0.016618 0.001105 0.000708 -0.005780
# 4 -0.001018 0.003740 0.001105 0.031874 -0.003588 0.000085
# 5 0.000974 -0.002379 0.000708 -0.003588 0.029977 0.002671
# 6 0.000883 -0.000416 -0.005780 0.000085 0.002671 0.033089
#
#
# Mechanical properties :
#
#
# Convention : Reuss Voigt Hill
#
# Bulk Modulus (GPa) = 60.80895 67.42369 64.11632
# Shear Modulus (GPa) = 28.96320 31.95020 30.45670
#
# Velocity S-wave (km/s) = 3.81073 4.00241 3.90775
# Velocity P-wave (km/s) = 7.06051 7.42726 7.24620
#
# Compressibility (1/GPa) = 0.01644495
#
# Stress axis : x y z
#
# Youngs Moduli (GPa) = 57.60288 96.61627 60.17735
#
# Poissons Ratio (x) = 0.39986 0.45077
# Poissons Ratio (y) = 0.23839 0.13915
# Poissons Ratio (z) = 0.43148 0.22340
#
# Static dielectric constant tensor:
#      x y z
#    x 1.748880 -0.066500 -0.027170 
#    y -0.066500 1.841350 0.019010 
#    z -0.027170 0.019010 1.775520 
# 
# From -- ./inp_files/81013.got.cif
#   From: 2010.05.17/outbox.cif.g08.bks.cpg/sg2_41_cif.got.tgz:81013.got - 2010.06.03 11:33:40.
