data_PCOD9107005
_publ_section_title
;
Structure prediction by ZEFSAII (Michael W. Deem and Ramdas Pophale) SiO2 
 PCOD9107005
Probable space group: P -1
;
_chemical_formula_sum "Si O2"
_cell_formula_units_Z 16
_cell_length_a 12.077433
_cell_length_b 8.233792
_cell_length_c 19.611753
_cell_angle_alpha 84.984269
_cell_angle_beta 35.964500
_cell_angle_gamma 58.863410
_cell_volume 737.669024
_symmetry_space_group_name_H-M "P -1"
_symmetry_group_IT_number 2
_symmetry_cell_setting 'triclinic'
loop_
_space_group_symop_operation_xyz
x,y,z
-x,-y,-z
loop_
_atom_site_type_symbol
_atom_site_label
_atom_site_fract_x
_atom_site_fract_y
_atom_site_fract_z
Si Si1 0.697936 0.494309 0.857328
Si Si2 0.117550 0.259450 0.414386
Si Si3 0.583871 0.730143 0.169067
Si Si4 0.867349 0.514711 0.171618
Si Si5 0.718992 0.721679 0.374301
Si Si6 0.136899 0.688868 0.602293
Si Si7 0.735819 0.964648 0.917509
Si Si8 0.036446 0.887617 0.383339
O O1 0.861907 0.299088 0.720778
O O2 0.952283 0.427017 0.771867
O O3 0.500000 0.500000 0.000000
O O4 0.451212 0.789326 0.952844
O O5 0.000000 0.500000 0.500000
O O6 0.976432 0.334966 0.406798
O O7 0.039302 0.166495 0.510039
O O8 0.458966 0.993703 0.239767
O O9 0.691480 0.579466 0.190756
O O10 0.320711 0.807298 0.263550
O O11 0.859978 0.559892 0.988913
O O12 0.683691 0.733670 0.310452
O O13 0.020536 0.273461 0.147519
O O14 0.684793 0.568125 0.435293
O O15 0.500000 0.000000 0.500000
O O16 0.908278 0.903735 0.765815
O O17 0.208164 0.817995 0.528595
O O18 0.500000 0.000000 0.000000
#
# Coordination Sequence:
#
# PCOD9107005 Si02
#       8
#     2   2   2   2   2   2   2   2
#     4  12  23  39  67  99 129 165 223 275 321 396
#     4  11  24  38  66  95 124 173 221 270 323 395
#     4  10  22  42  63  90 133 172 212 268 331 394
#     4  10  22  39  68  89 129 174 216 261 337 390
#     4  11  25  42  66 100 133 173 220 281 333 389
#     4  10  20  40  62  91 127 170 216 266 324 391
#     4  11  19  38  65  93 120 166 224 263 319 390
#     4  11  23  40  66  98 128 166 218 271 327 393
#
# _framework density 21.689945000000002
#
# number of rings (size 3 to 8) (size 9 to 14) (size 15 to 20)
#    0.000    1.250    3.750    4.500    5.250    0.000 
#    0.000    3.750    0.000    0.000    0.000    0.000 
#    0.000    0.000    0.000    0.000    0.000    0.000 
#
# Total GULP energy -89213.954101 kJ/mol
# GULP energy per Si atom -5575.872131 kJ/mol
# Density = 2.164058 g / cm^3
# Si number density = 21.689945 Si / 1000 Ang^3
#
#
#
# Elastic Constant Matrix: (Units=GPa)
#
#
# Indices 1 2 3 4 5 6 
#
# 1 90.1626 26.1782 19.3096 -1.2104 21.1762 -10.3920
# 2 26.1782 112.1320 28.1858 -0.7290 18.5715 -7.7693
# 3 19.3096 28.1858 80.1585 -3.8412 17.8144 0.5702
# 4 -1.2104 -0.7290 -3.8412 41.6551 5.0448 13.6159
# 5 21.1762 18.5715 17.8144 5.0448 39.6864 -2.6232
# 6 -10.3920 -7.7693 0.5702 13.6159 -2.6232 36.1097
#
#
#
# Elastic Compliance Matrix: (Units=1/GPa)
#
#
# Indices 1 2 3 4 5 6 
#
# 1 0.013565 -0.001650 -0.001480 -0.000151 -0.005569 0.003224
# 2 -0.001650 0.010557 -0.002755 -0.000381 -0.002656 0.001791
# 3 -0.001480 -0.002755 0.015121 0.002822 -0.005246 -0.002703
# 4 -0.000151 -0.000381 0.002822 0.028621 -0.005397 -0.011354
# 5 -0.005569 -0.002656 -0.005246 -0.005397 0.032606 0.002312
# 6 0.003224 0.001791 -0.002703 -0.011354 0.002312 0.033499
#
#
# Mechanical properties :
#
#
# Convention : Reuss Voigt Hill
#
# Bulk Modulus (GPa) = 36.40018 47.75558 42.07788
# Shear Modulus (GPa) = 32.27968 37.40889 34.84428
#
# Velocity S-wave (km/s) = 3.86195 4.15747 4.01243
# Velocity P-wave (km/s) = 6.05844 6.71649 6.39593
#
# Compressibility (1/GPa) = 0.02747239
#
# Stress axis : x y z
#
# Youngs Moduli (GPa) = 73.72064 94.72000 66.13355
#
# Poissons Ratio (x) = 0.15629 0.09787
# Poissons Ratio (y) = 0.12164 0.18223
# Poissons Ratio (z) = 0.10910 0.26100
#
# Static dielectric constant tensor:
#      x y z
#    x 1.800010 0.023060 0.005250 
#    y 0.023060 1.878410 -0.013920 
#    z 0.005250 -0.013920 1.841300 
# 
# From -- ./inp_files/566712.got.cif
#   From: 2010.05.17/outbox.cif.g08.bks.cpg/sg2_284_cif.got.tgz:566712.got - 2010.06.03 11:33:40.
