data_PCOD9107490
_publ_section_title
;
Structure prediction by ZEFSAII (Michael W. Deem and Ramdas Pophale) SiO2 
 PCOD9107490
Probable space group: P -1
;
_chemical_formula_sum "Si O2"
_cell_formula_units_Z 13
_cell_length_a 14.357102
_cell_length_b 14.559821
_cell_length_c 7.722698
_cell_angle_alpha 73.546507
_cell_angle_beta 125.106374
_cell_angle_gamma 150.741935
_cell_volume 540.567718
_symmetry_space_group_name_H-M "P -1"
_symmetry_group_IT_number 2
_symmetry_cell_setting 'triclinic'
loop_
_space_group_symop_operation_xyz
x,y,z
-x,-y,-z
loop_
_atom_site_type_symbol
_atom_site_label
_atom_site_fract_x
_atom_site_fract_y
_atom_site_fract_z
Si Si1 0.768019 0.262844 0.790275
Si Si2 0.421106 0.310547 0.617603
Si Si3 0.579047 0.499623 0.315076
Si Si4 0.120930 0.047409 0.927601
Si Si5 0.253270 0.950989 0.270351
Si Si6 0.825541 0.067149 0.404794
Si Si7 0.500000 0.000000 0.000000
O O1 0.866237 0.242509 0.808060
O O2 0.574251 0.177162 0.503846
O O3 0.576448 0.084392 0.835700
O O4 0.000000 0.500000 0.000000
O O5 0.551287 0.416200 0.508778
O O6 0.537226 0.485238 0.761095
O O7 0.394199 0.183724 0.729526
O O8 0.110623 0.105256 0.371059
O O9 0.400144 0.314590 0.074945
O O10 0.881006 0.733403 0.453260
O O11 0.176530 0.977702 0.045593
O O12 0.000000 0.000000 0.000000
O O13 0.164935 0.915560 0.385982
O O14 0.728828 0.090238 0.200508
#
# Coordination Sequence:
#
# PCOD9107490 Si02
#       7
#     2   2   2   2   2   2   1
#     4  10  24  47  70  89 126 176 216 271 329 374
#     4  10  22  42  62  97 136 169 213 269 317 383
#     4  10  22  39  68  93 132 175 212 256 330 386
#     4  10  20  40  64  94 132 165 209 266 321 387
#     4  10  22  44  65  96 132 163 218 274 316 386
#     4  11  22  43  64  98 134 167 221 271 315 389
#     4  10  26  42  64 102 124 160 234 266 308 396
#
# _framework density 24.048791999999999
#
# number of rings (size 3 to 8) (size 9 to 14) (size 15 to 20)
#    0.000    1.846    3.077    0.462    4.308    0.615 
#   11.077    2.308    0.000    0.000    0.000    0.000 
#    0.000    0.000    0.000    0.000    0.000    0.000 
#
# Total GULP energy -72505.159585 kJ/mol
# GULP energy per Si atom -5577.319968 kJ/mol
# Density = 2.399406 g / cm^3
# Si number density = 24.048792 Si / 1000 Ang^3
#
#
#
# Elastic Constant Matrix: (Units=GPa)
#
#
# Indices 1 2 3 4 5 6 
#
# 1 95.3683 25.7262 8.2731 16.7289 0.1656 -11.3831
# 2 25.7262 74.2278 14.5554 14.5343 -3.3001 5.7603
# 3 8.2731 14.5554 63.4684 -3.7415 1.2751 -22.1209
# 4 16.7289 14.5343 -3.7415 31.4110 -9.2701 -12.1067
# 5 0.1656 -3.3001 1.2751 -9.2701 21.6653 3.4935
# 6 -11.3831 5.7603 -22.1209 -12.1067 3.4935 34.5539
#
#
#
# Elastic Compliance Matrix: (Units=1/GPa)
#
#
# Indices 1 2 3 4 5 6 
#
# 1 0.012799 -0.004192 0.000553 -0.004167 -0.003219 0.004135
# 2 -0.004192 0.021867 -0.011819 -0.016350 0.000017 -0.018323
# 3 0.000553 -0.011819 0.029132 0.019358 0.000321 0.027552
# 4 -0.004167 -0.016350 0.019358 0.062102 0.017535 0.033732
# 5 -0.003219 0.000017 0.000321 0.017535 0.053691 -0.000142
# 6 0.004135 -0.018323 0.027552 0.033732 -0.000142 0.062829
#
#
# Mechanical properties :
#
#
# Convention : Reuss Voigt Hill
#
# Bulk Modulus (GPa) = 30.41198 36.68600 33.54899
# Shear Modulus (GPa) = 17.58737 29.82670 23.70704
#
# Velocity S-wave (km/s) = 2.70723 3.52555 3.14313
# Velocity P-wave (km/s) = 4.73767 5.64452 5.21086
#
# Compressibility (1/GPa) = 0.03288178
#
# Stress axis : x y z
#
# Youngs Moduli (GPa) = 78.13348 45.73163 34.32675
#
# Poissons Ratio (x) = 0.19173 -0.01900
# Poissons Ratio (y) = 0.32757 0.40569
# Poissons Ratio (z) = -0.04324 0.54048
#
# Static dielectric constant tensor:
#      x y z
#    x 1.962850 -0.051350 -0.029880 
#    y -0.051350 1.969060 0.009480 
#    z -0.029880 0.009480 1.960930 
# 
# From -- ./inp_files/314996.got.cif
#   From: 2010.05.17/outbox.cif.g08.bks.cpg/sg2_158_cif.got.tgz:314996.got - 2010.06.03 11:33:40.
