data_PCOD9107957
_publ_section_title
;
Structure prediction by ZEFSAII (Michael W. Deem and Ramdas Pophale) SiO2 
 PCOD9107957
Probable space group: P -1
;
_chemical_formula_sum "Si O2"
_cell_formula_units_Z 16
_cell_length_a 15.247481
_cell_length_b 23.916617
_cell_length_c 17.684801
_cell_angle_alpha 22.259545
_cell_angle_beta 146.183081
_cell_angle_gamma 159.537287
_cell_volume 821.406252
_symmetry_space_group_name_H-M "P -1"
_symmetry_group_IT_number 2
_symmetry_cell_setting 'triclinic'
loop_
_space_group_symop_operation_xyz
x,y,z
-x,-y,-z
loop_
_atom_site_type_symbol
_atom_site_label
_atom_site_fract_x
_atom_site_fract_y
_atom_site_fract_z
Si Si1 0.877379 0.051212 0.388143
Si Si2 0.263178 0.822592 0.610252
Si Si3 0.918287 0.746000 0.999288
Si Si4 0.367844 0.201721 0.849356
Si Si5 0.662428 0.982217 0.168052
Si Si6 0.290390 0.484764 0.447679
Si Si7 0.216613 0.567032 0.026596
Si Si8 0.396554 0.198361 0.340355
O O1 0.108004 0.320721 0.251357
O O2 0.736529 0.041397 0.234584
O O3 0.681385 0.867415 0.545374
O O4 0.000000 0.000000 0.500000
O O5 0.993151 0.654038 0.585093
O O6 0.500000 0.000000 0.500000
O O7 0.310545 0.986804 0.500385
O O8 0.248574 0.661298 0.849165
O O9 0.700146 0.461700 0.216014
O O10 0.767922 0.788809 0.828300
O O11 0.133445 0.930308 0.987570
O O12 0.077380 0.834695 0.925366
O O13 0.273596 0.296817 0.682433
O O14 0.575822 0.381922 0.704762
O O15 0.517513 0.237536 0.980433
O O16 0.483533 0.705863 0.368746
O O17 0.500000 0.000000 0.000000
O O18 0.000000 0.500000 0.000000
#
# Coordination Sequence:
#
# PCOD9107957 Si02
#       8
#     2   2   2   2   2   2   2   2
#     4  12  24  43  69  98 128 172 223 267 322 393
#     4  12  26  43  67  97 132 175 215 273 338 389
#     4  10  23  41  67  94 134 176 212 267 333 391
#     4  10  20  40  69  93 123 170 222 267 314 394
#     4  11  24  38  64  98 130 166 218 273 322 385
#     4  10  20  40  66  92 125 171 219 263 322 388
#     4  12  24  42  68  99 131 167 222 276 325 378
#     4  11  23  44  67  96 134 174 219 268 333 398
#
# _framework density 19.478788999999999
#
# number of rings (size 3 to 8) (size 9 to 14) (size 15 to 20)
#    0.000    1.000    5.000    1.500    7.000    0.000 
#    2.250    1.875    0.000    0.000    0.000    0.000 
#    0.000    0.000    0.000    0.000    0.000    0.000 
#
# Total GULP energy -89479.982767 kJ/mol
# GULP energy per Si atom -5592.498923 kJ/mol
# Density = 1.943445 g / cm^3
# Si number density = 19.478789 Si / 1000 Ang^3
#
#
#
# Elastic Constant Matrix: (Units=GPa)
#
#
# Indices 1 2 3 4 5 6 
#
# 1 66.1827 23.9840 2.9947 -11.6034 -9.0060 2.6968
# 2 23.9840 114.0461 16.6761 -2.9554 -23.9899 4.8881
# 3 2.9947 16.6761 44.5628 -11.2830 -6.3114 3.9499
# 4 -11.6034 -2.9554 -11.2830 38.5700 -0.2166 -2.2228
# 5 -9.0060 -23.9899 -6.3114 -0.2166 29.2491 -1.0426
# 6 2.6968 4.8881 3.9499 -2.2228 -1.0426 30.3428
#
#
#
# Elastic Compliance Matrix: (Units=1/GPa)
#
#
# Indices 1 2 3 4 5 6 
#
# 1 0.017614 -0.003114 0.001937 0.005600 0.003300 -0.000792
# 2 -0.003114 0.011540 -0.003172 -0.000993 0.007779 -0.000975
# 3 0.001937 -0.003172 0.026220 0.007893 0.003626 -0.002371
# 4 0.005600 -0.000993 0.007893 0.029914 0.002867 0.000925
# 5 0.003300 0.007779 0.003626 0.002867 0.042377 -0.000352
# 6 -0.000792 -0.000975 -0.002371 0.000925 -0.000352 0.033548
#
#
# Mechanical properties :
#
#
# Convention : Reuss Voigt Hill
#
# Bulk Modulus (GPa) = 21.42503 34.67792 28.05148
# Shear Modulus (GPa) = 26.95871 31.70816 29.33344
#
# Velocity S-wave (km/s) = 3.72426 4.03901 3.88482
# Velocity P-wave (km/s) = 5.43291 6.29230 5.87833
#
# Compressibility (1/GPa) = 0.04667437
#
# Stress axis : x y z
#
# Youngs Moduli (GPa) = 56.77381 86.65839 38.13951
#
# Poissons Ratio (x) = 0.26986 -0.07388
# Poissons Ratio (y) = 0.17680 0.12099
# Poissons Ratio (z) = -0.10998 0.27491
#
# Static dielectric constant tensor:
#      x y z
#    x 1.664900 -0.005990 0.020970 
#    y -0.005990 1.670020 0.002230 
#    z 0.020970 0.002230 1.689000 
# 
# From -- ./inp_files/190013.got.cif
#   From: 2010.05.17/outbox.cif.g08.bks.cpg/sg2_96_cif.got.tgz:190013.got - 2010.06.03 11:33:40.
