data_PCOD9107896
_publ_section_title
;
Structure prediction by ZEFSAII (Michael W. Deem and Ramdas Pophale) SiO2 
 PCOD9107896
Probable space group: P -1
;
_chemical_formula_sum "Si O2"
_cell_formula_units_Z 16
_cell_length_a 15.884342
_cell_length_b 21.995260
_cell_length_c 6.668660
_cell_angle_alpha 69.975853
_cell_angle_beta 83.492140
_cell_angle_gamma 22.426526
_cell_volume 687.989225
_symmetry_space_group_name_H-M "P -1"
_symmetry_group_IT_number 2
_symmetry_cell_setting 'triclinic'
loop_
_space_group_symop_operation_xyz
x,y,z
-x,-y,-z
loop_
_atom_site_type_symbol
_atom_site_label
_atom_site_fract_x
_atom_site_fract_y
_atom_site_fract_z
Si Si1 0.916889 0.655109 0.883767
Si Si2 0.828341 0.989094 0.266746
Si Si3 0.859031 0.334920 0.716405
Si Si4 0.400770 0.224220 0.368625
Si Si5 0.467330 0.647265 0.793450
Si Si6 0.325799 0.424744 0.807730
Si Si7 0.014640 0.993630 0.241598
Si Si8 0.355276 0.047514 0.103196
O O1 0.705032 0.752272 0.789325
O O2 0.777525 0.818808 0.825218
O O3 0.065098 0.569024 0.736099
O O4 0.157345 0.451838 0.184703
O O5 0.672883 0.059099 0.395648
O O6 0.584247 0.193119 0.965530
O O7 0.040156 0.797771 0.292046
O O8 0.966337 0.952934 0.357526
O O9 0.672618 0.456618 0.822541
O O10 0.707638 0.493594 0.429390
O O11 0.121688 0.182804 0.889454
O O12 0.455729 0.145746 0.644958
O O13 0.286613 0.814320 0.483845
O O14 0.628845 0.576818 0.980610
O O15 0.241125 0.783244 0.852007
O O16 0.000000 0.000000 0.000000
O O17 0.500000 0.000000 0.000000
#
# Coordination Sequence:
#
# PCOD9107896 Si02
#       8
#     2   2   2   2   2   2   2   2
#     4  10  20  40  66  89 131 184 219 269 331 383
#     4  10  23  42  66  96 132 172 216 281 336 385
#     4  12  24  40  66 101 136 171 227 269 333 398
#     4  10  22  40  64  94 132 175 229 268 326 396
#     4  10  21  41  67  97 126 171 223 264 336 400
#     4  10  21  43  65  93 136 179 218 272 328 396
#     4  10  22  46  71  98 130 171 223 278 340 406
#     4  12  24  38  61  99 138 180 222 270 324 385
#
# _framework density 23.256178999999999
#
# number of rings (size 3 to 8) (size 9 to 14) (size 15 to 20)
#    0.000    1.500    1.250    4.125    0.000    2.000 
#    9.000    1.250    0.000    0.000    0.000    0.000 
#    0.000    0.000    0.000    0.000    0.000    0.000 
#
# Total GULP energy -89360.103792 kJ/mol
# GULP energy per Si atom -5585.006487 kJ/mol
# Density = 2.320325 g / cm^3
# Si number density = 23.256179 Si / 1000 Ang^3
#
#
#
# Elastic Constant Matrix: (Units=GPa)
#
#
# Indices 1 2 3 4 5 6 
#
# 1 63.6273 14.1101 12.3698 4.4510 0.0764 -1.8361
# 2 14.1101 112.2377 29.4927 4.5988 -20.3614 -8.4000
# 3 12.3698 29.4927 101.6091 10.4591 -2.6042 0.6043
# 4 4.4510 4.5988 10.4591 21.9196 1.1858 -7.4000
# 5 0.0764 -20.3614 -2.6042 1.1858 27.1950 -13.7181
# 6 -1.8361 -8.4000 0.6043 -7.4000 -13.7181 20.6913
#
#
#
# Elastic Compliance Matrix: (Units=1/GPa)
#
#
# Indices 1 2 3 4 5 6 
#
# 1 0.016614 -0.002494 -0.001045 -0.003122 -0.003295 -0.002808
# 2 -0.002494 0.016413 -0.004645 0.006357 0.024098 0.024828
# 3 -0.001045 -0.004645 0.011955 -0.007339 -0.006773 -0.009443
# 4 -0.003122 0.006357 -0.007339 0.059966 0.020343 0.037452
# 5 -0.003295 0.024098 -0.006773 0.020343 0.092920 0.078569
# 6 -0.002808 0.024828 -0.009443 0.037452 0.078569 0.123920
#
#
# Mechanical properties :
#
#
# Convention : Reuss Voigt Hill
#
# Bulk Modulus (GPa) = 34.94752 43.26882 39.10817
# Shear Modulus (GPa) = 14.38043 28.72794 21.55419
#
# Velocity S-wave (km/s) = 2.48936 3.51847 3.04767
# Velocity P-wave (km/s) = 4.82932 5.92890 5.40714
#
# Compressibility (1/GPa) = 0.02861433
#
# Stress axis : x y z
#
# Youngs Moduli (GPa) = 60.18997 60.92738 83.64649
#
# Poissons Ratio (x) = 0.15195 0.08742
# Poissons Ratio (y) = 0.15011 0.38852
# Poissons Ratio (z) = 0.06291 0.28300
#
# Static dielectric constant tensor:
#      x y z
#    x 1.872710 -0.048040 -0.019140 
#    y -0.048040 1.962700 0.012650 
#    z -0.019140 0.012650 1.894380 
# 
# From -- ./inp_files/112789.got.cif
#   From: 2010.05.17/outbox.cif.g08.bks.cpg/sg2_57_cif.got.tgz:112789.got - 2010.06.03 11:33:40.
