data_PCOD9107185
_publ_section_title
;
Structure prediction by ZEFSAII (Michael W. Deem and Ramdas Pophale) SiO2 
 PCOD9107185
Probable space group: P -1
;
_chemical_formula_sum "Si O2"
_cell_formula_units_Z 12
_cell_length_a 17.434924
_cell_length_b 5.511186
_cell_length_c 14.107078
_cell_angle_alpha 98.949300
_cell_angle_beta 24.241353
_cell_angle_gamma 109.587530
_cell_volume 483.239985
_symmetry_space_group_name_H-M "P -1"
_symmetry_group_IT_number 2
_symmetry_cell_setting 'triclinic'
loop_
_space_group_symop_operation_xyz
x,y,z
-x,-y,-z
loop_
_atom_site_type_symbol
_atom_site_label
_atom_site_fract_x
_atom_site_fract_y
_atom_site_fract_z
Si Si1 0.595363 0.284790 0.348554
Si Si2 0.405354 0.146664 0.352032
Si Si3 0.899738 0.160061 0.679289
Si Si4 0.047369 0.166193 0.054144
Si Si5 0.264180 0.241745 0.004611
Si Si6 0.836212 0.267861 0.555066
O O1 0.500000 0.500000 0.500000
O O2 0.541263 0.178593 0.295383
O O3 0.500000 0.000000 0.500000
O O4 0.846815 0.506900 0.075195
O O5 0.353269 0.965449 0.304185
O O6 0.516379 0.473096 0.217903
O O7 0.173515 0.985018 0.651448
O O8 0.802038 0.245892 0.705841
O O9 0.099128 0.414117 0.521139
O O10 0.741685 0.983559 0.928686
O O11 0.000000 0.000000 0.500000
O O12 0.207400 0.157900 0.953731
O O13 0.000000 0.000000 0.000000
O O14 0.061597 0.277098 0.272644
#
# Coordination Sequence:
#
# PCOD9107185 Si02
#       6
#     2   2   2   2   2   2
#     4  11  24  44  66  94 130 170 218 270 318 380
#     4  10  21  41  59  93 125 165 213 258 319 384
#     4   9  18  38  62  85 119 158 201 264 317 381
#     4  10  20  40  63  90 127 169 216 264 317 381
#     4   9  20  36  57  88 123 159 210 256 316 375
#     4   9  19  38  60  86 121 160 207 256 320 380
#
# _framework density 24.832384999999999
#
# number of rings (size 3 to 8) (size 9 to 14) (size 15 to 20)
#    0.000    2.333    1.667    0.000    0.000    2.667 
#   21.000    7.500    0.000    0.000    0.000    0.000 
#    0.000    0.000    0.000    0.000    0.000    0.000 
#
# Total GULP energy -66858.117088 kJ/mol
# GULP energy per Si atom -5571.509757 kJ/mol
# Density = 2.477587 g / cm^3
# Si number density = 24.832385 Si / 1000 Ang^3
#
#
#
# Elastic Constant Matrix: (Units=GPa)
#
#
# Indices 1 2 3 4 5 6 
#
# 1 155.7111 72.4485 67.6811 -50.4957 19.0669 45.2456
# 2 72.4485 91.8983 62.8068 -35.4918 1.0915 28.8264
# 3 67.6811 62.8068 173.7457 -56.0501 14.9682 10.0995
# 4 -50.4957 -35.4918 -56.0501 72.7453 -0.9719 -4.6760
# 5 19.0669 1.0915 14.9682 -0.9719 56.1968 -12.4646
# 6 45.2456 28.8264 10.0995 -4.6760 -12.4646 47.8494
#
#
#
# Elastic Compliance Matrix: (Units=1/GPa)
#
#
# Indices 1 2 3 4 5 6 
#
# 1 0.016638 -0.005401 -0.000609 0.007448 -0.008307 -0.013787
# 2 -0.005401 0.021103 -0.004380 0.002799 0.001291 -0.006072
# 3 -0.000609 -0.004380 0.009113 0.004520 -0.001776 0.001270
# 4 0.007448 0.002799 0.004520 0.023127 -0.005340 -0.008814
# 5 -0.008307 0.001291 -0.001776 -0.005340 0.023886 0.013153
# 6 -0.013787 -0.006072 0.001270 -0.008814 0.013153 0.039890
#
#
# Mechanical properties :
#
#
# Convention : Reuss Voigt Hill
#
# Bulk Modulus (GPa) = 38.35078 91.91422 65.13250
# Shear Modulus (GPa) = 30.63156 49.91956 40.27556
#
# Velocity S-wave (km/s) = 3.51598 4.48846 4.03165
# Velocity P-wave (km/s) = 5.65333 7.99724 6.92517
#
# Compressibility (1/GPa) = 0.02607509
#
# Stress axis : x y z
#
# Youngs Moduli (GPa) = 60.10170 47.38595 109.72847
#
# Poissons Ratio (x) = 0.25593 0.06686
# Poissons Ratio (y) = 0.32460 0.48059
# Poissons Ratio (z) = 0.03662 0.20754
#
# Static dielectric constant tensor:
#      x y z
#    x 2.021950 -0.109600 0.006480 
#    y -0.109600 2.140900 0.038010 
#    z 0.006480 0.038010 2.031620 
# 
# From -- ./inp_files/7335.got.cif
#   From: 2010.05.17/outbox.cif.g08.bks.cpg/sg2_4_cif.got.tgz:7335.got - 2010.06.03 11:33:40.
