data_PCOD9107150
_publ_section_title
;
Structure prediction by ZEFSAII (Michael W. Deem and Ramdas Pophale) SiO2 
 PCOD9107150
Probable space group: P -1
;
_chemical_formula_sum "Si O2"
_cell_formula_units_Z 16
_cell_length_a 9.874812
_cell_length_b 11.278886
_cell_length_c 8.229722
_cell_angle_alpha 114.537327
_cell_angle_beta 78.262954
_cell_angle_gamma 101.143930
_cell_volume 810.275821
_symmetry_space_group_name_H-M "P -1"
_symmetry_group_IT_number 2
_symmetry_cell_setting 'triclinic'
loop_
_space_group_symop_operation_xyz
x,y,z
-x,-y,-z
loop_
_atom_site_type_symbol
_atom_site_label
_atom_site_fract_x
_atom_site_fract_y
_atom_site_fract_z
Si Si1 0.917198 0.133553 0.460224
Si Si2 0.909279 0.597861 0.986057
Si Si3 0.468151 0.132920 0.420302
Si Si4 0.623512 0.425304 0.864994
Si Si5 0.603322 0.397104 0.464764
Si Si6 0.166962 0.158418 0.647867
Si Si7 0.354218 0.859120 0.293482
Si Si8 0.085499 0.622951 0.642507
O O1 0.811048 0.148531 0.644719
O O2 0.898401 0.248081 0.402577
O O3 0.072271 0.150425 0.504078
O O4 0.874940 0.982019 0.332162
O O5 0.768469 0.509622 0.917448
O O6 0.997971 0.649370 0.837086
O O7 0.869323 0.717843 0.171612
O O8 0.000000 0.500000 0.000000
O O9 0.530467 0.251304 0.359225
O O10 0.328789 0.169516 0.564929
O O11 0.582815 0.122753 0.527620
O O12 0.422196 0.992349 0.269471
O O13 0.615888 0.406278 0.662354
O O14 0.612339 0.279111 0.858822
O O15 0.500000 0.500000 0.000000
O O16 0.500000 0.500000 0.500000
O O17 0.761278 0.414967 0.372266
O O18 0.000000 0.500000 0.500000
#
# Coordination Sequence:
#
# PCOD9107150 Si02
#       8
#     2   2   2   2   2   2   2   2
#     4  10  20  40  63  89 121 157 205 249 312 362
#     4  12  25  38  61  91 123 163 209 250 311 365
#     4   9  18  33  61  84 110 150 198 246 290 356
#     4  11  22  39  60  90 122 155 198 259 300 362
#     4  11  24  40  60  91 121 159 209 248 307 362
#     4  10  22  37  63  95 118 156 204 258 296 374
#     4   9  16  35  57  84 113 151 197 239 296 354
#     4  12  23  41  62  84 126 169 198 257 310 367
#
# _framework density 19.746362999999999
#
# number of rings (size 3 to 8) (size 9 to 14) (size 15 to 20)
#    0.000    1.500    3.750    3.000    5.250    0.500 
#    0.000    0.000    0.000    0.750    0.000    0.000 
#    0.000    0.000    0.000    0.000    0.000    0.000 
#
# Total GULP energy -89329.222895 kJ/mol
# GULP energy per Si atom -5583.076431 kJ/mol
# Density = 1.970142 g / cm^3
# Si number density = 19.746363 Si / 1000 Ang^3
#
#
#
# Elastic Constant Matrix: (Units=GPa)
#
#
# Indices 1 2 3 4 5 6 
#
# 1 125.3856 43.5314 17.3820 6.1689 -13.5669 5.3587
# 2 43.5314 128.9061 26.4239 38.8317 -1.1051 5.5982
# 3 17.3820 26.4239 57.0866 27.2717 -15.9785 6.2697
# 4 6.1689 38.8317 27.2717 31.5024 -7.4917 -4.2102
# 5 -13.5669 -1.1051 -15.9785 -7.4917 25.1609 2.1309
# 6 5.3587 5.5982 6.2697 -4.2102 2.1309 32.8486
#
#
#
# Elastic Compliance Matrix: (Units=1/GPa)
#
#
# Indices 1 2 3 4 5 6 
#
# 1 0.010599 -0.005719 -0.003571 0.009591 0.005987 0.000768
# 2 -0.005719 0.016809 0.005705 -0.026822 -0.006195 -0.006057
# 3 -0.003571 0.005705 0.040289 -0.039950 0.013206 -0.014057
# 4 0.009591 -0.026822 -0.039950 0.102316 0.007116 0.023284
# 5 0.005987 -0.006195 0.013206 0.007116 0.053630 -0.005008
# 6 0.000768 -0.006057 -0.014057 0.023284 -0.005008 0.037342
#
#
# Mechanical properties :
#
#
# Convention : Reuss Voigt Hill
#
# Bulk Modulus (GPa) = 16.52112 54.00588 35.26350
# Shear Modulus (GPa) = 17.34135 32.83843 25.08989
#
# Velocity S-wave (km/s) = 2.96667 4.08243 3.56843
# Velocity P-wave (km/s) = 4.48549 7.04491 5.90552
#
# Compressibility (1/GPa) = 0.06052857
#
# Stress axis : x y z
#
# Youngs Moduli (GPa) = 94.34980 59.49228 24.82080
#
# Poissons Ratio (x) = 0.34021 0.08863
# Poissons Ratio (y) = 0.53954 -0.14161
# Poissons Ratio (z) = 0.33690 -0.33942
#
# Static dielectric constant tensor:
#      x y z
#    x 1.666860 -0.004170 0.008300 
#    y -0.004170 1.749600 0.015540 
#    z 0.008300 0.015540 1.678630 
# 
# From -- ./inp_files/182402.got.cif
#   From: 2010.05.17/outbox.cif.g08.bks.cpg/sg2_92_cif.got.tgz:182402.got - 2010.06.03 11:33:40.
