data_PCOD9107902
_publ_section_title
;
Structure prediction by ZEFSAII (Michael W. Deem and Ramdas Pophale) SiO2 
 PCOD9107902
Probable space group: P -1
;
_chemical_formula_sum "Si O2"
_cell_formula_units_Z 12
_cell_length_a 8.134820
_cell_length_b 21.629555
_cell_length_c 9.095092
_cell_angle_alpha 146.209496
_cell_angle_beta 109.238395
_cell_angle_gamma 44.870774
_cell_volume 471.006328
_symmetry_space_group_name_H-M "P -1"
_symmetry_group_IT_number 2
_symmetry_cell_setting 'triclinic'
loop_
_space_group_symop_operation_xyz
x,y,z
-x,-y,-z
loop_
_atom_site_type_symbol
_atom_site_label
_atom_site_fract_x
_atom_site_fract_y
_atom_site_fract_z
Si Si1 0.492363 0.746744 0.422392
Si Si2 0.867894 0.011339 0.631472
Si Si3 0.599671 0.858592 0.428428
Si Si4 0.438427 0.616513 0.580874
Si Si5 0.186690 0.641857 0.286059
Si Si6 0.122980 0.488093 0.659652
O O1 0.489718 0.859866 0.549976
O O2 0.601600 0.707289 0.544413
O O3 0.741086 0.527242 0.994291
O O4 0.162891 0.858732 0.525776
O O5 0.690760 0.996274 0.483802
O O6 0.643398 0.220301 0.054972
O O7 0.000000 0.000000 0.500000
O O8 0.841339 0.828899 0.483069
O O9 0.836306 0.652011 0.006230
O O10 0.500000 0.500000 0.500000
O O11 0.188520 0.705946 0.566512
O O12 0.741364 0.467980 0.274452
O O13 0.500000 0.500000 0.000000
O O14 0.000000 0.500000 0.500000
#
# Coordination Sequence:
#
# PCOD9107902 Si02
#       6
#     2   2   2   2   2   2
#     4  10  22  41  69  85 132 167 205 254 314 376
#     4  10  22  43  65  91 125 172 210 248 317 376
#     4  10  20  40  66  90 123 167 210 247 309 386
#     4  12  24  38  66  92 129 160 211 262 310 360
#     4  11  21  39  62  95 124 155 209 263 308 359
#     4  11  21  37  62  99 117 163 221 251 299 378
#
# _framework density 25.477361999999999
#
# number of rings (size 3 to 8) (size 9 to 14) (size 15 to 20)
#    0.000    1.333    5.000    4.000    2.333    0.667 
#    0.000    4.167    7.333    0.000    0.000    0.000 
#    0.000    0.000    0.000    0.000    0.000    0.000 
#
# Total GULP energy -66910.363197 kJ/mol
# GULP energy per Si atom -5575.863600 kJ/mol
# Density = 2.541937 g / cm^3
# Si number density = 25.477362 Si / 1000 Ang^3
#
#
#
# Elastic Constant Matrix: (Units=GPa)
#
#
# Indices 1 2 3 4 5 6 
#
# 1 94.0819 75.7745 11.0995 -6.0234 -28.9344 -16.9406
# 2 75.7745 279.5664 37.9192 -23.9521 -12.3796 -37.1938
# 3 11.0995 37.9192 62.6968 -6.6396 -4.1528 -5.3480
# 4 -6.0234 -23.9521 -6.6396 51.1079 -5.4528 2.8083
# 5 -28.9344 -12.3796 -4.1528 -5.4528 26.0447 -2.7606
# 6 -16.9406 -37.1938 -5.3480 2.8083 -2.7606 57.5286
#
#
#
# Elastic Compliance Matrix: (Units=1/GPa)
#
#
# Indices 1 2 3 4 5 6 
#
# 1 0.022490 -0.004214 0.000934 0.003117 0.024314 0.005000
# 2 -0.004214 0.005297 -0.002294 0.001370 -0.002051 0.001805
# 3 0.000934 -0.002294 0.017596 0.001629 0.003146 0.000499
# 4 0.003117 0.001370 0.001629 0.021680 0.009053 0.001331
# 5 0.024314 -0.002051 0.003146 0.009053 0.067776 0.008937
# 6 0.005000 0.001805 0.000499 0.001331 0.008937 0.020432
#
#
# Mechanical properties :
#
#
# Convention : Reuss Voigt Hill
#
# Bulk Modulus (GPa) = 29.21067 76.21460 52.71263
# Shear Modulus (GPa) = 28.11665 47.70637 37.91151
#
# Velocity S-wave (km/s) = 3.32564 4.33193 3.86171
# Velocity P-wave (km/s) = 5.12218 7.41623 6.37327
#
# Compressibility (1/GPa) = 0.03423407
#
# Stress axis : x y z
#
# Youngs Moduli (GPa) = 44.46458 188.78850 56.83233
#
# Poissons Ratio (x) = 0.79547 -0.05307
# Poissons Ratio (y) = 0.18735 0.13040
# Poissons Ratio (z) = -0.04152 0.43317
#
# Static dielectric constant tensor:
#      x y z
#    x 2.115530 -0.008000 -0.017020 
#    y -0.008000 2.541190 -0.223700 
#    z -0.017020 -0.223700 2.189350 
# 
# From -- ./inp_files/211498.got.cif
#   From: 2010.05.17/outbox.cif.g08.bks.cpg/sg2_106_cif.got.tgz:211498.got - 2010.06.03 11:33:40.
