data_PCOD9107832
_publ_section_title
;
Structure prediction by ZEFSAII (Michael W. Deem and Ramdas Pophale) SiO2 
 PCOD9107832
Probable space group: P -1
;
_chemical_formula_sum "Si O2"
_cell_formula_units_Z 12
_cell_length_a 21.994728
_cell_length_b 5.207731
_cell_length_c 5.233496
_cell_angle_alpha 90.196996
_cell_angle_beta 57.974410
_cell_angle_gamma 64.789984
_cell_volume 438.792195
_symmetry_space_group_name_H-M "P -1"
_symmetry_group_IT_number 2
_symmetry_cell_setting 'triclinic'
loop_
_space_group_symop_operation_xyz
x,y,z
-x,-y,-z
loop_
_atom_site_type_symbol
_atom_site_label
_atom_site_fract_x
_atom_site_fract_y
_atom_site_fract_z
Si Si1 0.386111 0.234869 0.834372
Si Si2 0.930095 0.019499 0.340518
Si Si3 0.428991 0.427200 0.231849
Si Si4 0.296469 0.037367 0.710706
Si Si5 0.869220 0.632011 0.642057
Si Si6 0.231094 0.530788 0.475560
O O1 0.432202 0.303023 0.508297
O O2 0.362903 0.991986 0.786044
O O3 0.428501 0.214312 0.009837
O O4 0.292788 0.502416 0.111482
O O5 0.909485 0.277395 0.599463
O O6 0.847090 0.144585 0.348902
O O7 0.936818 0.726440 0.441467
O O8 0.000000 0.000000 0.000000
O O9 0.342652 0.748333 0.432298
O O10 0.500000 0.500000 0.000000
O O11 0.282293 0.335437 0.599203
O O12 0.204386 0.138657 0.010891
O O13 0.816021 0.644792 0.511644
#
# Coordination Sequence:
#
# PCOD9107832 Si02
#       6
#     2   2   2   2   2   2
#     4  11  24  46  68  99 143 186 244 293 368 436
#     4  10  20  40  66 101 148 188 240 305 366 428
#     4  12  28  44  71 106 144 188 240 309 374 434
#     4  11  24  43  72  99 139 189 254 297 361 446
#     4   9  22  38  67  97 139 191 241 295 364 432
#     4   9  22  38  68  99 130 194 238 299 349 442
#
# _framework density 27.347795000000001
#
# number of rings (size 3 to 8) (size 9 to 14) (size 15 to 20)
#    1.000    0.667    1.667    2.000    7.000    1.333 
#    0.000    1.667    0.000    0.000    0.000    0.000 
#    0.000    0.000    0.000    0.000    0.000    0.000 
#
# Total GULP energy -67035.703136 kJ/mol
# GULP energy per Si atom -5586.308595 kJ/mol
# Density = 2.728555 g / cm^3
# Si number density = 27.347795 Si / 1000 Ang^3
#
#
#
# Elastic Constant Matrix: (Units=GPa)
#
#
# Indices 1 2 3 4 5 6 
#
# 1 98.6180 26.7829 43.8543 -9.3750 20.5705 20.6312
# 2 26.7829 94.6316 29.8049 -3.5364 4.3356 16.7493
# 3 43.8543 29.8049 134.4810 -16.4454 -11.1890 13.5237
# 4 -9.3750 -3.5364 -16.4454 47.7830 1.2299 -7.0993
# 5 20.5705 4.3356 -11.1890 1.2299 49.5011 -8.4970
# 6 20.6312 16.7493 13.5237 -7.0993 -8.4970 48.6088
#
#
#
# Elastic Compliance Matrix: (Units=1/GPa)
#
#
# Indices 1 2 3 4 5 6 
#
# 1 0.015887 -0.001420 -0.004877 0.000617 -0.008681 -0.006324
# 2 -0.001420 0.012285 -0.002115 -0.000562 -0.001532 -0.003392
# 3 -0.004877 -0.002115 0.010057 0.002401 0.004624 0.001160
# 4 0.000617 -0.000562 0.002401 0.022206 0.000221 0.002545
# 5 -0.008681 -0.001532 0.004624 0.000221 0.026279 0.007552
# 6 -0.006324 -0.003392 0.001160 0.002545 0.007552 0.025794
#
#
# Mechanical properties :
#
#
# Convention : Reuss Voigt Hill
#
# Bulk Modulus (GPa) = 46.71772 58.73498 52.72635
# Shear Modulus (GPa) = 36.63903 44.33114 40.48509
#
# Velocity S-wave (km/s) = 3.66422 4.03055 3.85174
# Velocity P-wave (km/s) = 5.91793 6.57146 6.25324
#
# Compressibility (1/GPa) = 0.02140516
#
# Stress axis : x y z
#
# Youngs Moduli (GPa) = 62.94516 81.40146 99.43595
#
# Poissons Ratio (x) = 0.11561 0.48492
# Poissons Ratio (y) = 0.08940 0.21027
# Poissons Ratio (z) = 0.30697 0.17213
#
# Static dielectric constant tensor:
#      x y z
#    x 2.360140 -0.127650 0.008050 
#    y -0.127650 2.202900 0.006050 
#    z 0.008050 0.006050 2.110690 
# 
# From -- ./inp_files/8199.got.cif
#   From: 2010.05.17/outbox.cif.g08.bks.cpg/sg2_5_cif.got.tgz:8199.got - 2010.06.03 11:33:40.
