data_PCOD9107040
_publ_section_title
;
Structure prediction by ZEFSAII (Michael W. Deem and Ramdas Pophale) SiO2 
 PCOD9107040
Probable space group: P -1
;
_chemical_formula_sum "Si O2"
_cell_formula_units_Z 16
_cell_length_a 15.267959
_cell_length_b 8.602520
_cell_length_c 7.955548
_cell_angle_alpha 131.143996
_cell_angle_beta 91.286581
_cell_angle_gamma 65.589752
_cell_volume 667.442742
_symmetry_space_group_name_H-M "P -1"
_symmetry_group_IT_number 2
_symmetry_cell_setting 'triclinic'
loop_
_space_group_symop_operation_xyz
x,y,z
-x,-y,-z
loop_
_atom_site_type_symbol
_atom_site_label
_atom_site_fract_x
_atom_site_fract_y
_atom_site_fract_z
Si Si1 0.304272 0.524882 0.150339
Si Si2 0.577681 0.828089 0.526210
Si Si3 0.132309 0.984678 0.025322
Si Si4 0.748836 0.782875 0.308114
Si Si5 0.153550 0.943184 0.622067
Si Si6 0.962652 0.302859 0.031801
Si Si7 0.351779 0.714413 0.976535
Si Si8 0.482897 0.309119 0.260373
O O1 0.187038 0.730221 0.340584
O O2 0.372547 0.430258 0.251768
O O3 0.296628 0.325615 0.902805
O O4 0.354408 0.640433 0.117543
O O5 0.675297 0.857319 0.520645
O O6 0.624459 0.540628 0.288891
O O7 0.516338 0.871843 0.728825
O O8 0.500000 0.000000 0.500000
O O9 0.164679 0.853286 0.750227
O O10 0.080930 0.869776 0.049851
O O11 0.235857 0.926240 0.076335
O O12 0.043913 0.253237 0.150726
O O13 0.864383 0.568202 0.205543
O O14 0.763516 0.980747 0.357094
O O15 0.038430 0.181730 0.788760
O O16 0.432850 0.770778 0.940854
O O17 0.500000 0.500000 0.500000
#
# Coordination Sequence:
#
# PCOD9107040 Si02
#       8
#     2   2   2   2   2   2   2   2
#     4  11  23  40  66  98 127 168 214 270 313 375
#     4  10  22  36  63  89 125 168 204 263 318 370
#     4   9  18  37  68  91 123 178 209 257 322 374
#     4  11  23  42  62  96 137 158 216 271 309 373
#     4  10  22  37  70  90 125 174 216 244 332 374
#     4   9  19  38  67  92 127 173 212 258 321 375
#     4  10  20  40  62  93 131 165 215 264 312 381
#     4  10  22  39  67  87 122 177 213 249 328 383
#
# _framework density 23.972094999999999
#
# number of rings (size 3 to 8) (size 9 to 14) (size 15 to 20)
#    0.750    1.250    2.500    2.250    5.250    0.500 
#    0.000    3.750    0.000    2.250    0.000    0.000 
#    0.000    0.000    0.000    0.000    0.000    0.000 
#
# Total GULP energy -89292.367753 kJ/mol
# GULP energy per Si atom -5580.772985 kJ/mol
# Density = 2.391753 g / cm^3
# Si number density = 23.972095 Si / 1000 Ang^3
#
#
#
# Elastic Constant Matrix: (Units=GPa)
#
#
# Indices 1 2 3 4 5 6 
#
# 1 123.6089 49.3728 36.1124 2.0074 -29.2403 9.5785
# 2 49.3728 101.2624 22.3773 -16.6486 -14.4607 -20.3280
# 3 36.1124 22.3773 67.3517 -10.0636 -16.3680 13.0809
# 4 2.0074 -16.6486 -10.0636 28.5652 9.9686 -12.2241
# 5 -29.2403 -14.4607 -16.3680 9.9686 44.3373 -8.7815
# 6 9.5785 -20.3280 13.0809 -12.2241 -8.7815 52.4756
#
#
#
# Elastic Compliance Matrix: (Units=1/GPa)
#
#
# Indices 1 2 3 4 5 6 
#
# 1 0.015558 -0.009401 -0.004047 -0.013738 0.007314 -0.007449
# 2 -0.009401 0.020657 -0.002221 0.018621 -0.001630 0.014337
# 3 -0.004047 -0.002221 0.019570 0.003451 0.002301 -0.003811
# 4 -0.013738 0.018621 0.003451 0.061035 -0.011237 0.021199
# 5 0.007314 -0.001630 0.002301 -0.011237 0.030202 -0.000103
# 6 -0.007449 0.014337 -0.003811 0.021199 -0.000103 0.031841
#
#
# Mechanical properties :
#
#
# Convention : Reuss Voigt Hill
#
# Bulk Modulus (GPa) = 40.90402 56.43866 48.67134
# Shear Modulus (GPa) = 22.89929 37.36633 30.13281
#
# Velocity S-wave (km/s) = 3.09406 3.95238 3.54926
# Velocity P-wave (km/s) = 5.46484 6.66505 6.09457
#
# Compressibility (1/GPa) = 0.02444747
#
# Stress axis : x y z
#
# Youngs Moduli (GPa) = 64.27680 48.41087 51.09869
#
# Poissons Ratio (x) = 0.45511 0.20679
# Poissons Ratio (y) = 0.60426 0.11347
# Poissons Ratio (z) = 0.26012 0.10750
#
# Static dielectric constant tensor:
#      x y z
#    x 1.897580 -0.006730 -0.025680 
#    y -0.006730 1.906340 0.012420 
#    z -0.025680 0.012420 1.983080 
# 
# From -- ./inp_files/296785.got.cif
#   From: 2010.05.17/outbox.cif.g08.bks.cpg/sg2_149_cif.got.tgz:296785.got - 2010.06.03 11:33:40.
