data_PCOD9107407
_publ_section_title
;
Structure prediction by ZEFSAII (Michael W. Deem and Ramdas Pophale) SiO2 
 PCOD9107407
Probable space group: P -1
;
_chemical_formula_sum "Si O2"
_cell_formula_units_Z 16
_cell_length_a 12.671625
_cell_length_b 16.903075
_cell_length_c 9.028041
_cell_angle_alpha 70.094676
_cell_angle_beta 135.148060
_cell_angle_gamma 143.187216
_cell_volume 689.167819
_symmetry_space_group_name_H-M "P -1"
_symmetry_group_IT_number 2
_symmetry_cell_setting 'triclinic'
loop_
_space_group_symop_operation_xyz
x,y,z
-x,-y,-z
loop_
_atom_site_type_symbol
_atom_site_label
_atom_site_fract_x
_atom_site_fract_y
_atom_site_fract_z
Si Si1 0.945404 0.777534 0.483158
Si Si2 0.820511 0.956314 0.608714
Si Si3 0.213447 0.998309 0.872632
Si Si4 0.367043 0.423870 0.214430
Si Si5 0.757301 0.503469 0.727206
Si Si6 0.664821 0.286622 0.932597
Si Si7 0.410400 0.075881 0.344047
Si Si8 0.101182 0.775829 0.358858
O O1 0.049293 0.751326 0.497593
O O2 0.636007 0.608447 0.330028
O O3 0.965215 0.868892 0.338576
O O4 0.129802 0.889224 0.737662
O O5 0.528817 0.838823 0.313760
O O6 0.734245 0.915082 0.721390
O O7 0.952997 0.937193 0.677782
O O8 0.477366 0.175775 0.958550
O O9 0.285392 0.001157 0.105338
O O10 0.499302 0.400982 0.425919
O O11 0.206309 0.394873 0.205074
O O12 0.173253 0.330541 0.938085
O O13 0.702904 0.402300 0.852846
O O14 0.032782 0.611352 0.841505
O O15 0.741619 0.230148 0.549924
O O16 0.315844 0.953974 0.430824
#
# Coordination Sequence:
#
# PCOD9107407 Si02
#       8
#     2   2   2   2   2   2   2   2
#     4  10  22  39  62  94 120 163 204 254 305 364
#     4  10  20  40  64  90 125 163 200 257 312 362
#     4  11  22  38  69  91 123 159 212 254 306 373
#     4  11  22  39  64  90 125 168 209 247 310 375
#     4  10  23  37  63  93 124 165 208 253 310 371
#     4  10  21  41  62  92 127 158 206 262 307 364
#     4  10  23  39  61  95 122 163 205 252 311 363
#     4  10  23  41  59  88 134 161 198 258 308 365
#
# _framework density 23.216405000000002
#
# number of rings (size 3 to 8) (size 9 to 14) (size 15 to 20)
#    0.000    1.750    0.000    4.500    7.000    1.500 
#    0.000    0.000    0.000    3.000    0.000    0.000 
#    0.000    0.000    0.000    0.000    0.000    0.000 
#
# Total GULP energy -89351.550170 kJ/mol
# GULP energy per Si atom -5584.471886 kJ/mol
# Density = 2.316356 g / cm^3
# Si number density = 23.216405 Si / 1000 Ang^3
#
#
#
# Elastic Constant Matrix: (Units=GPa)
#
#
# Indices 1 2 3 4 5 6 
#
# 1 126.5958 39.2506 44.4099 -12.4351 4.3259 32.5149
# 2 39.2506 82.1980 20.4897 1.3052 11.6042 15.5101
# 3 44.4099 20.4897 74.7116 -14.7727 2.1666 4.9782
# 4 -12.4351 1.3052 -14.7727 23.4596 5.4493 -3.4080
# 5 4.3259 11.6042 2.1666 5.4493 36.6902 -3.2707
# 6 32.5149 15.5101 4.9782 -3.4080 -3.2707 23.0684
#
#
#
# Elastic Compliance Matrix: (Units=1/GPa)
#
#
# Indices 1 2 3 4 5 6 
#
# 1 0.016826 -0.001736 -0.007664 0.001858 -0.003136 -0.021065
# 2 -0.001736 0.016364 -0.003543 -0.004237 -0.004945 -0.009118
# 3 -0.007664 -0.003543 0.020261 0.010350 0.000215 0.010371
# 4 0.001858 -0.004237 0.010350 0.052661 -0.006883 0.004801
# 5 -0.003136 -0.004945 0.000215 -0.006883 0.031188 0.011103
# 6 -0.021065 -0.009118 0.010371 0.004801 0.011103 0.079216
#
#
# Mechanical properties :
#
#
# Convention : Reuss Voigt Hill
#
# Bulk Modulus (GPa) = 36.27699 54.64509 45.46104
# Shear Modulus (GPa) = 19.87368 28.60066 24.23717
#
# Velocity S-wave (km/s) = 2.92895 3.51367 3.23455
# Velocity P-wave (km/s) = 5.20556 6.32847 5.79428
#
# Compressibility (1/GPa) = 0.02756568
#
# Stress axis : x y z
#
# Youngs Moduli (GPa) = 59.43246 61.11089 49.35595
#
# Poissons Ratio (x) = 0.10610 0.37824
# Poissons Ratio (y) = 0.10319 0.17485
# Poissons Ratio (z) = 0.45546 0.21649
#
# Static dielectric constant tensor:
#      x y z
#    x 1.984510 -0.028970 0.042700 
#    y -0.028970 1.892470 -0.022430 
#    z 0.042700 -0.022430 1.884770 
# 
# From -- ./inp_files/279439.got.cif
#   From: 2010.05.17/outbox.cif.g08.bks.cpg/sg2_140_cif.got.tgz:279439.got - 2010.06.03 11:33:40.
