data_PCOD9107601
_publ_section_title
;
Structure prediction by ZEFSAII (Michael W. Deem and Ramdas Pophale) SiO2 
 PCOD9107601
Probable space group: P -1
;
_chemical_formula_sum "Si O2"
_cell_formula_units_Z 16
_cell_length_a 12.941562
_cell_length_b 13.383117
_cell_length_c 12.956793
_cell_angle_alpha 51.478611
_cell_angle_beta 92.433322
_cell_angle_gamma 47.759616
_cell_volume 786.547904
_symmetry_space_group_name_H-M "P -1"
_symmetry_group_IT_number 2
_symmetry_cell_setting 'triclinic'
loop_
_space_group_symop_operation_xyz
x,y,z
-x,-y,-z
loop_
_atom_site_type_symbol
_atom_site_label
_atom_site_fract_x
_atom_site_fract_y
_atom_site_fract_z
Si Si1 0.840518 0.112044 0.007814
Si Si2 0.436122 0.149488 0.505419
Si Si3 0.009041 0.089925 0.197399
Si Si4 0.760792 0.755174 0.181092
Si Si5 0.631089 0.203589 0.447549
Si Si6 0.493500 0.655511 0.872212
Si Si7 0.085431 0.179541 0.954140
Si Si8 0.750011 0.861312 0.345735
O O1 0.602495 0.453305 0.775796
O O2 0.962481 0.006089 0.191062
O O3 0.831076 0.982518 0.042968
O O4 0.000000 0.000000 0.000000
O O5 0.601642 0.091345 0.562966
O O6 0.394867 0.090254 0.631669
O O7 0.187110 0.492840 0.267167
O O8 0.500000 0.000000 0.500000
O O9 0.751732 0.416159 0.008673
O O10 0.172851 0.929265 0.404460
O O11 0.124176 0.050512 0.138684
O O12 0.799048 0.811222 0.052854
O O13 0.772252 0.802444 0.265545
O O14 0.994402 0.411967 0.415942
O O15 0.500000 0.000000 0.000000
O O16 0.660835 0.153760 0.358631
O O17 0.387231 0.856543 0.828057
O O18 0.500000 0.500000 0.000000
#
# Coordination Sequence:
#
# PCOD9107601 Si02
#       8
#     2   2   2   2   2   2   2   2
#     4   9  18  38  57  88 126 160 197 251 314 361
#     4  11  19  40  66  89 126 161 207 255 310 372
#     4  10  22  39  63  99 119 158 213 260 314 363
#     4  10  24  42  61  96 127 164 216 250 310 373
#     4  11  22  38  63  98 119 160 212 257 314 366
#     4  11  24  45  67  87 130 166 205 262 320 373
#     4  10  20  40  65  87 130 165 200 261 308 375
#     4  10  23  43  64  89 126 174 203 254 321 369
#
# _framework density 20.342055999999999
#
# number of rings (size 3 to 8) (size 9 to 14) (size 15 to 20)
#    0.000    1.750    5.000    0.000    5.250    3.500 
#    2.250    1.250    0.000    0.000    0.000    0.000 
#    0.000    0.000    0.000    0.000    0.000    0.000 
#
# Total GULP energy -89101.041284 kJ/mol
# GULP energy per Si atom -5568.815080 kJ/mol
# Density = 2.029576 g / cm^3
# Si number density = 20.342056 Si / 1000 Ang^3
#
#
#
# Elastic Constant Matrix: (Units=GPa)
#
#
# Indices 1 2 3 4 5 6 
#
# 1 62.8426 -0.0608 35.2149 -7.2803 -0.3290 -9.3373
# 2 -0.0608 91.8008 17.9013 -17.7863 1.8946 10.5931
# 3 35.2149 17.9013 66.7155 3.3904 22.3016 8.7768
# 4 -7.2803 -17.7863 3.3904 23.3662 3.7708 -10.6820
# 5 -0.3290 1.8946 22.3016 3.7708 35.1789 3.0950
# 6 -9.3373 10.5931 8.7768 -10.6820 3.0950 33.9486
#
#
#
# Elastic Compliance Matrix: (Units=1/GPa)
#
#
# Indices 1 2 3 4 5 6 
#
# 1 0.049471 0.012422 -0.042281 0.042698 0.019175 0.032348
# 2 0.012422 0.017052 -0.015298 0.021994 0.005795 0.008443
# 3 -0.042281 -0.015298 0.057448 -0.043572 -0.028432 -0.032826
# 4 0.042698 0.021994 -0.043572 0.098175 0.012274 0.045917
# 5 0.019175 0.005795 -0.028432 0.012274 0.044064 0.010661
# 6 0.032348 0.008443 -0.032826 0.045917 0.010661 0.057682
#
#
# Mechanical properties :
#
#
# Convention : Reuss Voigt Hill
#
# Bulk Modulus (GPa) = 29.71133 36.38551 33.04842
# Shear Modulus (GPa) = 11.75300 29.71898 20.73599
#
# Velocity S-wave (km/s) = 2.40629 3.82640 3.19621
# Velocity P-wave (km/s) = 4.72841 6.11943 5.46833
#
# Compressibility (1/GPa) = 0.03365720
#
# Stress axis : x y z
#
# Youngs Moduli (GPa) = 20.21403 58.64427 17.40708
#
# Poissons Ratio (x) = -0.72846 0.73598
# Poissons Ratio (y) = -0.25109 0.26629
# Poissons Ratio (z) = 0.85466 0.89712
#
# Static dielectric constant tensor:
#      x y z
#    x 1.769660 -0.092760 0.016940 
#    y -0.092760 1.610000 0.013050 
#    z 0.016940 0.013050 1.724550 
# 
# From -- ./inp_files/427829.got.cif
#   From: 2010.05.17/outbox.cif.g08.bks.cpg/sg2_214_cif.got.tgz:427829.got - 2010.06.03 11:33:40.
