data_PCOD9107795
_publ_section_title
;
Structure prediction by ZEFSAII (Michael W. Deem and Ramdas Pophale) SiO2 
 PCOD9107795
Probable space group: P -1
;
_chemical_formula_sum "Si O2"
_cell_formula_units_Z 14
_cell_length_a 7.663922
_cell_length_b 14.390276
_cell_length_c 13.405564
_cell_angle_alpha 150.794926
_cell_angle_beta 61.329841
_cell_angle_gamma 100.038877
_cell_volume 519.605849
_symmetry_space_group_name_H-M "P -1"
_symmetry_group_IT_number 2
_symmetry_cell_setting 'triclinic'
loop_
_space_group_symop_operation_xyz
x,y,z
-x,-y,-z
loop_
_atom_site_type_symbol
_atom_site_label
_atom_site_fract_x
_atom_site_fract_y
_atom_site_fract_z
Si Si1 0.850018 0.496713 0.928771
Si Si2 0.656148 0.302038 0.960281
Si Si3 0.139727 0.539359 0.339992
Si Si4 0.653675 0.884151 0.478513
Si Si5 0.616279 0.730831 0.650052
Si Si6 0.237573 0.047385 0.880417
Si Si7 0.774000 0.222326 0.068548
O O1 0.738081 0.411292 0.959279
O O2 0.814296 0.469432 0.799230
O O3 0.136105 0.330476 0.713495
O O4 0.732994 0.764815 0.237439
O O5 0.658802 0.101692 0.711050
O O6 0.392726 0.496574 0.264265
O O7 0.823552 0.177174 0.894838
O O8 0.851943 0.732232 0.609189
O O9 0.165313 0.308709 0.155781
O O10 0.399384 0.945072 0.641044
O O11 0.717705 0.475635 0.340847
O O12 0.462746 0.764352 0.821459
O O13 0.419131 0.904119 0.785810
O O14 0.997169 0.060546 0.931801
#
# Coordination Sequence:
#
# PCOD9107795 Si02
#       7
#     2   2   2   2   2   2   2
#     4  11  22  44  69  95 141 183 216 281 334 404
#     4  11  24  43  63 108 136 172 230 278 333 408
#     4  10  23  41  67  97 135 177 226 272 339 400
#     4  10  23  41  68  95 135 177 225 269 339 398
#     4  10  20  44  69  96 132 184 223 278 338 402
#     4  10  20  40  65  97 132 173 228 274 332 407
#     4  10  23  40  69  99 137 173 227 282 339 397
#
# _framework density 26.943498000000002
#
# number of rings (size 3 to 8) (size 9 to 14) (size 15 to 20)
#    0.000    1.714    1.429    2.143    6.000    2.857 
#    7.714    2.857    0.000    0.000    0.000    0.000 
#    0.000    0.000    0.000    0.000    0.000    0.000 
#
# Total GULP energy -78357.725916 kJ/mol
# GULP energy per Si atom -5596.980423 kJ/mol
# Density = 2.688217 g / cm^3
# Si number density = 26.943498 Si / 1000 Ang^3
#
#
#
# Elastic Constant Matrix: (Units=GPa)
#
#
# Indices 1 2 3 4 5 6 
#
# 1 111.6639 40.2276 42.1724 -1.0130 -26.6275 9.5017
# 2 40.2276 128.1559 27.3575 0.7860 -15.6936 -11.6335
# 3 42.1724 27.3575 100.8222 9.4829 -0.0227 12.0565
# 4 -1.0130 0.7860 9.4829 26.5440 -3.9971 -9.7343
# 5 -26.6275 -15.6936 -0.0227 -3.9971 40.9472 5.3711
# 6 9.5017 -11.6335 12.0565 -9.7343 5.3711 36.2421
#
#
#
# Elastic Compliance Matrix: (Units=1/GPa)
#
#
# Indices 1 2 3 4 5 6 
#
# 1 0.014290 -0.002644 -0.005062 0.002473 0.008987 -0.003579
# 2 -0.002644 0.009789 -0.002400 0.002575 0.001615 0.005086
# 3 -0.005062 -0.002400 0.014097 -0.007855 -0.004234 -0.005615
# 4 0.002473 0.002575 -0.007855 0.046617 0.005235 0.014536
# 5 0.008987 0.001615 -0.004234 0.005235 0.031885 -0.003749
# 6 -0.003579 0.005086 -0.005615 0.014536 -0.003749 0.036491
#
#
# Mechanical properties :
#
#
# Convention : Reuss Voigt Hill
#
# Bulk Modulus (GPa) = 55.67381 62.23967 58.95674
# Shear Modulus (GPa) = 27.87532 36.13897 32.00714
#
# Velocity S-wave (km/s) = 3.21999 3.66633 3.45038
# Velocity P-wave (km/s) = 5.87643 6.40881 6.14839
#
# Compressibility (1/GPa) = 0.01796177
#
# Stress axis : x y z
#
# Youngs Moduli (GPa) = 69.97836 102.15403 70.93937
#
# Poissons Ratio (x) = 0.27014 0.35912
# Poissons Ratio (y) = 0.18505 0.17027
# Poissons Ratio (z) = 0.35426 0.24519
#
# Static dielectric constant tensor:
#      x y z
#    x 2.149090 0.011130 -0.035110 
#    y 0.011130 2.058640 0.042130 
#    z -0.035110 0.042130 2.176160 
# 
# From -- ./inp_files/504579.got.cif
#   From: 2010.05.17/outbox.cif.g08.bks.cpg/sg2_253_cif.got.tgz:504579.got - 2010.06.03 11:33:40.
