data_PCOD9107108
_publ_section_title
;
Structure prediction by ZEFSAII (Michael W. Deem and Ramdas Pophale) SiO2 
 PCOD9107108
Probable space group: P -1
;
_chemical_formula_sum "Si O2"
_cell_formula_units_Z 16
_cell_length_a 8.991748
_cell_length_b 11.429567
_cell_length_c 8.189028
_cell_angle_alpha 94.532422
_cell_angle_beta 107.115279
_cell_angle_gamma 77.535794
_cell_volume 785.264713
_symmetry_space_group_name_H-M "P -1"
_symmetry_group_IT_number 2
_symmetry_cell_setting 'triclinic'
loop_
_space_group_symop_operation_xyz
x,y,z
-x,-y,-z
loop_
_atom_site_type_symbol
_atom_site_label
_atom_site_fract_x
_atom_site_fract_y
_atom_site_fract_z
Si Si1 0.552232 0.891085 0.380192
Si Si2 0.791179 0.519045 0.772860
Si Si3 0.890040 0.376254 0.110361
Si Si4 0.907599 0.894505 0.508026
Si Si5 0.173591 0.660219 0.542150
Si Si6 0.492243 0.266813 0.372220
Si Si7 0.944759 0.884375 0.905395
Si Si8 0.608297 0.945190 0.883511
O O1 0.730001 0.899657 0.381539
O O2 0.551747 0.769881 0.463376
O O3 0.500000 0.000000 0.500000
O O4 0.409795 0.931160 0.212222
O O5 0.820429 0.432477 0.614822
O O6 0.628218 0.613765 0.706731
O O7 0.936829 0.588695 0.830661
O O8 0.793928 0.450405 0.939430
O O9 0.827350 0.392226 0.278780
O O10 0.922569 0.235675 0.060816
O O11 0.889773 0.898205 0.699871
O O12 0.019448 0.767009 0.489331
O O13 0.000000 0.000000 0.500000
O O14 0.328961 0.716920 0.580161
O O15 0.467436 0.156264 0.239893
O O16 0.788867 0.881184 0.961020
O O17 0.000000 0.000000 0.000000
O O18 0.500000 0.000000 0.000000
#
# Coordination Sequence:
#
# PCOD9107108 Si02
#       8
#     2   2   2   2   2   2   2   2
#     4  10  20  40  63  85 130 171 206 261 325 383
#     4  11  23  46  70  88 135 177 220 273 339 384
#     4  10  24  45  65  98 132 170 221 283 319 397
#     4  11  22  39  63  95 129 168 220 271 318 402
#     4  11  25  40  68  98 126 172 233 267 329 401
#     4  11  22  45  63  92 133 172 217 278 327 391
#     4  11  24  40  64  94 134 164 209 274 328 387
#     4  11  24  40  63  95 131 174 212 260 337 397
#
# _framework density 20.375294
#
# number of rings (size 3 to 8) (size 9 to 14) (size 15 to 20)
#    0.000    1.250    3.750    3.000    7.000    0.500 
#    2.250    0.000    0.000    0.000    0.000    0.000 
#    0.000    0.000    0.000    0.000    0.000    0.000 
#
# Total GULP energy -89244.445561 kJ/mol
# GULP energy per Si atom -5577.777848 kJ/mol
# Density = 2.032892 g / cm^3
# Si number density = 20.375294 Si / 1000 Ang^3
#
#
#
# Elastic Constant Matrix: (Units=GPa)
#
#
# Indices 1 2 3 4 5 6 
#
# 1 86.9114 20.4446 4.5232 -0.9496 -0.4749 -11.0367
# 2 20.4446 100.0983 41.4818 1.8884 -0.9409 -15.6236
# 3 4.5232 41.4818 48.1335 2.6522 -13.4466 -11.5135
# 4 -0.9496 1.8884 2.6522 41.2911 4.1051 -0.5316
# 5 -0.4749 -0.9409 -13.4466 4.1051 32.1827 -0.9863
# 6 -11.0367 -15.6236 -11.5135 -0.5316 -0.9863 37.8094
#
#
#
# Elastic Compliance Matrix: (Units=1/GPa)
#
#
# Indices 1 2 3 4 5 6 
#
# 1 0.012523 -0.003147 0.002646 0.000176 0.001274 0.003197
# 2 -0.003147 0.017526 -0.016372 0.000834 -0.006445 0.001182
# 3 0.002646 -0.016372 0.041404 -0.003501 0.017522 0.007023
# 4 0.000176 0.000834 -0.003501 0.024863 -0.004621 -0.000441
# 5 0.001274 -0.006445 0.017522 -0.004621 0.038936 0.003995
# 6 0.003197 0.001182 0.007023 -0.000441 0.003995 0.030107
#
#
# Mechanical properties :
#
#
# Convention : Reuss Voigt Hill
#
# Bulk Modulus (GPa) = 26.51986 40.89359 33.70672
# Shear Modulus (GPa) = 23.62146 33.50288 28.56217
#
# Velocity S-wave (km/s) = 3.40857 4.05938 3.74813
# Velocity P-wave (km/s) = 5.34182 6.48731 5.94223
#
# Compressibility (1/GPa) = 0.03770759
#
# Stress axis : x y z
#
# Youngs Moduli (GPa) = 79.85111 57.05949 24.15240
#
# Poissons Ratio (x) = 0.17955 -0.06390
# Poissons Ratio (y) = 0.25126 0.39541
# Poissons Ratio (z) = -0.21126 0.93416
#
# Static dielectric constant tensor:
#      x y z
#    x 1.706540 0.011160 -0.021900 
#    y 0.011160 1.701110 -0.027140 
#    z -0.021900 -0.027140 1.859470 
# 
# From -- ./inp_files/188703.got.cif
#   From: 2010.05.17/outbox.cif.g08.bks.cpg/sg2_95_cif.got.tgz:188703.got - 2010.06.03 11:33:40.
