data_PCOD9107103
_publ_section_title
;
Structure prediction by ZEFSAII (Michael W. Deem and Ramdas Pophale) SiO2 
 PCOD9107103
Probable space group: P -1
;
_chemical_formula_sum "Si O2"
_cell_formula_units_Z 16
_cell_length_a 8.490600
_cell_length_b 10.290918
_cell_length_c 15.334620
_cell_angle_alpha 98.267548
_cell_angle_beta 116.693761
_cell_angle_gamma 42.931788
_cell_volume 776.721849
_symmetry_space_group_name_H-M "P -1"
_symmetry_group_IT_number 2
_symmetry_cell_setting 'triclinic'
loop_
_space_group_symop_operation_xyz
x,y,z
-x,-y,-z
loop_
_atom_site_type_symbol
_atom_site_label
_atom_site_fract_x
_atom_site_fract_y
_atom_site_fract_z
Si Si1 0.900999 0.458522 0.045815
Si Si2 0.096371 0.750092 0.471674
Si Si3 0.516463 0.923148 0.627580
Si Si4 0.265476 0.854665 0.668159
Si Si5 0.659100 0.324427 0.147121
Si Si6 0.808543 0.939304 0.834548
Si Si7 0.125248 0.449442 0.431244
Si Si8 0.697621 0.616106 0.195189
O O1 0.829401 0.569625 0.129740
O O2 0.113298 0.225079 0.098890
O O3 0.622988 0.547948 0.955138
O O4 0.000000 0.500000 0.000000
O O5 0.236064 0.536219 0.460282
O O6 0.236411 0.752303 0.582743
O O7 0.798980 0.874018 0.444356
O O8 0.005660 0.903773 0.388550
O O9 0.500379 0.817209 0.687437
O O10 0.678504 0.950124 0.714633
O O11 0.653522 0.781642 0.564299
O O12 0.311440 0.774574 0.766950
O O13 0.680121 0.468366 0.184810
O O14 0.911804 0.150957 0.131197
O O15 0.591458 0.156049 0.843670
O O16 0.890317 0.563448 0.312892
O O17 0.000000 0.500000 0.500000
#
# Coordination Sequence:
#
# PCOD9107103 Si02
#       8
#     2   2   2   2   2   2   2   2
#     4  11  25  43  70  93 125 168 209 266 320 368
#     4   9  21  39  59  89 127 168 206 255 308 374
#     4  10  20  40  63  84 128 169 204 265 304 365
#     4   9  20  43  59  88 133 167 210 260 312 369
#     4  11  23  40  66  95 126 164 214 261 316 374
#     4  11  22  42  66  92 129 167 207 264 315 375
#     4  12  23  36  64  96 124 168 212 252 320 378
#     4  11  23  43  63  97 130 163 214 261 311 384
#
# _framework density 20.599397
#
# number of rings (size 3 to 8) (size 9 to 14) (size 15 to 20)
#    0.750    0.750    3.750    3.000    0.000    4.500 
#    2.250    1.250    0.000    0.000    0.000    0.000 
#    0.000    0.000    0.000    0.000    0.000    0.000 
#
# Total GULP energy -89357.897679 kJ/mol
# GULP energy per Si atom -5584.868605 kJ/mol
# Density = 2.055251 g / cm^3
# Si number density = 20.599397 Si / 1000 Ang^3
#
#
#
# Elastic Constant Matrix: (Units=GPa)
#
#
# Indices 1 2 3 4 5 6 
#
# 1 67.1848 6.0691 19.2763 13.6697 -9.2956 -3.3699
# 2 6.0691 106.1797 6.8047 5.9882 -17.3259 -2.2000
# 3 19.2763 6.8047 81.6836 6.0930 -13.2831 5.9740
# 4 13.6697 5.9882 6.0930 18.2332 -11.4791 4.1611
# 5 -9.2956 -17.3259 -13.2831 -11.4791 41.0596 -0.3542
# 6 -3.3699 -2.2000 5.9740 4.1611 -0.3542 20.8432
#
#
#
# Elastic Compliance Matrix: (Units=1/GPa)
#
#
# Indices 1 2 3 4 5 6 
#
# 1 0.019477 -0.000013 -0.004176 -0.015707 -0.001274 0.007459
# 2 -0.000013 0.010164 -0.000228 -0.001114 0.003913 0.001425
# 3 -0.004176 -0.000228 0.014123 0.002244 0.004110 -0.005125
# 4 -0.015707 -0.001114 0.002244 0.083154 0.019779 -0.019565
# 5 -0.001274 0.003913 0.004110 0.019779 0.032539 -0.004367
# 6 0.007459 0.001425 -0.005125 -0.019565 -0.004367 0.054634
#
#
# Mechanical properties :
#
#
# Convention : Reuss Voigt Hill
#
# Bulk Modulus (GPa) = 28.62996 35.48314 32.05655
# Shear Modulus (GPa) = 21.31555 30.88706 26.10131
#
# Velocity S-wave (km/s) = 3.22027 3.87643 3.56348
# Velocity P-wave (km/s) = 5.26834 6.10724 5.70324
#
# Compressibility (1/GPa) = 0.03492845
#
# Stress axis : x y z
#
# Youngs Moduli (GPa) = 51.34157 98.38423 70.80758
#
# Poissons Ratio (x) = 0.00130 0.29572
# Poissons Ratio (y) = 0.00068 0.01618
# Poissons Ratio (z) = 0.21442 0.02248
#
# Static dielectric constant tensor:
#      x y z
#    x 1.750000 0.009500 -0.002960 
#    y 0.009500 1.756690 -0.010220 
#    z -0.002960 -0.010220 1.714610 
# 
# From -- ./inp_files/499195.got.cif
#   From: 2010.05.17/outbox.cif.g08.bks.cpg/sg2_250_cif.got.tgz:499195.got - 2010.06.03 11:33:40.
