data_PCOD9107531
_publ_section_title
;
Structure prediction by ZEFSAII (Michael W. Deem and Ramdas Pophale) SiO2 
 PCOD9107531
Probable space group: P -1
;
_chemical_formula_sum "Si O2"
_cell_formula_units_Z 14
_cell_length_a 8.224075
_cell_length_b 7.046352
_cell_length_c 17.124810
_cell_angle_alpha 50.218649
_cell_angle_beta 49.512866
_cell_angle_gamma 70.734751
_cell_volume 573.782781
_symmetry_space_group_name_H-M "P -1"
_symmetry_group_IT_number 2
_symmetry_cell_setting 'triclinic'
loop_
_space_group_symop_operation_xyz
x,y,z
-x,-y,-z
loop_
_atom_site_type_symbol
_atom_site_label
_atom_site_fract_x
_atom_site_fract_y
_atom_site_fract_z
Si Si1 0.789030 0.883044 0.241947
Si Si2 0.255265 0.380210 0.119423
Si Si3 0.112846 0.827735 0.277245
Si Si4 0.500520 0.580778 0.283383
Si Si5 0.489782 0.745798 0.494100
Si Si6 0.952975 0.665280 0.043244
Si Si7 0.024902 0.915643 0.601464
O O1 0.604448 0.775375 0.266557
O O2 0.648130 0.957383 0.341055
O O3 0.951502 0.738312 0.280599
O O4 0.948594 0.062988 0.089111
O O5 0.094053 0.569111 0.093675
O O6 0.179106 0.284846 0.254171
O O7 0.210834 0.119344 0.152886
O O8 0.500000 0.500000 0.000000
O O9 0.296952 0.664325 0.282376
O O10 0.992485 0.867277 0.386298
O O11 0.450782 0.332590 0.416648
O O12 0.702123 0.599704 0.157626
O O13 0.500000 0.500000 0.500000
O O14 0.249263 0.806928 0.562678
O O15 0.000000 0.500000 0.000000
O O16 0.000000 0.000000 0.500000
#
# Coordination Sequence:
#
# PCOD9107531 Si02
#       7
#     2   2   2   2   2   2   2
#     4  11  24  42  71  99 138 177 228 274 338 400
#     4  10  22  41  65  96 134 172 224 274 339 399
#     4  10  23  43  67 101 132 174 233 275 331 411
#     4  11  23  46  70  92 142 182 220 281 343 390
#     4  10  22  41  65  97 132 181 221 271 337 401
#     4  12  23  46  65  99 134 179 224 280 334 406
#     4  10  20  40  64  97 133 174 224 278 333 398
#
# _framework density 24.399477000000001
#
# number of rings (size 3 to 8) (size 9 to 14) (size 15 to 20)
#    0.857    0.571    2.857    3.000    2.000    1.714 
#    2.571    0.000    0.000    0.000    0.000    0.000 
#    0.000    0.000    0.000    0.000    0.000    0.000 
#
# Total GULP energy -78124.105936 kJ/mol
# GULP energy per Si atom -5580.293281 kJ/mol
# Density = 2.434394 g / cm^3
# Si number density = 24.399477 Si / 1000 Ang^3
#
#
#
# Elastic Constant Matrix: (Units=GPa)
#
#
# Indices 1 2 3 4 5 6 
#
# 1 118.1736 22.8739 47.7719 -12.0430 -2.6574 -40.4550
# 2 22.8739 59.8988 35.5185 13.4260 -6.0304 -24.8678
# 3 47.7719 35.5185 222.1614 9.3272 -4.2651 -26.5325
# 4 -12.0430 13.4260 9.3272 35.3189 -7.8964 -5.3115
# 5 -2.6574 -6.0304 -4.2651 -7.8964 52.2353 6.1348
# 6 -40.4550 -24.8678 -26.5325 -5.3115 6.1348 45.0216
#
#
#
# Elastic Compliance Matrix: (Units=1/GPa)
#
#
# Indices 1 2 3 4 5 6 
#
# 1 0.014307 -0.001082 -0.001777 0.007619 0.000190 0.012085
# 2 -0.001082 0.024337 -0.002109 -0.007457 0.000244 0.010315
# 3 -0.001777 -0.002109 0.005296 -0.001192 -0.000109 0.000234
# 4 0.007619 -0.007457 -0.001192 0.035851 0.004181 0.005684
# 5 0.000190 0.000244 -0.000109 0.004181 0.020040 -0.001996
# 6 0.012085 0.010315 0.000234 0.005684 -0.001996 0.039849
#
#
# Mechanical properties :
#
#
# Convention : Reuss Voigt Hill
#
# Bulk Modulus (GPa) = 29.40595 68.06249 48.73422
# Shear Modulus (GPa) = 31.06586 46.11977 38.59281
#
# Velocity S-wave (km/s) = 3.57209 4.35235 3.98138
# Velocity P-wave (km/s) = 5.39362 7.29472 6.41499
#
# Compressibility (1/GPa) = 0.03400673
#
# Stress axis : x y z
#
# Youngs Moduli (GPa) = 69.89399 41.09030 188.81021
#
# Poissons Ratio (x) = 0.04444 0.33544
# Poissons Ratio (y) = 0.07560 0.39813
# Poissons Ratio (z) = 0.12417 0.08664
#
# Static dielectric constant tensor:
#      x y z
#    x 1.921390 0.085320 -0.036010 
#    y 0.085320 2.098910 -0.137390 
#    z -0.036010 -0.137390 2.052450 
# 
# From -- ./inp_files/555863.got.cif
#   From: 2010.05.17/outbox.cif.g08.bks.cpg/sg2_278_cif.got.tgz:555863.got - 2010.06.03 11:33:40.
