data_PCOD9107627
_publ_section_title
;
Structure prediction by ZEFSAII (Michael W. Deem and Ramdas Pophale) SiO2 
 PCOD9107627
Probable space group: P -1
;
_chemical_formula_sum "Si O2"
_cell_formula_units_Z 15
_cell_length_a 7.948590
_cell_length_b 13.074705
_cell_length_c 15.586692
_cell_angle_alpha 50.484236
_cell_angle_beta 129.651079
_cell_angle_gamma 89.545895
_cell_volume 690.009393
_symmetry_space_group_name_H-M "P -1"
_symmetry_group_IT_number 2
_symmetry_cell_setting 'triclinic'
loop_
_space_group_symop_operation_xyz
x,y,z
-x,-y,-z
loop_
_atom_site_type_symbol
_atom_site_label
_atom_site_fract_x
_atom_site_fract_y
_atom_site_fract_z
Si Si1 0.177168 0.620289 0.952282
Si Si2 0.536813 0.130183 0.980355
Si Si3 0.900410 0.481073 0.668944
Si Si4 0.145063 0.621861 0.749315
Si Si5 0.328191 0.430032 0.630784
Si Si6 0.882584 0.015301 0.654425
Si Si7 0.605647 0.574931 0.698411
Si Si8 0.000000 0.000000 0.500000
O O1 0.103569 0.589934 0.851517
O O2 0.505221 0.549355 0.074656
O O3 0.234207 0.505060 0.114554
O O4 0.938328 0.835838 0.784051
O O5 0.554457 0.230968 0.855565
O O6 0.229475 0.289414 0.848784
O O7 0.500000 0.000000 0.000000
O O8 0.832390 0.027336 0.189067
O O9 0.660444 0.556185 0.475121
O O10 0.814837 0.461886 0.744223
O O11 0.936062 0.623626 0.618771
O O12 0.081716 0.803934 0.629745
O O13 0.366212 0.553576 0.624948
O O14 0.000000 0.500000 0.500000
O O15 0.577006 0.211325 0.484828
O O16 0.889205 0.033330 0.545510
#
# Coordination Sequence:
#
# PCOD9107627 Si02
#       8
#     2   2   2   2   2   2   2   1
#     4  10  20  40  65  89 125 166 215 255 302 376
#     4  11  23  40  66  94 120 163 222 257 300 383
#     4  11  24  41  62  95 131 165 201 269 329 364
#     4  10  20  40  65  95 121 169 219 258 301 373
#     4  10  21  41  65  88 121 168 211 254 303 376
#     4  11  21  39  64  95 118 169 215 253 305 375
#     4  12  23  41  65  94 135 163 199 268 329 366
#     4  10  22  34  70  94 122 164 222 264 290 372
#
# _framework density 21.738834000000001
#
# number of rings (size 3 to 8) (size 9 to 14) (size 15 to 20)
#    0.000    1.333    4.000    2.800    1.867    0.533 
#    2.400    4.000    0.000    0.000    0.000    0.000 
#    0.000    0.000    0.000    0.000    0.000    0.000 
#
# Total GULP energy -83544.140758 kJ/mol
# GULP energy per Si atom -5569.609384 kJ/mol
# Density = 2.168936 g / cm^3
# Si number density = 21.738834 Si / 1000 Ang^3
#
#
#
# Elastic Constant Matrix: (Units=GPa)
#
#
# Indices 1 2 3 4 5 6 
#
# 1 63.8781 15.1492 33.1384 -6.4650 -8.1051 -20.5416
# 2 15.1492 100.0145 36.7648 -9.1494 0.8363 -13.4286
# 3 33.1384 36.7648 75.3166 -15.0704 -10.1101 -19.7632
# 4 -6.4650 -9.1494 -15.0704 26.7986 7.0206 -3.1461
# 5 -8.1051 0.8363 -10.1101 7.0206 19.8431 5.1198
# 6 -20.5416 -13.4286 -19.7632 -3.1461 5.1198 31.1156
#
#
#
# Elastic Compliance Matrix: (Units=1/GPa)
#
#
# Indices 1 2 3 4 5 6 
#
# 1 0.023150 0.000723 -0.006742 0.002813 0.002092 0.011253
# 2 0.000723 0.012787 -0.005705 0.003098 -0.005158 0.003534
# 3 -0.006742 -0.005705 0.023737 0.009740 0.003942 0.008500
# 4 0.002813 0.003098 0.009740 0.050864 -0.016461 0.017232
# 5 0.002092 -0.005158 0.003942 -0.016461 0.061930 -0.010196
# 6 0.011253 0.003534 0.008500 0.017232 -0.010196 0.049911
#
#
# Mechanical properties :
#
#
# Convention : Reuss Voigt Hill
#
# Bulk Modulus (GPa) = 27.60530 45.47934 36.54232
# Shear Modulus (GPa) = 19.38714 25.82858 22.60786
#
# Velocity S-wave (km/s) = 2.98958 3.45067 3.22836
# Velocity P-wave (km/s) = 4.96417 6.06979 5.54460
#
# Compressibility (1/GPa) = 0.03622493
#
# Stress axis : x y z
#
# Youngs Moduli (GPa) = 43.19707 78.20254 42.12879
#
# Poissons Ratio (x) = -0.05650 0.28403
# Poissons Ratio (y) = -0.03121 0.24035
# Poissons Ratio (z) = 0.29123 0.44615
#
# Static dielectric constant tensor:
#      x y z
#    x 1.834970 0.008080 0.001990 
#    y 0.008080 1.802250 0.013870 
#    z 0.001990 0.013870 1.817610 
# 
# From -- ./inp_files/318484.got.cif
#   From: 2010.05.17/outbox.cif.g08.bks.cpg/sg2_160_cif.got.tgz:318484.got - 2010.06.03 11:33:40.
