data_PCOD9107874
_publ_section_title
;
Structure prediction by ZEFSAII (Michael W. Deem and Ramdas Pophale) SiO2 
 PCOD9107874
Probable space group: P -1
;
_chemical_formula_sum "Si O2"
_cell_formula_units_Z 14
_cell_length_a 9.839650
_cell_length_b 29.737877
_cell_length_c 4.979564
_cell_angle_alpha 123.925041
_cell_angle_beta 56.924813
_cell_angle_gamma 144.415976
_cell_volume 690.684394
_symmetry_space_group_name_H-M "P -1"
_symmetry_group_IT_number 2
_symmetry_cell_setting 'triclinic'
loop_
_space_group_symop_operation_xyz
x,y,z
-x,-y,-z
loop_
_atom_site_type_symbol
_atom_site_label
_atom_site_fract_x
_atom_site_fract_y
_atom_site_fract_z
Si Si1 0.360455 0.568534 0.998759
Si Si2 0.867723 0.386317 0.858832
Si Si3 0.599858 0.581955 0.272731
Si Si4 0.123687 0.684926 0.898759
Si Si5 0.571462 0.861431 0.830756
Si Si6 0.878741 0.917823 0.217145
Si Si7 0.612801 0.997123 0.119024
O O1 0.516968 0.572817 0.633068
O O2 0.102800 0.477021 0.994958
O O3 0.316102 0.616250 0.078041
O O4 0.481484 0.596874 0.251822
O O5 0.937204 0.363356 0.465128
O O6 0.782079 0.332504 0.030247
O O7 0.500000 0.500000 0.000000
O O8 0.882008 0.650587 0.163056
O O9 0.322728 0.776600 0.911596
O O10 0.750951 0.902431 0.026863
O O11 0.683237 0.854369 0.439772
O O12 0.546539 0.917323 0.947029
O O13 0.000000 0.000000 0.500000
O O14 0.099078 0.931843 0.970822
O O15 0.500000 0.000000 0.500000
O O16 0.500000 0.000000 0.000000
#
# Coordination Sequence:
#
# PCOD9107874 Si02
#       7
#     2   2   2   2   2   2   2
#     4  11  22  38  60  86 115 149 216 262 293 351
#     4  11  22  39  60  85 114 159 202 259 304 354
#     4  12  21  38  61  89 116 164 206 255 305 359
#     4  12  24  39  61  87 124 160 204 251 311 358
#     4  11  23  41  60  91 125 162 199 246 298 364
#     4  10  20  40  66  88 118 160 202 234 284 368
#     4  11  21  38  66  95 118 151 197 243 292 351
#
# _framework density 20.269749999999998
#
# number of rings (size 3 to 8) (size 9 to 14) (size 15 to 20)
#    0.000    0.857    2.857    7.286    0.000    2.286 
#    0.000    8.571    0.000    0.000    0.000    0.000 
#    0.000    0.000    0.000    0.000    0.000    0.000 
#
# Total GULP energy -78286.030309 kJ/mol
# GULP energy per Si atom -5591.859308 kJ/mol
# Density = 2.022362 g / cm^3
# Si number density = 20.269750 Si / 1000 Ang^3
#
#
#
# Elastic Constant Matrix: (Units=GPa)
#
#
# Indices 1 2 3 4 5 6 
#
# 1 144.4504 45.7710 21.2345 -3.8638 3.2497 -16.7814
# 2 45.7710 109.8211 11.2441 -23.4113 -14.1682 -9.5231
# 3 21.2345 11.2441 79.8002 -26.2638 -1.9889 -5.2294
# 4 -3.8638 -23.4113 -26.2638 27.2239 1.4327 2.3999
# 5 3.2497 -14.1682 -1.9889 1.4327 38.7906 -12.5967
# 6 -16.7814 -9.5231 -5.2294 2.3999 -12.5967 30.2844
#
#
#
# Elastic Compliance Matrix: (Units=1/GPa)
#
#
# Indices 1 2 3 4 5 6 
#
# 1 0.009198 -0.004833 -0.003831 -0.006710 -0.001578 0.002791
# 2 -0.004833 0.015532 0.005125 0.016811 0.007274 0.004784
# 3 -0.003831 0.005125 0.020833 0.023567 0.003222 0.002558
# 4 -0.006710 0.016811 0.023567 0.072444 0.006014 0.002398
# 5 -0.001578 0.007274 0.003222 0.006014 0.033524 0.015437
# 6 0.002791 0.004784 0.002558 0.002398 0.015437 0.042744
#
#
# Mechanical properties :
#
#
# Convention : Reuss Voigt Hill
#
# Bulk Modulus (GPa) = 25.98473 54.50789 40.24631
# Shear Modulus (GPa) = 23.34463 36.31458 29.82961
#
# Velocity S-wave (km/s) = 3.39735 4.23728 3.84035
# Velocity P-wave (km/s) = 5.31381 7.13365 6.28990
#
# Compressibility (1/GPa) = 0.03848414
#
# Stress axis : x y z
#
# Youngs Moduli (GPa) = 108.72308 64.38201 48.00100
#
# Poissons Ratio (x) = 0.31117 0.18391
# Poissons Ratio (y) = 0.52548 -0.24601
# Poissons Ratio (z) = 0.41656 -0.32997
#
# Static dielectric constant tensor:
#      x y z
#    x 1.718530 -0.001530 -0.021120 
#    y -0.001530 1.728000 -0.004580 
#    z -0.021120 -0.004580 1.720600 
# 
# From -- ./inp_files/55098.got.cif
#   From: 2010.05.17/outbox.cif.g08.bks.cpg/sg2_28_cif.got.tgz:55098.got - 2010.06.03 11:33:40.
