data_PCOD9107707
_publ_section_title
;
Structure prediction by ZEFSAII (Michael W. Deem and Ramdas Pophale) SiO2 
 PCOD9107707
Probable space group: P -1
;
_chemical_formula_sum "Si O2"
_cell_formula_units_Z 14
_cell_length_a 11.664099
_cell_length_b 10.271693
_cell_length_c 7.753343
_cell_angle_alpha 69.563025
_cell_angle_beta 40.716204
_cell_angle_gamma 72.783410
_cell_volume 567.065179
_symmetry_space_group_name_H-M "P -1"
_symmetry_group_IT_number 2
_symmetry_cell_setting 'triclinic'
loop_
_space_group_symop_operation_xyz
x,y,z
-x,-y,-z
loop_
_atom_site_type_symbol
_atom_site_label
_atom_site_fract_x
_atom_site_fract_y
_atom_site_fract_z
Si Si1 0.915582 0.224397 0.447253
Si Si2 0.685574 0.988059 0.194751
Si Si3 0.263917 0.496071 0.386132
Si Si4 0.453306 0.119448 0.137133
Si Si5 0.219630 0.332719 0.835343
Si Si6 0.923669 0.956229 0.339633
Si Si7 0.624526 0.574185 0.056517
O O1 0.777869 0.342305 0.611447
O O2 0.017225 0.146143 0.523415
O O3 0.869852 0.105258 0.419102
O O4 0.046188 0.316340 0.149297
O O5 0.627695 0.100889 0.061962
O O6 0.500000 0.000000 0.500000
O O7 0.701050 0.826006 0.196026
O O8 0.889087 0.026247 0.984804
O O9 0.176726 0.395988 0.668141
O O10 0.231472 0.463105 0.238720
O O11 0.468623 0.476242 0.223769
O O12 0.424050 0.264916 0.007359
O O13 0.270025 0.096696 0.464618
O O14 0.500000 0.000000 0.000000
O O15 0.328915 0.429085 0.794122
#
# Coordination Sequence:
#
# PCOD9107707 Si02
#       7
#     2   2   2   2   2   2   2
#     4  10  20  40  65  93 124 167 211 274 331 385
#     4  11  24  40  66  98 133 169 217 280 337 387
#     4  11  24  39  65  91 132 173 215 271 326 386
#     4  12  20  40  71  92 126 176 217 269 337 392
#     4  11  22  42  62  95 131 167 221 267 323 410
#     4  10  21  40  67  99 127 166 228 271 328 408
#     4  11  23  41  62  95 128 171 223 263 324 402
#
# _framework density 24.688521000000001
#
# number of rings (size 3 to 8) (size 9 to 14) (size 15 to 20)
#    0.000    1.143    2.857    5.143    0.000    2.286 
#    0.000    0.000    0.000    0.000    0.000    0.000 
#    0.000    0.000    0.000    0.000    0.000    0.000 
#
# Total GULP energy -78050.087569 kJ/mol
# GULP energy per Si atom -5575.006255 kJ/mol
# Density = 2.463233 g / cm^3
# Si number density = 24.688521 Si / 1000 Ang^3
#
#
#
# Elastic Constant Matrix: (Units=GPa)
#
#
# Indices 1 2 3 4 5 6 
#
# 1 83.8448 -9.5128 23.0942 11.1916 -16.6473 -5.7051
# 2 -9.5128 63.2783 36.7737 10.7869 -0.2354 -11.4488
# 3 23.0942 36.7737 123.6885 7.1721 -2.4124 5.8778
# 4 11.1916 10.7869 7.1721 40.1578 1.7750 -0.8735
# 5 -16.6473 -0.2354 -2.4124 1.7750 26.2251 -2.7311
# 6 -5.7051 -11.4488 5.8778 -0.8735 -2.7311 19.0879
#
#
#
# Elastic Compliance Matrix: (Units=1/GPa)
#
#
# Indices 1 2 3 4 5 6 
#
# 1 0.020503 0.011954 -0.007462 -0.007868 0.014775 0.017350
# 2 0.011954 0.031101 -0.012015 -0.009405 0.010206 0.026957
# 3 -0.007462 -0.012015 0.013459 0.002828 -0.005278 -0.014207
# 4 -0.007868 -0.009405 0.002828 0.029268 -0.007698 -0.008625
# 5 0.014775 0.010206 -0.005278 -0.007698 0.049607 0.018908
# 6 0.017350 0.026957 -0.014207 -0.008625 0.018908 0.080429
#
#
# Mechanical properties :
#
#
# Convention : Reuss Voigt Hill
#
# Bulk Modulus (GPa) = 19.99364 41.28019 30.63692
# Shear Modulus (GPa) = 19.52471 31.79127 25.65799
#
# Velocity S-wave (km/s) = 2.81524 3.59234 3.22727
# Velocity P-wave (km/s) = 4.32243 5.82780 5.13062
#
# Compressibility (1/GPa) = 0.05001592
#
# Stress axis : x y z
#
# Youngs Moduli (GPa) = 48.77376 32.15290 74.30178
#
# Poissons Ratio (x) = -0.38436 0.55446
# Poissons Ratio (y) = -0.58305 0.89276
# Poissons Ratio (z) = 0.36396 0.38633
#
# Static dielectric constant tensor:
#      x y z
#    x 2.026070 0.048660 0.017800 
#    y 0.048660 1.876690 0.010470 
#    z 0.017800 0.010470 2.143270 
# 
# From -- ./inp_files/304704.got.cif
#   From: 2010.05.17/outbox.cif.g08.bks.cpg/sg2_153_cif.got.tgz:304704.got - 2010.06.03 11:33:40.
