data_PCOD9107502
_publ_section_title
;
Structure prediction by ZEFSAII (Michael W. Deem and Ramdas Pophale) SiO2 
 PCOD9107502
Probable space group: P -1
;
_chemical_formula_sum "Si O2"
_cell_formula_units_Z 14
_cell_length_a 6.112346
_cell_length_b 13.796168
_cell_length_c 11.679820
_cell_angle_alpha 46.021326
_cell_angle_beta 94.575691
_cell_angle_gamma 116.808498
_cell_volume 589.323183
_symmetry_space_group_name_H-M "P -1"
_symmetry_group_IT_number 2
_symmetry_cell_setting 'triclinic'
loop_
_space_group_symop_operation_xyz
x,y,z
-x,-y,-z
loop_
_atom_site_type_symbol
_atom_site_label
_atom_site_fract_x
_atom_site_fract_y
_atom_site_fract_z
Si Si1 0.813224 0.304007 0.448495
Si Si2 0.962897 0.846076 0.248128
Si Si3 0.941124 0.633747 0.218208
Si Si4 0.509103 0.110073 0.013294
Si Si5 0.240633 0.276570 0.092036
Si Si6 0.188288 0.480899 0.105854
Si Si7 0.281799 0.041216 0.689874
O O1 0.805076 0.446831 0.391426
O O2 0.513771 0.166628 0.512758
O O3 0.917439 0.223673 0.602552
O O4 0.021730 0.390876 0.284559
O O5 0.890602 0.732519 0.228289
O O6 0.740442 0.856177 0.293595
O O7 0.201439 0.033188 0.080703
O O8 0.849105 0.657720 0.071087
O O9 0.256114 0.713108 0.158664
O O10 0.618032 0.063874 0.164133
O O11 0.500000 0.000000 0.000000
O O12 0.253771 0.364943 0.137506
O O13 0.539846 0.343734 0.014520
O O14 0.016746 0.087875 0.255418
O O15 0.000000 0.500000 0.000000
#
# Coordination Sequence:
#
# PCOD9107502 Si02
#       7
#     2   2   2   2   2   2   2
#     4  11  24  40  63  94 131 165 207 257 313 368
#     4  10  22  39  61  94 138 168 196 254 316 375
#     4  10  20  40  64  95 128 165 213 252 304 376
#     4   8  18  36  58  88 124 165 212 244 295 367
#     4  10  24  43  68  95 117 164 219 256 309 373
#     4  11  24  45  69  90 121 161 216 269 310 363
#     4  10  23  40  60  96 131 162 205 253 315 376
#
# _framework density 23.756065
#
# number of rings (size 3 to 8) (size 9 to 14) (size 15 to 20)
#    0.000    2.000    1.429    0.429    4.000    7.429 
#    5.143    1.429    0.000    0.000    0.000    0.000 
#    0.000    0.000    0.000    0.000    0.000    0.000 
#
# Total GULP energy -78214.540347 kJ/mol
# GULP energy per Si atom -5586.752882 kJ/mol
# Density = 2.370200 g / cm^3
# Si number density = 23.756065 Si / 1000 Ang^3
#
#
#
# Elastic Constant Matrix: (Units=GPa)
#
#
# Indices 1 2 3 4 5 6 
#
# 1 81.0766 28.3824 43.9679 -13.5417 -16.8578 1.5260
# 2 28.3824 90.5104 49.2262 -22.1813 -20.0576 2.5757
# 3 43.9679 49.2262 116.7978 -33.6524 -25.3251 9.9942
# 4 -13.5417 -22.1813 -33.6524 39.9894 6.5154 -10.5043
# 5 -16.8578 -20.0576 -25.3251 6.5154 47.3175 -4.1762
# 6 1.5260 2.5757 9.9942 -10.5043 -4.1762 43.9277
#
#
#
# Elastic Compliance Matrix: (Units=1/GPa)
#
#
# Indices 1 2 3 4 5 6 
#
# 1 0.016100 -0.001893 -0.004737 0.000260 0.002444 0.000924
# 2 -0.001893 0.015600 -0.003965 0.004514 0.003322 0.001449
# 3 -0.004737 -0.003965 0.015229 0.008229 0.003582 -0.000759
# 4 0.000260 0.004514 0.008229 0.035935 0.002049 0.006642
# 5 0.002444 0.003322 0.003582 0.002049 0.025206 0.001792
# 6 0.000924 0.001449 -0.000759 0.006642 0.001792 0.024579
#
#
# Mechanical properties :
#
#
# Convention : Reuss Voigt Hill
#
# Bulk Modulus (GPa) = 38.85303 59.05975 48.95639
# Shear Modulus (GPa) = 30.78473 37.36747 34.07610
#
# Velocity S-wave (km/s) = 3.60372 3.97037 3.79148
# Velocity P-wave (km/s) = 5.80571 6.77741 6.31029
#
# Compressibility (1/GPa) = 0.02573802
#
# Stress axis : x y z
#
# Youngs Moduli (GPa) = 62.11242 64.10271 65.66496
#
# Poissons Ratio (x) = 0.12137 0.31106
# Poissons Ratio (y) = 0.11760 0.26036
# Poissons Ratio (z) = 0.29423 0.25416
#
# Static dielectric constant tensor:
#      x y z
#    x 1.928090 -0.001830 -0.044430 
#    y -0.001830 1.952500 -0.027080 
#    z -0.044430 -0.027080 1.906460 
# 
# From -- ./inp_files/36239.got.cif
#   From: 2010.05.17/outbox.cif.g08.bks.cpg/sg2_19_cif.got.tgz:36239.got - 2010.06.03 11:33:40.
