data_PCOD9107879
_publ_section_title
;
Structure prediction by ZEFSAII (Michael W. Deem and Ramdas Pophale) SiO2 
 PCOD9107879
Probable space group: P -1
;
_chemical_formula_sum "Si O2"
_cell_formula_units_Z 14
_cell_length_a 7.781079
_cell_length_b 16.492080
_cell_length_c 11.246600
_cell_angle_alpha 47.101459
_cell_angle_beta 137.034748
_cell_angle_gamma 99.803872
_cell_volume 543.472027
_symmetry_space_group_name_H-M "P -1"
_symmetry_group_IT_number 2
_symmetry_cell_setting 'triclinic'
loop_
_space_group_symop_operation_xyz
x,y,z
-x,-y,-z
loop_
_atom_site_type_symbol
_atom_site_label
_atom_site_fract_x
_atom_site_fract_y
_atom_site_fract_z
Si Si1 0.429349 0.908861 0.482942
Si Si2 0.550705 0.804005 0.404895
Si Si3 0.877091 0.200503 0.271998
Si Si4 0.275292 0.380853 0.969917
Si Si5 0.541995 0.573871 0.338410
Si Si6 0.633173 0.560627 0.796483
Si Si7 0.737815 0.035949 0.117220
O O1 0.413088 0.928923 0.312248
O O2 0.089376 0.948243 0.313602
O O3 0.500000 0.000000 0.500000
O O4 0.721544 0.737528 0.837659
O O5 0.430657 0.725173 0.481394
O O6 0.930625 0.739806 0.661525
O O7 0.465989 0.816465 0.211211
O O8 0.136740 0.031741 0.619402
O O9 0.547481 0.286578 0.099621
O O10 0.740913 0.253183 0.015746
O O11 0.913610 0.512743 0.603765
O O12 0.376079 0.435919 0.070122
O O13 0.500000 0.500000 0.500000
O O14 0.519785 0.498488 0.289112
O O15 0.000000 0.500000 0.000000
O O16 0.500000 0.000000 0.000000
#
# Coordination Sequence:
#
# PCOD9107879 Si02
#       7
#     2   2   2   2   2   2   2
#     4  10  21  39  65  93 124 167 219 263 313 389
#     4  10  20  40  66  88 125 165 213 263 313 387
#     4  10  21  41  62  88 133 163 206 269 323 374
#     4  10  23  41  61  94 132 164 208 269 325 376
#     4  12  22  39  68  92 123 170 218 261 320 386
#     4  11  21  40  64  95 124 166 217 261 312 384
#     4   9  20  39  63  87 125 166 204 263 323 372
#
# _framework density 25.760296
#
# number of rings (size 3 to 8) (size 9 to 14) (size 15 to 20)
#    0.000    1.714    2.857    1.714    2.000    0.571 
#    0.000    6.429    6.286    0.000    0.000    0.000 
#    0.000    0.000    0.000    0.000    0.000    0.000 
#
# Total GULP energy -77989.101826 kJ/mol
# GULP energy per Si atom -5570.650130 kJ/mol
# Density = 2.570166 g / cm^3
# Si number density = 25.760296 Si / 1000 Ang^3
#
#
#
# Elastic Constant Matrix: (Units=GPa)
#
#
# Indices 1 2 3 4 5 6 
#
# 1 109.4114 14.2362 28.6897 16.5726 -12.5332 9.7701
# 2 14.2362 112.9557 31.1331 40.1293 -20.1544 -14.4132
# 3 28.6897 31.1331 161.4574 45.1965 -24.4960 4.8880
# 4 16.5726 40.1293 45.1965 39.9215 -10.5745 -6.8325
# 5 -12.5332 -20.1544 -24.4960 -10.5745 43.7728 -0.3777
# 6 9.7701 -14.4132 4.8880 -6.8325 -0.3777 21.2040
#
#
#
# Elastic Compliance Matrix: (Units=1/GPa)
#
#
# Indices 1 2 3 4 5 6 
#
# 1 0.010699 -0.000101 -0.000027 -0.004970 0.001744 -0.006563
# 2 -0.000101 0.015244 0.001900 -0.015403 0.004376 0.005085
# 3 -0.000027 0.001900 0.010309 -0.013621 0.003299 -0.005403
# 4 -0.004970 -0.015403 -0.013621 0.060063 -0.001505 0.014287
# 5 0.001744 0.004376 0.003299 -0.001505 0.026854 0.001404
# 6 -0.006563 0.005085 -0.005403 0.014287 0.001404 0.059515
#
#
# Mechanical properties :
#
#
# Convention : Reuss Voigt Hill
#
# Bulk Modulus (GPa) = 25.12846 59.10471 42.11659
# Shear Modulus (GPa) = 25.98676 41.63073 33.80874
#
# Velocity S-wave (km/s) = 3.17959 4.02441 3.62669
# Velocity P-wave (km/s) = 4.82241 6.67746 5.82426
#
# Compressibility (1/GPa) = 0.03979551
#
# Stress axis : x y z
#
# Youngs Moduli (GPa) = 93.46894 65.59995 97.00348
#
# Poissons Ratio (x) = 0.00666 0.00261
# Poissons Ratio (y) = 0.00948 -0.18434
# Poissons Ratio (z) = 0.00252 -0.12466
#
# Static dielectric constant tensor:
#      x y z
#    x 2.078040 -0.019330 -0.164520 
#    y -0.019330 2.251870 -0.130000 
#    z -0.164520 -0.130000 2.379670 
# 
# From -- ./inp_files/259802.got.cif
#   From: 2010.05.17/outbox.cif.g08.bks.cpg/sg2_130_cif.got.tgz:259802.got - 2010.06.03 11:33:40.
