data_PCOD9107797
_publ_section_title
;
Structure prediction by ZEFSAII (Michael W. Deem and Ramdas Pophale) SiO2 
 PCOD9107797
Probable space group: P -1
;
_chemical_formula_sum "Si O2"
_cell_formula_units_Z 13
_cell_length_a 21.284624
_cell_length_b 5.141017
_cell_length_c 5.231443
_cell_angle_alpha 91.695052
_cell_angle_beta 58.501118
_cell_angle_gamma 88.900547
_cell_volume 487.481736
_symmetry_space_group_name_H-M "P -1"
_symmetry_group_IT_number 2
_symmetry_cell_setting 'triclinic'
loop_
_space_group_symop_operation_xyz
x,y,z
-x,-y,-z
loop_
_atom_site_type_symbol
_atom_site_label
_atom_site_fract_x
_atom_site_fract_y
_atom_site_fract_z
Si Si1 0.880955 0.029787 0.679081
Si Si2 0.611427 0.003101 0.727540
Si Si3 0.988683 0.708847 0.759386
Si Si4 0.435093 0.216786 0.676788
Si Si5 0.771146 0.151456 0.296328
Si Si6 0.846240 0.631498 0.365122
Si Si7 0.500000 0.500000 0.000000
O O1 0.939303 0.960747 0.774982
O O2 0.854390 0.754461 0.629671
O O3 0.931173 0.171384 0.370511
O O4 0.811936 0.190893 0.941824
O O5 0.684454 0.129739 0.474091
O O6 0.593177 0.762541 0.561060
O O7 0.546320 0.220849 0.857963
O O8 0.620799 0.903752 0.996655
O O9 0.000000 0.500000 0.500000
O O10 0.930871 0.599553 0.081468
O O11 0.500000 0.000000 0.500000
O O12 0.459567 0.458791 0.798964
O O13 0.798119 0.384297 0.419459
O O14 0.803690 0.871979 0.316640
#
# Coordination Sequence:
#
# PCOD9107797 Si02
#       7
#     2   2   2   2   2   2   1
#     4  10  23  41  64  96 136 182 229 302 349 428
#     4  11  26  43  71 104 145 184 238 296 360 434
#     4  10  20  40  65  97 134 173 241 293 351 421
#     4  10  23  45  69 106 137 178 235 292 356 432
#     4  11  27  44  64 102 139 182 238 286 358 432
#     4  11  25  44  68  97 135 190 234 288 360 425
#     4  10  22  44  74 102 134 184 226 298 348 426
#
# _framework density 26.667665
#
# number of rings (size 3 to 8) (size 9 to 14) (size 15 to 20)
#    0.000    1.538    1.538    2.308    6.462    6.154 
#    0.000    0.000    0.000    0.000    0.000    0.000 
#    0.000    0.000    0.000    0.000    0.000    0.000 
#
# Total GULP energy -72511.630965 kJ/mol
# GULP energy per Si atom -5577.817767 kJ/mol
# Density = 2.660697 g / cm^3
# Si number density = 26.667665 Si / 1000 Ang^3
#
#
#
# Elastic Constant Matrix: (Units=GPa)
#
#
# Indices 1 2 3 4 5 6 
#
# 1 58.0009 41.8901 42.5095 6.0148 -7.7182 18.2238
# 2 41.8901 146.1471 47.9355 25.1054 -7.6845 30.8342
# 3 42.5095 47.9355 142.6131 11.7351 12.7868 21.3198
# 4 6.0148 25.1054 11.7351 45.2459 14.6264 18.8226
# 5 -7.7182 -7.6845 12.7868 14.6264 42.0148 -1.9129
# 6 18.2238 30.8342 21.3198 18.8226 -1.9129 55.9067
#
#
#
# Elastic Compliance Matrix: (Units=1/GPa)
#
#
# Indices 1 2 3 4 5 6 
#
# 1 0.027345 -0.004625 -0.006590 0.000286 0.005913 -0.003744
# 2 -0.004625 0.010050 -0.001628 -0.004841 0.003093 -0.001679
# 3 -0.006590 -0.001628 0.010085 0.001433 -0.005143 -0.001458
# 4 0.000286 -0.004841 0.001433 0.032467 -0.012997 -0.009345
# 5 0.005913 0.003093 -0.005143 -0.012997 0.031715 0.003789
# 6 -0.003744 -0.001679 -0.001458 -0.009345 0.003789 0.023866
#
#
# Mechanical properties :
#
#
# Convention : Reuss Voigt Hill
#
# Bulk Modulus (GPa) = 45.88305 67.93682 56.90993
# Shear Modulus (GPa) = 29.67753 42.92854 36.30303
#
# Velocity S-wave (km/s) = 3.33958 4.01653 3.69360
# Velocity P-wave (km/s) = 5.66686 6.85862 6.29102
#
# Compressibility (1/GPa) = 0.02179454
#
# Stress axis : x y z
#
# Youngs Moduli (GPa) = 36.57006 99.49970 99.16029
#
# Poissons Ratio (x) = 0.46014 0.65351
# Poissons Ratio (y) = 0.16912 0.16139
# Poissons Ratio (z) = 0.24101 0.16194
#
# Static dielectric constant tensor:
#      x y z
#    x 2.067230 -0.101440 0.151850 
#    y -0.101440 2.056490 -0.089500 
#    z 0.151850 -0.089500 2.172100 
# 
# From -- ./inp_files/8718.got.cif
#   From: 2010.05.17/outbox.cif.g08.bks.cpg/sg2_5_cif.got.tgz:8718.got - 2010.06.03 11:33:40.
