data_PCOD9107634
_publ_section_title
;
Structure prediction by ZEFSAII (Michael W. Deem and Ramdas Pophale) SiO2 
 PCOD9107634
Probable space group: P -1
;
_chemical_formula_sum "Si O2"
_cell_formula_units_Z 16
_cell_length_a 8.699977
_cell_length_b 14.222101
_cell_length_c 12.982943
_cell_angle_alpha 148.587465
_cell_angle_beta 109.756150
_cell_angle_gamma 58.242414
_cell_volume 689.138340
_symmetry_space_group_name_H-M "P -1"
_symmetry_group_IT_number 2
_symmetry_cell_setting 'triclinic'
loop_
_space_group_symop_operation_xyz
x,y,z
-x,-y,-z
loop_
_atom_site_type_symbol
_atom_site_label
_atom_site_fract_x
_atom_site_fract_y
_atom_site_fract_z
Si Si1 0.207134 0.250926 0.368213
Si Si2 0.256668 0.832058 0.065939
Si Si3 0.384720 0.245854 0.209086
Si Si4 0.400511 0.496950 0.270341
Si Si5 0.467214 0.730764 0.218341
Si Si6 0.203424 0.922874 0.529758
Si Si7 0.014580 0.655124 0.792033
Si Si8 0.210128 0.327047 0.907722
O O1 0.348004 0.287528 0.361627
O O2 0.150103 0.408677 0.597124
O O3 0.028479 0.305286 0.303900
O O4 0.276968 0.013604 0.185567
O O5 0.306401 0.852321 0.212100
O O6 0.399117 0.610718 0.841444
O O7 0.068778 0.819122 0.001307
O O8 0.441101 0.387926 0.288857
O O9 0.182065 0.304243 0.172066
O O10 0.500000 0.000000 0.000000
O O11 0.268435 0.742296 0.460704
O O12 0.296773 0.409689 0.090261
O O13 0.373407 0.821261 0.390215
O O14 0.654516 0.725444 0.211847
O O15 0.500000 0.500000 0.000000
O O16 0.204985 0.126024 0.757334
O O17 0.000000 0.000000 0.500000
O O18 0.000000 0.500000 0.000000
#
# Coordination Sequence:
#
# PCOD9107634 Si02
#       8
#     2   2   2   2   2   2   2   2
#     4   9  20  41  62  90 125 159 211 256 314 379
#     4  11  21  39  68  88 126 165 209 265 317 384
#     4  10  20  40  65  89 130 167 204 262 317 377
#     4  11  23  42  62  95 129 166 217 267 322 384
#     4  11  23  43  64  96 128 167 219 265 324 395
#     4  12  24  45  65  93 133 171 220 273 323 390
#     4   9  21  39  64  90 125 159 210 259 317 374
#     4  11  23  44  68  90 133 171 212 277 330 381
#
# _framework density 23.217400999999999
#
# number of rings (size 3 to 8) (size 9 to 14) (size 15 to 20)
#    0.750    0.750    5.000    0.750    0.000    5.000 
#    2.250    1.875    0.000    0.000    0.000    0.000 
#    0.000    0.000    0.000    0.000    0.000    0.000 
#
# Total GULP energy -89212.383545 kJ/mol
# GULP energy per Si atom -5575.773972 kJ/mol
# Density = 2.316456 g / cm^3
# Si number density = 23.217401 Si / 1000 Ang^3
#
#
#
# Elastic Constant Matrix: (Units=GPa)
#
#
# Indices 1 2 3 4 5 6 
#
# 1 53.7166 1.0075 13.7260 -3.4479 -0.0120 6.2329
# 2 1.0075 46.4311 18.9894 24.5543 -5.4917 10.1115
# 3 13.7260 18.9894 93.5786 34.9798 1.2452 1.2755
# 4 -3.4479 24.5543 34.9798 37.1762 2.6103 7.6612
# 5 -0.0120 -5.4917 1.2452 2.6103 34.4374 -0.2609
# 6 6.2329 10.1115 1.2755 7.6612 -0.2609 21.0357
#
#
#
# Elastic Compliance Matrix: (Units=1/GPa)
#
#
# Indices 1 2 3 4 5 6 
#
# 1 0.022488 -0.002075 -0.007410 0.012522 -0.001078 -0.009791
# 2 -0.002075 0.036786 0.002471 -0.025757 0.007670 -0.007742
# 3 -0.007410 0.002471 0.019538 -0.022457 0.001448 0.008020
# 4 0.012522 -0.025757 -0.022457 0.070026 -0.008717 -0.015579
# 5 -0.001078 0.007670 0.001448 -0.008717 0.030870 0.000102
# 6 -0.009791 -0.007742 0.008020 -0.015579 0.000102 0.059349
#
#
# Mechanical properties :
#
#
# Convention : Reuss Voigt Hill
#
# Bulk Modulus (GPa) = 15.43592 29.01914 22.22753
# Shear Modulus (GPa) = 18.20301 29.19675 23.69988
#
# Velocity S-wave (km/s) = 2.80308 3.55002 3.19843
# Velocity P-wave (km/s) = 4.13995 5.41568 4.82021
#
# Compressibility (1/GPa) = 0.06478397
#
# Stress axis : x y z
#
# Youngs Moduli (GPa) = 44.46769 27.18411 51.18315
#
# Poissons Ratio (x) = 0.05640 0.37929
# Poissons Ratio (y) = 0.09226 -0.12648
# Poissons Ratio (z) = 0.32953 -0.06717
#
# Static dielectric constant tensor:
#      x y z
#    x 1.818340 -0.136070 -0.177320 
#    y -0.136070 1.916130 -0.056660 
#    z -0.177320 -0.056660 1.751080 
# 
# From -- ./inp_files/504717.got.cif
#   From: 2010.05.17/outbox.cif.g08.bks.cpg/sg2_253_cif.got.tgz:504717.got - 2010.06.03 11:33:40.
