data_PCOD9107646
_publ_section_title
;
Structure prediction by ZEFSAII (Michael W. Deem and Ramdas Pophale) SiO2 
 PCOD9107646
Probable space group: P -1
;
_chemical_formula_sum "Si O2"
_cell_formula_units_Z 16
_cell_length_a 11.557402
_cell_length_b 8.934741
_cell_length_c 16.229068
_cell_angle_alpha 141.993861
_cell_angle_beta 135.331957
_cell_angle_gamma 38.899836
_cell_volume 626.844231
_symmetry_space_group_name_H-M "P -1"
_symmetry_group_IT_number 2
_symmetry_cell_setting 'triclinic'
loop_
_space_group_symop_operation_xyz
x,y,z
-x,-y,-z
loop_
_atom_site_type_symbol
_atom_site_label
_atom_site_fract_x
_atom_site_fract_y
_atom_site_fract_z
Si Si1 0.932835 0.650710 0.363055
Si Si2 0.169652 0.501681 0.932197
Si Si3 0.309061 0.800534 0.035378
Si Si4 0.136199 0.588761 0.172712
Si Si5 0.713007 0.372252 0.394344
Si Si6 0.484306 0.059381 0.150898
Si Si7 0.375582 0.743276 0.476222
Si Si8 0.092799 0.821447 0.768039
O O1 0.897200 0.563836 0.217734
O O2 0.977609 0.391192 0.333352
O O3 0.111172 0.694867 0.486434
O O4 0.741273 0.934827 0.415594
O O5 0.186825 0.776355 0.037587
O O6 0.028668 0.475740 0.912941
O O7 0.383399 0.252912 0.950440
O O8 0.208146 0.832845 0.910416
O O9 0.500000 0.500000 0.000000
O O10 0.376478 0.029649 0.164138
O O11 0.318377 0.292462 0.112096
O O12 0.219185 0.674021 0.330295
O O13 0.063216 0.861039 0.196907
O O14 0.633281 0.164132 0.283321
O O15 0.532489 0.677103 0.455567
O O16 0.782228 0.309692 0.308124
O O17 0.500000 0.500000 0.500000
#
# Coordination Sequence:
#
# PCOD9107646 Si02
#       8
#     2   2   2   2   2   2   2   2
#     4  11  22  40  62  88 135 162 206 252 301 373
#     4  10  20  40  65  90 123 169 202 252 311 364
#     4   9  22  43  68  89 120 161 210 260 312 371
#     4  11  22  37  62  93 126 158 213 250 305 373
#     4  11  22  38  61  93 123 166 202 248 312 360
#     4  10  21  40  62  90 125 154 211 257 305 362
#     4  11  23  36  61  95 126 170 208 244 302 369
#     4  11  23  41  63  93 123 168 203 257 316 359
#
# _framework density 25.524683
#
# number of rings (size 3 to 8) (size 9 to 14) (size 15 to 20)
#    0.000    1.500    2.500    2.625    0.000    3.500 
#    2.250    0.000   11.000    0.000    0.000    0.000 
#    0.000    0.000    0.000    0.000    0.000    0.000 
#
# Total GULP energy -89511.386227 kJ/mol
# GULP energy per Si atom -5594.461639 kJ/mol
# Density = 2.546659 g / cm^3
# Si number density = 25.524683 Si / 1000 Ang^3
#
#
#
# Elastic Constant Matrix: (Units=GPa)
#
#
# Indices 1 2 3 4 5 6 
#
# 1 133.3667 64.0938 43.1743 1.0310 13.5238 17.2441
# 2 64.0938 208.4605 46.8246 6.3975 28.1910 8.8406
# 3 43.1743 46.8246 92.0440 -7.4366 25.8942 16.7319
# 4 1.0310 6.3975 -7.4366 30.1444 -5.3612 2.1691
# 5 13.5238 28.1910 25.8942 -5.3612 30.4579 -3.4206
# 6 17.2441 8.8406 16.7319 2.1691 -3.4206 40.6012
#
#
#
# Elastic Compliance Matrix: (Units=1/GPa)
#
#
# Indices 1 2 3 4 5 6 
#
# 1 0.009889 -0.002221 -0.003087 -0.000465 -0.000065 -0.002425
# 2 -0.002221 0.006413 -0.001116 -0.002332 -0.004438 -0.000242
# 3 -0.003087 -0.001116 0.018189 0.002976 -0.013347 -0.007225
# 4 -0.000465 -0.002332 0.002976 0.035604 0.005886 -0.001927
# 5 -0.000065 -0.004438 -0.013347 0.005886 0.050524 0.010436
# 6 -0.002425 -0.000242 -0.007225 -0.001927 0.010436 0.029672
#
#
# Mechanical properties :
#
#
# Convention : Reuss Voigt Hill
#
# Bulk Modulus (GPa) = 46.20823 82.45073 64.32948
# Shear Modulus (GPa) = 29.35075 38.89259 34.12167
#
# Velocity S-wave (km/s) = 3.39469 3.90773 3.66021
# Velocity P-wave (km/s) = 5.78860 7.26174 6.56661
#
# Compressibility (1/GPa) = 0.02164116
#
# Stress axis : x y z
#
# Youngs Moduli (GPa) = 101.12688 155.93971 54.97806
#
# Poissons Ratio (x) = 0.34636 0.16973
# Poissons Ratio (y) = 0.22461 0.06138
# Poissons Ratio (z) = 0.31219 0.17409
#
# Static dielectric constant tensor:
#      x y z
#    x 2.126090 0.002500 -0.044600 
#    y 0.002500 1.990530 0.005960 
#    z -0.044600 0.005960 2.054680 
# 
# From -- ./inp_files/593844.got.cif
#   From: 2010.05.17/outbox.cif.g08.bks.cpg/sg2_297_cif.got.tgz:593844.got - 2010.06.03 11:33:40.
