data_PCOD9107841
_publ_section_title
;
Structure prediction by ZEFSAII (Michael W. Deem and Ramdas Pophale) SiO2 
 PCOD9107841
Probable space group: P -1
;
_chemical_formula_sum "Si O2"
_cell_formula_units_Z 15
_cell_length_a 10.771973
_cell_length_b 8.567878
_cell_length_c 9.997692
_cell_angle_alpha 124.747276
_cell_angle_beta 101.665215
_cell_angle_gamma 57.780385
_cell_volume 634.521672
_symmetry_space_group_name_H-M "P -1"
_symmetry_group_IT_number 2
_symmetry_cell_setting 'triclinic'
loop_
_space_group_symop_operation_xyz
x,y,z
-x,-y,-z
loop_
_atom_site_type_symbol
_atom_site_label
_atom_site_fract_x
_atom_site_fract_y
_atom_site_fract_z
Si Si1 0.826852 0.633958 0.063500
Si Si2 0.623023 0.606412 0.209378
Si Si3 0.642805 0.806703 0.864238
Si Si4 0.875316 0.002647 0.636013
Si Si5 0.000000 0.500000 0.500000
Si Si6 0.664283 0.161712 0.907741
Si Si7 0.325250 0.435178 0.505750
Si Si8 0.798221 0.081431 0.359913
O O1 0.773408 0.563826 0.149897
O O2 0.775699 0.889976 0.204114
O O3 0.742177 0.626686 0.909182
O O4 0.000000 0.500000 0.000000
O O5 0.486940 0.779073 0.172063
O O6 0.603604 0.677745 0.393301
O O7 0.628023 0.373318 0.090836
O O8 0.605140 0.705439 0.681073
O O9 0.724967 0.931709 0.886707
O O10 0.500000 0.000000 0.000000
O O11 0.913439 0.751756 0.538437
O O12 0.028771 0.999175 0.666750
O O13 0.779294 0.134573 0.806900
O O14 0.786751 0.097425 0.525660
O O15 0.158951 0.481433 0.496280
O O16 0.304855 0.676768 0.606181
#
# Coordination Sequence:
#
# PCOD9107841 Si02
#       8
#     2   2   2   2   1   2   2   2
#     4  12  27  44  72 108 145 189 238 302 356 432
#     4  11  26  45  72 104 138 186 247 286 365 427
#     4  12  27  48  71 103 146 187 238 296 367 424
#     4  10  21  40  69 100 140 183 229 292 349 426
#     4  10  20  40  66 104 130 182 228 290 352 418
#     4  11  24  46  71  99 142 188 235 297 357 431
#     4  11  25  44  71 102 141 186 236 299 350 436
#     4  10  24  41  69 105 144 180 241 285 366 416
#
# _framework density 23.639854
#
# number of rings (size 3 to 8) (size 9 to 14) (size 15 to 20)
#    0.000    1.067    2.667    2.400    9.333    1.600 
#    0.000    5.333    0.000    0.000    0.000    0.000 
#    0.000    0.000    0.000    0.000    0.000    0.000 
#
# Total GULP energy -83742.305037 kJ/mol
# GULP energy per Si atom -5582.820336 kJ/mol
# Density = 2.358605 g / cm^3
# Si number density = 23.639854 Si / 1000 Ang^3
#
#
#
# Elastic Constant Matrix: (Units=GPa)
#
#
# Indices 1 2 3 4 5 6 
#
# 1 63.7991 6.5373 29.8300 -1.2907 -4.4170 -0.8257
# 2 6.5373 69.5256 21.9130 -9.2332 4.5227 10.0328
# 3 29.8300 21.9130 136.4708 -26.1057 -4.1543 -0.3241
# 4 -1.2907 -9.2332 -26.1057 26.8880 12.9895 4.9013
# 5 -4.4170 4.5227 -4.1543 12.9895 21.1578 6.5024
# 6 -0.8257 10.0328 -0.3241 4.9013 6.5024 33.1971
#
#
#
# Elastic Compliance Matrix: (Units=1/GPa)
#
#
# Indices 1 2 3 4 5 6 
#
# 1 0.018787 -0.002004 -0.005296 -0.009312 0.008822 0.000668
# 2 -0.002004 0.017541 -0.000614 0.010770 -0.009327 -0.005120
# 3 -0.005296 -0.000614 0.010991 0.013719 -0.007093 -0.000475
# 4 -0.009312 0.010770 0.013719 0.077763 -0.047600 -0.005510
# 5 0.008822 -0.009327 -0.007093 -0.047600 0.080717 -0.005813
# 6 0.000668 -0.005120 -0.000475 -0.005510 -0.005813 0.033635
#
#
# Mechanical properties :
#
#
# Convention : Reuss Voigt Hill
#
# Bulk Modulus (GPa) = 31.75580 42.92846 37.34213
# Shear Modulus (GPa) = 18.81402 30.34959 24.58180
#
# Velocity S-wave (km/s) = 2.82416 3.58695 3.22816
# Velocity P-wave (km/s) = 4.90885 5.94590 5.45209
#
# Compressibility (1/GPa) = 0.03149031
#
# Stress axis : x y z
#
# Youngs Moduli (GPa) = 53.22914 57.00864 90.98257
#
# Poissons Ratio (x) = 0.11426 0.48182
# Poissons Ratio (y) = 0.10669 0.05589
# Poissons Ratio (z) = 0.28189 0.03502
#
# Static dielectric constant tensor:
#      x y z
#    x 1.905710 0.042570 -0.004890 
#    y 0.042570 1.874420 -0.013690 
#    z -0.004890 -0.013690 1.901920 
# 
# From -- ./inp_files/245560.got.cif
#   From: 2010.05.17/outbox.cif.g08.bks.cpg/sg2_123_cif.got.tgz:245560.got - 2010.06.03 11:33:40.
