data_PCOD9107378
_publ_section_title
;
Structure prediction by ZEFSAII (Michael W. Deem and Ramdas Pophale) SiO2 
 PCOD9107378
Probable space group: P -1
;
_chemical_formula_sum "Si O2"
_cell_formula_units_Z 16
_cell_length_a 7.755391
_cell_length_b 14.263268
_cell_length_c 9.377876
_cell_angle_alpha 139.346112
_cell_angle_beta 77.554644
_cell_angle_gamma 116.862315
_cell_volume 588.261517
_symmetry_space_group_name_H-M "P -1"
_symmetry_group_IT_number 2
_symmetry_cell_setting 'triclinic'
loop_
_space_group_symop_operation_xyz
x,y,z
-x,-y,-z
loop_
_atom_site_type_symbol
_atom_site_label
_atom_site_fract_x
_atom_site_fract_y
_atom_site_fract_z
Si Si1 0.539042 0.898013 0.740095
Si Si2 0.838574 0.707230 0.216398
Si Si3 0.103939 0.404654 0.634346
Si Si4 0.798489 0.013340 0.080988
Si Si5 0.736491 0.224649 0.901507
Si Si6 0.697343 0.593270 0.665360
Si Si7 0.299953 0.601622 0.296084
Si Si8 0.676301 0.849019 0.188132
O O1 0.649639 0.878239 0.836796
O O2 0.495780 0.764635 0.473786
O O3 0.664200 0.074649 0.850675
O O4 0.319891 0.878063 0.797043
O O5 0.815526 0.670729 0.345311
O O6 0.704271 0.532153 0.965893
O O7 0.788331 0.834710 0.289115
O O8 0.063484 0.752631 0.182282
O O9 0.124075 0.338641 0.401131
O O10 0.452053 0.816771 0.214361
O O11 0.885128 0.369200 0.676535
O O12 0.216864 0.601076 0.838011
O O13 0.781895 0.002230 0.243852
O O14 0.000000 0.000000 0.000000
O O15 0.500000 0.500000 0.500000
O O16 0.738377 0.478400 0.632783
O O17 0.676054 0.718265 0.921144
#
# Coordination Sequence:
#
# PCOD9107378 Si02
#       8
#     2   2   2   2   2   2   2   2
#     4  10  22  37  62  97 129 163 208 265 314 383
#     4  10  23  44  65  91 127 175 215 259 315 379
#     4  11  23  41  64  92 127 171 216 257 319 380
#     4  10  21  36  61  93 133 168 205 253 330 381
#     4  10  20  40  64  88 129 165 211 256 318 379
#     4  11  21  37  61  96 128 156 211 273 317 370
#     4  10  22  40  63  95 129 162 212 267 318 368
#     4  10  21  38  63  94 124 164 214 263 316 373
#
# _framework density 27.198788
#
# number of rings (size 3 to 8) (size 9 to 14) (size 15 to 20)
#    0.000    1.750    1.250    3.375    5.250    0.500 
#    2.250    2.500    0.000    3.000    0.000    0.000 
#    0.000    0.000    0.000    0.000    0.000    0.000 
#
# Total GULP energy -89495.075627 kJ/mol
# GULP energy per Si atom -5593.442227 kJ/mol
# Density = 2.713688 g / cm^3
# Si number density = 27.198788 Si / 1000 Ang^3
#
#
#
# Elastic Constant Matrix: (Units=GPa)
#
#
# Indices 1 2 3 4 5 6 
#
# 1 211.4995 65.9447 12.9531 -7.0221 15.4884 4.3264
# 2 65.9447 146.4253 37.0614 -18.9619 2.3812 -21.0573
# 3 12.9531 37.0614 67.5391 5.8814 13.5656 -11.7468
# 4 -7.0221 -18.9619 5.8814 37.2544 -5.9775 2.0316
# 5 15.4884 2.3812 13.5656 -5.9775 23.0075 -4.1523
# 6 4.3264 -21.0573 -11.7468 2.0316 -4.1523 58.7582
#
#
#
# Elastic Compliance Matrix: (Units=1/GPa)
#
#
# Indices 1 2 3 4 5 6 
#
# 1 0.006122 -0.003586 0.001763 -0.001747 -0.005553 -0.001715
# 2 -0.003586 0.011637 -0.007421 0.007546 0.008135 0.003265
# 3 0.001763 -0.007421 0.022809 -0.009700 -0.016214 0.000960
# 4 -0.001747 0.007546 -0.009700 0.034275 0.015160 0.000780
# 5 -0.005553 0.008135 -0.016214 0.015160 0.060552 0.003838
# 6 -0.001715 0.003265 0.000960 0.000780 0.003838 0.018751
#
#
# Mechanical properties :
#
#
# Convention : Reuss Voigt Hill
#
# Bulk Modulus (GPa) = 45.29191 73.04249 59.16720
# Shear Modulus (GPa) = 27.77853 44.43765 36.10809
#
# Velocity S-wave (km/s) = 3.19927 4.04643 3.64753
# Velocity P-wave (km/s) = 5.50776 6.98175 6.28809
#
# Compressibility (1/GPa) = 0.02207900
#
# Stress axis : x y z
#
# Youngs Moduli (GPa) = 163.34528 85.93121 43.84258
#
# Poissons Ratio (x) = 0.30814 -0.07728
# Poissons Ratio (y) = 0.58574 0.32537
# Poissons Ratio (z) = -0.28793 0.63773
#
# Static dielectric constant tensor:
#      x y z
#    x 2.072940 0.064950 -0.003230 
#    y 0.064950 2.268040 0.119180 
#    z -0.003230 0.119180 2.249820 
# 
# From -- ./inp_files/396385.got.cif
#   From: 2010.05.17/outbox.cif.g08.bks.cpg/sg2_199_cif.got.tgz:396385.got - 2010.06.03 11:33:40.
