data_PCOD9107581
_publ_section_title
;
Structure prediction by ZEFSAII (Michael W. Deem and Ramdas Pophale) SiO2 
 PCOD9107581
Probable space group: P -1
;
_chemical_formula_sum "Si O2"
_cell_formula_units_Z 14
_cell_length_a 10.105592
_cell_length_b 22.461982
_cell_length_c 11.961838
_cell_angle_alpha 35.028789
_cell_angle_beta 116.115713
_cell_angle_gamma 143.537896
_cell_volume 711.514735
_symmetry_space_group_name_H-M "P -1"
_symmetry_group_IT_number 2
_symmetry_cell_setting 'triclinic'
loop_
_space_group_symop_operation_xyz
x,y,z
-x,-y,-z
loop_
_atom_site_type_symbol
_atom_site_label
_atom_site_fract_x
_atom_site_fract_y
_atom_site_fract_z
Si Si1 0.417667 0.277706 0.995968
Si Si2 0.309803 0.870047 0.403095
Si Si3 0.952816 0.336499 0.937671
Si Si4 0.331297 0.468068 0.691961
Si Si5 0.962654 0.840210 0.415989
Si Si6 0.906734 0.541893 0.581043
Si Si7 0.114934 0.423881 0.114563
O O1 0.593882 0.361849 0.046237
O O2 0.321876 0.339140 0.867879
O O3 0.655943 0.407775 0.786852
O O4 0.154170 0.042331 0.235022
O O5 0.156238 0.718162 0.684338
O O6 0.159496 0.893083 0.321521
O O7 0.203254 0.753172 0.429457
O O8 0.648902 0.091263 0.203137
O O9 0.909949 0.423246 0.733118
O O10 0.186844 0.413268 0.838753
O O11 0.052273 0.419260 0.973915
O O12 0.671822 0.703615 0.459858
O O13 0.165287 0.428317 0.594560
O O14 0.869807 0.693040 0.694321
#
# Coordination Sequence:
#
# PCOD9107581 Si02
#       7
#     2   2   2   2   2   2   2
#     4  10  20  40  65  86 112 158 197 241 289 340
#     4   9  21  38  62  89 111 152 201 235 284 355
#     4  12  23  39  60  88 125 154 183 248 303 331
#     4  11  25  38  58  91 121 151 198 243 284 347
#     4   9  20  40  61  90 111 151 198 240 292 342
#     4  11  22  40  60  86 120 156 200 235 283 353
#     4   8  20  38  61  90 116 146 202 237 286 357
#
# _framework density 19.676334000000001
#
# number of rings (size 3 to 8) (size 9 to 14) (size 15 to 20)
#    0.857    1.143    2.857    1.286    0.000    9.143 
#    0.000    1.429    0.000    0.000    0.000    0.000 
#    0.000    0.000    0.000    0.000    0.000    0.000 
#
# Total GULP energy -78115.267062 kJ/mol
# GULP energy per Si atom -5579.661933 kJ/mol
# Density = 1.963155 g / cm^3
# Si number density = 19.676334 Si / 1000 Ang^3
#
#
#
# Elastic Constant Matrix: (Units=GPa)
#
#
# Indices 1 2 3 4 5 6 
#
# 1 52.0611 -15.1857 3.9435 -11.9976 12.3009 -5.3013
# 2 -15.1857 70.5740 25.1852 -8.3945 5.4306 -17.5959
# 3 3.9435 25.1852 29.1496 -13.3852 21.9540 -15.0182
# 4 -11.9976 -8.3945 -13.3852 31.6879 -5.2239 10.7908
# 5 12.3009 5.4306 21.9540 -5.2239 26.6710 4.7866
# 6 -5.3013 -17.5959 -15.0182 10.7908 4.7866 10.5219
#
#
#
# Elastic Compliance Matrix: (Units=1/GPa)
#
#
# Indices 1 2 3 4 5 6 
#
# 1 0.022088 0.008670 -0.018490 0.008283 0.007133 -0.012503
# 2 0.008670 0.027624 -0.025533 -0.003681 0.008124 0.014201
# 3 -0.018490 -0.025533 0.002895 0.020649 0.030251 -0.082820
# 4 0.008283 -0.003681 0.020649 0.047011 -0.007775 -0.017186
# 5 0.007133 0.008124 0.030251 -0.007775 -0.006683 0.071373
# 6 -0.012503 0.014201 -0.082820 -0.017186 0.071373 -0.020567
#
#
# Mechanical properties :
#
#
# Convention : Reuss Voigt Hill
#
# Bulk Modulus (GPa) = -55.25929 19.96341 -17.64794
# Shear Modulus (GPa) = 36.48556 22.96561 29.72559
#
# Velocity S-wave (km/s) = 4.31081 3.42009 3.89103
# Velocity P-wave (km/s) = 1.83510 5.07582 3.34637
#
# Compressibility (1/GPa) = -0.01809651
#
# Stress axis : x y z
#
# Youngs Moduli (GPa) = 45.27330 36.19977 345.42387
#
# Poissons Ratio (x) = -0.31386 6.38673
# Poissons Ratio (y) = -0.39252 8.81957
# Poissons Ratio (z) = 0.83708 0.92427
#
# Static dielectric constant tensor:
#      x y z
#    x 1.685310 0.007470 0.017880 
#    y 0.007470 1.687080 0.011660 
#    z 0.017880 0.011660 1.695510 
# 
# From -- ./inp_files/283339.got.cif
#   From: 2010.05.17/outbox.cif.g08.bks.cpg/sg2_142_cif.got.tgz:283339.got - 2010.06.03 11:33:40.
