data_PCOD9107737
_publ_section_title
;
Structure prediction by ZEFSAII (Michael W. Deem and Ramdas Pophale) SiO2 
 PCOD9107737
Probable space group: P -1
;
_chemical_formula_sum "Si O2"
_cell_formula_units_Z 16
_cell_length_a 12.850888
_cell_length_b 9.687968
_cell_length_c 16.449422
_cell_angle_alpha 75.225068
_cell_angle_beta 49.024463
_cell_angle_gamma 37.133077
_cell_volume 755.319529
_symmetry_space_group_name_H-M "P -1"
_symmetry_group_IT_number 2
_symmetry_cell_setting 'triclinic'
loop_
_space_group_symop_operation_xyz
x,y,z
-x,-y,-z
loop_
_atom_site_type_symbol
_atom_site_label
_atom_site_fract_x
_atom_site_fract_y
_atom_site_fract_z
Si Si1 0.649194 0.919479 0.189351
Si Si2 0.347361 0.397650 0.741922
Si Si3 0.915096 0.812313 0.777210
Si Si4 0.109492 0.745448 0.963691
Si Si5 0.774379 0.648869 0.528786
Si Si6 0.160279 0.404774 0.237968
Si Si7 0.054760 0.113699 0.432883
Si Si8 0.437655 0.402044 0.008910
O O1 0.767711 0.654289 0.164604
O O2 0.513152 0.059059 0.327482
O O3 0.405966 0.150792 0.213266
O O4 0.864452 0.851162 0.075663
O O5 0.258615 0.593627 0.824050
O O6 0.216828 0.549440 0.699626
O O7 0.671388 0.090543 0.627650
O O8 0.833227 0.721694 0.815780
O O9 0.896945 0.905789 0.685150
O O10 0.712665 0.064384 0.907912
O O11 0.317100 0.523599 0.962565
O O12 0.000000 0.000000 0.000000
O O13 0.000000 0.500000 0.500000
O O14 0.875041 0.635075 0.396762
O O15 0.821962 0.436549 0.526074
O O16 0.222478 0.504562 0.156755
O O17 0.000000 0.000000 0.500000
O O18 0.500000 0.500000 0.000000
#
# Coordination Sequence:
#
# PCOD9107737 Si02
#       8
#     2   2   2   2   2   2   2   2
#     4  11  21  41  70  95 132 175 219 271 328 393
#     4  12  23  44  68  97 130 175 225 268 326 392
#     4  11  23  43  66  96 129 172 226 265 325 394
#     4  12  26  42  64  99 132 170 221 275 334 393
#     4   9  19  40  66  93 127 173 214 259 332 389
#     4  10  20  40  65  94 127 170 216 269 321 387
#     4  11  24  43  69  95 136 175 216 273 331 386
#     4  12  24  42  62  95 134 169 215 279 333 385
#
# _framework density 21.183087
#
# number of rings (size 3 to 8) (size 9 to 14) (size 15 to 20)
#    0.000    1.000    5.000    3.750    1.750    2.500 
#    0.000    5.625    0.000    0.000    0.000    0.000 
#    0.000    0.000    0.000    0.000    0.000    0.000 
#
# Total GULP energy -89445.551913 kJ/mol
# GULP energy per Si atom -5590.346995 kJ/mol
# Density = 2.113487 g / cm^3
# Si number density = 21.183087 Si / 1000 Ang^3
#
#
#
# Elastic Constant Matrix: (Units=GPa)
#
#
# Indices 1 2 3 4 5 6 
#
# 1 110.5373 35.9706 25.7929 -2.8479 -0.5570 10.2186
# 2 35.9706 75.2491 15.4072 -10.7764 -5.2967 6.1159
# 3 25.7929 15.4072 47.3611 3.6243 6.2449 13.6886
# 4 -2.8479 -10.7764 3.6243 27.2583 9.9602 -8.5884
# 5 -0.5570 -5.2967 6.2449 9.9602 31.4728 8.0224
# 6 10.2186 6.1159 13.6886 -8.5884 8.0224 58.1723
#
#
#
# Elastic Compliance Matrix: (Units=1/GPa)
#
#
# Indices 1 2 3 4 5 6 
#
# 1 0.011696 -0.004575 -0.004766 -0.000381 0.000656 -0.000599
# 2 -0.004575 0.017285 -0.004026 0.006629 0.001344 0.000727
# 3 -0.004766 -0.004026 0.027563 -0.006628 -0.002645 -0.005839
# 4 -0.000381 0.006629 -0.006628 0.049182 -0.015783 0.010367
# 5 0.000656 0.001344 -0.002645 -0.015783 0.039417 -0.007400
# 6 -0.000599 0.000727 -0.005839 0.010367 -0.007400 0.021144
#
#
# Mechanical properties :
#
#
# Convention : Reuss Voigt Hill
#
# Bulk Modulus (GPa) = 33.54473 43.05434 38.29954
# Shear Modulus (GPa) = 24.63547 33.77915 29.20731
#
# Velocity S-wave (km/s) = 3.41395 3.99761 3.71725
# Velocity P-wave (km/s) = 5.60447 6.45576 6.04512
#
# Compressibility (1/GPa) = 0.02981094
#
# Stress axis : x y z
#
# Youngs Moduli (GPa) = 85.49620 57.85232 36.28020
#
# Poissons Ratio (x) = 0.26468 0.17290
# Poissons Ratio (y) = 0.39116 0.14607
# Poissons Ratio (z) = 0.40745 0.23292
#
# Static dielectric constant tensor:
#      x y z
#    x 1.750060 -0.014230 0.007270 
#    y -0.014230 1.796940 0.023810 
#    z 0.007270 0.023810 1.796960 
# 
# From -- ./inp_files/428903.got.cif
#   From: 2010.05.17/outbox.cif.g08.bks.cpg/sg2_215_cif.got.tgz:428903.got - 2010.06.03 11:33:40.
