data_PCOD9107966
_publ_section_title
;
Structure prediction by ZEFSAII (Michael W. Deem and Ramdas Pophale) SiO2 
 PCOD9107966
Probable space group: P -1
;
_chemical_formula_sum "Si O2"
_cell_formula_units_Z 12
_cell_length_a 7.013251
_cell_length_b 15.815545
_cell_length_c 14.498511
_cell_angle_alpha 17.946111
_cell_angle_beta 66.043273
_cell_angle_gamma 62.336325
_cell_volume 435.105267
_symmetry_space_group_name_H-M "P -1"
_symmetry_group_IT_number 2
_symmetry_cell_setting 'triclinic'
loop_
_space_group_symop_operation_xyz
x,y,z
-x,-y,-z
loop_
_atom_site_type_symbol
_atom_site_label
_atom_site_fract_x
_atom_site_fract_y
_atom_site_fract_z
Si Si1 0.975221 0.906312 0.737856
Si Si2 0.891585 0.901344 0.964195
Si Si3 0.756922 0.685469 0.773824
Si Si4 0.000000 0.000000 0.000000
Si Si5 0.737062 0.597623 0.531199
Si Si6 0.500000 0.000000 0.000000
Si Si7 0.450349 0.676110 0.680756
O O1 0.131099 0.066301 0.490467
O O2 0.732809 0.066132 0.593142
O O3 0.058899 0.579128 0.032231
O O4 0.993466 0.947467 0.801622
O O5 0.767923 0.086413 0.884719
O O6 0.074298 0.708451 0.202591
O O7 0.683578 0.795384 0.095368
O O8 0.655802 0.556724 0.012300
O O9 0.576508 0.772047 0.640426
O O10 0.887708 0.810836 0.292752
O O11 0.617879 0.557079 0.689658
O O12 0.575246 0.727670 0.347639
#
# Coordination Sequence:
#
# PCOD9107966 Si02
#       7
#     2   2   2   1   2   1   2
#     4  12  25  49  74 110 149 195 244 305 368 443
#     4  11  23  42  67  93 142 179 239 297 364 423
#     4  11  27  47  76 108 154 189 246 308 362 442
#     4  10  22  40  66  90 134 180 234 294 354 412
#     4  11  22  45  63  99 134 183 233 302 355 434
#     4  10  20  40  66  92 130 180 236 286 364 420
#     4  11  24  46  75 108 147 196 248 296 381 434
#
# _framework density 27.579532
#
# number of rings (size 3 to 8) (size 9 to 14) (size 15 to 20)
#    0.000    1.000    3.333    4.000    0.000    4.000 
#    6.000   13.333    0.000    0.000    0.000    0.000 
#    0.000    0.000    0.000    0.000    0.000    0.000 
#
# Total GULP energy -66902.557385 kJ/mol
# GULP energy per Si atom -5575.213115 kJ/mol
# Density = 2.751676 g / cm^3
# Si number density = 27.579532 Si / 1000 Ang^3
#
#
#
# Elastic Constant Matrix: (Units=GPa)
#
#
# Indices 1 2 3 4 5 6 
#
# 1 119.3332 31.0510 56.9035 -1.7088 32.4504 -1.9511
# 2 31.0510 179.6288 58.3431 41.3727 11.7630 -20.9222
# 3 56.9035 58.3431 149.9044 -4.2538 40.6174 8.7203
# 4 -1.7088 41.3727 -4.2538 60.4232 0.7739 1.8234
# 5 32.4504 11.7630 40.6174 0.7739 62.0959 -3.5595
# 6 -1.9511 -20.9222 8.7203 1.8234 -3.5595 41.5296
#
#
#
# Elastic Compliance Matrix: (Units=1/GPa)
#
#
# Indices 1 2 3 4 5 6 
#
# 1 0.010978 -0.000876 -0.002815 0.000750 -0.003721 0.000314
# 2 -0.000876 0.009305 -0.004375 -0.006911 0.001989 0.006039
# 3 -0.002815 -0.004375 0.011352 0.003947 -0.005482 -0.005363
# 4 0.000750 -0.006911 0.003947 0.021774 -0.002247 -0.005424
# 5 -0.003721 0.001989 -0.005482 -0.002247 0.021510 0.003921
# 6 0.000314 0.006039 -0.005363 -0.005424 0.003921 0.028837
#
#
# Mechanical properties :
#
#
# Convention : Reuss Voigt Hill
#
# Bulk Modulus (GPa) = 64.50924 82.38463 73.44693
# Shear Modulus (GPa) = 39.98243 52.98099 46.48171
#
# Velocity S-wave (km/s) = 3.81164 4.38771 4.10978
# Velocity P-wave (km/s) = 6.54313 7.45693 7.01492
#
# Compressibility (1/GPa) = 0.01550166
#
# Stress axis : x y z
#
# Youngs Moduli (GPa) = 91.09241 107.47436 88.09215
#
# Poissons Ratio (x) = 0.09414 0.24798
# Poissons Ratio (y) = 0.07979 0.38543
# Poissons Ratio (z) = 0.25642 0.47023
#
# Static dielectric constant tensor:
#      x y z
#    x 2.815820 0.230920 0.027330 
#    y 0.230920 2.302370 -0.151320 
#    z 0.027330 -0.151320 2.169680 
# 
# From -- ./inp_files/506034.got.cif
#   From: 2010.05.17/outbox.cif.g08.bks.cpg/sg2_254_cif.got.tgz:506034.got - 2010.06.03 11:33:40.
