data_PCOD9107447
_publ_section_title
;
Structure prediction by ZEFSAII (Michael W. Deem and Ramdas Pophale) SiO2 
 PCOD9107447
Probable space group: P -1
;
_chemical_formula_sum "Si O2"
_cell_formula_units_Z 16
_cell_length_a 9.065045
_cell_length_b 8.821876
_cell_length_c 14.706329
_cell_angle_alpha 58.972879
_cell_angle_beta 115.727193
_cell_angle_gamma 130.912795
_cell_volume 753.100160
_symmetry_space_group_name_H-M "P -1"
_symmetry_group_IT_number 2
_symmetry_cell_setting 'triclinic'
loop_
_space_group_symop_operation_xyz
x,y,z
-x,-y,-z
loop_
_atom_site_type_symbol
_atom_site_label
_atom_site_fract_x
_atom_site_fract_y
_atom_site_fract_z
Si Si1 0.323984 0.279432 0.563822
Si Si2 0.139326 0.256115 0.963089
Si Si3 0.416792 0.680632 0.219564
Si Si4 0.469036 0.594731 0.059451
Si Si5 0.560781 0.127279 0.187231
Si Si6 0.505539 0.944319 0.413134
Si Si7 0.096919 0.486064 0.439209
Si Si8 0.010534 0.553592 0.775427
O O1 0.500000 0.500000 0.500000
O O2 0.405293 0.295104 0.682344
O O3 0.328153 0.099112 0.562456
O O4 0.140002 0.301236 0.509553
O O5 0.274404 0.359346 0.058435
O O6 0.020837 0.366565 0.882664
O O7 0.312032 0.356065 0.901393
O O8 0.000000 0.000000 0.000000
O O9 0.199145 0.482240 0.250153
O O10 0.428190 0.890052 0.187951
O O11 0.442574 0.673305 0.122727
O O12 0.474395 0.732294 0.933025
O O13 0.794183 0.227944 0.207426
O O14 0.517589 0.107581 0.290084
O O15 0.302842 0.715466 0.413703
O O16 0.500000 0.000000 0.500000
O O17 0.000000 0.500000 0.500000
O O18 0.974519 0.456316 0.325851
#
# Coordination Sequence:
#
# PCOD9107447 Si02
#       8
#     2   2   2   2   2   2   2   2
#     4   9  19  40  61  87 128 164 210 264 316 382
#     4  10  23  41  60  89 127 162 216 262 308 384
#     4  11  21  40  65  88 128 162 211 261 325 375
#     4  10  23  40  62  91 124 173 203 263 325 369
#     4  10  21  39  62  94 126 159 216 257 315 392
#     4  10  20  40  64  92 128 171 207 266 325 381
#     4  11  22  39  65  91 125 170 213 267 325 380
#     4  11  22  39  64  89 123 165 208 265 317 379
#
# _framework density 21.245512999999999
#
# number of rings (size 3 to 8) (size 9 to 14) (size 15 to 20)
#    0.000    1.750    3.750    1.875    1.750    3.000 
#    6.750    5.625    0.000    0.000    0.000    0.000 
#    0.000    0.000    0.000    0.000    0.000    0.000 
#
# Total GULP energy -89152.381627 kJ/mol
# GULP energy per Si atom -5572.023852 kJ/mol
# Density = 2.119716 g / cm^3
# Si number density = 21.245513 Si / 1000 Ang^3
#
#
#
# Elastic Constant Matrix: (Units=GPa)
#
#
# Indices 1 2 3 4 5 6 
#
# 1 72.8922 15.5421 33.9596 14.9303 -11.2069 -2.3843
# 2 15.5421 75.8944 36.4820 9.5241 1.0687 12.7037
# 3 33.9596 36.4820 108.4130 11.3591 -20.8255 -16.3911
# 4 14.9303 9.5241 11.3591 32.2300 -2.5668 -2.8469
# 5 -11.2069 1.0687 -20.8255 -2.5668 35.8737 10.0535
# 6 -2.3843 12.7037 -16.3911 -2.8469 10.0535 28.4408
#
#
#
# Elastic Compliance Matrix: (Units=1/GPa)
#
#
# Indices 1 2 3 4 5 6 
#
# 1 0.017626 -0.000129 -0.004626 -0.006500 0.003173 -0.002903
# 2 -0.000129 0.020359 -0.008892 -0.004225 -0.002225 -0.013866
# 3 -0.004626 -0.008892 0.016308 0.000424 0.005180 0.011194
# 4 -0.006500 -0.004225 0.000424 0.035562 -0.000617 0.005365
# 5 0.003173 -0.002225 0.005180 -0.000617 0.034102 -0.007871
# 6 -0.002903 -0.013866 0.011194 0.005365 -0.007871 0.050882
#
#
# Mechanical properties :
#
#
# Convention : Reuss Voigt Hill
#
# Bulk Modulus (GPa) = 37.03711 47.68524 42.36117
# Shear Modulus (GPa) = 23.68176 30.72329 27.20252
#
# Velocity S-wave (km/s) = 3.34229 3.80690 3.58213
# Velocity P-wave (km/s) = 5.68905 6.46660 6.09024
#
# Compressibility (1/GPa) = 0.02699994
#
# Stress axis : x y z
#
# Youngs Moduli (GPa) = 56.73444 49.11761 61.31788
#
# Poissons Ratio (x) = 0.00632 0.28367
# Poissons Ratio (y) = 0.00730 0.54523
# Poissons Ratio (z) = 0.26247 0.43675
#
# Static dielectric constant tensor:
#      x y z
#    x 1.821710 -0.003640 0.046980 
#    y -0.003640 1.781970 -0.023230 
#    z 0.046980 -0.023230 1.785630 
# 
# From -- ./inp_files/494713.got.cif
#   From: 2010.05.17/outbox.cif.g08.bks.cpg/sg2_248_cif.got.tgz:494713.got - 2010.06.03 11:33:40.
