data_PCOD9107972
_publ_section_title
;
Structure prediction by ZEFSAII (Michael W. Deem and Ramdas Pophale) SiO2 
 PCOD9107972
Probable space group: P -1
;
_chemical_formula_sum "Si O2"
_cell_formula_units_Z 15
_cell_length_a 8.051905
_cell_length_b 13.425740
_cell_length_c 8.373391
_cell_angle_alpha 93.835504
_cell_angle_beta 121.215247
_cell_angle_gamma 119.066984
_cell_volume 612.069808
_symmetry_space_group_name_H-M "P -1"
_symmetry_group_IT_number 2
_symmetry_cell_setting 'triclinic'
loop_
_space_group_symop_operation_xyz
x,y,z
-x,-y,-z
loop_
_atom_site_type_symbol
_atom_site_label
_atom_site_fract_x
_atom_site_fract_y
_atom_site_fract_z
Si Si1 0.058006 0.373473 0.579944
Si Si2 0.909863 0.858458 0.934735
Si Si3 0.441640 0.506657 0.290215
Si Si4 0.981202 0.131474 0.373506
Si Si5 0.058674 0.717252 0.136732
Si Si6 0.500000 0.000000 0.000000
Si Si7 0.577543 0.255150 0.165145
Si Si8 0.525348 0.756552 0.248291
O O1 0.345870 0.481353 0.706770
O O2 0.030731 0.248805 0.502884
O O3 0.978164 0.348910 0.720670
O O4 0.856819 0.364460 0.367338
O O5 0.995329 0.843098 0.804538
O O6 0.619165 0.769907 0.805715
O O7 0.032300 0.829085 0.129807
O O8 0.000000 0.000000 0.000000
O O9 0.500000 0.500000 0.500000
O O10 0.458876 0.630224 0.284884
O O11 0.171406 0.387952 0.096448
O O12 0.204386 0.132779 0.539871
O O13 0.700303 0.012257 0.225894
O O14 0.314183 0.766746 0.193195
O O15 0.550544 0.126601 0.119584
O O16 0.497495 0.270837 0.954873
#
# Coordination Sequence:
#
# PCOD9107972 Si02
#       8
#     2   2   2   2   2   1   2   2
#     4  10  23  42  68 102 135 183 226 289 351 411
#     4  12  24  43  67 101 133 188 232 290 345 409
#     4  11  23  45  73 101 138 182 229 286 358 416
#     4  10  21  42  64  96 137 172 236 274 351 397
#     4  12  24  44  69 102 145 181 236 284 344 426
#     4  10  20  40  66  92 132 188 214 288 328 410
#     4  11  23  43  67  99 143 175 240 280 354 404
#     4  11  24  43  70 104 135 183 226 293 350 418
#
# _framework density 24.507007000000002
#
# number of rings (size 3 to 8) (size 9 to 14) (size 15 to 20)
#    0.000    1.067    1.333    7.200    0.000    0.533 
#    4.800    3.333    0.000    0.000    0.000    0.000 
#    0.000    0.000    0.000    0.000    0.000    0.000 
#
# Total GULP energy -83722.697718 kJ/mol
# GULP energy per Si atom -5581.513181 kJ/mol
# Density = 2.445123 g / cm^3
# Si number density = 24.507007 Si / 1000 Ang^3
#
#
#
# Elastic Constant Matrix: (Units=GPa)
#
#
# Indices 1 2 3 4 5 6 
#
# 1 73.1616 4.9717 2.4898 -2.0529 17.1880 5.8252
# 2 4.9717 77.3826 24.5337 -7.3161 13.2880 -1.7696
# 3 2.4898 24.5337 128.4827 -9.6528 28.1350 3.1206
# 4 -2.0529 -7.3161 -9.6528 47.5759 7.0652 -3.5073
# 5 17.1880 13.2880 28.1350 7.0652 58.7259 -9.4591
# 6 5.8252 -1.7696 3.1206 -3.5073 -9.4591 33.2828
#
#
#
# Elastic Compliance Matrix: (Units=1/GPa)
#
#
# Indices 1 2 3 4 5 6 
#
# 1 0.015429 -0.000344 0.001278 0.001430 -0.005927 -0.004372
# 2 -0.000344 0.014206 -0.002058 0.002135 -0.002291 0.000582
# 3 0.001278 -0.002058 0.009502 0.002247 -0.005125 -0.002444
# 4 0.001430 0.002135 0.002247 0.022599 -0.004579 0.000733
# 5 -0.005927 -0.002291 -0.005125 -0.004579 0.023511 0.007595
# 6 -0.004372 0.000582 -0.002444 0.000733 0.007595 0.033307
#
#
# Mechanical properties :
#
#
# Convention : Reuss Voigt Hill
#
# Bulk Modulus (GPa) = 27.10804 38.11303 32.61054
# Shear Modulus (GPa) = 37.56678 44.38571 40.97624
#
# Velocity S-wave (km/s) = 3.91947 4.26037 4.09347
# Velocity P-wave (km/s) = 5.61858 6.30767 5.97307
#
# Compressibility (1/GPa) = 0.03688942
#
# Stress axis : x y z
#
# Youngs Moduli (GPa) = 64.81390 70.39299 105.24422
#
# Poissons Ratio (x) = 0.02418 -0.13451
# Poissons Ratio (y) = 0.02227 0.21659
# Poissons Ratio (z) = -0.08283 0.14487
#
# Static dielectric constant tensor:
#      x y z
#    x 1.981090 0.025770 0.072320 
#    y 0.025770 2.061370 0.029330 
#    z 0.072320 0.029330 1.908250 
# 
# From -- ./inp_files/202345.got.cif
#   From: 2010.05.17/outbox.cif.g08.bks.cpg/sg2_102_cif.got.tgz:202345.got - 2010.06.03 11:33:40.
