data_PCOD9107621
_publ_section_title
;
Structure prediction by ZEFSAII (Michael W. Deem and Ramdas Pophale) SiO2 
 PCOD9107621
Probable space group: P -1
;
_chemical_formula_sum "Si O2"
_cell_formula_units_Z 16
_cell_length_a 8.480365
_cell_length_b 10.873441
_cell_length_c 8.767615
_cell_angle_alpha 74.300003
_cell_angle_beta 88.218335
_cell_angle_gamma 95.212305
_cell_volume 773.779420
_symmetry_space_group_name_H-M "P -1"
_symmetry_group_IT_number 2
_symmetry_cell_setting 'triclinic'
loop_
_space_group_symop_operation_xyz
x,y,z
-x,-y,-z
loop_
_atom_site_type_symbol
_atom_site_label
_atom_site_fract_x
_atom_site_fract_y
_atom_site_fract_z
Si Si1 0.338705 0.231929 0.731559
Si Si2 0.164694 0.403542 0.919333
Si Si3 0.600117 0.583904 0.595988
Si Si4 0.376608 0.653968 0.852519
Si Si5 0.956345 0.246594 0.237040
Si Si6 0.870527 0.031772 0.112716
Si Si7 0.417630 0.852070 0.044254
Si Si8 0.063508 0.462189 0.348166
O O1 0.260791 0.322901 0.825521
O O2 0.335360 0.291884 0.545633
O O3 0.239140 0.094453 0.794325
O O4 0.517818 0.212860 0.785895
O O5 0.288872 0.514830 0.951812
O O6 0.033714 0.468341 0.800519
O O7 0.068235 0.318612 0.078110
O O8 0.500000 0.500000 0.500000
O O9 0.494639 0.622942 0.725570
O O10 0.747728 0.511015 0.670228
O O11 0.225725 0.721025 0.772764
O O12 0.458016 0.753557 0.940944
O O13 0.947902 0.099938 0.237407
O O14 0.024841 0.310124 0.367805
O O15 0.763934 0.128540 0.993492
O O16 0.000000 0.000000 0.000000
O O17 0.500000 0.000000 0.000000
O O18 0.000000 0.500000 0.500000
#
# Coordination Sequence:
#
# PCOD9107621 Si02
#       8
#     2   2   2   2   2   2   2   2
#     4  11  22  40  61  91 123 158 204 245 303 357
#     4  11  21  40  63  92 122 155 203 258 297 359
#     4  12  24  40  59  90 129 162 194 245 305 374
#     4  10  21  39  59  91 125 157 198 244 308 356
#     4  10  22  41  63  90 119 158 205 252 301 356
#     4  10  20  40  65  89 120 154 203 256 297 352
#     4   9  22  40  62  89 122 159 202 251 299 350
#     4  11  22  39  60  88 127 161 196 246 310 355
#
# _framework density 20.677726
#
# number of rings (size 3 to 8) (size 9 to 14) (size 15 to 20)
#    0.000    1.500    3.750    2.250    1.750    3.500 
#    0.000    6.250    0.000    0.000    0.000    0.000 
#    0.000    0.000    0.000    0.000    0.000    0.000 
#
# Total GULP energy -89262.298363 kJ/mol
# GULP energy per Si atom -5578.893648 kJ/mol
# Density = 2.063066 g / cm^3
# Si number density = 20.677726 Si / 1000 Ang^3
#
#
#
# Elastic Constant Matrix: (Units=GPa)
#
#
# Indices 1 2 3 4 5 6 
#
# 1 104.3116 34.4927 43.3350 9.3285 -7.5206 -8.6463
# 2 34.4927 132.2482 35.1450 30.4308 -0.8277 11.4137
# 3 43.3350 35.1450 78.4971 9.9767 -7.1892 1.8483
# 4 9.3285 30.4308 9.9767 40.3616 -2.3711 2.8544
# 5 -7.5206 -0.8277 -7.1892 -2.3711 35.7231 7.6909
# 6 -8.6463 11.4137 1.8483 2.8544 7.6909 33.6862
#
#
#
# Elastic Compliance Matrix: (Units=1/GPa)
#
#
# Indices 1 2 3 4 5 6 
#
# 1 0.013396 -0.002104 -0.006487 -0.000188 0.000504 0.004408
# 2 -0.002104 0.010652 -0.002726 -0.006664 -0.000471 -0.003328
# 3 -0.006487 -0.002726 0.017906 -0.000556 0.002628 -0.002277
# 4 -0.000188 -0.006664 -0.000556 0.030142 0.001853 -0.000737
# 5 0.000504 -0.000471 0.002628 0.001853 0.030229 -0.006914
# 6 0.004408 -0.003328 -0.002277 -0.000737 -0.006914 0.033710
#
#
# Mechanical properties :
#
#
# Convention : Reuss Voigt Hill
#
# Bulk Modulus (GPa) = 51.75723 60.11136 55.93430
# Shear Modulus (GPa) = 30.28312 35.42645 32.85478
#
# Velocity S-wave (km/s) = 3.83107 4.14365 3.99042
# Velocity P-wave (km/s) = 6.68238 7.21296 6.95273
#
# Compressibility (1/GPa) = 0.01932097
#
# Stress axis : x y z
#
# Youngs Moduli (GPa) = 74.64979 93.87773 55.84769
#
# Poissons Ratio (x) = 0.19751 0.36228
# Poissons Ratio (y) = 0.15705 0.15222
# Poissons Ratio (z) = 0.48425 0.25587
#
# Static dielectric constant tensor:
#      x y z
#    x 1.774450 0.012410 0.042360 
#    y 0.012410 1.811640 -0.008120 
#    z 0.042360 -0.008120 1.724520 
# 
# From -- ./inp_files/169611.got.cif
#   From: 2010.05.17/outbox.cif.g08.bks.cpg/sg2_85_cif.got.tgz:169611.got - 2010.06.03 11:33:40.
