data_PCOD9107883
_publ_section_title
;
Structure prediction by ZEFSAII (Michael W. Deem and Ramdas Pophale) SiO2 
 PCOD9107883
Probable space group: P -1
;
_chemical_formula_sum "Si O2"
_cell_formula_units_Z 14
_cell_length_a 13.171943
_cell_length_b 16.847317
_cell_length_c 12.125929
_cell_angle_alpha 46.715463
_cell_angle_beta 33.640433
_cell_angle_gamma 23.853399
_cell_volume 567.282559
_symmetry_space_group_name_H-M "P -1"
_symmetry_group_IT_number 2
_symmetry_cell_setting 'triclinic'
loop_
_space_group_symop_operation_xyz
x,y,z
-x,-y,-z
loop_
_atom_site_type_symbol
_atom_site_label
_atom_site_fract_x
_atom_site_fract_y
_atom_site_fract_z
Si Si1 0.620169 0.132640 0.974250
Si Si2 0.108234 0.772329 0.030307
Si Si3 0.710163 0.522689 0.543422
Si Si4 0.690349 0.773152 0.352737
Si Si5 0.930603 0.181478 0.727352
Si Si6 0.864832 0.177486 0.394860
Si Si7 0.299195 0.105164 0.198193
O O1 0.674355 0.234223 0.836745
O O2 0.288091 0.232763 0.137432
O O3 0.893846 0.945518 0.815777
O O4 0.769403 0.013981 0.068079
O O5 0.192967 0.753918 0.096967
O O6 0.967008 0.720111 0.197429
O O7 0.422007 0.642395 0.787201
O O8 0.858365 0.568535 0.385060
O O9 0.942533 0.297319 0.558577
O O10 0.510514 0.631829 0.503427
O O11 0.523393 0.911293 0.260629
O O12 0.333913 0.937433 0.589511
O O13 0.937193 0.234441 0.363975
O O14 0.000000 0.000000 0.500000
O O15 0.500000 0.000000 0.000000
#
# Coordination Sequence:
#
# PCOD9107883 Si02
#       7
#     2   2   2   2   2   2   2
#     4   9  19  34  60  88 116 160 204 243 301 369
#     4  10  22  42  64  87 129 174 200 250 319 363
#     4  11  24  40  64  95 124 164 210 256 309 372
#     4  11  22  42  63  93 123 162 215 250 309 375
#     4  12  22  41  63  93 129 160 210 263 301 364
#     4  10  16  35  61  80 116 163 195 247 309 360
#     4   9  18  35  66  86 116 166 204 246 311 370
#
# _framework density 24.679058999999999
#
# number of rings (size 3 to 8) (size 9 to 14) (size 15 to 20)
#    0.000    1.714    4.286    2.143    0.000    0.571 
#    5.143    3.571    0.000    0.000    0.000    0.000 
#    0.000    0.000    0.000    0.000    0.000    0.000 
#
# Total GULP energy -78189.946880 kJ/mol
# GULP energy per Si atom -5584.996206 kJ/mol
# Density = 2.462289 g / cm^3
# Si number density = 24.679059 Si / 1000 Ang^3
#
#
#
# Elastic Constant Matrix: (Units=GPa)
#
#
# Indices 1 2 3 4 5 6 
#
# 1 129.0114 24.2169 44.2439 -12.6150 -12.0986 22.9787
# 2 24.2169 87.8796 16.7467 -19.3969 -7.9915 19.3051
# 3 44.2439 16.7467 87.6698 -13.1024 -14.0796 15.7244
# 4 -12.6150 -19.3969 -13.1024 29.8343 6.6582 -12.2276
# 5 -12.0986 -7.9915 -14.0796 6.6582 43.5318 -19.9630
# 6 22.9787 19.3051 15.7244 -12.2276 -19.9630 35.3168
#
#
#
# Elastic Compliance Matrix: (Units=1/GPa)
#
#
# Indices 1 2 3 4 5 6 
#
# 1 0.010142 -0.001042 -0.004221 0.000057 -0.000865 -0.004619
# 2 -0.001042 0.014297 -0.000446 0.006764 -0.001285 -0.005323
# 3 -0.004221 -0.000446 0.014712 0.003436 0.002552 -0.000928
# 4 0.000057 0.006764 0.003436 0.043461 0.000281 0.009941
# 5 -0.000865 -0.001285 0.002552 0.000281 0.031563 0.018067
# 6 -0.004619 -0.005323 -0.000928 0.009941 0.018067 0.048297
#
#
# Mechanical properties :
#
#
# Convention : Reuss Voigt Hill
#
# Bulk Modulus (GPa) = 36.05877 52.77510 44.41693
# Shear Modulus (GPa) = 27.30251 36.36014 31.83132
#
# Velocity S-wave (km/s) = 3.32972 3.84255 3.59529
# Velocity P-wave (km/s) = 5.42453 6.41232 5.93900
#
# Compressibility (1/GPa) = 0.02773251
#
# Stress axis : x y z
#
# Youngs Moduli (GPa) = 98.60448 69.94630 67.97323
#
# Poissons Ratio (x) = 0.07286 0.28691
# Poissons Ratio (y) = 0.10272 0.03031
# Poissons Ratio (z) = 0.41621 0.03119
#
# Static dielectric constant tensor:
#      x y z
#    x 1.033380 0.170060 -1.328770 
#    y 0.170060 1.985510 0.254570 
#    z -1.328770 0.254570 0.190210 
# 
# From -- ./inp_files/312692.got.cif
#   From: 2010.05.17/outbox.cif.g08.bks.cpg/sg2_157_cif.got.tgz:312692.got - 2010.06.03 11:33:40.
