data_PCOD9107268
_publ_section_title
;
Structure prediction by ZEFSAII (Michael W. Deem and Ramdas Pophale) SiO2 
 PCOD9107268
Probable space group: P -1
;
_chemical_formula_sum "Si O2"
_cell_formula_units_Z 14
_cell_length_a 5.756007
_cell_length_b 20.599004
_cell_length_c 4.971165
_cell_angle_alpha 81.202583
_cell_angle_beta 99.589386
_cell_angle_gamma 116.650570
_cell_volume 517.389154
_symmetry_space_group_name_H-M "P -1"
_symmetry_group_IT_number 2
_symmetry_cell_setting 'triclinic'
loop_
_space_group_symop_operation_xyz
x,y,z
-x,-y,-z
loop_
_atom_site_type_symbol
_atom_site_label
_atom_site_fract_x
_atom_site_fract_y
_atom_site_fract_z
Si Si1 0.093701 0.449274 0.375329
Si Si2 0.191602 0.817224 0.069820
Si Si3 0.022447 0.091679 0.354263
Si Si4 0.549352 0.340377 0.377350
Si Si5 0.680850 0.792699 0.266044
Si Si6 0.519298 0.584972 0.162426
Si Si7 0.407912 0.056238 0.571614
O O1 0.279454 0.503882 0.150105
O O2 0.258477 0.425702 0.626859
O O3 0.000000 0.500000 0.500000
O O4 0.840371 0.377590 0.288444
O O5 0.397632 0.781382 0.094766
O O6 0.367464 0.883402 0.256303
O O7 0.899173 0.772642 0.174097
O O8 0.111813 0.857346 0.791831
O O9 0.139340 0.123951 0.655410
O O10 0.299748 0.095239 0.305814
O O11 0.838364 0.008599 0.289465
O O12 0.409279 0.254887 0.447038
O O13 0.563801 0.369323 0.666799
O O14 0.406214 0.374069 0.131501
O O15 0.500000 0.000000 0.500000
#
# Coordination Sequence:
#
# PCOD9107268 Si02
#       7
#     2   2   2   2   2   2   2
#     4   9  21  42  67 101 131 174 223 282 337 404
#     4  11  25  44  66  93 128 178 219 276 337 404
#     4  10  23  41  64  92 132 167 219 278 337 401
#     4  11  25  42  66  98 133 180 223 280 339 410
#     4  11  27  43  63  97 132 172 228 268 338 411
#     4  10  23  43  69  97 134 173 227 280 340 400
#     4  10  20  40  63  96 124 166 221 278 332 404
#
# _framework density 27.058938999999999
#
# number of rings (size 3 to 8) (size 9 to 14) (size 15 to 20)
#    0.000    1.714    1.429    0.857    6.000    8.000 
#    0.000    0.000    0.000    0.000    0.000    0.000 
#    0.000    0.000    0.000    0.000    0.000    0.000 
#
# Total GULP energy -78036.411552 kJ/mol
# GULP energy per Si atom -5574.029397 kJ/mol
# Density = 2.699735 g / cm^3
# Si number density = 27.058939 Si / 1000 Ang^3
#
#
#
# Elastic Constant Matrix: (Units=GPa)
#
#
# Indices 1 2 3 4 5 6 
#
# 1 161.5606 21.2181 47.2145 -2.8699 45.5608 19.1164
# 2 21.2181 104.6021 21.4963 -6.5250 0.5972 18.9990
# 3 47.2145 21.4963 124.1177 -11.6136 20.5408 2.7984
# 4 -2.8699 -6.5250 -11.6136 38.6474 1.2287 2.5090
# 5 45.5608 0.5972 20.5408 1.2287 45.4686 0.8941
# 6 19.1164 18.9990 2.7984 2.5090 0.8941 25.5618
#
#
#
# Elastic Compliance Matrix: (Units=1/GPa)
#
#
# Indices 1 2 3 4 5 6 
#
# 1 0.010293 -0.000276 -0.002101 0.000836 -0.009245 -0.007021
# 2 -0.000276 0.011620 -0.001701 0.001948 0.001006 -0.008470
# 3 -0.002101 -0.001701 0.009736 0.002453 -0.002369 0.001612
# 4 0.000836 0.001948 0.002453 0.027407 -0.002615 -0.004941
# 5 -0.009245 0.001006 -0.002369 -0.002615 0.032276 0.005553
# 6 -0.007021 -0.008470 0.001612 -0.004941 0.005553 0.050782
#
#
# Mechanical properties :
#
#
# Convention : Reuss Voigt Hill
#
# Bulk Modulus (GPa) = 42.56573 63.34869 52.95721
# Shear Modulus (GPa) = 31.62581 41.95899 36.79240
#
# Velocity S-wave (km/s) = 3.42244 3.94210 3.69143
# Velocity P-wave (km/s) = 5.60200 6.64699 6.14674
#
# Compressibility (1/GPa) = 0.02349308
#
# Stress axis : x y z
#
# Youngs Moduli (GPa) = 97.15649 86.06002 102.71327
#
# Poissons Ratio (x) = 0.02374 0.21580
# Poissons Ratio (y) = 0.02680 0.17469
# Poissons Ratio (z) = 0.20412 0.14637
#
# Static dielectric constant tensor:
#      x y z
#    x 2.419600 0.048410 -0.080910 
#    y 0.048410 2.403370 -0.193770 
#    z -0.080910 -0.193770 2.305250 
# 
# From -- ./inp_files/9621.got.cif
#   From: 2010.05.17/outbox.cif.g08.bks.cpg/sg2_5_cif.got.tgz:9621.got - 2010.06.03 11:33:40.
