data_PCOD9107658
_publ_section_title
;
Structure prediction by ZEFSAII (Michael W. Deem and Ramdas Pophale) SiO2 
 PCOD9107658
Probable space group: P -1
;
_chemical_formula_sum "Si O2"
_cell_formula_units_Z 14
_cell_length_a 7.751378
_cell_length_b 17.462264
_cell_length_c 12.794568
_cell_angle_alpha 142.950972
_cell_angle_beta 37.854779
_cell_angle_gamma 119.915043
_cell_volume 598.471782
_symmetry_space_group_name_H-M "P -1"
_symmetry_group_IT_number 2
_symmetry_cell_setting 'triclinic'
loop_
_space_group_symop_operation_xyz
x,y,z
-x,-y,-z
loop_
_atom_site_type_symbol
_atom_site_label
_atom_site_fract_x
_atom_site_fract_y
_atom_site_fract_z
Si Si1 0.757740 0.558464 0.462333
Si Si2 0.512216 0.036960 0.655067
Si Si3 0.855657 0.942387 0.635858
Si Si4 0.177574 0.853172 0.600305
Si Si5 0.579334 0.608307 0.007783
Si Si6 0.695646 0.797507 0.892328
Si Si7 0.003564 0.632404 0.207193
O O1 0.500000 0.500000 0.500000
O O2 0.855108 0.618183 0.374855
O O3 0.636776 0.674041 0.732720
O O4 0.066195 0.446785 0.234272
O O5 0.339473 0.185298 0.947675
O O6 0.858279 0.015170 0.487620
O O7 0.500000 0.000000 0.500000
O O8 0.318302 0.950569 0.697576
O O9 0.927467 0.920510 0.702817
O O10 0.861601 0.795867 0.428543
O O11 0.552964 0.063863 0.882994
O O12 0.445235 0.744717 0.288834
O O13 0.023371 0.785453 0.682672
O O14 0.353533 0.616431 0.030335
O O15 0.500000 0.500000 0.000000
O O16 0.000000 0.500000 0.000000
#
# Coordination Sequence:
#
# PCOD9107658 Si02
#       7
#     2   2   2   2   2   2   2
#     4  11  25  41  66  99 131 175 221 272 323 397
#     4  10  24  41  62  93 130 171 213 271 329 389
#     4  10  22  41  62  95 131 168 216 270 329 391
#     4  10  20  40  65  90 127 172 214 270 323 393
#     4   9  18  41  63  87 131 170 216 260 326 386
#     4  12  22  40  66  97 132 167 222 274 323 390
#     4  10  22  43  67  92 131 179 215 268 333 390
#
# _framework density 23.392914999999999
#
# number of rings (size 3 to 8) (size 9 to 14) (size 15 to 20)
#    0.000    1.714    4.286    1.286    4.000    2.286 
#    2.571    0.714    0.000    0.000    0.000    0.000 
#    0.000    0.000    0.000    0.000    0.000    0.000 
#
# Total GULP energy -78074.743041 kJ/mol
# GULP energy per Si atom -5576.767360 kJ/mol
# Density = 2.333967 g / cm^3
# Si number density = 23.392915 Si / 1000 Ang^3
#
#
#
# Elastic Constant Matrix: (Units=GPa)
#
#
# Indices 1 2 3 4 5 6 
#
# 1 94.7313 43.0397 78.1295 11.0224 17.9955 28.3238
# 2 43.0397 120.6100 50.2456 9.8211 6.2205 46.1947
# 3 78.1295 50.2456 160.4657 23.6616 14.4962 22.6060
# 4 11.0224 9.8211 23.6616 37.9583 -4.9930 7.6842
# 5 17.9955 6.2205 14.4962 -4.9930 50.1559 9.5028
# 6 28.3238 46.1947 22.6060 7.6842 9.5028 51.6998
#
#
#
# Elastic Compliance Matrix: (Units=1/GPa)
#
#
# Indices 1 2 3 4 5 6 
#
# 1 0.020547 -0.001502 -0.008469 0.000355 -0.003643 -0.005594
# 2 -0.001502 0.013838 -0.002316 0.000729 0.001637 -0.010938
# 3 -0.008469 -0.002316 0.011508 -0.004760 -0.000959 0.002561
# 4 0.000355 0.000729 -0.004760 0.030532 0.004997 -0.004221
# 5 -0.003643 0.001637 -0.000959 0.004997 0.022563 -0.003938
# 6 -0.005594 -0.010938 0.002561 -0.004221 -0.003938 0.032412
#
#
# Mechanical properties :
#
#
# Convention : Reuss Voigt Hill
#
# Bulk Modulus (GPa) = 46.90798 79.84851 63.37825
# Shear Modulus (GPa) = 30.66006 41.58895 36.12451
#
# Velocity S-wave (km/s) = 3.62423 4.22102 3.93396
# Velocity P-wave (km/s) = 6.13263 7.61339 6.91277
#
# Compressibility (1/GPa) = 0.02131833
#
# Stress axis : x y z
#
# Youngs Moduli (GPa) = 48.66976 72.26732 86.89489
#
# Poissons Ratio (x) = 0.10858 0.73588
# Poissons Ratio (y) = 0.07312 0.20124
# Poissons Ratio (z) = 0.41217 0.16736
#
# Static dielectric constant tensor:
#      x y z
#    x 1.970790 -0.107760 0.047120 
#    y -0.107760 2.054670 0.045090 
#    z 0.047120 0.045090 1.907140 
# 
# From -- ./inp_files/462325.got.cif
#   From: 2010.05.17/outbox.cif.g08.bks.cpg/sg2_232_cif.got.tgz:462325.got - 2010.06.03 11:33:40.
