data_PCOD9107212
_publ_section_title
;
Structure prediction by ZEFSAII (Michael W. Deem and Ramdas Pophale) SiO2 
 PCOD9107212
Probable space group: P -1
;
_chemical_formula_sum "Si O2"
_cell_formula_units_Z 14
_cell_length_a 11.502545
_cell_length_b 9.225517
_cell_length_c 12.400579
_cell_angle_alpha 58.435295
_cell_angle_beta 140.873357
_cell_angle_gamma 127.492520
_cell_volume 655.390745
_symmetry_space_group_name_H-M "P -1"
_symmetry_group_IT_number 2
_symmetry_cell_setting 'triclinic'
loop_
_space_group_symop_operation_xyz
x,y,z
-x,-y,-z
loop_
_atom_site_type_symbol
_atom_site_label
_atom_site_fract_x
_atom_site_fract_y
_atom_site_fract_z
Si Si1 0.231587 0.509331 0.362258
Si Si2 0.259825 0.930075 0.857697
Si Si3 0.053116 0.301110 0.914455
Si Si4 0.290771 0.145768 0.599680
Si Si5 0.704153 0.401206 0.878555
Si Si6 0.587851 0.876858 0.536479
Si Si7 0.050945 0.999090 0.879194
O O1 0.202538 0.297554 0.439865
O O2 0.230880 0.541555 0.219787
O O3 0.437291 0.661378 0.501090
O O4 0.065300 0.578023 0.261775
O O5 0.191463 0.975399 0.674599
O O6 0.197093 0.727225 0.942028
O O7 0.170220 0.024718 0.845190
O O8 0.500000 0.000000 0.000000
O O9 0.110774 0.191365 0.906936
O O10 0.237043 0.426847 0.068276
O O11 0.911630 0.144300 0.955721
O O12 0.474131 0.280851 0.749160
O O13 0.373723 0.074654 0.582423
O O14 0.500000 0.000000 0.500000
O O15 0.812273 0.919778 0.721601
#
# Coordination Sequence:
#
# PCOD9107212 Si02
#       7
#     2   2   2   2   2   2   2
#     4  11  20  39  62  96 121 160 207 259 301 361
#     4  10  23  43  63  88 125 166 208 247 304 375
#     4  11  22  36  66  95 122 154 213 262 302 362
#     4  10  23  39  64  89 126 165 204 252 307 364
#     4  10  20  40  63  92 118 163 207 254 300 364
#     4  11  22  40  62  94 126 158 204 257 312 355
#     4  11  23  40  62  93 125 164 202 255 314 358
#
# _framework density 21.361304000000001
#
# number of rings (size 3 to 8) (size 9 to 14) (size 15 to 20)
#    0.000    1.429    2.857    3.857    2.000    0.571 
#    0.000    5.000    0.000    0.000    0.000    0.000 
#    0.000    0.000    0.000    0.000    0.000    0.000 
#
# Total GULP energy -78075.876099 kJ/mol
# GULP energy per Si atom -5576.848293 kJ/mol
# Density = 2.131268 g / cm^3
# Si number density = 21.361304 Si / 1000 Ang^3
#
#
#
# Elastic Constant Matrix: (Units=GPa)
#
#
# Indices 1 2 3 4 5 6 
#
# 1 126.5861 56.2147 41.8186 -10.8874 -11.0184 -19.8080
# 2 56.2147 118.9522 51.9060 9.4535 -12.6403 -16.5379
# 3 41.8186 51.9060 109.0036 -17.9698 -3.8512 -6.0078
# 4 -10.8874 9.4535 -17.9698 47.5682 7.2591 -8.6760
# 5 -11.0184 -12.6403 -3.8512 7.2591 34.6704 2.1331
# 6 -19.8080 -16.5379 -6.0078 -8.6760 2.1331 32.3957
#
#
#
# Elastic Compliance Matrix: (Units=1/GPa)
#
#
# Indices 1 2 3 4 5 6 
#
# 1 0.011546 -0.004281 -0.001419 0.003855 0.000800 0.005591
# 2 -0.004281 0.014222 -0.005954 -0.006453 0.004421 0.001519
# 3 -0.001419 -0.005954 0.013556 0.006452 -0.002497 0.000500
# 4 0.003855 -0.006453 0.006452 0.028170 -0.006817 0.008253
# 5 0.000800 0.004421 -0.002497 -0.006817 0.031960 -0.001647
# 6 0.005591 0.001519 0.000500 0.008253 -0.001647 0.037473
#
#
# Mechanical properties :
#
#
# Convention : Reuss Voigt Hill
#
# Bulk Modulus (GPa) = 62.43661 72.71336 67.57499
# Shear Modulus (GPa) = 30.19816 36.56704 33.38260
#
# Velocity S-wave (km/s) = 3.76398 4.14192 3.95747
# Velocity P-wave (km/s) = 6.94135 7.54902 7.25155
#
# Compressibility (1/GPa) = 0.01601624
#
# Stress axis : x y z
#
# Youngs Moduli (GPa) = 86.61226 70.31519 73.76680
#
# Poissons Ratio (x) = 0.30104 0.10466
# Poissons Ratio (y) = 0.37081 0.43917
# Poissons Ratio (z) = 0.12289 0.41862
#
# Static dielectric constant tensor:
#      x y z
#    x 1.800110 0.034040 0.037510 
#    y 0.034040 1.805340 -0.012120 
#    z 0.037510 -0.012120 1.888420 
# 
# From -- ./inp_files/190210.got.cif
#   From: 2010.05.17/outbox.cif.g08.bks.cpg/sg2_96_cif.got.tgz:190210.got - 2010.06.03 11:33:40.
