data_PCOD9107748
_publ_section_title
;
Structure prediction by ZEFSAII (Michael W. Deem and Ramdas Pophale) SiO2 
 PCOD9107748
Probable space group: P -1
;
_chemical_formula_sum "Si O2"
_cell_formula_units_Z 16
_cell_length_a 13.954844
_cell_length_b 9.161807
_cell_length_c 11.316463
_cell_angle_alpha 117.417354
_cell_angle_beta 98.529445
_cell_angle_gamma 42.911796
_cell_volume 830.631021
_symmetry_space_group_name_H-M "P -1"
_symmetry_group_IT_number 2
_symmetry_cell_setting 'triclinic'
loop_
_space_group_symop_operation_xyz
x,y,z
-x,-y,-z
loop_
_atom_site_type_symbol
_atom_site_label
_atom_site_fract_x
_atom_site_fract_y
_atom_site_fract_z
Si Si1 0.119118 0.435848 0.830159
Si Si2 0.579961 0.116555 0.577867
Si Si3 0.098371 0.845390 0.576478
Si Si4 0.950970 0.331582 0.846425
Si Si5 0.115020 0.475880 0.570838
Si Si6 0.603502 0.432830 0.598626
Si Si7 0.385704 0.238563 0.155048
Si Si8 0.460088 0.052395 0.707375
O O1 0.083154 0.539446 0.729035
O O2 0.298257 0.219397 0.792187
O O3 0.050930 0.341160 0.801680
O O4 0.055845 0.617184 0.997160
O O5 0.622029 0.250609 0.618448
O O6 0.465637 0.215184 0.696471
O O7 0.726210 0.819000 0.514268
O O8 0.513589 0.126737 0.448836
O O9 0.107974 0.653211 0.562655
O O10 0.254662 0.698038 0.498919
O O11 0.000000 0.000000 0.500000
O O12 0.029452 0.058071 0.737761
O O13 0.782640 0.547110 0.843709
O O14 0.000000 0.500000 0.500000
O O15 0.500000 0.500000 0.500000
O O16 0.566056 0.638034 0.751040
O O17 0.410692 0.110309 0.234115
O O18 0.500000 0.000000 0.000000
#
# Coordination Sequence:
#
# PCOD9107748 Si02
#       8
#     2   2   2   2   2   2   2   2
#     4  10  23  42  66  94 130 181 216 270 332 403
#     4  10  22  39  66  96 129 173 223 277 328 387
#     4  12  24  42  67 100 129 171 225 280 328 394
#     4  11  24  43  68  94 137 174 226 272 331 401
#     4  11  24  40  66  97 133 173 223 274 335 397
#     4  12  25  41  70 101 133 171 228 275 327 397
#     4  12  24  42  69 100 134 179 217 274 339 400
#     4  10  20  40  65  94 131 170 220 269 332 393
#
# _framework density 19.262464000000001
#
# number of rings (size 3 to 8) (size 9 to 14) (size 15 to 20)
#    0.000    1.000    3.750    3.750    5.250    0.500 
#    0.000    0.625    2.750    0.000    0.000    0.000 
#    0.000    0.000    0.000    0.000    0.000    0.000 
#
# Total GULP energy -89266.600725 kJ/mol
# GULP energy per Si atom -5579.162545 kJ/mol
# Density = 1.921862 g / cm^3
# Si number density = 19.262464 Si / 1000 Ang^3
#
#
#
# Elastic Constant Matrix: (Units=GPa)
#
#
# Indices 1 2 3 4 5 6 
#
# 1 153.1671 68.4727 56.7590 8.2920 -2.2364 16.2979
# 2 68.4727 101.6338 53.8785 -1.5048 5.5086 9.7956
# 3 56.7590 53.8785 102.3386 2.8600 6.2835 10.5609
# 4 8.2920 -1.5048 2.8600 37.5797 1.9516 4.0059
# 5 -2.2364 5.5086 6.2835 1.9516 27.9588 -4.0346
# 6 16.2979 9.7956 10.5609 4.0059 -4.0346 42.6203
#
#
#
# Elastic Compliance Matrix: (Units=1/GPa)
#
#
# Indices 1 2 3 4 5 6 
#
# 1 0.010344 -0.005525 -0.002756 -0.002256 0.002468 -0.001557
# 2 -0.005525 0.016798 -0.005589 0.002555 -0.002799 -0.000868
# 3 -0.002756 -0.005589 0.014565 -0.000433 -0.002575 -0.001474
# 4 -0.002256 0.002555 -0.000433 0.027658 -0.002876 -0.002489
# 5 0.002468 -0.002799 -0.002575 -0.002876 0.037901 0.004196
# 6 -0.001557 -0.000868 -0.001474 -0.002489 0.004196 0.025254
#
#
# Mechanical properties :
#
#
# Convention : Reuss Voigt Hill
#
# Bulk Modulus (GPa) = 71.60211 79.48442 75.54326
# Shear Modulus (GPa) = 30.31866 33.50040 31.90953
#
# Velocity S-wave (km/s) = 3.97164 4.17484 4.07451
# Velocity P-wave (km/s) = 7.63442 8.03695 7.83827
#
# Compressibility (1/GPa) = 0.01396607
#
# Stress axis : x y z
#
# Youngs Moduli (GPa) = 96.67575 59.53187 68.65830
#
# Poissons Ratio (x) = 0.32891 0.18922
# Poissons Ratio (y) = 0.53413 0.38375
# Poissons Ratio (z) = 0.26644 0.33274
#
# Static dielectric constant tensor:
#      x y z
#    x 1.685460 -0.002530 -0.015920 
#    y -0.002530 1.706730 0.003600 
#    z -0.015920 0.003600 1.758830 
# 
# From -- ./inp_files/419764.got.cif
#   From: 2010.05.17/outbox.cif.g08.bks.cpg/sg2_210_cif.got.tgz:419764.got - 2010.06.03 11:33:40.
