data_PCOD9107220
_publ_section_title
;
Structure prediction by ZEFSAII (Michael W. Deem and Ramdas Pophale) SiO2 
 PCOD9107220
Probable space group: P -1
;
_chemical_formula_sum "Si O2"
_cell_formula_units_Z 16
_cell_length_a 8.347713
_cell_length_b 14.922720
_cell_length_c 16.556091
_cell_angle_alpha 43.956071
_cell_angle_beta 150.685673
_cell_angle_gamma 134.010792
_cell_volume 687.076793
_symmetry_space_group_name_H-M "P -1"
_symmetry_group_IT_number 2
_symmetry_cell_setting 'triclinic'
loop_
_space_group_symop_operation_xyz
x,y,z
-x,-y,-z
loop_
_atom_site_type_symbol
_atom_site_label
_atom_site_fract_x
_atom_site_fract_y
_atom_site_fract_z
Si Si1 0.635674 0.481272 0.311301
Si Si2 0.044003 0.035095 0.590600
Si Si3 0.666627 0.912495 0.940157
Si Si4 0.517683 0.384546 0.688484
Si Si5 0.054459 0.490155 0.733487
Si Si6 0.492473 0.147878 0.927494
Si Si7 0.760596 0.803089 0.731739
Si Si8 0.623238 0.234569 0.250899
O O1 0.420830 0.539242 0.247229
O O2 0.468890 0.328356 0.320438
O O3 0.000000 0.500000 0.500000
O O4 0.720825 0.546989 0.217246
O O5 0.948805 0.176866 0.455799
O O6 0.409273 0.008230 0.785363
O O7 0.000000 0.000000 0.500000
O O8 0.798255 0.930322 0.607307
O O9 0.506908 0.816197 0.860951
O O10 0.734680 0.849368 0.095945
O O11 0.000000 0.000000 0.000000
O O12 0.843578 0.393633 0.769056
O O13 0.238644 0.448295 0.479396
O O14 0.387767 0.234473 0.754643
O O15 0.285738 0.609263 0.805171
O O16 0.861432 0.214247 0.077323
O O17 0.500000 0.000000 0.000000
O O18 0.630912 0.821412 0.752855
#
# Coordination Sequence:
#
# PCOD9107220 Si02
#       8
#     2   2   2   2   2   2   2   2
#     4   9  20  42  62  95 126 166 223 269 326 388
#     4   9  20  35  60  94 119 176 217 264 323 388
#     4  10  22  42  58  92 134 171 214 271 330 395
#     4  10  22  42  67  92 132 171 214 280 325 391
#     4   9  21  41  67  96 123 170 223 275 324 386
#     4  11  25  43  63  95 134 175 218 263 341 403
#     4  10  21  39  64  91 134 167 217 278 324 397
#     4  10  20  40  63  92 129 167 226 265 326 391
#
# _framework density 23.287061000000001
#
# number of rings (size 3 to 8) (size 9 to 14) (size 15 to 20)
#    0.000    2.250    0.000    1.125    8.750    0.500 
#   20.250    1.250    0.000    0.000    0.000    0.000 
#    0.000    0.000    0.000    0.000    0.000    0.000 
#
# Total GULP energy -89325.820191 kJ/mol
# GULP energy per Si atom -5582.863762 kJ/mol
# Density = 2.323406 g / cm^3
# Si number density = 23.287061 Si / 1000 Ang^3
#
#
#
# Elastic Constant Matrix: (Units=GPa)
#
#
# Indices 1 2 3 4 5 6 
#
# 1 166.5575 47.1039 16.8347 -3.2112 -32.0302 8.8090
# 2 47.1039 84.0481 30.7857 4.1208 -11.9885 -8.2720
# 3 16.8347 30.7857 44.9420 -4.1311 -22.5649 5.6229
# 4 -3.2112 4.1208 -4.1311 36.2774 2.1398 -3.1415
# 5 -32.0302 -11.9885 -22.5649 2.1398 33.7663 4.9312
# 6 8.8090 -8.2720 5.6229 -3.1415 4.9312 41.2930
#
#
#
# Elastic Compliance Matrix: (Units=1/GPa)
#
#
# Indices 1 2 3 4 5 6 
#
# 1 0.010560 -0.008289 0.010152 0.001560 0.014773 -0.006941
# 2 -0.008289 0.024134 -0.023469 -0.004191 -0.016382 0.011436
# 3 0.010152 -0.023469 0.059363 0.006057 0.043458 -0.019680
# 4 0.001560 -0.004191 0.006057 0.028731 0.002230 -0.000078
# 5 0.014773 -0.016382 0.043458 0.002230 0.069708 -0.020506
# 6 -0.006941 0.011436 -0.019680 -0.000078 -0.020506 0.033112
#
#
# Mechanical properties :
#
#
# Convention : Reuss Voigt Hill
#
# Bulk Modulus (GPa) = 19.66729 53.88848 36.77789
# Shear Modulus (GPa) = 17.49668 35.65556 26.57612
#
# Velocity S-wave (km/s) = 2.74405 3.91721 3.38189
# Velocity P-wave (km/s) = 4.30159 6.60686 5.57469
#
# Compressibility (1/GPa) = 0.05084584
#
# Stress axis : x y z
#
# Youngs Moduli (GPa) = 94.69401 41.43510 16.84543
#
# Poissons Ratio (x) = 0.34347 -0.17101
# Poissons Ratio (y) = 0.78495 0.39534
# Poissons Ratio (z) = -0.96133 0.97242
#
# Static dielectric constant tensor:
#      x y z
#    x 1.988680 0.003590 -0.006530 
#    y 0.003590 1.873920 -0.025800 
#    z -0.006530 -0.025800 1.940660 
# 
# From -- ./inp_files/561373.got.cif
#   From: 2010.05.17/outbox.cif.g08.bks.cpg/sg2_281_cif.got.tgz:561373.got - 2010.06.03 11:33:40.
