data_PCOD9107142
_publ_section_title
;
Structure prediction by ZEFSAII (Michael W. Deem and Ramdas Pophale) SiO2 
 PCOD9107142
Probable space group: P -1
;
_chemical_formula_sum "Si O2"
_cell_formula_units_Z 16
_cell_length_a 8.128408
_cell_length_b 12.238039
_cell_length_c 11.195500
_cell_angle_alpha 125.515204
_cell_angle_beta 70.644764
_cell_angle_gamma 132.774529
_cell_volume 661.675329
_symmetry_space_group_name_H-M "P -1"
_symmetry_group_IT_number 2
_symmetry_cell_setting 'triclinic'
loop_
_space_group_symop_operation_xyz
x,y,z
-x,-y,-z
loop_
_atom_site_type_symbol
_atom_site_label
_atom_site_fract_x
_atom_site_fract_y
_atom_site_fract_z
Si Si1 0.617923 0.511035 0.103427
Si Si2 0.558661 0.981863 0.340837
Si Si3 0.185634 0.912509 0.989796
Si Si4 0.192368 0.356511 0.271743
Si Si5 0.792722 0.871316 0.337643
Si Si6 0.662087 0.221253 0.948334
Si Si7 0.769690 0.832940 0.667420
Si Si8 0.382879 0.707785 0.519501
O O1 0.429387 0.435484 0.202557
O O2 0.800153 0.716164 0.213958
O O3 0.500000 0.500000 0.000000
O O4 0.698020 0.396124 0.023422
O O5 0.691253 0.174677 0.379967
O O6 0.500000 0.000000 0.500000
O O7 0.691660 0.907346 0.271648
O O8 0.343180 0.855220 0.227538
O O9 0.989696 0.795871 0.868460
O O10 0.411407 0.062827 0.958468
O O11 0.193849 0.781041 0.985331
O O12 0.166653 0.024103 0.159087
O O13 0.197297 0.292824 0.359427
O O14 0.196852 0.518117 0.392168
O O15 0.595339 0.799477 0.435359
O O16 0.039558 0.054792 0.407655
O O17 0.512486 0.729028 0.622455
#
# Coordination Sequence:
#
# PCOD9107142 Si02
#       8
#     2   2   2   2   2   2   2   2
#     4  11  21  38  64  96 129 164 212 271 323 374
#     4  10  20  40  63  88 125 176 209 254 322 391
#     4  11  24  40  67  97 133 168 219 265 330 386
#     4  11  24  41  63  99 126 170 218 269 323 381
#     4  10  22  38  65  95 129 168 216 263 324 383
#     4  11  22  42  65  97 131 172 214 271 326 383
#     4  12  21  42  66  97 127 170 222 267 322 388
#     4  10  23  42  64  92 134 171 215 266 326 381
#
# _framework density 24.181042999999999
#
# number of rings (size 3 to 8) (size 9 to 14) (size 15 to 20)
#    0.000    1.250    3.750    2.625    0.000    0.000 
#    0.000   12.500    0.000    0.000    0.000    0.000 
#    0.000    0.000    0.000    0.000    0.000    0.000 
#
# Total GULP energy -89391.953776 kJ/mol
# GULP energy per Si atom -5586.997111 kJ/mol
# Density = 2.412601 g / cm^3
# Si number density = 24.181043 Si / 1000 Ang^3
#
#
#
# Elastic Constant Matrix: (Units=GPa)
#
#
# Indices 1 2 3 4 5 6 
#
# 1 58.5588 10.7653 1.3387 7.4332 8.6770 -28.5049
# 2 10.7653 77.6026 13.6971 -0.9450 -4.6377 -19.3203
# 3 1.3387 13.6971 70.7914 6.4937 -10.6241 -15.4949
# 4 7.4332 -0.9450 6.4937 43.2376 -6.5639 -12.9113
# 5 8.6770 -4.6377 -10.6241 -6.5639 31.2457 5.0540
# 6 -28.5049 -19.3203 -15.4949 -12.9113 5.0540 48.3582
#
#
#
# Elastic Compliance Matrix: (Units=1/GPa)
#
#
# Indices 1 2 3 4 5 6 
#
# 1 0.027084 -0.000461 0.001944 -0.001373 -0.009980 0.017080
# 2 -0.000461 0.014755 -0.001639 0.002540 0.001383 0.005632
# 3 0.001944 -0.001639 0.016145 -0.000709 0.003735 0.005084
# 4 -0.001373 0.002540 -0.000709 0.026210 0.004979 0.006455
# 5 -0.009980 0.001383 0.003735 0.004979 0.038400 -0.006817
# 6 0.017080 0.005632 0.005084 0.006455 -0.006817 0.037062
#
#
# Mechanical properties :
#
#
# Convention : Reuss Voigt Hill
#
# Bulk Modulus (GPa) = 17.33952 28.72833 23.03392
# Shear Modulus (GPa) = 27.90300 36.64508 32.27404
#
# Velocity S-wave (km/s) = 3.40063 3.89710 3.65730
# Velocity P-wave (km/s) = 4.75450 5.67064 5.23266
#
# Compressibility (1/GPa) = 0.05767174
#
# Stress axis : x y z
#
# Youngs Moduli (GPa) = 36.92162 67.77344 61.93933
#
# Poissons Ratio (x) = 0.03125 -0.12039
# Poissons Ratio (y) = 0.01703 0.10151
# Poissons Ratio (z) = -0.07177 0.11107
#
# Static dielectric constant tensor:
#      x y z
#    x 1.986680 -0.020340 0.006730 
#    y -0.020340 1.984740 -0.057140 
#    z 0.006730 -0.057140 1.941880 
# 
# From -- ./inp_files/227520.got.cif
#   From: 2010.05.17/outbox.cif.g08.bks.cpg/sg2_114_cif.got.tgz:227520.got - 2010.06.03 11:33:40.
