data_PCOD9107325
_publ_section_title
;
Structure prediction by ZEFSAII (Michael W. Deem and Ramdas Pophale) SiO2 
 PCOD9107325
Probable space group: P -1
;
_chemical_formula_sum "Si O2"
_cell_formula_units_Z 14
_cell_length_a 9.424806
_cell_length_b 9.029555
_cell_length_c 12.029706
_cell_angle_alpha 127.744507
_cell_angle_beta 96.108920
_cell_angle_gamma 114.085809
_cell_volume 642.795836
_symmetry_space_group_name_H-M "P -1"
_symmetry_group_IT_number 2
_symmetry_cell_setting 'triclinic'
loop_
_space_group_symop_operation_xyz
x,y,z
-x,-y,-z
loop_
_atom_site_type_symbol
_atom_site_label
_atom_site_fract_x
_atom_site_fract_y
_atom_site_fract_z
Si Si1 0.403180 0.021886 0.223256
Si Si2 0.618597 0.406710 0.979754
Si Si3 0.205612 0.802751 0.408820
Si Si4 0.022386 0.788220 0.164216
Si Si5 0.467390 0.691394 0.415311
Si Si6 0.583728 0.388404 0.229285
Si Si7 0.961579 0.837773 0.531373
O O1 0.478575 0.228513 0.415293
O O2 0.491421 0.144651 0.171335
O O3 0.187249 0.869072 0.134906
O O4 0.452814 0.850275 0.186261
O O5 0.630367 0.392972 0.107488
O O6 0.817228 0.583637 0.027312
O O7 0.500000 0.500000 0.000000
O O8 0.078362 0.725736 0.255174
O O9 0.290460 0.667085 0.363473
O O10 0.104187 0.787132 0.503729
O O11 0.367322 0.076661 0.527125
O O12 0.025252 0.011186 0.296147
O O13 0.459407 0.472739 0.275236
O O14 0.767600 0.595839 0.397680
O O15 0.000000 0.000000 0.500000
#
# Coordination Sequence:
#
# PCOD9107325 Si02
#       7
#     2   2   2   2   2   2   2
#     4  11  25  41  63  95 132 165 196 257 328 372
#     4  12  27  42  67  90 122 170 220 253 296 382
#     4   9  17  32  61  95 120 151 209 261 290 353
#     4  10  20  40  65  88 123 164 215 249 309 366
#     4  10  20  34  66  93 122 154 212 253 304 362
#     4  12  22  43  64  92 132 163 199 264 324 359
#     4  10  16  34  65  90 114 166 205 251 305 366
#
# _framework density 21.779852999999999
#
# number of rings (size 3 to 8) (size 9 to 14) (size 15 to 20)
#    0.000    1.429    7.143    1.286    8.000    0.000 
#    0.000    2.857    0.000    0.000    0.000    0.000 
#    0.000    0.000    0.000    0.000    0.000    0.000 
#
# Total GULP energy -78216.830796 kJ/mol
# GULP energy per Si atom -5586.916485 kJ/mol
# Density = 2.173028 g / cm^3
# Si number density = 21.779853 Si / 1000 Ang^3
#
#
#
# Elastic Constant Matrix: (Units=GPa)
#
#
# Indices 1 2 3 4 5 6 
#
# 1 129.1287 24.4835 8.7377 17.6173 7.2705 2.6714
# 2 24.4835 67.8925 17.8607 13.8492 9.5935 19.0717
# 3 8.7377 17.8607 45.3933 7.4405 -5.0885 5.5070
# 4 17.6173 13.8492 7.4405 21.2052 2.0686 -2.7767
# 5 7.2705 9.5935 -5.0885 2.0686 30.5917 -1.7998
# 6 2.6714 19.0717 5.5070 -2.7767 -1.7998 23.4799
#
#
#
# Elastic Compliance Matrix: (Units=1/GPa)
#
#
# Indices 1 2 3 4 5 6 
#
# 1 0.009002 -0.001577 -0.000147 -0.006346 -0.001273 -0.000557
# 2 -0.001577 0.028881 -0.006307 -0.017592 -0.009992 -0.024646
# 3 -0.000147 -0.006307 0.026399 -0.005839 0.006727 -0.001227
# 4 -0.006346 -0.017592 -0.005839 0.068932 0.002849 0.024751
# 5 -0.001273 -0.009992 0.006727 0.002849 0.037634 0.009905
# 6 -0.000557 -0.024646 -0.001227 0.024751 0.009905 0.066646
#
#
# Mechanical properties :
#
#
# Convention : Reuss Voigt Hill
#
# Bulk Modulus (GPa) = 20.73779 38.28649 29.51214
# Shear Modulus (GPa) = 18.54405 27.81086 23.17746
#
# Velocity S-wave (km/s) = 2.92110 3.57726 3.26570
# Velocity P-wave (km/s) = 4.57376 5.88892 5.27251
#
# Compressibility (1/GPa) = 0.04822114
#
# Stress axis : x y z
#
# Youngs Moduli (GPa) = 111.08412 34.62540 37.87963
#
# Poissons Ratio (x) = 0.05459 0.00558
# Poissons Ratio (y) = 0.17514 0.23889
# Poissons Ratio (z) = 0.01637 0.21837
#
# Static dielectric constant tensor:
#      x y z
#    x 1.842010 -0.013250 -0.026870 
#    y -0.013250 1.800980 -0.031330 
#    z -0.026870 -0.031330 1.831660 
# 
# From -- ./inp_files/495737.got.cif
#   From: 2010.05.17/outbox.cif.g08.bks.cpg/sg2_248_cif.got.tgz:495737.got - 2010.06.03 11:33:40.
