data_PCOD9107713
_publ_section_title
;
Structure prediction by ZEFSAII (Michael W. Deem and Ramdas Pophale) SiO2 
 PCOD9107713
Probable space group: P -1
;
_chemical_formula_sum "Si O2"
_cell_formula_units_Z 16
_cell_length_a 14.992832
_cell_length_b 9.978781
_cell_length_c 8.519722
_cell_angle_alpha 48.775483
_cell_angle_beta 87.127496
_cell_angle_gamma 65.475743
_cell_volume 824.404410
_symmetry_space_group_name_H-M "P -1"
_symmetry_group_IT_number 2
_symmetry_cell_setting 'triclinic'
loop_
_space_group_symop_operation_xyz
x,y,z
-x,-y,-z
loop_
_atom_site_type_symbol
_atom_site_label
_atom_site_fract_x
_atom_site_fract_y
_atom_site_fract_z
Si Si1 0.993003 0.575590 0.705086
Si Si2 0.110284 0.200884 0.767118
Si Si3 0.852206 0.494609 0.987360
Si Si4 0.652790 0.630043 0.078901
Si Si5 0.554834 0.022274 0.325592
Si Si6 0.723088 0.652118 0.403523
Si Si7 0.792574 0.276281 0.913710
Si Si8 0.621804 0.332919 0.121926
O O1 0.960280 0.718730 0.444960
O O2 0.046474 0.342447 0.810581
O O3 0.073039 0.590107 0.802984
O O4 0.894586 0.612799 0.786359
O O5 0.200612 0.256106 0.690081
O O6 0.154232 0.958812 0.965793
O O7 0.735806 0.639304 0.948646
O O8 0.852717 0.318458 0.015240
O O9 0.684267 0.636605 0.247641
O O10 0.662514 0.411281 0.201354
O O11 0.537401 0.813640 0.906120
O O12 0.625812 0.808619 0.396841
O O13 0.500000 0.000000 0.500000
O O14 0.626694 0.116133 0.296472
O O15 0.778250 0.433058 0.655862
O O16 0.682853 0.335642 0.959664
O O17 0.500000 0.500000 0.000000
#
# Coordination Sequence:
#
# PCOD9107713 Si02
#       8
#     2   2   2   2   2   2   2   2
#     4  10  22  41  65  92 124 166 212 263 310 370
#     4  11  23  42  65  91 126 167 208 260 318 365
#     4  10  20  40  65  93 126 162 212 259 309 367
#     4  10  22  39  64  92 128 164 208 258 305 374
#     4  11  22  40  68  93 126 169 202 253 316 369
#     4  12  22  43  61  96 129 163 206 257 311 372
#     4  11  23  40  65  89 127 167 204 260 310 369
#     4   9  19  39  60  91 121 158 208 247 302 372
#
# _framework density 19.407951000000001
#
# number of rings (size 3 to 8) (size 9 to 14) (size 15 to 20)
#    0.000    1.500    3.750    2.625    0.000    1.000 
#    2.250    8.125    0.000    0.000    0.000    0.000 
#    0.000    0.000    0.000    0.000    0.000    0.000 
#
# Total GULP energy -89335.088884 kJ/mol
# GULP energy per Si atom -5583.443055 kJ/mol
# Density = 1.936378 g / cm^3
# Si number density = 19.407951 Si / 1000 Ang^3
#
#
#
# Elastic Constant Matrix: (Units=GPa)
#
#
# Indices 1 2 3 4 5 6 
#
# 1 68.2462 19.3071 23.6637 -0.7788 0.2913 0.7354
# 2 19.3071 109.3862 66.8374 -4.6068 9.2844 1.0376
# 3 23.6637 66.8374 92.9163 -8.3171 5.0917 23.2176
# 4 -0.7788 -4.6068 -8.3171 33.2843 2.4338 1.5143
# 5 0.2913 9.2844 5.0917 2.4338 24.0138 6.5962
# 6 0.7354 1.0376 23.2176 1.5143 6.5962 32.6893
#
#
#
# Elastic Compliance Matrix: (Units=1/GPa)
#
#
# Indices 1 2 3 4 5 6 
#
# 1 0.016373 0.000305 -0.005353 -0.001068 -0.000029 0.003479
# 2 0.000305 0.020577 -0.018060 -0.001719 -0.007749 0.013810
# 3 -0.005353 -0.018060 0.030994 0.005708 0.006168 -0.022828
# 4 -0.001068 -0.001719 0.005708 0.031607 -0.002373 -0.004960
# 5 -0.000029 -0.007749 0.006168 -0.002373 0.047299 -0.013568
# 6 0.003479 0.013810 -0.022828 -0.004960 -0.013568 0.049256
#
#
# Mechanical properties :
#
#
# Convention : Reuss Voigt Hill
#
# Bulk Modulus (GPa) = 46.02038 54.46279 50.24159
# Shear Modulus (GPa) = 20.03505 28.71353 24.37429
#
# Velocity S-wave (km/s) = 3.21645 3.85056 3.54770
# Velocity P-wave (km/s) = 6.12843 6.92042 6.53643
#
# Compressibility (1/GPa) = 0.02172950
#
# Stress axis : x y z
#
# Youngs Moduli (GPa) = 61.07642 48.59748 32.26470
#
# Poissons Ratio (x) = -0.01483 0.17271
# Poissons Ratio (y) = -0.01864 0.58269
# Poissons Ratio (z) = 0.32693 0.87765
#
# Static dielectric constant tensor:
#      x y z
#    x 1.710940 -0.005130 -0.003930 
#    y -0.005130 1.672450 -0.009230 
#    z -0.003930 -0.009230 1.656130 
# 
# From -- ./inp_files/214679.got.cif
#   From: 2010.05.17/outbox.cif.g08.bks.cpg/sg2_108_cif.got.tgz:214679.got - 2010.06.03 11:33:40.
