data_PCOD9107355
_publ_section_title
;
Structure prediction by ZEFSAII (Michael W. Deem and Ramdas Pophale) SiO2 
 PCOD9107355
Probable space group: P -1
;
_chemical_formula_sum "Si O2"
_cell_formula_units_Z 16
_cell_length_a 14.324086
_cell_length_b 7.966785
_cell_length_c 9.039337
_cell_angle_alpha 65.742223
_cell_angle_beta 80.977410
_cell_angle_gamma 50.116097
_cell_volume 713.229139
_symmetry_space_group_name_H-M "P -1"
_symmetry_group_IT_number 2
_symmetry_cell_setting 'triclinic'
loop_
_space_group_symop_operation_xyz
x,y,z
-x,-y,-z
loop_
_atom_site_type_symbol
_atom_site_label
_atom_site_fract_x
_atom_site_fract_y
_atom_site_fract_z
Si Si1 0.257100 0.191584 0.257303
Si Si2 0.476894 0.333997 0.641592
Si Si3 0.512486 0.239388 0.995198
Si Si4 0.743579 0.785101 0.162156
Si Si5 0.143837 0.636844 0.901762
Si Si6 0.692877 0.355117 0.949094
Si Si7 0.641499 0.805017 0.474238
Si Si8 0.143346 0.048668 0.140319
O O1 0.267544 0.273705 0.383976
O O2 0.178723 0.106682 0.262812
O O3 0.395519 0.941237 0.289800
O O4 0.194477 0.420802 0.083803
O O5 0.500000 0.500000 0.500000
O O6 0.451080 0.379731 0.806574
O O7 0.375630 0.357964 0.559361
O O8 0.409161 0.357944 0.104082
O O9 0.607522 0.281724 0.002900
O O10 0.607337 0.953119 0.058500
O O11 0.811796 0.508804 0.209883
O O12 0.700441 0.865168 0.312141
O O13 0.824700 0.840591 0.038720
O O14 0.209457 0.737514 0.910234
O O15 0.997883 0.829043 0.873559
O O16 0.768444 0.231424 0.824748
O O17 0.500000 0.000000 0.500000
#
# Coordination Sequence:
#
# PCOD9107355 Si02
#       8
#     2   2   2   2   2   2   2   2
#     4  10  21  39  56  88 119 157 210 246 306 359
#     4  11  22  37  56  88 133 158 190 246 321 382
#     4  10  21  37  60  93 122 165 198 253 325 364
#     4  10  20  40  64  87 126 153 212 257 303 372
#     4  11  21  37  68  87 120 165 217 256 291 367
#     4  10  21  32  60  89 125 153 205 254 309 357
#     4  10  24  36  58  93 126 162 198 247 320 381
#     4  10  21  42  60  91 119 167 214 253 302 353
#
# _framework density 22.433185000000002
#
# number of rings (size 3 to 8) (size 9 to 14) (size 15 to 20)
#    0.000    1.750    3.750    2.625    5.250    6.000 
#    0.000    2.500    0.000    0.000    0.000   11.375 
#    0.000    0.000    0.000    0.000    0.000    0.000 
#
# Total GULP energy -89080.408752 kJ/mol
# GULP energy per Si atom -5567.525547 kJ/mol
# Density = 2.238213 g / cm^3
# Si number density = 22.433185 Si / 1000 Ang^3
#
#
#
# Elastic Constant Matrix: (Units=GPa)
#
#
# Indices 1 2 3 4 5 6 
#
# 1 123.4552 51.6673 27.0851 15.1102 29.3714 -11.3310
# 2 51.6673 102.1762 34.2679 9.6773 8.1071 -14.8860
# 3 27.0851 34.2679 99.8423 17.6108 8.2790 3.9624
# 4 15.1102 9.6773 17.6108 23.9709 2.8599 3.5753
# 5 29.3714 8.1071 8.2790 2.8599 33.8160 -1.8476
# 6 -11.3310 -14.8860 3.9624 3.5753 -1.8476 39.6569
#
#
#
# Elastic Compliance Matrix: (Units=1/GPa)
#
#
# Indices 1 2 3 4 5 6 
#
# 1 0.013499 -0.005183 -0.000191 -0.005390 -0.009873 0.001957
# 2 -0.005183 0.014167 -0.003705 -0.000658 0.002307 0.004374
# 3 -0.000191 -0.003705 0.012846 -0.007312 -0.001589 -0.002144
# 4 -0.005390 -0.000658 -0.007312 0.051350 0.001981 -0.005594
# 5 -0.009873 0.002307 -0.001589 0.001981 0.037804 -0.000213
# 6 0.001957 0.004374 -0.002144 -0.005594 -0.000213 0.028126
#
#
# Mechanical properties :
#
#
# Convention : Reuss Voigt Hill
#
# Bulk Modulus (GPa) = 44.73661 61.27936 53.00799
# Shear Modulus (GPa) = 27.26238 33.65232 30.45735
#
# Velocity S-wave (km/s) = 3.48985 3.87733 3.68868
# Velocity P-wave (km/s) = 6.01866 6.88626 6.46703
#
# Compressibility (1/GPa) = 0.02235306
#
# Stress axis : x y z
#
# Youngs Moduli (GPa) = 74.07685 70.58606 77.84528
#
# Poissons Ratio (x) = 0.36586 0.01490
# Poissons Ratio (y) = 0.38395 0.28844
# Poissons Ratio (z) = 0.01418 0.26154
#
# Static dielectric constant tensor:
#      x y z
#    x 1.891070 0.085340 -0.027930 
#    y 0.085340 1.949420 0.029860 
#    z -0.027930 0.029860 1.907100 
# 
# From -- ./inp_files/294858.got.cif
#   From: 2010.05.17/outbox.cif.g08.bks.cpg/sg2_148_cif.got.tgz:294858.got - 2010.06.03 11:33:40.
