data_PCOD9107179
_publ_section_title
;
Structure prediction by ZEFSAII (Michael W. Deem and Ramdas Pophale) SiO2 
 PCOD9107179
Probable space group: P -1
;
_chemical_formula_sum "Si O2"
_cell_formula_units_Z 14
_cell_length_a 8.242201
_cell_length_b 9.733716
_cell_length_c 8.621687
_cell_angle_alpha 99.295430
_cell_angle_beta 125.073517
_cell_angle_gamma 65.010478
_cell_volume 510.012995
_symmetry_space_group_name_H-M "P -1"
_symmetry_group_IT_number 2
_symmetry_cell_setting 'triclinic'
loop_
_space_group_symop_operation_xyz
x,y,z
-x,-y,-z
loop_
_atom_site_type_symbol
_atom_site_label
_atom_site_fract_x
_atom_site_fract_y
_atom_site_fract_z
Si Si1 0.363985 0.036054 0.089581
Si Si2 0.911533 0.643523 0.359521
Si Si3 0.719112 0.570825 0.640187
Si Si4 0.524509 0.291618 0.788391
Si Si5 0.651787 0.196028 0.381317
Si Si6 0.985055 0.269138 0.047537
Si Si7 0.965025 0.896894 0.636621
O O1 0.480565 0.119204 0.272182
O O2 0.119584 0.161304 0.962060
O O3 0.371312 0.887350 0.151425
O O4 0.500000 0.000000 0.000000
O O5 0.676050 0.648743 0.186794
O O6 0.000000 0.500000 0.500000
O O7 0.117897 0.599040 0.351380
O O8 0.876350 0.800381 0.455279
O O9 0.599206 0.665514 0.436972
O O10 0.506252 0.627918 0.642219
O O11 0.902527 0.617663 0.826548
O O12 0.725535 0.340085 0.906740
O O13 0.782732 0.168288 0.287592
O O14 0.837586 0.076314 0.571381
O O15 0.044558 0.155590 0.206481
#
# Coordination Sequence:
#
# PCOD9107179 Si02
#       7
#     2   2   2   2   2   2   2
#     4  11  22  38  58  93 130 155 202 262 310 359
#     4  10  20  40  63  90 125 162 207 254 297 369
#     4  10  22  42  60  93 126 161 207 250 309 362
#     4  11  21  38  63  90 121 166 202 256 300 363
#     4  10  22  37  65  90 128 162 200 261 310 360
#     4  11  22  37  64  89 121 159 210 248 303 371
#     4  11  20  39  64  95 118 165 210 247 312 365
#
# _framework density 27.450279999999999
#
# number of rings (size 3 to 8) (size 9 to 14) (size 15 to 20)
#    0.000    1.429    4.286    2.143    0.000    5.714 
#    0.000    0.000    0.000    2.571    0.000    0.000 
#    0.000    0.000    0.000    0.000    0.000    0.000 
#
# Total GULP energy -78281.743216 kJ/mol
# GULP energy per Si atom -5591.553087 kJ/mol
# Density = 2.738780 g / cm^3
# Si number density = 27.450280 Si / 1000 Ang^3
#
#
#
# Elastic Constant Matrix: (Units=GPa)
#
#
# Indices 1 2 3 4 5 6 
#
# 1 159.5964 49.4984 58.2072 -7.3773 48.0278 -38.6338
# 2 49.4984 109.4202 57.7412 -24.2773 -3.2429 -30.0992
# 3 58.2072 57.7412 118.0905 -7.0975 29.7058 -11.5062
# 4 -7.3773 -24.2773 -7.0975 33.3977 10.7788 3.5351
# 5 48.0278 -3.2429 29.7058 10.7788 62.1081 -14.3449
# 6 -38.6338 -30.0992 -11.5062 3.5351 -14.3449 54.5865
#
#
#
# Elastic Compliance Matrix: (Units=1/GPa)
#
#
# Indices 1 2 3 4 5 6 
#
# 1 0.010954 -0.002762 -0.001735 0.001975 -0.007242 0.003833
# 2 -0.002762 0.019395 -0.008791 0.008186 0.007879 0.008427
# 3 -0.001735 -0.008791 0.014929 -0.000762 -0.007229 -0.004779
# 4 0.001975 0.008186 -0.000762 0.038293 -0.007054 0.001417
# 5 -0.007242 0.007879 -0.007229 -0.007054 0.028072 0.005529
# 6 0.003833 0.008427 -0.004779 0.001417 0.005529 0.026033
#
#
# Mechanical properties :
#
#
# Convention : Reuss Voigt Hill
#
# Bulk Modulus (GPa) = 53.46847 79.77786 66.62317
# Shear Modulus (GPa) = 29.32812 44.79581 37.06196
#
# Velocity S-wave (km/s) = 3.27220 4.04405 3.67842
# Velocity P-wave (km/s) = 5.81352 7.13663 6.50878
#
# Compressibility (1/GPa) = 0.01870261
#
# Stress axis : x y z
#
# Youngs Moduli (GPa) = 91.29397 51.55890 66.98509
#
# Poissons Ratio (x) = 0.14240 0.11620
# Poissons Ratio (y) = 0.25214 0.58887
# Poissons Ratio (z) = 0.15837 0.45326
#
# Static dielectric constant tensor:
#      x y z
#    x 2.240950 -0.046760 -0.005070 
#    y -0.046760 2.168490 0.101150 
#    z -0.005070 0.101150 2.155050 
# 
# From -- ./inp_files/188816.got.cif
#   From: 2010.05.17/outbox.cif.g08.bks.cpg/sg2_95_cif.got.tgz:188816.got - 2010.06.03 11:33:40.
