data_PCOD9107615
_publ_section_title
;
Structure prediction by ZEFSAII (Michael W. Deem and Ramdas Pophale) SiO2 
 PCOD9107615
Probable space group: P -1
;
_chemical_formula_sum "Si O2"
_cell_formula_units_Z 16
_cell_length_a 5.394987
_cell_length_b 12.231848
_cell_length_c 10.235613
_cell_angle_alpha 113.854662
_cell_angle_beta 82.391304
_cell_angle_gamma 81.610379
_cell_volume 597.310260
_symmetry_space_group_name_H-M "P -1"
_symmetry_group_IT_number 2
_symmetry_cell_setting 'triclinic'
loop_
_space_group_symop_operation_xyz
x,y,z
-x,-y,-z
loop_
_atom_site_type_symbol
_atom_site_label
_atom_site_fract_x
_atom_site_fract_y
_atom_site_fract_z
Si Si1 0.037332 0.496964 0.770468
Si Si2 0.152693 0.078770 0.116302
Si Si3 0.420201 0.840679 0.056823
Si Si4 0.955053 0.248475 0.598426
Si Si5 0.522763 0.183906 0.417334
Si Si6 0.354529 0.388717 0.942838
Si Si7 0.789053 0.963022 0.398029
Si Si8 0.737305 0.299639 0.241402
O O1 0.911237 0.394917 0.666893
O O2 0.204793 0.421088 0.836217
O O3 0.208413 0.566801 0.706673
O O4 0.828924 0.597461 0.910685
O O5 0.361214 0.121871 0.030875
O O6 0.980092 0.204581 0.237352
O O7 0.262061 0.976332 0.167207
O O8 0.000000 0.000000 0.000000
O O9 0.294798 0.754893 0.926431
O O10 0.497104 0.751341 0.129639
O O11 0.227155 0.196993 0.481019
O O12 0.056953 0.178449 0.695191
O O13 0.697288 0.222472 0.540143
O O14 0.519637 0.274670 0.339713
O O15 0.702498 0.046577 0.315889
O O16 0.500000 0.500000 0.000000
O O17 0.500000 0.000000 0.500000
O O18 0.000000 0.000000 0.500000
#
# Coordination Sequence:
#
# PCOD9107615 Si02
#       8
#     2   2   2   2   2   2   2   2
#     4  11  25  40  64  91 129 166 217 271 323 387
#     4   9  20  38  61  90 126 162 205 272 320 374
#     4  10  20  40  65  88 129 164 215 266 319 389
#     4  10  23  43  63  95 128 168 220 270 314 393
#     4  10  23  40  67  92 130 172 216 262 333 380
#     4  11  23  43  65  90 124 174 212 263 334 385
#     4   8  16  38  60  82 120 160 205 264 308 363
#     4  11  22  39  62  94 132 169 209 268 325 388
#
# _framework density 26.786753000000001
#
# number of rings (size 3 to 8) (size 9 to 14) (size 15 to 20)
#    0.000    2.000    2.500    0.000    3.500    1.000 
#    9.000    1.250    0.000    0.000    0.000    0.000 
#    0.000    0.000    0.000    0.000    0.000    0.000 
#
# Total GULP energy -89326.397823 kJ/mol
# GULP energy per Si atom -5582.899864 kJ/mol
# Density = 2.672579 g / cm^3
# Si number density = 26.786753 Si / 1000 Ang^3
#
#
#
# Elastic Constant Matrix: (Units=GPa)
#
#
# Indices 1 2 3 4 5 6 
#
# 1 132.2534 17.4522 30.4862 11.6275 10.9171 12.2616
# 2 17.4522 141.4754 18.9381 15.3666 -2.2128 0.8572
# 3 30.4862 18.9381 36.7847 -3.5249 -2.9085 -7.8665
# 4 11.6275 15.3666 -3.5249 26.2210 7.8736 -3.6769
# 5 10.9171 -2.2128 -2.9085 7.8736 48.8317 3.2885
# 6 12.2616 0.8572 -7.8665 -3.6769 3.2885 40.1521
#
#
#
# Elastic Compliance Matrix: (Units=1/GPa)
#
#
# Indices 1 2 3 4 5 6 
#
# 1 0.011806 0.001138 -0.012709 -0.008077 -0.001589 -0.006729
# 2 0.001138 0.008603 -0.006512 -0.007098 0.001063 -0.002544
# 3 -0.012709 -0.006512 0.045934 0.017195 0.001535 0.014468
# 4 -0.008077 -0.007098 0.017195 0.051750 -0.006595 0.011266
# 5 -0.001589 0.001063 0.001535 -0.006595 0.022148 -0.001654
# 6 -0.006729 -0.002544 0.014468 0.011266 -0.001654 0.031016
#
#
# Mechanical properties :
#
#
# Convention : Reuss Voigt Hill
#
# Bulk Modulus (GPa) = 33.13872 49.36295 41.25083
# Shear Modulus (GPa) = 22.99035 39.28340 31.13687
#
# Velocity S-wave (km/s) = 2.93281 3.83368 3.41309
# Velocity P-wave (km/s) = 4.88535 6.16962 5.56466
#
# Compressibility (1/GPa) = 0.03017618
#
# Stress axis : x y z
#
# Youngs Moduli (GPa) = 84.70400 116.24251 21.77032
#
# Poissons Ratio (x) = -0.13230 0.27668
# Poissons Ratio (y) = -0.09640 0.14178
# Poissons Ratio (z) = 1.07650 0.75701
#
# Static dielectric constant tensor:
#      x y z
#    x 2.238470 0.047600 -0.053970 
#    y 0.047600 2.385170 -0.030800 
#    z -0.053970 -0.030800 2.160750 
# 
# From -- ./inp_files/97473.got.cif
#   From: 2010.05.17/outbox.cif.g08.bks.cpg/sg2_49_cif.got.tgz:97473.got - 2010.06.03 11:33:40.
