data_PCOD9107778
_publ_section_title
;
Structure prediction by ZEFSAII (Michael W. Deem and Ramdas Pophale) SiO2 
 PCOD9107778
Probable space group: P -1
;
_chemical_formula_sum "Si O2"
_cell_formula_units_Z 16
_cell_length_a 11.721209
_cell_length_b 12.213265
_cell_length_c 9.342140
_cell_angle_alpha 127.937374
_cell_angle_beta 55.580296
_cell_angle_gamma 90.241827
_cell_volume 739.103664
_symmetry_space_group_name_H-M "P -1"
_symmetry_group_IT_number 2
_symmetry_cell_setting 'triclinic'
loop_
_space_group_symop_operation_xyz
x,y,z
-x,-y,-z
loop_
_atom_site_type_symbol
_atom_site_label
_atom_site_fract_x
_atom_site_fract_y
_atom_site_fract_z
Si Si1 0.261393 0.380285 0.116541
Si Si2 0.846741 0.555373 0.301311
Si Si3 0.421974 0.656803 0.077803
Si Si4 0.223836 0.270829 0.781354
Si Si5 0.073765 0.301332 0.382402
Si Si6 0.834707 0.053971 0.994970
Si Si7 0.802456 0.025697 0.321400
Si Si8 0.335376 0.625216 0.796723
O O1 0.420256 0.329993 0.054353
O O2 0.155124 0.302347 0.175825
O O3 0.121312 0.572640 0.377599
O O4 0.321465 0.312490 0.859376
O O5 0.747487 0.709748 0.388763
O O6 0.842542 0.631804 0.518547
O O7 0.782254 0.436565 0.218927
O O8 0.041393 0.431234 0.049187
O O9 0.354315 0.628673 0.956563
O O10 0.500000 0.500000 0.000000
O O11 0.287606 0.814657 0.386571
O O12 0.232861 0.106687 0.691282
O O13 0.118232 0.121600 0.239109
O O14 0.758366 0.072383 0.222451
O O15 0.722723 0.198292 0.083990
O O16 0.003241 0.050996 0.881759
O O17 0.500000 0.500000 0.500000
#
# Coordination Sequence:
#
# PCOD9107778 Si02
#       8
#     2   2   2   2   2   2   2   2
#     4  10  21  41  66  95 133 172 225 261 331 399
#     4  10  22  40  66  96 133 168 220 268 331 393
#     4  12  26  43  65  99 135 179 223 273 338 395
#     4  10  20  40  65  96 130 172 213 273 332 387
#     4  10  21  40  72  98 127 176 218 276 322 398
#     4  11  24  44  69 101 132 174 229 272 336 397
#     4  11  24  42  70  98 136 173 222 283 330 398
#     4  12  26  46  68  97 136 179 220 275 335 401
#
# _framework density 21.647842000000001
#
# number of rings (size 3 to 8) (size 9 to 14) (size 15 to 20)
#    0.000    1.250    2.500    3.000    1.750    4.000 
#    2.250    1.250    0.000    0.000    0.000    0.000 
#    0.000    0.000    0.000    0.000    0.000    0.000 
#
# Total GULP energy -89296.855864 kJ/mol
# GULP energy per Si atom -5581.053492 kJ/mol
# Density = 2.159857 g / cm^3
# Si number density = 21.647842 Si / 1000 Ang^3
#
#
#
# Elastic Constant Matrix: (Units=GPa)
#
#
# Indices 1 2 3 4 5 6 
#
# 1 62.4590 0.7509 2.7035 1.4819 17.1748 -5.5223
# 2 0.7509 122.6378 21.7222 28.4547 8.3797 -16.9352
# 3 2.7035 21.7222 76.4076 5.4159 12.9461 -10.5217
# 4 1.4819 28.4547 5.4159 30.4164 2.1707 2.8417
# 5 17.1748 8.3797 12.9461 2.1707 28.1498 -4.6364
# 6 -5.5223 -16.9352 -10.5217 2.8417 -4.6364 31.7803
#
#
#
# Elastic Compliance Matrix: (Units=1/GPa)
#
#
# Indices 1 2 3 4 5 6 
#
# 1 0.019665 0.001286 0.001593 -0.001831 -0.012482 0.002972
# 2 0.001286 0.012226 -0.001425 -0.011786 -0.001695 0.007073
# 3 0.001593 -0.001425 0.015191 -0.001305 -0.006829 0.003667
# 4 -0.001831 -0.011786 -0.001305 0.045267 -0.000092 -0.011092
# 5 -0.012482 -0.001695 -0.006829 -0.000092 0.047046 0.001539
# 6 0.002972 0.007073 0.003667 -0.011092 0.001539 0.038182
#
#
# Mechanical properties :
#
#
# Convention : Reuss Voigt Hill
#
# Bulk Modulus (GPa) = 20.00433 34.65084 27.32759
# Shear Modulus (GPa) = 26.13257 33.82450 29.97853
#
# Velocity S-wave (km/s) = 3.47820 3.95712 3.72536
# Velocity P-wave (km/s) = 5.03898 6.07616 5.58172
#
# Compressibility (1/GPa) = 0.04998917
#
# Stress axis : x y z
#
# Youngs Moduli (GPa) = 50.85255 81.79455 65.82852
#
# Poissons Ratio (x) = -0.10517 -0.10485
# Poissons Ratio (y) = -0.06538 0.09378
# Poissons Ratio (z) = -0.08099 0.11652
#
# Static dielectric constant tensor:
#      x y z
#    x 0.362910 0.011150 -0.442520 
#    y 0.011150 1.859250 -0.054840 
#    z -0.442520 -0.054840 1.632380 
# 
# From -- ./inp_files/263332.got.cif
#   From: 2010.05.17/outbox.cif.g08.bks.cpg/sg2_132_cif.got.tgz:263332.got - 2010.06.03 11:33:40.
