data_PCOD9107031
_publ_section_title
;
Structure prediction by ZEFSAII (Michael W. Deem and Ramdas Pophale) SiO2 
 PCOD9107031
Probable space group: P -1
;
_chemical_formula_sum "Si O2"
_cell_formula_units_Z 16
_cell_length_a 8.261590
_cell_length_b 8.201301
_cell_length_c 16.763244
_cell_angle_alpha 137.874522
_cell_angle_beta 112.456564
_cell_angle_gamma 86.040017
_cell_volume 660.688602
_symmetry_space_group_name_H-M "P -1"
_symmetry_group_IT_number 2
_symmetry_cell_setting 'triclinic'
loop_
_space_group_symop_operation_xyz
x,y,z
-x,-y,-z
loop_
_atom_site_type_symbol
_atom_site_label
_atom_site_fract_x
_atom_site_fract_y
_atom_site_fract_z
Si Si1 0.051333 0.402548 0.102922
Si Si2 0.734390 0.790310 0.594600
Si Si3 0.223081 0.682008 0.833634
Si Si4 0.069998 0.174447 0.863184
Si Si5 0.939149 0.224728 0.530285
Si Si6 0.597337 0.180628 0.344614
Si Si7 0.446162 0.160362 0.939181
Si Si8 0.295154 0.818502 0.383827
O O1 0.926271 0.309634 0.123877
O O2 0.996015 0.621515 0.124315
O O3 0.259509 0.569112 0.231725
O O4 0.041730 0.197573 0.960322
O O5 0.658589 0.488814 0.451174
O O6 0.574624 0.863144 0.640320
O O7 0.788251 0.975673 0.595305
O O8 0.932044 0.885467 0.711853
O O9 0.124870 0.474143 0.670814
O O10 0.328022 0.943574 0.901512
O O11 0.382959 0.645817 0.908766
O O12 0.288501 0.268771 0.920205
O O13 0.794908 0.150562 0.401109
O O14 0.797019 0.281624 0.586563
O O15 0.000000 0.000000 0.500000
O O16 0.514696 0.995457 0.185930
O O17 0.500000 0.000000 0.500000
#
# Coordination Sequence:
#
# PCOD9107031 Si02
#       8
#     2   2   2   2   2   2   2   2
#     4   9  21  40  63  88 127 162 212 259 315 384
#     4  10  22  41  65  91 129 165 216 260 318 386
#     4  10  24  45  58  93 133 166 215 258 319 381
#     4  10  21  40  64  94 119 167 210 266 316 373
#     4  11  25  41  66  98 130 166 208 271 327 376
#     4  11  24  42  66  95 125 174 214 263 320 384
#     4  11  25  42  65  92 129 172 214 262 315 378
#     4  10  20  40  62  93 125 165 214 258 316 382
#
# _framework density 24.217158999999999
#
# number of rings (size 3 to 8) (size 9 to 14) (size 15 to 20)
#    0.000    1.750    1.250    1.500    7.000    3.000 
#    4.500    0.000    0.000    0.000    0.000    0.000 
#    0.000    0.000    0.000    0.000    0.000    0.000 
#
# Total GULP energy -89187.293177 kJ/mol
# GULP energy per Si atom -5574.205824 kJ/mol
# Density = 2.416204 g / cm^3
# Si number density = 24.217159 Si / 1000 Ang^3
#
#
#
# Elastic Constant Matrix: (Units=GPa)
#
#
# Indices 1 2 3 4 5 6 
#
# 1 78.6558 1.1091 22.6057 -15.5810 7.1001 3.6174
# 2 1.1091 35.5759 13.9562 -11.8771 -1.7266 8.2562
# 3 22.6057 13.9562 61.6069 -25.9000 22.8184 -7.8575
# 4 -15.5810 -11.8771 -25.9000 25.1142 2.0527 4.5669
# 5 7.1001 -1.7266 22.8184 2.0527 41.4019 -12.2088
# 6 3.6174 8.2562 -7.8575 4.5669 -12.2088 41.0341
#
#
#
# Elastic Compliance Matrix: (Units=1/GPa)
#
#
# Indices 1 2 3 4 5 6 
#
# 1 0.016055 0.005132 -0.000551 0.013156 -0.004464 -0.005346
# 2 0.005132 0.038610 -0.001932 0.021833 -0.002782 -0.011848
# 3 -0.000551 -0.001932 0.051996 0.056110 -0.033106 -0.005701
# 4 0.013156 0.021833 0.056110 0.123830 -0.044881 -0.021943
# 5 -0.004464 -0.002782 -0.033106 -0.044881 0.049502 0.014337
# 6 -0.005346 -0.011848 -0.005701 -0.021943 0.014337 0.032841
#
#
# Mechanical properties :
#
#
# Convention : Reuss Voigt Hill
#
# Bulk Modulus (GPa) = 8.93184 27.90895 18.42039
# Shear Modulus (GPa) = 14.49883 30.72121 22.61002
#
# Velocity S-wave (km/s) = 2.44949 3.56557 3.05886
# Velocity P-wave (km/s) = 3.41998 5.33858 4.48312
#
# Compressibility (1/GPa) = 0.11195903
#
# Stress axis : x y z
#
# Youngs Moduli (GPa) = 62.28781 25.89971 19.23240
#
# Poissons Ratio (x) = -0.13291 0.01059
# Poissons Ratio (y) = -0.31964 0.03715
# Poissons Ratio (z) = 0.03431 0.05003
#
# Static dielectric constant tensor:
#      x y z
#    x 2.074810 -0.252260 0.035390 
#    y -0.252260 2.493750 -0.076240 
#    z 0.035390 -0.076240 1.994170 
# 
# From -- ./inp_files/209383.got.cif
#   From: 2010.05.17/outbox.cif.g08.bks.cpg/sg2_105_cif.got.tgz:209383.got - 2010.06.03 11:33:40.
