data_PCOD9107784
_publ_section_title
;
Structure prediction by ZEFSAII (Michael W. Deem and Ramdas Pophale) SiO2 
 PCOD9107784
Probable space group: P -1
;
_chemical_formula_sum "Si O2"
_cell_formula_units_Z 12
_cell_length_a 13.161206
_cell_length_b 14.246578
_cell_length_c 7.774708
_cell_angle_alpha 103.369716
_cell_angle_beta 121.906973
_cell_angle_gamma 29.390727
_cell_volume 507.078923
_symmetry_space_group_name_H-M "P -1"
_symmetry_group_IT_number 2
_symmetry_cell_setting 'triclinic'
loop_
_space_group_symop_operation_xyz
x,y,z
-x,-y,-z
loop_
_atom_site_type_symbol
_atom_site_label
_atom_site_fract_x
_atom_site_fract_y
_atom_site_fract_z
Si Si1 0.817460 0.296992 0.862818
Si Si2 0.318528 0.309343 0.400331
Si Si3 0.358668 0.760504 0.539005
Si Si4 0.356291 0.197316 0.037320
Si Si5 0.778445 0.229340 0.136545
Si Si6 0.386467 0.874717 0.058155
O O1 0.566935 0.557333 0.776741
O O2 0.708391 0.283074 0.658498
O O3 0.935092 0.164564 0.085734
O O4 0.077594 0.149507 0.924870
O O5 0.451147 0.307687 0.432327
O O6 0.422847 0.228035 0.655303
O O7 0.979106 0.559133 0.193408
O O8 0.411378 0.163150 0.276857
O O9 0.049268 0.030930 0.424782
O O10 0.484272 0.192930 0.039397
O O11 0.500000 0.000000 0.000000
O O12 0.500000 0.500000 0.000000
O O13 0.674014 0.195686 0.006644
#
# Coordination Sequence:
#
# PCOD9107784 Si02
#       6
#     2   2   2   2   2   2
#     4  10  20  40  67  97 142 180 218 284 344 413
#     4  11  23  46  70  93 144 179 229 299 340 407
#     4  10  20  40  65  96 136 183 217 277 349 405
#     4  11  27  45  67 104 130 183 247 286 349 412
#     4  11  23  39  64 107 142 179 226 276 349 428
#     4  11  22  47  70  98 141 181 232 284 348 418
#
# _framework density 23.664953000000001
#
# number of rings (size 3 to 8) (size 9 to 14) (size 15 to 20)
#    0.000    1.333    3.333    2.500    2.333    2.667 
#    6.000    0.000    0.000    0.000    0.000    0.000 
#    0.000    0.000    0.000    0.000    0.000    0.000 
#
# Total GULP energy -66986.928818 kJ/mol
# GULP energy per Si atom -5582.244068 kJ/mol
# Density = 2.361109 g / cm^3
# Si number density = 23.664953 Si / 1000 Ang^3
#
#
#
# Elastic Constant Matrix: (Units=GPa)
#
#
# Indices 1 2 3 4 5 6 
#
# 1 88.0725 23.6072 26.5598 -23.0374 2.7802 -15.8764
# 2 23.6072 141.7779 37.8232 -21.5947 6.9034 -1.6573
# 3 26.5598 37.8232 77.9436 -10.6395 7.3272 -4.6556
# 4 -23.0374 -21.5947 -10.6395 40.4037 -6.7871 -4.2339
# 5 2.7802 6.9034 7.3272 -6.7871 39.5324 -1.9799
# 6 -15.8764 -1.6573 -4.6556 -4.2339 -1.9799 33.9709
#
#
#
# Elastic Compliance Matrix: (Units=1/GPa)
#
#
# Indices 1 2 3 4 5 6 
#
# 1 0.016529 -0.000266 -0.003866 0.009426 0.001642 0.008453
# 2 -0.000266 0.008595 -0.003570 0.003490 -0.000210 0.000228
# 3 -0.003866 -0.003570 0.016050 -0.000234 -0.002117 0.000066
# 4 0.009426 0.003490 -0.000234 0.033717 0.005012 0.009038
# 5 0.001642 -0.000210 -0.002117 0.005012 0.026602 0.002642
# 6 0.008453 0.000228 0.000066 0.009038 0.002642 0.034688
#
#
# Mechanical properties :
#
#
# Convention : Reuss Voigt Hill
#
# Bulk Modulus (GPa) = 38.80611 53.75272 46.27942
# Shear Modulus (GPa) = 31.21571 37.43498 34.32534
#
# Velocity S-wave (km/s) = 3.63584 3.98159 3.81264
# Velocity P-wave (km/s) = 5.83605 6.62577 6.24341
#
# Compressibility (1/GPa) = 0.02576914
#
# Stress axis : x y z
#
# Youngs Moduli (GPa) = 60.50012 116.35276 62.30339
#
# Poissons Ratio (x) = 0.03099 0.24086
# Poissons Ratio (y) = 0.01611 0.22243
# Poissons Ratio (z) = 0.23389 0.41539
#
# Static dielectric constant tensor:
#      x y z
#    x 1.924410 -0.045470 -0.008190 
#    y -0.045470 1.965480 0.017130 
#    z -0.008190 0.017130 1.900360 
# 
# From -- ./inp_files/312781.got.cif
#   From: 2010.05.17/outbox.cif.g08.bks.cpg/sg2_157_cif.got.tgz:312781.got - 2010.06.03 11:33:40.
