data_PCOD9107544
_publ_section_title
;
Structure prediction by ZEFSAII (Michael W. Deem and Ramdas Pophale) SiO2 
 PCOD9107544
Probable space group: P -1
;
_chemical_formula_sum "Si O2"
_cell_formula_units_Z 15
_cell_length_a 6.897342
_cell_length_b 11.085620
_cell_length_c 23.309855
_cell_angle_alpha 152.128765
_cell_angle_beta 55.656527
_cell_angle_gamma 113.156591
_cell_volume 661.771483
_symmetry_space_group_name_H-M "P -1"
_symmetry_group_IT_number 2
_symmetry_cell_setting 'triclinic'
loop_
_space_group_symop_operation_xyz
x,y,z
-x,-y,-z
loop_
_atom_site_type_symbol
_atom_site_label
_atom_site_fract_x
_atom_site_fract_y
_atom_site_fract_z
Si Si1 0.539952 0.750677 0.633469
Si Si2 0.000000 0.500000 0.500000
Si Si3 0.463467 0.606783 0.986140
Si Si4 0.728110 0.647233 0.773110
Si Si5 0.268621 0.964121 0.491265
Si Si6 0.751459 0.918845 0.000723
Si Si7 0.980548 0.056027 0.231315
Si Si8 0.749618 0.088317 0.659159
O O1 0.500000 0.500000 0.500000
O O2 0.696646 0.647068 0.620202
O O3 0.274681 0.960035 0.760842
O O4 0.735656 0.862614 0.612476
O O5 0.940103 0.233001 0.370256
O O6 0.642277 0.793791 0.020050
O O7 0.547105 0.353500 0.823216
O O8 0.500000 0.500000 0.000000
O O9 0.188179 0.781674 0.092457
O O10 0.751914 0.339048 0.628486
O O11 0.775658 0.706418 0.855798
O O12 0.912913 0.763122 0.754177
O O13 0.457258 0.820818 0.875492
O O14 0.287651 0.012931 0.440799
O O15 0.500000 0.000000 0.500000
O O16 0.016053 0.137218 0.633370
O O17 0.000000 0.000000 0.000000
#
# Coordination Sequence:
#
# PCOD9107544 Si02
#       8
#     2   1   2   2   2   2   2   2
#     4  10  22  41  67  97 135 182 230 292 356 424
#     4  10  20  40  64  98 134 174 238 282 340 436
#     4  11  24  44  68 105 152 191 239 301 368 440
#     4  10  22  43  66 101 135 176 249 293 347 433
#     4  11  25  43  70  98 137 195 237 300 365 418
#     4  10  23  43  72  96 136 189 240 298 356 430
#     4  10  23  41  69 103 140 189 230 298 360 429
#     4  11  25  44  64 101 147 179 243 302 350 439
#
# _framework density 22.666436000000001
#
# number of rings (size 3 to 8) (size 9 to 14) (size 15 to 20)
#    0.000    1.600    1.333    2.400    1.867    9.067 
#    0.000    1.333    0.000    0.000    0.000    0.000 
#    0.000    0.000    0.000    0.000    0.000    0.000 
#
# Total GULP energy -83596.896980 kJ/mol
# GULP energy per Si atom -5573.126465 kJ/mol
# Density = 2.261485 g / cm^3
# Si number density = 22.666436 Si / 1000 Ang^3
#
#
#
# Elastic Constant Matrix: (Units=GPa)
#
#
# Indices 1 2 3 4 5 6 
#
# 1 164.4870 28.4720 34.4778 -20.1203 -25.7011 20.2815
# 2 28.4720 90.6372 18.7612 -15.0261 -5.0709 -7.1995
# 3 34.4778 18.7612 123.1441 -2.4753 -24.8689 3.3125
# 4 -20.1203 -15.0261 -2.4753 22.0850 4.0579 -4.1351
# 5 -25.7011 -5.0709 -24.8689 4.0579 27.7083 -5.6572
# 6 20.2815 -7.1995 3.3125 -4.1351 -5.6572 22.4664
#
#
#
# Elastic Compliance Matrix: (Units=1/GPa)
#
#
# Indices 1 2 3 4 5 6 
#
# 1 0.008709 -0.002065 -0.000856 0.004327 0.005004 -0.006342
# 2 -0.002065 0.014192 -0.001729 0.009220 -0.000541 0.008228
# 3 -0.000856 -0.001729 0.010293 -0.002293 0.008552 0.000432
# 4 0.004327 0.009220 -0.002293 0.057499 -0.002891 0.009242
# 5 0.005004 -0.000541 0.008552 -0.002891 0.049978 0.006101
# 6 -0.006342 0.008228 0.000432 0.009242 0.006101 0.056046
#
#
# Mechanical properties :
#
#
# Convention : Reuss Voigt Hill
#
# Bulk Modulus (GPa) = 41.85171 60.18782 51.01977
# Shear Modulus (GPa) = 23.36654 34.22245 28.79449
#
# Velocity S-wave (km/s) = 3.21423 3.88987 3.56808
# Velocity P-wave (km/s) = 5.68148 6.84004 6.28750
#
# Compressibility (1/GPa) = 0.02389389
#
# Stress axis : x y z
#
# Youngs Moduli (GPa) = 114.81800 70.46462 97.15408
#
# Poissons Ratio (x) = 0.14553 0.08313
# Poissons Ratio (y) = 0.23713 0.16799
# Poissons Ratio (z) = 0.09825 0.12184
#
# Static dielectric constant tensor:
#      x y z
#    x 1.889220 -0.149520 -0.041790 
#    y -0.149520 2.335690 -0.021400 
#    z -0.041790 -0.021400 1.887890 
# 
# From -- ./inp_files/604334.got.cif
#   From: 2010.05.17/outbox.cif.g08.bks.cpg/sg2_303_cif.got.tgz:604334.got - 2010.06.03 11:33:40.
