data_PCOD9107175
_publ_section_title
;
Structure prediction by ZEFSAII (Michael W. Deem and Ramdas Pophale) SiO2 
 PCOD9107175
Probable space group: P -1
;
_chemical_formula_sum "Si O2"
_cell_formula_units_Z 16
_cell_length_a 11.798340
_cell_length_b 23.324135
_cell_length_c 16.042094
_cell_angle_alpha 161.881545
_cell_angle_beta 29.392772
_cell_angle_gamma 148.933663
_cell_volume 661.939313
_symmetry_space_group_name_H-M "P -1"
_symmetry_group_IT_number 2
_symmetry_cell_setting 'triclinic'
loop_
_space_group_symop_operation_xyz
x,y,z
-x,-y,-z
loop_
_atom_site_type_symbol
_atom_site_label
_atom_site_fract_x
_atom_site_fract_y
_atom_site_fract_z
Si Si1 0.592811 0.822719 0.962738
Si Si2 0.515954 0.576315 0.964418
Si Si3 0.163564 0.021477 0.312940
Si Si4 0.646048 0.804816 0.362024
Si Si5 0.893810 0.308096 0.843159
Si Si6 0.877745 0.779138 0.880259
Si Si7 0.307799 0.959168 0.945074
Si Si8 0.749708 0.136894 0.525558
O O1 0.342090 0.688310 0.949857
O O2 0.780430 0.765986 0.829396
O O3 0.512970 0.029579 0.314874
O O4 0.681063 0.845574 0.843384
O O5 0.451946 0.367008 0.750706
O O6 0.637707 0.704739 0.139277
O O7 0.689261 0.631781 0.850676
O O8 0.284541 0.665703 0.216813
O O9 0.412013 0.035715 0.218887
O O10 0.095619 0.225200 0.643642
O O11 0.921796 0.891416 0.319536
O O12 0.212143 0.964462 0.107548
O O13 0.825301 0.169260 0.616718
O O14 0.000000 0.500000 0.000000
O O15 0.875658 0.998882 0.202574
O O16 0.137077 0.789814 0.769765
O O17 0.500000 0.000000 0.500000
#
# Coordination Sequence:
#
# PCOD9107175 Si02
#       8
#     2   2   2   2   2   2   2   2
#     4  11  22  39  63  98 119 161 216 270 308 362
#     4  10  18  32  65  95 118 157 216 272 307 358
#     4  10  22  43  62  85 129 180 198 247 331 388
#     4  10  20  36  64  95 119 154 224 267 306 363
#     4  11  22  38  68  96 123 157 217 275 310 361
#     4  11  18  39  65  90 123 167 209 257 317 373
#     4  11  23  38  64  85 130 174 206 243 316 408
#     4  10  16  34  63  90 120 162 210 255 316 363
#
# _framework density 24.171400999999999
#
# number of rings (size 3 to 8) (size 9 to 14) (size 15 to 20)
#    0.000    1.500    6.250    1.875    0.000    4.000 
#    0.000    1.250    8.250    0.000    0.000    0.000 
#    0.000    0.000    0.000    0.000    0.000    0.000 
#
# Total GULP energy -89201.303968 kJ/mol
# GULP energy per Si atom -5575.081498 kJ/mol
# Density = 2.411639 g / cm^3
# Si number density = 24.171401 Si / 1000 Ang^3
#
#
#
# Elastic Constant Matrix: (Units=GPa)
#
#
# Indices 1 2 3 4 5 6 
#
# 1 137.4179 26.8121 8.0063 -0.2031 -25.3274 -2.5960
# 2 26.8121 127.6712 25.1412 17.8904 -29.8891 -2.4273
# 3 8.0063 25.1412 46.7179 14.3898 -20.4849 4.6869
# 4 -0.2031 17.8904 14.3898 32.8679 1.5254 -18.1441
# 5 -25.3274 -29.8891 -20.4849 1.5254 31.5664 -0.5293
# 6 -2.5960 -2.4273 4.6869 -18.1441 -0.5293 41.1869
#
#
#
# Elastic Compliance Matrix: (Units=1/GPa)
#
#
# Indices 1 2 3 4 5 6 
#
# 1 0.008780 -0.000040 0.003302 -0.002162 0.009243 -0.000658
# 2 -0.000040 0.011903 0.003693 -0.011227 0.014103 -0.004486
# 3 0.003302 0.003693 0.050194 -0.037609 0.040179 -0.021338
# 4 -0.002162 -0.011227 -0.037609 0.074621 -0.039776 0.035843
# 5 0.009243 0.014103 0.040179 -0.039776 0.080116 -0.019651
# 6 -0.000658 -0.004486 -0.021338 0.035843 -0.019651 0.041939
#
#
# Mechanical properties :
#
#
# Convention : Reuss Voigt Hill
#
# Bulk Modulus (GPa) = 11.79413 47.96959 29.88186
# Shear Modulus (GPa) = 17.73637 37.91407 27.82522
#
# Velocity S-wave (km/s) = 2.71177 3.96479 3.39656
# Velocity P-wave (km/s) = 3.83339 6.39125 5.26987
#
# Compressibility (1/GPa) = 0.08478791
#
# Stress axis : x y z
#
# Youngs Moduli (GPa) = 113.88897 84.01045 19.92257
#
# Poissons Ratio (x) = 0.00334 -0.06578
# Poissons Ratio (y) = 0.00452 -0.07357
# Poissons Ratio (z) = -0.37602 -0.31025
#
# Static dielectric constant tensor:
#      x y z
#    x 2.041590 0.009270 -0.051070 
#    y 0.009270 2.037670 -0.216690 
#    z -0.051070 -0.216690 2.273250 
# 
# From -- ./inp_files/570965.got.cif
#   From: 2010.05.17/outbox.cif.g08.bks.cpg/sg2_286_cif.got.tgz:570965.got - 2010.06.03 11:33:40.
