data_PCOD9107354
_publ_section_title
;
Structure prediction by ZEFSAII (Michael W. Deem and Ramdas Pophale) SiO2 
 PCOD9107354
Probable space group: P -1
;
_chemical_formula_sum "Si O2"
_cell_formula_units_Z 14
_cell_length_a 9.698477
_cell_length_b 10.843505
_cell_length_c 17.008838
_cell_angle_alpha 148.485440
_cell_angle_beta 117.799486
_cell_angle_gamma 84.388452
_cell_volume 629.668466
_symmetry_space_group_name_H-M "P -1"
_symmetry_group_IT_number 2
_symmetry_cell_setting 'triclinic'
loop_
_space_group_symop_operation_xyz
x,y,z
-x,-y,-z
loop_
_atom_site_type_symbol
_atom_site_label
_atom_site_fract_x
_atom_site_fract_y
_atom_site_fract_z
Si Si1 0.238389 0.807415 0.726578
Si Si2 0.620772 0.288695 0.579752
Si Si3 0.554060 0.567019 0.960858
Si Si4 0.353411 0.580160 0.510204
Si Si5 0.932878 0.702585 0.098010
Si Si6 0.279427 0.084638 0.506192
Si Si7 0.100268 0.026901 0.919384
O O1 0.361706 0.709665 0.669244
O O2 0.000000 0.500000 0.500000
O O3 0.252626 0.965272 0.898035
O O4 0.300871 0.070403 0.823525
O O5 0.581225 0.202854 0.430651
O O6 0.428996 0.182523 0.524675
O O7 0.721569 0.160609 0.578497
O O8 0.775049 0.662636 0.828698
O O9 0.368030 0.370000 0.743017
O O10 0.500000 0.500000 0.000000
O O11 0.691724 0.476687 0.925676
O O12 0.500000 0.500000 0.500000
O O13 0.112407 0.283058 0.274419
O O14 0.966630 0.888188 0.129811
O O15 0.060686 0.932072 0.329104
O O16 0.000000 0.500000 0.000000
#
# Coordination Sequence:
#
# PCOD9107354 Si02
#       7
#     2   2   2   2   2   2   2
#     4   9  20  41  62  82 127 170 201 254 328 368
#     4  11  20  38  61  94 127 161 209 262 314 374
#     4  11  23  40  63  93 133 168 205 267 318 373
#     4  11  23  38  63  92 119 162 219 263 304 376
#     4  11  20  38  65  95 128 163 211 258 311 385
#     4  11  21  37  66  95 126 168 209 253 324 379
#     4  10  20  40  64  87 125 171 201 256 323 370
#
# _framework density 22.233922
#
# number of rings (size 3 to 8) (size 9 to 14) (size 15 to 20)
#    0.000    1.429    4.286    3.000    0.000    1.714 
#    0.000    0.714   12.571    0.000    0.000    0.000 
#    0.000    0.000    0.000    0.000    0.000    0.000 
#
# Total GULP energy -78100.152184 kJ/mol
# GULP energy per Si atom -5578.582299 kJ/mol
# Density = 2.218332 g / cm^3
# Si number density = 22.233922 Si / 1000 Ang^3
#
#
#
# Elastic Constant Matrix: (Units=GPa)
#
#
# Indices 1 2 3 4 5 6 
#
# 1 102.1786 22.4018 7.0368 3.3135 -22.2446 11.1388
# 2 22.4018 68.4987 18.1587 -4.8184 -1.9275 31.0523
# 3 7.0368 18.1587 79.8631 -2.3852 -8.4725 8.6684
# 4 3.3135 -4.8184 -2.3852 36.9411 -2.7290 6.0093
# 5 -22.2446 -1.9275 -8.4725 -2.7290 23.6122 1.9985
# 6 11.1388 31.0523 8.6684 6.0093 1.9985 33.0367
#
#
#
# Elastic Compliance Matrix: (Units=1/GPa)
#
#
# Indices 1 2 3 4 5 6 
#
# 1 0.013563 -0.003191 0.001211 -0.000150 0.013159 -0.002660
# 2 -0.003191 0.029619 -0.003023 0.008571 0.001657 -0.027630
# 3 0.001211 -0.003023 0.013993 0.001156 0.006203 -0.001824
# 4 -0.000150 0.008571 0.001156 0.031029 0.005770 -0.014302
# 5 0.013159 0.001657 0.006203 0.005770 0.058810 -0.012228
# 6 -0.002660 -0.027630 -0.001824 -0.014302 -0.012228 0.060957
#
#
# Mechanical properties :
#
#
# Convention : Reuss Voigt Hill
#
# Bulk Modulus (GPa) = 21.20072 38.41501 29.80787
# Shear Modulus (GPa) = 21.39518 32.24753 26.82135
#
# Velocity S-wave (km/s) = 3.10542 3.81251 3.47699
# Velocity P-wave (km/s) = 4.73437 6.05768 5.43644
#
# Compressibility (1/GPa) = 0.04716820
#
# Stress axis : x y z
#
# Youngs Moduli (GPa) = 73.73271 33.76260 71.46681
#
# Poissons Ratio (x) = 0.10773 -0.08653
# Poissons Ratio (y) = 0.23527 0.21602
# Poissons Ratio (z) = -0.08927 0.10205
#
# Static dielectric constant tensor:
#      x y z
#    x 1.856850 0.002580 -0.051000 
#    y 0.002580 1.797180 0.015930 
#    z -0.051000 0.015930 1.897990 
# 
# From -- ./inp_files/180819.got.cif
#   From: 2010.05.17/outbox.cif.g08.bks.cpg/sg2_91_cif.got.tgz:180819.got - 2010.06.03 11:33:40.
