data_PCOD9107076
_publ_section_title
;
Structure prediction by ZEFSAII (Michael W. Deem and Ramdas Pophale) SiO2 
 PCOD9107076
Probable space group: P -1
;
_chemical_formula_sum "Si O2"
_cell_formula_units_Z 14
_cell_length_a 9.565491
_cell_length_b 6.932756
_cell_length_c 17.927241
_cell_angle_alpha 37.697848
_cell_angle_beta 118.862718
_cell_angle_gamma 120.548693
_cell_volume 618.705349
_symmetry_space_group_name_H-M "P -1"
_symmetry_group_IT_number 2
_symmetry_cell_setting 'triclinic'
loop_
_space_group_symop_operation_xyz
x,y,z
-x,-y,-z
loop_
_atom_site_type_symbol
_atom_site_label
_atom_site_fract_x
_atom_site_fract_y
_atom_site_fract_z
Si Si1 0.187185 0.378635 0.856162
Si Si2 0.421008 0.400482 0.329697
Si Si3 0.884273 0.746629 0.889203
Si Si4 0.728838 0.371555 0.491547
Si Si5 0.978050 0.630531 0.342212
Si Si6 0.487786 0.616751 0.120068
Si Si7 0.863406 0.231333 0.872241
O O1 0.382937 0.504691 0.862986
O O2 0.117513 0.455278 0.734322
O O3 0.049495 0.456500 0.852179
O O4 0.177968 0.003176 0.994907
O O5 0.557250 0.479168 0.406146
O O6 0.519783 0.523528 0.241505
O O7 0.275707 0.585595 0.237984
O O8 0.335951 0.018205 0.416838
O O9 0.698586 0.557674 0.888961
O O10 0.955956 0.982900 0.767077
O O11 0.871900 0.987911 0.880471
O O12 0.000000 0.500000 0.000000
O O13 0.849558 0.468949 0.564220
O O14 0.850791 0.510437 0.412209
O O15 0.500000 0.000000 0.000000
#
# Coordination Sequence:
#
# PCOD9107076 Si02
#       7
#     2   2   2   2   2   2   2
#     4  10  21  38  63  92 133 160 204 263 330 371
#     4  11  22  41  66  98 128 170 217 262 311 377
#     4  11  25  41  67  96 130 167 210 264 335 384
#     4  10  22  38  68  90 131 178 221 251 307 379
#     4  10  20  40  62  98 125 174 218 256 307 386
#     4  12  21  39  67  95 130 169 205 264 328 388
#     4  10  23  42  63  97 131 161 209 273 320 383
#
# _framework density 22.627894000000001
#
# number of rings (size 3 to 8) (size 9 to 14) (size 15 to 20)
#    0.000    1.429    4.286    1.714    2.000    0.571 
#    0.000    8.571    0.000    0.000    0.000    0.000 
#    0.000    0.000    0.000    0.000    0.000    0.000 
#
# Total GULP energy -77967.065573 kJ/mol
# GULP energy per Si atom -5569.076112 kJ/mol
# Density = 2.257639 g / cm^3
# Si number density = 22.627894 Si / 1000 Ang^3
#
#
#
# Elastic Constant Matrix: (Units=GPa)
#
#
# Indices 1 2 3 4 5 6 
#
# 1 77.7033 -1.1363 43.2084 6.8449 23.7877 6.2242
# 2 -1.1363 43.4130 11.9081 6.7665 6.3089 5.5596
# 3 43.2084 11.9081 116.2014 13.0260 0.9725 17.4005
# 4 6.8449 6.7665 13.0260 30.1743 19.6188 4.4583
# 5 23.7877 6.3089 0.9725 19.6188 55.9254 8.6729
# 6 6.2242 5.5596 17.4005 4.4583 8.6729 36.9875
#
#
#
# Elastic Compliance Matrix: (Units=1/GPa)
#
#
# Indices 1 2 3 4 5 6 
#
# 1 0.020642 0.003494 -0.008862 0.005341 -0.011229 0.002159
# 2 0.003494 0.025124 -0.003268 -0.002798 -0.003005 -0.001785
# 3 -0.008862 -0.003268 0.013770 -0.007107 0.007219 -0.005332
# 4 0.005341 -0.002798 -0.007107 0.047602 -0.018768 0.001528
# 5 -0.011229 -0.003005 0.007219 -0.018768 0.030372 -0.005914
# 6 0.002159 -0.001785 -0.005332 0.001528 -0.005914 0.030652
#
#
# Mechanical properties :
#
#
# Convention : Reuss Voigt Hill
#
# Bulk Modulus (GPa) = 23.65999 38.36424 31.01211
# Shear Modulus (GPa) = 25.05990 36.83993 30.94992
#
# Velocity S-wave (km/s) = 3.33149 4.03932 3.70236
# Velocity P-wave (km/s) = 5.02765 6.22463 5.65788
#
# Compressibility (1/GPa) = 0.04226545
#
# Stress axis : x y z
#
# Youngs Moduli (GPa) = 48.44399 39.80292 72.61911
#
# Poissons Ratio (x) = -0.13907 0.64354
# Poissons Ratio (y) = -0.16926 0.23729
# Poissons Ratio (z) = 0.42930 0.13006
#
# Static dielectric constant tensor:
#      x y z
#    x 1.854390 0.011550 -0.007910 
#    y 0.011550 1.939780 0.051710 
#    z -0.007910 0.051710 1.888050 
# 
# From -- ./inp_files/587106.got.cif
#   From: 2010.05.17/outbox.cif.g08.bks.cpg/sg2_294_cif.got.tgz:587106.got - 2010.06.03 11:33:40.
