data_PCOD9107884
_publ_section_title
;
Structure prediction by ZEFSAII (Michael W. Deem and Ramdas Pophale) SiO2 
 PCOD9107884
Probable space group: P -1
;
_chemical_formula_sum "Si O2"
_cell_formula_units_Z 16
_cell_length_a 17.654820
_cell_length_b 5.505384
_cell_length_c 15.857260
_cell_angle_alpha 90.240956
_cell_angle_beta 151.261573
_cell_angle_gamma 100.779275
_cell_volume 680.265067
_symmetry_space_group_name_H-M "P -1"
_symmetry_group_IT_number 2
_symmetry_cell_setting 'triclinic'
loop_
_space_group_symop_operation_xyz
x,y,z
-x,-y,-z
loop_
_atom_site_type_symbol
_atom_site_label
_atom_site_fract_x
_atom_site_fract_y
_atom_site_fract_z
Si Si1 0.140075 0.066999 0.338924
Si Si2 0.386866 0.672622 0.315444
Si Si3 0.228808 0.950086 0.750282
Si Si4 0.516894 0.008345 0.289026
Si Si5 0.556248 0.261426 0.153107
Si Si6 0.967230 0.733455 0.019047
Si Si7 0.107155 0.218326 0.484388
Si Si8 0.334922 0.542334 0.440749
O O1 0.051124 0.080974 0.338866
O O2 0.158674 0.323399 0.301991
O O3 0.323856 0.078516 0.548616
O O4 0.065076 0.819680 0.203055
O O5 0.354618 0.739597 0.381284
O O6 0.564786 0.638185 0.490044
O O7 0.380604 0.830063 0.225358
O O8 0.233493 0.389123 0.156267
O O9 0.342028 0.800153 0.824902
O O10 0.065688 0.767396 0.646121
O O11 0.152385 0.032436 0.593275
O O12 0.368541 0.217235 0.931722
O O13 0.494134 0.046166 0.168566
O O14 0.575238 0.292086 0.390552
O O15 0.712055 0.522265 0.343451
O O16 0.000000 0.500000 0.000000
O O17 0.000000 0.000000 0.000000
#
# Coordination Sequence:
#
# PCOD9107884 Si02
#       8
#     2   2   2   2   2   2   2   2
#     4  11  23  41  66  99 133 183 232 287 357 428
#     4  10  23  39  62  95 128 179 230 281 345 421
#     4  10  24  43  68 101 132 182 234 293 372 441
#     4  11  22  39  65  96 131 177 231 287 345 431
#     4  11  22  43  69  98 139 180 233 294 365 433
#     4  12  27  46  69 100 146 189 238 300 366 427
#     4  11  22  44  69  99 138 179 234 295 365 436
#     4  10  20  40  66  88 130 174 229 280 343 411
#
# _framework density 23.520244999999999
#
# number of rings (size 3 to 8) (size 9 to 14) (size 15 to 20)
#    0.000    1.250    3.750    1.875    1.750    1.000 
#    2.250    1.250    0.000    0.000    0.000    0.000 
#    0.000    0.000    0.000    0.000    0.000    0.000 
#
# Total GULP energy -89111.016717 kJ/mol
# GULP energy per Si atom -5569.438545 kJ/mol
# Density = 2.346671 g / cm^3
# Si number density = 23.520245 Si / 1000 Ang^3
#
#
#
# Elastic Constant Matrix: (Units=GPa)
#
#
# Indices 1 2 3 4 5 6 
#
# 1 144.9711 38.8353 41.8008 0.0875 -28.0563 21.9954
# 2 38.8353 78.3075 25.4306 6.7747 -15.1947 10.2975
# 3 41.8008 25.4306 65.9871 14.3183 -8.1272 9.2312
# 4 0.0875 6.7747 14.3183 28.4710 -0.1184 -2.8281
# 5 -28.0563 -15.1947 -8.1272 -0.1184 26.1333 0.4841
# 6 21.9954 10.2975 9.2312 -2.8281 0.4841 37.6854
#
#
#
# Elastic Compliance Matrix: (Units=1/GPa)
#
#
# Indices 1 2 3 4 5 6 
#
# 1 0.011527 -0.001653 -0.005327 0.002591 0.009861 -0.004904
# 2 -0.001653 0.016691 -0.003597 -0.002425 0.006856 -0.002985
# 3 -0.005327 -0.003597 0.022423 -0.010625 -0.000845 -0.002187
# 4 0.002591 -0.002425 -0.010625 0.041514 -0.001836 0.004892
# 5 0.009861 0.006856 -0.000845 -0.001836 0.052719 -0.008237
# 6 -0.004904 -0.002985 -0.002187 0.004892 -0.008237 0.031222
#
#
# Mechanical properties :
#
#
# Convention : Reuss Voigt Hill
#
# Bulk Modulus (GPa) = 33.91337 55.71101 44.81219
# Shear Modulus (GPa) = 24.14537 30.67121 27.40829
#
# Velocity S-wave (km/s) = 3.20750 3.61506 3.41736
# Velocity P-wave (km/s) = 5.30731 6.41582 5.88771
#
# Compressibility (1/GPa) = 0.02948690
#
# Stress axis : x y z
#
# Youngs Moduli (GPa) = 86.74932 59.91381 44.59784
#
# Poissons Ratio (x) = 0.09903 0.23757
# Poissons Ratio (y) = 0.14338 0.16042
# Poissons Ratio (z) = 0.46211 0.21552
#
# Static dielectric constant tensor:
#      x y z
#    x 1.933100 0.018620 -0.012380 
#    y 0.018620 1.980610 0.025950 
#    z -0.012380 0.025950 2.004560 
# 
# From -- ./inp_files/116202.got.cif
#   From: 2010.05.17/outbox.cif.g08.bks.cpg/sg2_59_cif.got.tgz:116202.got - 2010.06.03 11:33:40.
