data_PCOD9107439
_publ_section_title
;
Structure prediction by ZEFSAII (Michael W. Deem and Ramdas Pophale) SiO2 
 PCOD9107439
Probable space group: P -1
;
_chemical_formula_sum "Si O2"
_cell_formula_units_Z 16
_cell_length_a 11.303720
_cell_length_b 11.570239
_cell_length_c 8.559306
_cell_angle_alpha 64.007187
_cell_angle_beta 93.918607
_cell_angle_gamma 48.433696
_cell_volume 636.511857
_symmetry_space_group_name_H-M "P -1"
_symmetry_group_IT_number 2
_symmetry_cell_setting 'triclinic'
loop_
_space_group_symop_operation_xyz
x,y,z
-x,-y,-z
loop_
_atom_site_type_symbol
_atom_site_label
_atom_site_fract_x
_atom_site_fract_y
_atom_site_fract_z
Si Si1 0.543088 0.619974 0.080487
Si Si2 0.900280 0.728349 0.695485
Si Si3 0.940791 0.171778 0.492828
Si Si4 0.558965 0.570270 0.756212
Si Si5 0.694748 0.256082 0.634532
Si Si6 0.717381 0.959386 0.858351
Si Si7 0.301292 0.320365 0.474339
Si Si8 0.254013 0.324126 0.812283
O O1 0.747199 0.388419 0.274267
O O2 0.407290 0.612573 0.115952
O O3 0.564634 0.738964 0.096394
O O4 0.531128 0.647358 0.879577
O O5 0.861839 0.806807 0.820761
O O6 0.759770 0.738626 0.614276
O O7 0.908949 0.842784 0.510890
O O8 0.101462 0.494282 0.825581
O O9 0.875447 0.188692 0.651574
O O10 0.000000 0.000000 0.500000
O O11 0.368437 0.748366 0.536819
O O12 0.705294 0.535047 0.695781
O O13 0.500000 0.500000 0.500000
O O14 0.736320 0.092833 0.830103
O O15 0.513215 0.115803 0.668392
O O16 0.729836 0.840435 0.061681
O O17 0.196242 0.406042 0.580977
#
# Coordination Sequence:
#
# PCOD9107439 Si02
#       8
#     2   2   2   2   2   2   2   2
#     4   9  20  38  63  93 122 168 211 264 315 389
#     4  11  23  41  66  91 132 178 213 267 327 398
#     4  10  20  40  64  92 125 162 218 263 322 388
#     4   9  20  37  63  91 124 162 217 259 319 383
#     4  10  22  40  68  94 127 167 214 268 328 381
#     4  11  23  41  66  93 129 175 220 267 320 398
#     4  11  24  41  63  97 131 171 221 274 326 383
#     4  11  24  42  65  96 132 171 217 273 335 383
#
# _framework density 25.137003
#
# number of rings (size 3 to 8) (size 9 to 14) (size 15 to 20)
#    0.000    1.750    1.250    2.250   10.500    2.000 
#    2.250    0.000    0.000    1.500    0.000    0.000 
#    0.000    0.000    0.000    0.000    0.000    0.000 
#
# Total GULP energy -89308.755305 kJ/mol
# GULP energy per Si atom -5581.797207 kJ/mol
# Density = 2.507979 g / cm^3
# Si number density = 25.137003 Si / 1000 Ang^3
#
#
#
# Elastic Constant Matrix: (Units=GPa)
#
#
# Indices 1 2 3 4 5 6 
#
# 1 134.5274 37.1372 45.7264 -0.6798 -56.5107 4.4078
# 2 37.1372 132.2667 20.9965 -11.5405 -28.4989 0.4769
# 3 45.7264 20.9965 64.7027 14.6881 -43.5408 7.3351
# 4 -0.6798 -11.5405 14.6881 33.4426 0.8879 -3.6435
# 5 -56.5107 -28.4989 -43.5408 0.8879 52.0040 -0.8187
# 6 4.4078 0.4769 7.3351 -3.6435 -0.8187 39.1064
#
#
#
# Elastic Compliance Matrix: (Units=1/GPa)
#
#
# Indices 1 2 3 4 5 6 
#
# 1 0.013874 -0.000824 0.001888 -0.001447 0.016204 -0.001704
# 2 -0.000824 0.008927 -0.001256 0.003606 0.002893 0.000616
# 3 0.001888 -0.001256 0.052129 -0.025737 0.045268 -0.011425
# 4 -0.001447 0.003606 -0.025737 0.043934 -0.021760 0.008584
# 5 0.016204 0.002893 0.045268 -0.021760 0.076526 -0.010778
# 6 -0.001704 0.000616 -0.011425 0.008584 -0.010778 0.028473
#
#
# Mechanical properties :
#
#
# Convention : Reuss Voigt Hill
#
# Bulk Modulus (GPa) = 13.41444 59.91300 36.66372
# Shear Modulus (GPa) = 20.07256 40.08638 30.07947
#
# Velocity S-wave (km/s) = 2.82889 3.99772 3.46297
# Velocity P-wave (km/s) = 4.00228 6.72275 5.53234
#
# Compressibility (1/GPa) = 0.07454651
#
# Stress axis : x y z
#
# Youngs Moduli (GPa) = 72.07522 112.01966 19.18309
#
# Poissons Ratio (x) = 0.09231 -0.03622
# Poissons Ratio (y) = 0.05940 0.02409
# Poissons Ratio (z) = -0.13607 0.14069
#
# Static dielectric constant tensor:
#      x y z
#    x 2.128160 -0.057420 -0.086630 
#    y -0.057420 2.076840 0.027970 
#    z -0.086630 0.027970 2.006460 
# 
# From -- ./inp_files/262072.got.cif
#   From: 2010.05.17/outbox.cif.g08.bks.cpg/sg2_132_cif.got.tgz:262072.got - 2010.06.03 11:33:40.
