data_PCOD9107295
_publ_section_title
;
Structure prediction by ZEFSAII (Michael W. Deem and Ramdas Pophale) SiO2 
 PCOD9107295
Probable space group: P -1
;
_chemical_formula_sum "Si O2"
_cell_formula_units_Z 13
_cell_length_a 18.602445
_cell_length_b 4.765657
_cell_length_c 15.536989
_cell_angle_alpha 115.734115
_cell_angle_beta 22.828714
_cell_angle_gamma 117.842653
_cell_volume 472.506179
_symmetry_space_group_name_H-M "P -1"
_symmetry_group_IT_number 2
_symmetry_cell_setting 'triclinic'
loop_
_space_group_symop_operation_xyz
x,y,z
-x,-y,-z
loop_
_atom_site_type_symbol
_atom_site_label
_atom_site_fract_x
_atom_site_fract_y
_atom_site_fract_z
Si Si1 0.558778 0.298300 0.080363
Si Si2 0.000000 0.500000 0.000000
Si Si3 0.212694 0.212148 0.226352
Si Si4 0.702588 0.939975 0.337297
Si Si5 0.391953 0.306092 0.763303
Si Si6 0.979505 0.940515 0.188836
Si Si7 0.818989 0.174343 0.560787
O O1 0.542292 0.391726 0.210203
O O2 0.367796 0.065051 0.234981
O O3 0.619820 0.613805 0.998515
O O4 0.731619 0.116290 0.853975
O O5 0.810632 0.217467 0.192631
O O6 0.017439 0.583948 0.102309
O O7 0.202793 0.469391 0.345632
O O8 0.013050 0.139578 0.388700
O O9 0.542566 0.077262 0.581295
O O10 0.863364 0.848897 0.211369
O O11 0.616065 0.673583 0.328401
O O12 0.179021 0.168957 0.008477
O O13 0.847818 0.079954 0.417730
#
# Coordination Sequence:
#
# PCOD9107295 Si02
#       7
#     2   1   2   2   2   2   2
#     4  12  26  49  78 109 149 193 250 307 369 441
#     4  10  20  40  64 100 128 186 230 286 352 428
#     4  11  28  51  73 113 147 193 253 307 367 443
#     4  10  23  43  67  96 148 180 243 292 365 431
#     4  10  22  44  66 105 140 189 240 298 361 439
#     4  11  23  44  67 103 140 190 238 299 362 437
#     4  11  26  47  77 106 148 197 244 308 374 434
#
# _framework density 27.512865000000001
#
# number of rings (size 3 to 8) (size 9 to 14) (size 15 to 20)
#    0.000    1.231    1.538    3.692    2.154    7.385 
#    2.769    6.923    0.000    0.000    0.000    0.000 
#    0.000    0.000    0.000    0.000    0.000    0.000 
#
# Total GULP energy -72684.366056 kJ/mol
# GULP energy per Si atom -5591.105081 kJ/mol
# Density = 2.745024 g / cm^3
# Si number density = 27.512865 Si / 1000 Ang^3
#
#
#
# Elastic Constant Matrix: (Units=GPa)
#
#
# Indices 1 2 3 4 5 6 
#
# 1 102.0292 57.7732 56.0957 23.5558 -9.7092 33.2161
# 2 57.7732 105.9528 18.7017 6.7901 2.9005 34.8410
# 3 56.0957 18.7017 149.3404 7.4043 -6.9731 13.2347
# 4 23.5558 6.7901 7.4043 51.5217 10.9062 20.6296
# 5 -9.7092 2.9005 -6.9731 10.9062 58.0181 7.2105
# 6 33.2161 34.8410 13.2347 20.6296 7.2105 57.3141
#
#
#
# Elastic Compliance Matrix: (Units=1/GPa)
#
#
# Indices 1 2 3 4 5 6 
#
# 1 0.021828 -0.009333 -0.006099 -0.007583 0.005247 -0.003499
# 2 -0.009333 0.016010 0.001699 0.004876 -0.002306 -0.006181
# 3 -0.006099 0.001699 0.008688 0.001367 -0.000324 0.000045
# 4 -0.007583 0.004876 0.001367 0.026230 -0.005328 -0.007656
# 5 0.005247 -0.002306 -0.000324 -0.005328 0.019452 -0.002093
# 6 -0.003499 -0.006181 0.000045 -0.007656 -0.002093 0.026242
#
#
# Mechanical properties :
#
#
# Convention : Reuss Voigt Hill
#
# Bulk Modulus (GPa) = 52.46616 69.16263 60.81439
# Shear Modulus (GPa) = 32.83623 48.35425 40.59524
#
# Velocity S-wave (km/s) = 3.45844 4.19682 3.84539
# Velocity P-wave (km/s) = 5.92105 6.97691 6.47055
#
# Compressibility (1/GPa) = 0.01905991
#
# Stress axis : x y z
#
# Youngs Moduli (GPa) = 45.81178 62.45946 115.10683
#
# Poissons Ratio (x) = 0.58292 0.70209
# Poissons Ratio (y) = 0.42755 -0.19556
# Poissons Ratio (z) = 0.27943 -0.10612
#
# Static dielectric constant tensor:
#      x y z
#    x 2.288850 -0.071510 0.033300 
#    y -0.071510 2.209990 0.150170 
#    z 0.033300 0.150170 2.300290 
# 
# From -- ./inp_files/94976.got.cif
#   From: 2010.05.17/outbox.cif.g08.bks.cpg/sg2_48_cif.got.tgz:94976.got - 2010.06.03 11:33:40.
