data_PCOD9107889
_publ_section_title
;
Structure prediction by ZEFSAII (Michael W. Deem and Ramdas Pophale) SiO2 
 PCOD9107889
Probable space group: P -1
;
_chemical_formula_sum "Si O2"
_cell_formula_units_Z 12
_cell_length_a 13.498360
_cell_length_b 12.070162
_cell_length_c 8.403214
_cell_angle_alpha 44.723989
_cell_angle_beta 57.747239
_cell_angle_gamma 30.426117
_cell_volume 475.769424
_symmetry_space_group_name_H-M "P -1"
_symmetry_group_IT_number 2
_symmetry_cell_setting 'triclinic'
loop_
_space_group_symop_operation_xyz
x,y,z
-x,-y,-z
loop_
_atom_site_type_symbol
_atom_site_label
_atom_site_fract_x
_atom_site_fract_y
_atom_site_fract_z
Si Si1 0.730357 0.939817 0.936581
Si Si2 0.343593 0.828349 0.916558
Si Si3 0.829959 0.292904 0.770733
Si Si4 0.665642 0.646825 0.307214
Si Si5 0.257992 0.075444 0.404161
Si Si6 0.683115 0.691311 0.720580
O O1 0.485885 0.226908 0.833249
O O2 0.821769 0.891025 0.736210
O O3 0.777149 0.973781 0.026745
O O4 0.751535 0.727726 0.141065
O O5 0.247376 0.987673 0.666264
O O6 0.560610 0.673251 0.901634
O O7 0.353058 0.631083 0.129111
O O8 0.827055 0.345315 0.535083
O O9 0.819987 0.467855 0.695220
O O10 0.000000 0.000000 0.000000
O O11 0.494773 0.831012 0.404197
O O12 0.200954 0.318367 0.250276
O O13 0.500000 0.000000 0.500000
#
# Coordination Sequence:
#
# PCOD9107889 Si02
#       6
#     2   2   2   2   2   2
#     4   9  17  34  63  95 108 142 205 265 270 330
#     4  11  19  34  63  90 117 153 196 245 296 341
#     4  12  25  36  54  91 131 158 186 238 312 359
#     4   9  16  36  56  89 115 145 190 245 287 335
#     4   9  17  34  64  94 109 139 202 255 283 331
#     4  10  16  35  61  81 108 148 203 234 267 343
#
# _framework density 25.222301999999999
#
# number of rings (size 3 to 8) (size 9 to 14) (size 15 to 20)
#    1.000    1.000    5.000    1.500    0.000    0.667 
#    0.000    9.167    0.000   11.000    0.000    0.000 
#    0.000    0.000    0.000    0.000    0.000    0.000 
#
# Total GULP energy -66809.053212 kJ/mol
# GULP energy per Si atom -5567.421101 kJ/mol
# Density = 2.516489 g / cm^3
# Si number density = 25.222302 Si / 1000 Ang^3
#
#
#
# Elastic Constant Matrix: (Units=GPa)
#
#
# Indices 1 2 3 4 5 6 
#
# 1 65.7506 24.3048 37.7657 12.3806 14.1188 13.5531
# 2 24.3048 68.8808 35.9433 17.6447 5.3843 21.7772
# 3 37.7657 35.9433 158.7764 19.2888 10.0922 16.3435
# 4 12.3806 17.6447 19.2888 44.8470 2.2435 12.3947
# 5 14.1188 5.3843 10.0922 2.2435 27.9135 -1.9183
# 6 13.5531 21.7772 16.3435 12.3947 -1.9183 42.0091
#
#
#
# Elastic Compliance Matrix: (Units=1/GPa)
#
#
# Indices 1 2 3 4 5 6 
#
# 1 0.021361 -0.003598 -0.003100 -0.001656 -0.009114 -0.003748
# 2 -0.003598 0.020537 -0.002461 -0.003898 -0.001450 -0.007444
# 3 -0.003100 -0.002461 0.007849 -0.001407 -0.000709 -0.000395
# 4 -0.001656 -0.003898 -0.001407 0.026193 -0.000326 -0.004640
# 5 -0.009114 -0.001450 -0.000709 -0.000326 0.041406 0.005955
# 6 -0.003748 -0.007444 -0.000395 -0.004640 0.005955 0.030667
#
#
# Mechanical properties :
#
#
# Convention : Reuss Voigt Hill
#
# Bulk Modulus (GPa) = 31.81784 54.38171 43.09978
# Shear Modulus (GPa) = 28.27901 35.98016 32.12959
#
# Velocity S-wave (km/s) = 3.35205 3.78103 3.57298
# Velocity P-wave (km/s) = 5.25586 6.37725 5.84352
#
# Compressibility (1/GPa) = 0.03142890
#
# Stress axis : x y z
#
# Youngs Moduli (GPa) = 46.81407 48.69206 127.39830
#
# Poissons Ratio (x) = 0.17520 0.39494
# Poissons Ratio (y) = 0.16844 0.31357
# Poissons Ratio (z) = 0.14512 0.11985
#
# Static dielectric constant tensor:
#      x y z
#    x 2.108070 -0.026340 0.066490 
#    y -0.026340 2.217670 -0.013650 
#    z 0.066490 -0.013650 2.051670 
# 
# From -- ./inp_files/300185.got.cif
#   From: 2010.05.17/outbox.cif.g08.bks.cpg/sg2_151_cif.got.tgz:300185.got - 2010.06.03 11:33:40.
