data_PCOD9107829
_publ_section_title
;
Structure prediction by ZEFSAII (Michael W. Deem and Ramdas Pophale) SiO2 
 PCOD9107829
Probable space group: P -1
;
_chemical_formula_sum "Si O2"
_cell_formula_units_Z 16
_cell_length_a 11.257859
_cell_length_b 10.017049
_cell_length_c 11.464703
_cell_angle_alpha 153.789002
_cell_angle_beta 79.233877
_cell_angle_gamma 101.834574
_cell_volume 558.887193
_symmetry_space_group_name_H-M "P -1"
_symmetry_group_IT_number 2
_symmetry_cell_setting 'triclinic'
loop_
_space_group_symop_operation_xyz
x,y,z
-x,-y,-z
loop_
_atom_site_type_symbol
_atom_site_label
_atom_site_fract_x
_atom_site_fract_y
_atom_site_fract_z
Si Si1 0.029450 0.179235 0.938613
Si Si2 0.438468 0.100456 0.753132
Si Si3 0.287978 0.855477 0.226677
Si Si4 0.918362 0.549426 0.437465
Si Si5 0.706563 0.424084 0.232353
Si Si6 0.248185 0.302511 0.133951
Si Si7 0.454037 0.428554 0.324774
Si Si8 0.789874 0.049896 0.444678
O O1 0.925131 0.912221 0.729344
O O2 0.114508 0.161196 0.794488
O O3 0.977768 0.464111 0.234453
O O4 0.127092 0.104603 0.964022
O O5 0.577566 0.233988 0.828041
O O6 0.444736 0.749592 0.513683
O O7 0.349164 0.100039 0.657981
O O8 0.355515 0.248107 0.980664
O O9 0.196083 0.836143 0.337284
O O10 0.301742 0.213776 0.478672
O O11 0.244996 0.661099 0.970096
O O12 0.000000 0.500000 0.500000
O O13 0.785661 0.382585 0.302059
O O14 0.568459 0.268838 0.129157
O O15 0.319407 0.264815 0.210274
O O16 0.211461 0.645906 0.395144
O O17 0.500000 0.500000 0.500000
#
# Coordination Sequence:
#
# PCOD9107829 Si02
#       8
#     2   2   2   2   2   2   2   2
#     4  11  24  45  69 102 132 163 243 269 317 401
#     4   9  20  37  59 101 136 176 221 268 315 423
#     4  11  23  43  65  99 139 177 216 274 345 388
#     4  12  27  49  73  95 129 183 222 281 329 389
#     4  11  26  45  65  99 138 168 230 277 326 412
#     4  10  20  40  66 101 136 169 222 276 323 402
#     4  10  22  40  64  98 139 177 213 276 350 389
#     4  10  22  39  71  96 137 180 217 274 333 393
#
# _framework density 28.628316000000002
#
# number of rings (size 3 to 8) (size 9 to 14) (size 15 to 20)
#    0.000    1.500    2.500    1.500    5.250    1.000 
#    2.250    3.750    0.000    0.000    0.000    0.000 
#    0.000    0.000    0.000    0.000    0.000    0.000 
#
# Total GULP energy -89432.222738 kJ/mol
# GULP energy per Si atom -5589.513921 kJ/mol
# Density = 2.856316 g / cm^3
# Si number density = 28.628316 Si / 1000 Ang^3
#
#
#
# Elastic Constant Matrix: (Units=GPa)
#
#
# Indices 1 2 3 4 5 6 
#
# 1 118.7358 17.9978 46.3721 -12.2822 39.3669 5.4114
# 2 17.9978 51.4544 30.2160 -15.8028 0.1571 0.5368
# 3 46.3721 30.2160 192.6363 -27.7369 11.5966 5.6812
# 4 -12.2822 -15.8028 -27.7369 66.5764 4.4444 -1.5823
# 5 39.3669 0.1571 11.5966 4.4444 64.9821 -7.6146
# 6 5.4114 0.5368 5.6812 -1.5823 -7.6146 17.6644
#
#
#
# Elastic Compliance Matrix: (Units=1/GPa)
#
#
# Indices 1 2 3 4 5 6 
#
# 1 0.012722 -0.002940 -0.001715 0.001328 -0.008270 -0.006703
# 2 -0.002940 0.023103 -0.002573 0.003778 0.002197 0.002312
# 3 -0.001715 -0.002573 0.006316 0.001695 -0.000366 -0.001434
# 4 0.001328 0.003778 0.001695 0.017011 -0.002344 -0.000553
# 5 -0.008270 0.002197 -0.000366 -0.002344 0.022009 0.011862
# 6 -0.006703 0.002312 -0.001434 -0.000553 0.011862 0.064119
#
#
# Mechanical properties :
#
#
# Convention : Reuss Voigt Hill
#
# Bulk Modulus (GPa) = 36.11873 61.33314 48.72594
# Shear Modulus (GPa) = 29.59194 47.72730 38.65962
#
# Velocity S-wave (km/s) = 3.21855 4.08749 3.67876
# Velocity P-wave (km/s) = 5.14353 6.61417 5.92465
#
# Compressibility (1/GPa) = 0.02768647
#
# Stress axis : x y z
#
# Youngs Moduli (GPa) = 78.60240 43.28393 158.33484
#
# Poissons Ratio (x) = 0.12726 0.27149
# Poissons Ratio (y) = 0.23111 0.40732
# Poissons Ratio (z) = 0.13478 0.11135
#
# Static dielectric constant tensor:
#      x y z
#    x 2.428230 0.079540 -0.014320 
#    y 0.079540 2.320560 -0.023630 
#    z -0.014320 -0.023630 2.228740 
# 
# From -- ./inp_files/111060.got.cif
#   From: 2010.05.17/outbox.cif.g08.bks.cpg/sg2_56_cif.got.tgz:111060.got - 2010.06.03 11:33:40.
