data_PCOD9107709
_publ_section_title
;
Structure prediction by ZEFSAII (Michael W. Deem and Ramdas Pophale) SiO2 
 PCOD9107709
Probable space group: P -1
;
_chemical_formula_sum "Si O2"
_cell_formula_units_Z 16
_cell_length_a 11.774011
_cell_length_b 9.109361
_cell_length_c 9.414860
_cell_angle_alpha 74.387560
_cell_angle_beta 50.918489
_cell_angle_gamma 106.399787
_cell_volume 601.316828
_symmetry_space_group_name_H-M "P -1"
_symmetry_group_IT_number 2
_symmetry_cell_setting 'triclinic'
loop_
_space_group_symop_operation_xyz
x,y,z
-x,-y,-z
loop_
_atom_site_type_symbol
_atom_site_label
_atom_site_fract_x
_atom_site_fract_y
_atom_site_fract_z
Si Si1 0.396026 0.313917 0.901920
Si Si2 0.282951 0.255503 0.713176
Si Si3 0.528891 0.813952 0.645905
Si Si4 0.227908 0.753753 0.739085
Si Si5 0.048846 0.819317 0.109382
Si Si6 0.331615 0.646955 0.139752
Si Si7 0.801056 0.114989 0.732999
Si Si8 0.057398 0.325283 0.241406
O O1 0.226767 0.321594 0.067072
O O2 0.330616 0.103540 0.054066
O O3 0.430858 0.358739 0.695396
O O4 0.584275 0.436781 0.810548
O O5 0.334873 0.215159 0.532231
O O6 0.150586 0.311321 0.768765
O O7 0.144196 0.044366 0.953482
O O8 0.352435 0.693550 0.709983
O O9 0.625465 0.039099 0.502633
O O10 0.468511 0.750249 0.870070
O O11 0.049420 0.651739 0.805648
O O12 0.175575 0.792127 0.922370
O O13 0.052880 0.785107 0.279475
O O14 0.298228 0.783245 0.215642
O O15 0.142400 0.488829 0.250304
O O16 0.899265 0.137181 0.502366
#
# Coordination Sequence:
#
# PCOD9107709 Si02
#       8
#     2   2   2   2   2   2   2   2
#     4  11  24  43  68  93 125 167 220 262 304 375
#     4   9  19  35  64  95 120 157 206 271 308 356
#     4  10  22  38  66  97 123 165 211 266 309 372
#     4  10  20  40  65  93 125 162 218 258 309 374
#     4   9  17  37  62  93 123 150 215 265 305 359
#     4  12  26  44  60  96 137 165 205 265 324 374
#     4  11  24  42  69  93 119 174 219 259 306 377
#     4  12  26  43  64  93 133 172 204 261 325 377
#
# _framework density 26.608269
#
# number of rings (size 3 to 8) (size 9 to 14) (size 15 to 20)
#    0.000    1.500    2.500    2.250    7.000    0.500 
#    0.000    0.625    0.000    0.000    0.000    0.000 
#    0.000    0.000    0.000    0.000    0.000    0.000 
#
# Total GULP energy -89511.594057 kJ/mol
# GULP energy per Si atom -5594.474629 kJ/mol
# Density = 2.654771 g / cm^3
# Si number density = 26.608269 Si / 1000 Ang^3
#
#
#
# Elastic Constant Matrix: (Units=GPa)
#
#
# Indices 1 2 3 4 5 6 
#
# 1 171.9334 25.0353 44.5339 6.4439 -3.6888 27.1042
# 2 25.0353 50.6530 -9.9681 -5.8552 -6.0461 10.5932
# 3 44.5339 -9.9681 91.7550 15.6402 9.2980 1.8256
# 4 6.4439 -5.8552 15.6402 34.8751 5.3395 -4.9648
# 5 -3.6888 -6.0461 9.2980 5.3395 48.4923 2.6036
# 6 27.1042 10.5932 1.8256 -4.9648 2.6036 46.0713
#
#
#
# Elastic Compliance Matrix: (Units=1/GPa)
#
#
# Indices 1 2 3 4 5 6 
#
# 1 0.008199 -0.004048 -0.004296 -0.001017 0.001264 -0.003904
# 2 -0.004048 0.023650 0.004040 0.002194 0.001790 -0.003081
# 3 -0.004296 0.004040 0.014403 -0.004570 -0.002117 0.000655
# 4 -0.001017 0.002194 -0.004570 0.032246 -0.002688 0.003902
# 5 0.001264 0.001790 -0.002117 -0.002688 0.021782 -0.002592
# 6 -0.003904 -0.003081 0.000655 0.003902 -0.002592 0.025251
#
#
# Mechanical properties :
#
#
# Convention : Reuss Voigt Hill
#
# Bulk Modulus (GPa) = 26.56552 48.17151 37.36851
# Shear Modulus (GPa) = 34.08577 42.87041 38.47809
#
# Velocity S-wave (km/s) = 3.58302 4.01829 3.80688
# Velocity P-wave (km/s) = 5.20797 6.29858 5.77906
#
# Compressibility (1/GPa) = 0.03764278
#
# Stress axis : x y z
#
# Youngs Moduli (GPa) = 121.96406 42.28401 69.42908
#
# Poissons Ratio (x) = 0.17117 0.29829
# Poissons Ratio (y) = 0.49373 -0.28049
# Poissons Ratio (z) = 0.52400 -0.17083
#
# Static dielectric constant tensor:
#      x y z
#    x 2.077520 0.045850 0.013390 
#    y 0.045850 2.201410 -0.131320 
#    z 0.013390 -0.131320 2.051220 
# 
# From -- ./inp_files/262466.got.cif
#   From: 2010.05.17/outbox.cif.g08.bks.cpg/sg2_132_cif.got.tgz:262466.got - 2010.06.03 11:33:40.
