data_PCOD9107111
_publ_section_title
;
Structure prediction by ZEFSAII (Michael W. Deem and Ramdas Pophale) SiO2 
 PCOD9107111
Probable space group: P -1
;
_chemical_formula_sum "Si O2"
_cell_formula_units_Z 16
_cell_length_a 7.538906
_cell_length_b 13.132064
_cell_length_c 10.043930
_cell_angle_alpha 83.143701
_cell_angle_beta 92.307329
_cell_angle_gamma 134.412833
_cell_volume 703.895230
_symmetry_space_group_name_H-M "P -1"
_symmetry_group_IT_number 2
_symmetry_cell_setting 'triclinic'
loop_
_space_group_symop_operation_xyz
x,y,z
-x,-y,-z
loop_
_atom_site_type_symbol
_atom_site_label
_atom_site_fract_x
_atom_site_fract_y
_atom_site_fract_z
Si Si1 0.750313 0.397270 0.927843
Si Si2 0.618868 0.724754 0.447531
Si Si3 0.057812 0.049555 0.779208
Si Si4 0.561207 0.984728 0.154848
Si Si5 0.794966 0.306874 0.665124
Si Si6 0.650404 0.641502 0.182687
Si Si7 0.532131 0.193306 0.180955
Si Si8 0.314751 0.553083 0.688044
O O1 0.794786 0.380021 0.782497
O O2 0.583170 0.429820 0.905352
O O3 0.586233 0.247897 0.022791
O O4 0.000000 0.500000 0.000000
O O5 0.863105 0.881960 0.378491
O O6 0.403633 0.724763 0.435277
O O7 0.579807 0.630665 0.338420
O O8 0.572138 0.653312 0.597304
O O9 0.226383 0.018174 0.826886
O O10 0.149910 0.184390 0.852182
O O11 0.764706 0.918447 0.794679
O O12 0.319795 0.842694 0.250503
O O13 0.629226 0.117366 0.212809
O O14 0.500000 0.000000 0.000000
O O15 0.077721 0.429967 0.605991
O O16 0.721636 0.552717 0.189523
O O17 0.668645 0.331590 0.255789
#
# Coordination Sequence:
#
# PCOD9107111 Si02
#       8
#     2   2   2   2   2   2   2   2
#     4  11  21  41  58  90 129 149 198 260 303 360
#     4   8  20  42  63  84 118 160 214 249 293 361
#     4   9  22  43  59  89 122 159 216 238 297 378
#     4  11  21  41  64  85 124 166 202 248 295 372
#     4  10  20  40  63  86 116 164 206 246 295 369
#     4   9  21  41  64  85 119 164 204 247 302 361
#     4  12  25  36  62  97 122 162 197 248 324 352
#     4  12  22  37  64  93 121 155 206 261 306 353
#
# _framework density 22.730654999999999
#
# number of rings (size 3 to 8) (size 9 to 14) (size 15 to 20)
#    0.750    1.000    3.750    1.500    0.000    5.000 
#    0.000    2.500    0.000    0.000    0.000    0.000 
#    0.000    0.000    0.000    0.000    0.000    0.000 
#
# Total GULP energy -89100.767048 kJ/mol
# GULP energy per Si atom -5568.797940 kJ/mol
# Density = 2.267892 g / cm^3
# Si number density = 22.730655 Si / 1000 Ang^3
#
#
#
# Elastic Constant Matrix: (Units=GPa)
#
#
# Indices 1 2 3 4 5 6 
#
# 1 82.5773 55.0382 6.0480 -18.9182 14.5436 -9.2085
# 2 55.0382 110.1417 20.7059 -22.5058 6.8682 -10.9237
# 3 6.0480 20.7059 36.9721 -18.5893 -6.0658 -1.5955
# 4 -18.9182 -22.5058 -18.5893 34.4980 0.9774 -6.2472
# 5 14.5436 6.8682 -6.0658 0.9774 28.3911 -11.3069
# 6 -9.2085 -10.9237 -1.5955 -6.2472 -11.3069 42.9450
#
#
#
# Elastic Compliance Matrix: (Units=1/GPa)
#
#
# Indices 1 2 3 4 5 6 
#
# 1 0.021395 -0.009164 0.005062 0.009022 -0.007234 0.001852
# 2 -0.009164 0.015401 -0.005795 0.002284 0.000532 0.002209
# 3 0.005062 -0.005795 0.043137 0.023268 0.010117 0.007262
# 4 0.009022 0.002284 0.023268 0.049941 0.002589 0.011327
# 5 -0.007234 0.000532 0.010117 0.002589 0.045364 0.011280
# 6 0.001852 0.002209 0.007262 0.011327 0.011280 0.029132
#
#
# Mechanical properties :
#
#
# Convention : Reuss Voigt Hill
#
# Bulk Modulus (GPa) = 16.62849 43.69727 30.16288
# Shear Modulus (GPa) = 20.47415 31.02675 25.75045
#
# Velocity S-wave (km/s) = 3.00447 3.69856 3.36944
# Velocity P-wave (km/s) = 4.40081 6.12412 5.33254
#
# Compressibility (1/GPa) = 0.06013776
#
# Stress axis : x y z
#
# Youngs Moduli (GPa) = 46.74049 64.93221 23.18188
#
# Poissons Ratio (x) = 0.59506 -0.11734
# Poissons Ratio (y) = 0.42834 0.13434
# Poissons Ratio (z) = -0.23659 0.37628
#
# Static dielectric constant tensor:
#      x y z
#    x 1.935230 -0.025740 0.016780 
#    y -0.025740 1.873990 -0.017630 
#    z 0.016780 -0.017630 1.911480 
# 
# From -- ./inp_files/395778.got.cif
#   From: 2010.05.17/outbox.cif.g08.bks.cpg/sg2_198_cif.got.tgz:395778.got - 2010.06.03 11:33:40.
