data_PCOD9107461
_publ_section_title
;
Structure prediction by ZEFSAII (Michael W. Deem and Ramdas Pophale) SiO2 
 PCOD9107461
Probable space group: P -1
;
_chemical_formula_sum "Si O2"
_cell_formula_units_Z 14
_cell_length_a 11.970536
_cell_length_b 13.741776
_cell_length_c 9.130560
_cell_angle_alpha 76.873626
_cell_angle_beta 60.749585
_cell_angle_gamma 127.898237
_cell_volume 664.984703
_symmetry_space_group_name_H-M "P -1"
_symmetry_group_IT_number 2
_symmetry_cell_setting 'triclinic'
loop_
_space_group_symop_operation_xyz
x,y,z
-x,-y,-z
loop_
_atom_site_type_symbol
_atom_site_label
_atom_site_fract_x
_atom_site_fract_y
_atom_site_fract_z
Si Si1 0.574236 0.259349 0.019078
Si Si2 0.174477 0.104794 0.495766
Si Si3 0.813267 0.590680 0.618140
Si Si4 0.057870 0.254864 0.210663
Si Si5 0.527248 0.541597 0.639530
Si Si6 0.338080 0.977702 0.031819
Si Si7 0.458081 0.987745 0.362076
O O1 0.433796 0.246096 0.210953
O O2 0.597885 0.176699 0.133869
O O3 0.796831 0.466986 0.732464
O O4 0.398763 0.112977 0.045647
O O5 0.245645 0.237093 0.523459
O O6 0.000000 0.000000 0.500000
O O7 0.063404 0.930299 0.697115
O O8 0.830633 0.673723 0.721259
O O9 0.580312 0.473161 0.715527
O O10 0.054540 0.763272 0.305959
O O11 0.273247 0.419768 0.902624
O O12 0.831131 0.179852 0.406549
O O13 0.500000 0.500000 0.500000
O O14 0.442450 0.041553 0.780433
O O15 0.500000 0.000000 0.000000
O O16 0.500000 0.000000 0.500000
#
# Coordination Sequence:
#
# PCOD9107461 Si02
#       7
#     2   2   2   2   2   2   2
#     4  10  21  38  66  95 119 168 221 259 316 386
#     4  11  19  39  69  92 125 177 218 257 326 392
#     4  12  21  41  68  95 126 171 221 266 315 394
#     4  11  22  42  68  90 129 178 219 263 321 401
#     4  12  27  41  63 102 138 166 217 278 332 383
#     4  10  20  40  64  93 125 166 223 264 311 390
#     4  10  23  43  65  93 134 170 209 275 336 379
#
# _framework density 21.053113
#
# number of rings (size 3 to 8) (size 9 to 14) (size 15 to 20)
#    0.000    1.143    7.143    1.286    2.000    2.857 
#    5.143    0.714    0.000    0.000    0.000    0.000 
#    0.000    0.000    0.000    0.000    0.000    0.000 
#
# Total GULP energy -77991.224770 kJ/mol
# GULP energy per Si atom -5570.801769 kJ/mol
# Density = 2.100520 g / cm^3
# Si number density = 21.053113 Si / 1000 Ang^3
#
#
#
# Elastic Constant Matrix: (Units=GPa)
#
#
# Indices 1 2 3 4 5 6 
#
# 1 44.2991 31.6451 20.3913 3.8100 7.7559 4.7582
# 2 31.6451 128.8960 62.3817 17.8666 17.8695 14.5585
# 3 20.3913 62.3817 105.2621 8.8796 -1.5172 -0.4650
# 4 3.8100 17.8666 8.8796 42.8103 1.0214 5.8589
# 5 7.7559 17.8695 -1.5172 1.0214 25.4033 8.2420
# 6 4.7582 14.5585 -0.4650 5.8589 8.2420 22.8764
#
#
#
# Elastic Compliance Matrix: (Units=1/GPa)
#
#
# Indices 1 2 3 4 5 6 
#
# 1 0.028256 -0.004853 -0.002704 0.000345 -0.005025 -0.001122
# 2 -0.004853 0.014703 -0.007629 -0.003266 -0.007585 -0.004934
# 3 -0.002704 -0.007629 0.014668 -0.000259 0.005891 0.003660
# 4 0.000345 -0.003266 -0.000259 0.025438 0.002965 -0.005582
# 5 -0.005025 -0.007585 0.005891 0.002965 0.050695 -0.013032
# 6 -0.001122 -0.004934 0.003660 -0.005582 -0.013032 0.053286
#
#
# Mechanical properties :
#
#
# Convention : Reuss Voigt Hill
#
# Bulk Modulus (GPa) = 36.69075 56.36594 46.52835
# Shear Modulus (GPa) = 22.07467 29.15394 25.61430
#
# Velocity S-wave (km/s) = 3.24160 3.72530 3.49184
# Velocity P-wave (km/s) = 5.61037 6.73314 6.19723
#
# Compressibility (1/GPa) = 0.02725482
#
# Stress axis : x y z
#
# Youngs Moduli (GPa) = 35.39104 68.01155 68.17449
#
# Poissons Ratio (x) = 0.33005 0.18436
# Poissons Ratio (y) = 0.17175 0.52012
# Poissons Ratio (z) = 0.09571 0.51888
#
# Static dielectric constant tensor:
#      x y z
#    x 1.865080 -0.057520 -0.015220 
#    y -0.057520 1.843990 -0.017130 
#    z -0.015220 -0.017130 1.803880 
# 
# From -- ./inp_files/261082.got.cif
#   From: 2010.05.17/outbox.cif.g08.bks.cpg/sg2_131_cif.got.tgz:261082.got - 2010.06.03 11:33:40.
