data_PCOD9107540
_publ_section_title
;
Structure prediction by ZEFSAII (Michael W. Deem and Ramdas Pophale) SiO2 
 PCOD9107540
Probable space group: P -1
;
_chemical_formula_sum "Si O2"
_cell_formula_units_Z 14
_cell_length_a 22.220741
_cell_length_b 22.927433
_cell_length_c 7.935568
_cell_angle_alpha 142.402241
_cell_angle_beta 36.754871
_cell_angle_gamma 168.091537
_cell_volume 498.062571
_symmetry_space_group_name_H-M "P -1"
_symmetry_group_IT_number 2
_symmetry_cell_setting 'triclinic'
loop_
_space_group_symop_operation_xyz
x,y,z
-x,-y,-z
loop_
_atom_site_type_symbol
_atom_site_label
_atom_site_fract_x
_atom_site_fract_y
_atom_site_fract_z
Si Si1 0.094879 0.773796 0.669704
Si Si2 0.187731 0.154071 0.259442
Si Si3 0.255372 0.478336 0.439972
Si Si4 0.083849 0.550689 0.236768
Si Si5 0.469865 0.697054 0.972315
Si Si6 0.600563 0.673262 0.344528
Si Si7 0.315915 0.981230 0.164812
O O1 0.103079 0.669825 0.374715
O O2 0.944564 0.695575 0.674664
O O3 0.883674 0.611503 0.930612
O O4 0.409950 0.095883 0.752478
O O5 0.405633 0.264252 0.074749
O O6 0.382528 0.417504 0.367266
O O7 0.000000 0.000000 0.500000
O O8 0.919520 0.908270 0.165914
O O9 0.473285 0.586835 0.250095
O O10 0.001090 0.247255 0.628400
O O11 0.468554 0.763215 0.609672
O O12 0.000000 0.500000 0.500000
O O13 0.840115 0.264077 0.039188
O O14 0.413954 0.799348 0.068601
O O15 0.602924 0.776873 0.680851
#
# Coordination Sequence:
#
# PCOD9107540 Si02
#       7
#     2   2   2   2   2   2   2
#     4  12  26  42  64  97 135 165 214 274 322 379
#     4  10  20  40  64  98 125 167 217 265 309 382
#     4  11  25  43  65  97 131 172 217 259 322 385
#     4  11  25  42  66  96 132 164 218 269 323 375
#     4  11  23  40  67  93 129 168 215 265 328 367
#     4  11  22  40  69  92 129 169 219 261 312 388
#     4  10  24  43  66  88 129 172 218 252 320 382
#
# _framework density 28.108919
#
# number of rings (size 3 to 8) (size 9 to 14) (size 15 to 20)
#    0.000    1.143    0.000    7.286    6.000    3.429 
#    0.000    4.286    0.000    0.000    0.000    0.000 
#    0.000    0.000    0.000    0.000    0.000    0.000 
#
# Total GULP energy -78309.371151 kJ/mol
# GULP energy per Si atom -5593.526511 kJ/mol
# Density = 2.804494 g / cm^3
# Si number density = 28.108919 Si / 1000 Ang^3
#
#
#
# Elastic Constant Matrix: (Units=GPa)
#
#
# Indices 1 2 3 4 5 6 
#
# 1 114.1088 16.0497 17.9384 -1.7193 13.2184 14.6961
# 2 16.0497 168.7859 39.0022 5.5059 -0.6272 -3.0428
# 3 17.9384 39.0022 74.5521 -0.3237 -1.0546 -3.8565
# 4 -1.7193 5.5059 -0.3237 64.2796 8.0786 -5.7518
# 5 13.2184 -0.6272 -1.0546 8.0786 33.9873 -3.1352
# 6 14.6961 -3.0428 -3.8565 -5.7518 -3.1352 37.7289
#
#
#
# Elastic Compliance Matrix: (Units=1/GPa)
#
#
# Indices 1 2 3 4 5 6 
#
# 1 0.010383 -0.000519 -0.002532 0.000479 -0.004670 -0.004660
# 2 -0.000519 0.006789 -0.003406 -0.000633 0.000403 0.000339
# 3 -0.002532 -0.003406 0.015959 0.000333 0.001571 0.002524
# 4 0.000479 -0.000633 0.000333 0.016288 -0.003879 0.001957
# 5 -0.004670 0.000403 0.001571 -0.003879 0.032598 0.004130
# 6 -0.004660 0.000339 0.002524 0.001957 0.004130 0.029247
#
#
# Mechanical properties :
#
#
# Convention : Reuss Voigt Hill
#
# Bulk Modulus (GPa) = 49.46475 55.93639 52.70057
# Shear Modulus (GPa) = 38.19169 46.16293 42.17731
#
# Velocity S-wave (km/s) = 3.69006 4.05691 3.87783
# Velocity P-wave (km/s) = 5.98257 6.47208 6.23213
#
# Compressibility (1/GPa) = 0.02021642
#
# Stress axis : x y z
#
# Youngs Moduli (GPa) = 96.31158 147.28726 62.66075
#
# Poissons Ratio (x) = 0.07649 0.15864
# Poissons Ratio (y) = 0.05001 0.21345
# Poissons Ratio (z) = 0.24383 0.50173
#
# Static dielectric constant tensor:
#      x y z
#    x 2.271800 -0.086420 0.006780 
#    y -0.086420 2.109140 0.012670 
#    z 0.006780 0.012670 2.232350 
# 
# From -- ./inp_files/355502.got.cif
#   From: 2010.05.17/outbox.cif.g08.bks.cpg/sg2_178_cif.got.tgz:355502.got - 2010.06.03 11:33:40.
