data_PCOD9107454
_publ_section_title
;
Structure prediction by ZEFSAII (Michael W. Deem and Ramdas Pophale) SiO2 
 PCOD9107454
Probable space group: P -1
;
_chemical_formula_sum "Si O2"
_cell_formula_units_Z 14
_cell_length_a 12.082967
_cell_length_b 9.430011
_cell_length_c 11.905276
_cell_angle_alpha 64.299450
_cell_angle_beta 144.626535
_cell_angle_gamma 132.017272
_cell_volume 563.254084
_symmetry_space_group_name_H-M "P -1"
_symmetry_group_IT_number 2
_symmetry_cell_setting 'triclinic'
loop_
_space_group_symop_operation_xyz
x,y,z
-x,-y,-z
loop_
_atom_site_type_symbol
_atom_site_label
_atom_site_fract_x
_atom_site_fract_y
_atom_site_fract_z
Si Si1 0.720532 0.015873 0.121613
Si Si2 0.228404 0.667386 0.063171
Si Si3 0.303003 0.258868 0.626497
Si Si4 0.040069 0.799373 0.174888
Si Si5 0.328327 0.131431 0.114618
Si Si6 0.734709 0.409783 0.519776
Si Si7 0.619723 0.847265 0.493772
O O1 0.783446 0.919212 0.299597
O O2 0.661600 0.896291 0.999011
O O3 0.500000 0.000000 0.000000
O O4 0.865750 0.242171 0.125380
O O5 0.402025 0.617789 0.173068
O O6 0.430249 0.839695 0.257420
O O7 0.000000 0.500000 0.000000
O O8 0.212231 0.385260 0.541352
O O9 0.240659 0.188801 0.468587
O O10 0.073945 0.628784 0.272436
O O11 0.145598 0.924580 0.103030
O O12 0.210010 0.961424 0.356275
O O13 0.784652 0.751145 0.000424
O O14 0.581614 0.257077 0.344061
O O15 0.547047 0.329727 0.496305
#
# Coordination Sequence:
#
# PCOD9107454 Si02
#       7
#     2   2   2   2   2   2   2
#     4  10  20  40  64  92 133 172 212 259 330 391
#     4   9  19  35  63  95 124 165 221 268 306 379
#     4   9  22  36  62  93 133 176 202 263 340 379
#     4  10  21  38  67  95 130 167 217 274 314 378
#     4  10  22  39  65  95 126 172 222 259 322 383
#     4  11  20  37  63  92 128 170 212 274 312 380
#     4   9  19  37  61  91 130 169 211 267 322 371
#
# _framework density 24.855568000000002
#
# number of rings (size 3 to 8) (size 9 to 14) (size 15 to 20)
#    0.857    1.429    0.000    3.857    0.000    5.143 
#    0.000    1.429    0.000    0.000    0.000    6.000 
#    0.000    0.000    0.000    0.000    0.000    0.000 
#
# Total GULP energy -78200.324567 kJ/mol
# GULP energy per Si atom -5585.737469 kJ/mol
# Density = 2.479900 g / cm^3
# Si number density = 24.855568 Si / 1000 Ang^3
#
#
#
# Elastic Constant Matrix: (Units=GPa)
#
#
# Indices 1 2 3 4 5 6 
#
# 1 123.9788 42.2668 46.9507 -13.7539 -9.6713 -24.2570
# 2 42.2668 116.2388 36.3353 -48.4799 -2.7126 -8.2344
# 3 46.9507 36.3353 145.1865 -31.9258 6.0212 -5.8711
# 4 -13.7539 -48.4799 -31.9258 49.0854 -10.6621 1.0263
# 5 -9.6713 -2.7126 6.0212 -10.6621 41.3614 3.2422
# 6 -24.2570 -8.2344 -5.8711 1.0263 3.2422 34.9873
#
#
#
# Elastic Compliance Matrix: (Units=1/GPa)
#
#
# Indices 1 2 3 4 5 6 
#
# 1 0.011706 -0.003623 -0.003145 -0.002068 0.001906 0.006620
# 2 -0.003623 0.017068 0.000509 0.017152 0.004568 0.000665
# 3 -0.003145 0.000509 0.008946 0.005328 -0.000579 -0.000662
# 4 -0.002068 0.017152 0.005328 0.042502 0.010723 0.001257
# 5 0.001906 0.004568 -0.000579 0.010723 0.027817 -0.000593
# 6 0.006620 0.000665 -0.000662 0.001257 -0.000593 0.033235
#
#
# Mechanical properties :
#
#
# Convention : Reuss Voigt Hill
#
# Bulk Modulus (GPa) = 39.67661 70.72329 55.19995
# Shear Modulus (GPa) = 30.82723 42.41024 36.61874
#
# Velocity S-wave (km/s) = 3.52555 4.13518 3.84247
# Velocity P-wave (km/s) = 5.70703 7.16346 6.47631
#
# Compressibility (1/GPa) = 0.02520377
#
# Stress axis : x y z
#
# Youngs Moduli (GPa) = 85.42346 58.58759 111.77838
#
# Poissons Ratio (x) = 0.21224 0.35155
# Poissons Ratio (y) = 0.30945 -0.05689
# Poissons Ratio (z) = 0.26866 -0.02982
#
# Static dielectric constant tensor:
#      x y z
#    x 1.979920 -0.043930 0.032450 
#    y -0.043930 2.008950 0.042000 
#    z 0.032450 0.042000 2.086340 
# 
# From -- ./inp_files/416985.got.cif
#   From: 2010.05.17/outbox.cif.g08.bks.cpg/sg2_209_cif.got.tgz:416985.got - 2010.06.03 11:33:40.
