data_PCOD9107062
_publ_section_title
;
Structure prediction by ZEFSAII (Michael W. Deem and Ramdas Pophale) SiO2 
 PCOD9107062
Probable space group: P -1
;
_chemical_formula_sum "Si O2"
_cell_formula_units_Z 16
_cell_length_a 16.600997
_cell_length_b 5.982244
_cell_length_c 15.480188
_cell_angle_alpha 48.844097
_cell_angle_beta 36.879818
_cell_angle_gamma 50.686626
_cell_volume 674.855001
_symmetry_space_group_name_H-M "P -1"
_symmetry_group_IT_number 2
_symmetry_cell_setting 'triclinic'
loop_
_space_group_symop_operation_xyz
x,y,z
-x,-y,-z
loop_
_atom_site_type_symbol
_atom_site_label
_atom_site_fract_x
_atom_site_fract_y
_atom_site_fract_z
Si Si1 0.506695 0.557419 0.237881
Si Si2 0.289483 0.309809 0.388369
Si Si3 0.759623 0.659392 0.933493
Si Si4 0.625238 0.417204 0.478486
Si Si5 0.943072 0.703011 0.290491
Si Si6 0.898873 0.853985 0.909660
Si Si7 0.604467 0.719702 0.869342
Si Si8 0.869780 0.741799 0.154077
O O1 0.423487 0.432322 0.266994
O O2 0.441189 0.458288 0.405123
O O3 0.471272 0.926759 0.173679
O O4 0.671762 0.461014 0.113673
O O5 0.274060 0.364995 0.285289
O O6 0.164089 0.442886 0.527569
O O7 0.321789 0.947263 0.468869
O O8 0.913769 0.529036 0.798744
O O9 0.782707 0.905169 0.922906
O O10 0.666612 0.724331 0.910666
O O11 0.500000 0.500000 0.500000
O O12 0.747752 0.568145 0.308200
O O13 0.880189 0.860226 0.213382
O O14 0.990668 0.945398 0.249465
O O15 0.982367 0.502052 0.921588
O O16 0.850973 0.915453 0.034333
O O17 0.500000 0.500000 0.000000
#
# Coordination Sequence:
#
# PCOD9107062 Si02
#       8
#     2   2   2   2   2   2   2   2
#     4  11  24  44  69  96 136 173 225 274 337 402
#     4  11  24  44  69  97 134 181 216 277 342 389
#     4  11  25  40  67 102 124 173 227 275 325 398
#     4  11  23  40  66  99 137 174 226 273 328 402
#     4  11  23  42  67  96 139 174 221 271 334 405
#     4  10  22  39  65  91 139 169 222 272 325 397
#     4  11  25  44  72  97 132 178 223 279 344 389
#     4  10  20  40  62  95 129 181 214 268 336 386
#
# _framework density 23.708796
#
# number of rings (size 3 to 8) (size 9 to 14) (size 15 to 20)
#    0.000    1.250    3.750    1.500    1.750    2.000 
#    2.250    1.250    0.000    0.000    0.000    0.000 
#    0.000    0.000    0.000    0.000    0.000    0.000 
#
# Total GULP energy -89323.706187 kJ/mol
# GULP energy per Si atom -5582.731637 kJ/mol
# Density = 2.365483 g / cm^3
# Si number density = 23.708796 Si / 1000 Ang^3
#
#
#
# Elastic Constant Matrix: (Units=GPa)
#
#
# Indices 1 2 3 4 5 6 
#
# 1 142.1933 10.0104 45.2148 -1.2598 -9.5036 30.0007
# 2 10.0104 29.8348 23.4458 9.5746 -7.5082 6.3878
# 3 45.2148 23.4458 150.6231 16.1539 -14.5181 5.9967
# 4 -1.2598 9.5746 16.1539 43.9463 11.6648 -6.9469
# 5 -9.5036 -7.5082 -14.5181 11.6648 40.7646 -1.3381
# 6 30.0007 6.3878 5.9967 -6.9469 -1.3381 30.6518
#
#
#
# Elastic Compliance Matrix: (Units=1/GPa)
#
#
# Indices 1 2 3 4 5 6 
#
# 1 0.009872 0.001518 -0.002538 -0.001084 0.001670 -0.009655
# 2 0.001518 0.046313 -0.004737 -0.013112 0.010531 -0.012722
# 3 -0.002538 -0.004737 0.008600 -0.002632 0.002394 0.001297
# 4 -0.001084 -0.013112 -0.002632 0.031531 -0.012270 0.010919
# 5 0.001670 0.010531 0.002394 -0.012270 0.031036 -0.005724
# 6 -0.009655 -0.012722 0.001297 0.010919 -0.005724 0.046697
#
#
# Mechanical properties :
#
#
# Convention : Reuss Voigt Hill
#
# Bulk Modulus (GPa) = 18.77198 53.33258 36.05228
# Shear Modulus (GPa) = 24.59174 39.33787 31.96481
#
# Velocity S-wave (km/s) = 3.22412 4.07776 3.67580
# Velocity P-wave (km/s) = 4.66849 6.68689 5.76669
#
# Compressibility (1/GPa) = 0.05327089
#
# Stress axis : x y z
#
# Youngs Moduli (GPa) = 101.29745 21.59205 116.28208
#
# Poissons Ratio (x) = -0.03277 0.29512
# Poissons Ratio (y) = -0.15374 0.55081
# Poissons Ratio (z) = 0.25709 0.10228
#
# Static dielectric constant tensor:
#      x y z
#    x 1.943580 0.025350 0.044560 
#    y 0.025350 2.003290 0.067620 
#    z 0.044560 0.067620 1.917200 
# 
# From -- ./inp_files/525544.got.cif
#   From: 2010.05.17/outbox.cif.g08.bks.cpg/sg2_263_cif.got.tgz:525544.got - 2010.06.03 11:33:40.
