data_PCOD9107318
_publ_section_title
;
Structure prediction by ZEFSAII (Michael W. Deem and Ramdas Pophale) SiO2 
 PCOD9107318
Probable space group: P -1
;
_chemical_formula_sum "Si O2"
_cell_formula_units_Z 15
_cell_length_a 26.363852
_cell_length_b 5.377029
_cell_length_c 5.616695
_cell_angle_alpha 127.413023
_cell_angle_beta 99.678890
_cell_angle_gamma 91.931072
_cell_volume 613.960750
_symmetry_space_group_name_H-M "P -1"
_symmetry_group_IT_number 2
_symmetry_cell_setting 'triclinic'
loop_
_space_group_symop_operation_xyz
x,y,z
-x,-y,-z
loop_
_atom_site_type_symbol
_atom_site_label
_atom_site_fract_x
_atom_site_fract_y
_atom_site_fract_z
Si Si1 0.602423 0.129544 0.395873
Si Si2 0.468512 0.455714 0.199270
Si Si3 0.330085 0.331060 0.558866
Si Si4 0.078397 0.573316 0.625721
Si Si5 0.000000 0.000000 0.000000
Si Si6 0.259164 0.771616 0.927676
Si Si7 0.839446 0.675498 0.201015
Si Si8 0.820966 0.307098 0.559630
O O1 0.569285 0.283356 0.655859
O O2 0.634463 0.421030 0.442598
O O3 0.637604 0.900822 0.413729
O O4 0.564715 0.898271 0.053258
O O5 0.500000 0.500000 0.500000
O O6 0.500000 0.500000 0.000000
O O7 0.301643 0.541587 0.835232
O O8 0.285608 0.107658 0.243017
O O9 0.102039 0.383556 0.744885
O O10 0.130351 0.675357 0.571781
O O11 0.052000 0.854064 0.869568
O O12 0.036936 0.335537 0.302522
O O13 0.207423 0.604411 0.923640
O O14 0.236251 0.779465 0.648140
O O15 0.829834 0.985810 0.512648
O O16 0.829371 0.642745 0.892666
#
# Coordination Sequence:
#
# PCOD9107318 Si02
#       8
#     2   2   2   2   1   2   2   2
#     4  12  28  50  77 118 159 200 253 323 383 452
#     4  12  27  52  86 116 155 208 270 322 387 461
#     4  12  27  47  74 106 160 195 246 304 389 446
#     4  10  22  41  60  94 123 176 213 294 344 432
#     4  10  20  40  64  82 138 164 216 278 376 416
#     4  11  26  43  69 101 134 196 234 290 361 444
#     4  11  23  41  67  93 131 170 241 285 346 418
#     4  11  23  41  67  93 131 170 241 285 346 418
#
# _framework density 24.431529999999999
#
# number of rings (size 3 to 8) (size 9 to 14) (size 15 to 20)
#    0.000    0.800    0.000    6.400    5.600    6.400 
#    0.000   13.333    0.000    0.000    0.000    0.000 
#    0.000    0.000    0.000    0.000    0.000    0.000 
#
# Total GULP energy -83635.143925 kJ/mol
# GULP energy per Si atom -5575.676262 kJ/mol
# Density = 2.437592 g / cm^3
# Si number density = 24.431530 Si / 1000 Ang^3
#
#
#
# Elastic Constant Matrix: (Units=GPa)
#
#
# Indices 1 2 3 4 5 6 
#
# 1 119.5260 37.9797 32.9452 6.9904 -10.3422 -10.3910
# 2 37.9797 80.4834 24.5961 9.5146 3.7861 -2.8542
# 3 32.9452 24.5961 109.5155 24.3259 -1.6539 -14.1592
# 4 6.9904 9.5146 24.3259 43.3273 -15.2399 8.4729
# 5 -10.3422 3.7861 -1.6539 -15.2399 65.3405 1.5984
# 6 -10.3910 -2.8542 -14.1592 8.4729 1.5984 52.9146
#
#
#
# Elastic Compliance Matrix: (Units=1/GPa)
#
#
# Indices 1 2 3 4 5 6 
#
# 1 0.010633 -0.004519 -0.002267 0.001100 0.002120 0.000997
# 2 -0.004519 0.015448 -0.001572 -0.002574 -0.002251 0.000005
# 3 -0.002267 -0.001572 0.012369 -0.007678 -0.001845 0.004065
# 4 0.001100 -0.002574 -0.007678 0.031940 0.007758 -0.007326
# 5 0.002120 -0.002251 -0.001845 0.007758 0.017581 -0.001972
# 6 0.000997 0.000005 0.004065 -0.007326 -0.001972 0.021415
#
#
# Mechanical properties :
#
#
# Convention : Reuss Voigt Hill
#
# Bulk Modulus (GPa) = 46.01037 55.61854 50.81446
# Shear Modulus (GPa) = 37.49617 46.58342 42.03980
#
# Velocity S-wave (km/s) = 3.92183 4.37131 4.15266
# Velocity P-wave (km/s) = 6.27542 6.94926 6.62092
#
# Compressibility (1/GPa) = 0.02173423
#
# Stress axis : x y z
#
# Youngs Moduli (GPa) = 94.04626 64.73270 80.84609
#
# Poissons Ratio (x) = 0.29254 0.18329
# Poissons Ratio (y) = 0.42502 0.12706
# Poissons Ratio (z) = 0.21322 0.10174
#
# Static dielectric constant tensor:
#      x y z
#    x 1.912980 -0.004570 -0.012770 
#    y -0.004570 2.218370 -0.130000 
#    z -0.012770 -0.130000 1.971530 
# 
# From -- ./inp_files/121931.got.cif
#   From: 2010.05.17/outbox.cif.g08.bks.cpg/sg2_61_cif.got.tgz:121931.got - 2010.06.03 11:33:40.
