data_PCOD9107580
_publ_section_title
;
Structure prediction by ZEFSAII (Michael W. Deem and Ramdas Pophale) SiO2 
 PCOD9107580
Probable space group: P -1
;
_chemical_formula_sum "Si O2"
_cell_formula_units_Z 16
_cell_length_a 11.452330
_cell_length_b 11.497703
_cell_length_c 19.416819
_cell_angle_alpha 29.106771
_cell_angle_beta 150.123831
_cell_angle_gamma 135.492824
_cell_volume 609.006459
_symmetry_space_group_name_H-M "P -1"
_symmetry_group_IT_number 2
_symmetry_cell_setting 'triclinic'
loop_
_space_group_symop_operation_xyz
x,y,z
-x,-y,-z
loop_
_atom_site_type_symbol
_atom_site_label
_atom_site_fract_x
_atom_site_fract_y
_atom_site_fract_z
Si Si1 0.380520 0.036324 0.338507
Si Si2 0.040530 0.238429 0.456496
Si Si3 0.487099 0.148184 0.057844
Si Si4 0.124144 0.948792 0.876580
Si Si5 0.161650 0.377208 0.584700
Si Si6 0.245499 0.086653 0.095109
Si Si7 0.287772 0.150659 0.502966
Si Si8 0.391451 0.510955 0.178530
O O1 0.276122 0.177776 0.140929
O O2 0.425432 0.235957 0.312801
O O3 0.142119 0.949565 0.286997
O O4 0.619338 0.859373 0.523153
O O5 0.050094 0.418707 0.431319
O O6 0.094931 0.322013 0.363652
O O7 0.270248 0.026335 0.702830
O O8 0.816668 0.101989 0.415436
O O9 0.340301 0.241883 0.003522
O O10 0.544407 0.348587 0.930450
O O11 0.309717 0.998659 0.004091
O O12 0.184326 0.096452 0.764210
O O13 0.158718 0.671696 0.011586
O O14 0.412098 0.453762 0.682850
O O15 0.000000 0.500000 0.500000
O O16 0.459131 0.849263 0.330351
O O17 0.000000 0.000000 0.000000
#
# Coordination Sequence:
#
# PCOD9107580 Si02
#       8
#     2   2   2   2   2   2   2   2
#     4  10  21  34  56  84 120 141 189 237 286 327
#     4  10  16  35  55  79 109 149 186 229 287 325
#     4  10  17  33  59  80 105 151 193 224 279 332
#     4  11  20  37  57  83 116 153 186 237 282 341
#     4  11  22  36  61  82 113 152 194 231 283 341
#     4   9  17  33  56  81 108 150 181 234 284 332
#     4   8  19  31  55  81 107 145 187 238 270 334
#     4  11  21  35  54  91 115 147 194 238 270 342
#
# _framework density 26.272297999999999
#
# number of rings (size 3 to 8) (size 9 to 14) (size 15 to 20)
#    0.750    1.250    3.750    1.875    0.000    0.500 
#    0.000    2.500    0.000    0.750    0.000    0.000 
#    0.000    0.000    0.000    0.000    0.000    0.000 
#
# Total GULP energy -89253.727506 kJ/mol
# GULP energy per Si atom -5578.357969 kJ/mol
# Density = 2.621250 g / cm^3
# Si number density = 26.272298 Si / 1000 Ang^3
#
#
#
# Elastic Constant Matrix: (Units=GPa)
#
#
# Indices 1 2 3 4 5 6 
#
# 1 171.4925 37.4750 8.9083 10.7638 12.5654 -23.0480
# 2 37.4750 88.2982 14.0004 11.5558 5.2397 -12.1135
# 3 8.9083 14.0004 74.7992 8.3102 6.5386 9.7041
# 4 10.7638 11.5558 8.3102 40.2582 3.9112 -1.5651
# 5 12.5654 5.2397 6.5386 3.9112 33.5915 12.5798
# 6 -23.0480 -12.1135 9.7041 -1.5651 12.5798 42.6243
#
#
#
# Elastic Compliance Matrix: (Units=1/GPa)
#
#
# Indices 1 2 3 4 5 6 
#
# 1 0.007260 -0.002018 -0.000672 -0.000661 -0.003931 0.004641
# 2 -0.002018 0.013519 -0.002324 -0.002517 -0.002026 0.003785
# 3 -0.000672 -0.002324 0.014740 -0.002331 -0.000350 -0.004362
# 4 -0.000661 -0.002517 -0.002331 0.026500 -0.002421 0.001146
# 5 -0.003931 -0.002026 -0.000350 -0.002421 0.037012 -0.013634
# 6 0.004641 0.003785 -0.004362 0.001146 -0.013634 0.032105
#
#
# Mechanical properties :
#
#
# Convention : Reuss Voigt Hill
#
# Bulk Modulus (GPa) = 39.23105 50.59525 44.91315
# Shear Modulus (GPa) = 33.40842 41.57520 37.49181
#
# Velocity S-wave (km/s) = 3.56985 3.98235 3.78173
# Velocity P-wave (km/s) = 5.65302 6.35966 6.01672
#
# Compressibility (1/GPa) = 0.02549002
#
# Stress axis : x y z
#
# Youngs Moduli (GPa) = 137.73274 73.96770 67.84377
#
# Poissons Ratio (x) = 0.14930 0.04559
# Poissons Ratio (y) = 0.27800 0.15770
# Poissons Ratio (z) = 0.09255 0.17193
#
# Static dielectric constant tensor:
#      x y z
#    x 2.124570 -0.068360 -0.036470 
#    y -0.068360 2.061250 -0.100290 
#    z -0.036470 -0.100290 2.234750 
# 
# From -- ./inp_files/445536.got.cif
#   From: 2010.05.17/outbox.cif.g08.bks.cpg/sg2_223_cif.got.tgz:445536.got - 2010.06.03 11:33:40.
