data_PCOD9107001
_publ_section_title
;
Structure prediction by ZEFSAII (Michael W. Deem and Ramdas Pophale) SiO2 
 PCOD9107001
Probable space group: P -1
;
_chemical_formula_sum "Si O2"
_cell_formula_units_Z 16
_cell_length_a 5.895063
_cell_length_b 4.995654
_cell_length_c 25.234731
_cell_angle_alpha 65.433955
_cell_angle_beta 88.974437
_cell_angle_gamma 82.061504
_cell_volume 668.765031
_symmetry_space_group_name_H-M "P -1"
_symmetry_group_IT_number 2
_symmetry_cell_setting 'triclinic'
loop_
_space_group_symop_operation_xyz
x,y,z
-x,-y,-z
loop_
_atom_site_type_symbol
_atom_site_label
_atom_site_fract_x
_atom_site_fract_y
_atom_site_fract_z
Si Si1 0.421407 0.108144 0.909646
Si Si2 0.719772 0.248980 0.516826
Si Si3 0.304538 0.239693 0.230974
Si Si4 0.288579 0.078448 0.802917
Si Si5 0.090707 0.634009 0.287160
Si Si6 0.088607 0.395002 0.423961
Si Si7 0.218715 0.745003 0.017503
Si Si8 0.009027 0.376879 0.119734
O O1 0.616018 0.185294 0.941370
O O2 0.205562 0.364958 0.896410
O O3 0.466780 0.116309 0.846168
O O4 0.346887 0.800156 0.957854
O O5 0.500000 0.500000 0.500000
O O6 0.859425 0.337420 0.560491
O O7 0.862207 0.295554 0.459262
O O8 0.714905 0.895836 0.549288
O O9 0.565484 0.135764 0.221670
O O10 0.278616 0.437397 0.266780
O O11 0.174450 0.396248 0.167543
O O12 0.175834 0.953825 0.265903
O O13 0.096074 0.924644 0.847234
O O14 0.143193 0.337359 0.748868
O O15 0.060796 0.498295 0.355562
O O16 0.136677 0.434389 0.059802
O O17 0.000000 0.000000 0.000000
#
# Coordination Sequence:
#
# PCOD9107001 Si02
#       8
#     2   2   2   2   2   2   2   2
#     4  10  20  40  62  91 125 164 217 275 347 414
#     4  10  21  41  69 101 135 184 220 271 330 381
#     4  11  25  41  67  94 133 178 226 273 339 396
#     4  11  25  40  67  92 126 178 220 276 341 409
#     4  11  25  44  63 101 136 177 225 279 329 394
#     4  10  22  40  66  99 140 174 226 275 323 390
#     4   9  20  36  64  90 124 162 215 279 345 414
#     4  10  21  40  60  90 125 166 217 278 338 410
#
# _framework density 23.924696000000001
#
# number of rings (size 3 to 8) (size 9 to 14) (size 15 to 20)
#    0.000    1.750    1.250    1.875    3.500    3.500 
#    0.000    8.750    0.000    0.000    0.000    0.000 
#    0.000    0.000    0.000    0.000    0.000    0.000 
#
# Total GULP energy -89543.096263 kJ/mol
# GULP energy per Si atom -5596.443516 kJ/mol
# Density = 2.387024 g / cm^3
# Si number density = 23.924696 Si / 1000 Ang^3
#
#
#
# Elastic Constant Matrix: (Units=GPa)
#
#
# Indices 1 2 3 4 5 6 
#
# 1 71.6223 13.0775 40.1109 -1.4006 -1.4331 -18.4077
# 2 13.0775 85.3930 43.7907 -0.9114 -5.4496 -14.5018
# 3 40.1109 43.7907 199.3983 9.5045 -8.0066 -8.9817
# 4 -1.4006 -0.9114 9.5045 30.2344 -3.2395 -2.9725
# 5 -1.4331 -5.4496 -8.0066 -3.2395 15.0882 1.9827
# 6 -18.4077 -14.5018 -8.9817 -2.9725 1.9827 38.2119
#
#
#
# Elastic Compliance Matrix: (Units=1/GPa)
#
#
# Indices 1 2 3 4 5 6 
#
# 1 0.018003 0.000433 -0.003494 0.002704 -0.000491 0.008252
# 2 0.000433 0.014241 -0.002961 0.002233 0.003447 0.004912
# 3 -0.003494 -0.002961 0.006476 -0.002251 0.001756 -0.001551
# 4 0.002704 0.002233 -0.002251 0.035105 0.006881 0.003994
# 5 -0.000491 0.003447 0.001756 0.006881 0.070097 -0.001618
# 6 0.008252 0.004912 -0.001551 0.003994 -0.001618 0.032039
#
#
# Mechanical properties :
#
#
# Convention : Reuss Voigt Hill
#
# Bulk Modulus (GPa) = 37.48546 61.15241 49.31894
# Shear Modulus (GPa) = 25.39395 34.00254 29.69825
#
# Velocity S-wave (km/s) = 3.26147 3.77401 3.52706
# Velocity P-wave (km/s) = 5.46672 6.67883 6.10294
#
# Compressibility (1/GPa) = 0.02667701
#
# Stress axis : x y z
#
# Youngs Moduli (GPa) = 55.54497 70.22054 154.41184
#
# Poissons Ratio (x) = -0.03043 0.53946
# Poissons Ratio (y) = -0.02407 0.45728
# Poissons Ratio (z) = 0.19405 0.20795
#
# Static dielectric constant tensor:
#      x y z
#    x 1.979680 0.041940 0.000120 
#    y 0.041940 1.929850 -0.023880 
#    z 0.000120 -0.023880 1.866900 
# 
# From -- ./inp_files/13741.got.cif
#   From: 2010.05.17/outbox.cif.g08.bks.cpg/sg2_7_cif.got.tgz:13741.got - 2010.06.03 11:33:40.
