data_PCOD9107045
_publ_section_title
;
Structure prediction by ZEFSAII (Michael W. Deem and Ramdas Pophale) SiO2 
 PCOD9107045
Probable space group: P -1
;
_chemical_formula_sum "Si O2"
_cell_formula_units_Z 15
_cell_length_a 8.058088
_cell_length_b 12.871161
_cell_length_c 13.798739
_cell_angle_alpha 31.179786
_cell_angle_beta 112.096427
_cell_angle_gamma 94.898093
_cell_volume 597.337993
_symmetry_space_group_name_H-M "P -1"
_symmetry_group_IT_number 2
_symmetry_cell_setting 'triclinic'
loop_
_space_group_symop_operation_xyz
x,y,z
-x,-y,-z
loop_
_atom_site_type_symbol
_atom_site_label
_atom_site_fract_x
_atom_site_fract_y
_atom_site_fract_z
Si Si1 0.246181 0.534030 0.315796
Si Si2 0.791645 0.364346 0.985858
Si Si3 0.170213 0.199570 0.314701
Si Si4 0.000000 0.000000 0.000000
Si Si5 0.891300 0.431825 0.252863
Si Si6 0.119381 0.712182 0.432252
Si Si7 0.327497 0.248158 0.731459
Si Si8 0.461504 0.738440 0.847916
O O1 0.302973 0.578067 0.187638
O O2 0.387036 0.318233 0.586658
O O3 0.053410 0.496398 0.280846
O O4 0.166316 0.756365 0.186150
O O5 0.752455 0.612569 0.820231
O O6 0.694082 0.229530 0.125495
O O7 0.037640 0.219702 0.174657
O O8 0.000748 0.283607 0.298984
O O9 0.352631 0.953239 0.581712
O O10 0.886398 0.088294 0.794166
O O11 0.849977 0.297256 0.437979
O O12 0.684095 0.665286 0.996405
O O13 0.272507 0.455917 0.628841
O O14 0.887353 0.754872 0.324278
O O15 0.500000 0.000000 0.000000
O O16 0.500000 0.500000 0.000000
#
# Coordination Sequence:
#
# PCOD9107045 Si02
#       8
#     2   2   2   1   2   2   2   2
#     4   9  21  41  67  93 131 173 217 270 337 383
#     4  10  22  44  66  97 135 176 221 273 327 394
#     4  10  23  44  67  95 138 175 217 278 326 388
#     4  10  20  40  62  94 124 164 218 268 326 388
#     4  10  22  43  63  95 131 176 218 266 331 395
#     4   9  20  36  59  89 120 161 207 260 322 378
#     4   9  18  39  64  83 119 165 209 262 319 383
#     4  12  25  41  67 102 133 178 225 264 331 401
#
# _framework density 25.111409999999999
#
# number of rings (size 3 to 8) (size 9 to 14) (size 15 to 20)
#    0.000    2.133    1.333    1.200    1.867    3.733 
#    4.800    1.333    0.000    0.000    0.000    0.000 
#    0.000    0.000    0.000    0.000    0.000    0.000 
#
# Total GULP energy -83631.351393 kJ/mol
# GULP energy per Si atom -5575.423426 kJ/mol
# Density = 2.505426 g / cm^3
# Si number density = 25.111410 Si / 1000 Ang^3
#
#
#
# Elastic Constant Matrix: (Units=GPa)
#
#
# Indices 1 2 3 4 5 6 
#
# 1 47.5297 20.3868 31.4717 7.5512 0.2753 -9.4080
# 2 20.3868 56.0793 35.9566 19.7206 -2.0916 -9.3757
# 3 31.4717 35.9566 249.3584 8.0339 1.8495 -13.2079
# 4 7.5512 19.7206 8.0339 30.5416 -5.6364 -12.4162
# 5 0.2753 -2.0916 1.8495 -5.6364 32.5237 8.0443
# 6 -9.4080 -9.3757 -13.2079 -12.4162 8.0443 16.8311
#
#
#
# Elastic Compliance Matrix: (Units=1/GPa)
#
#
# Indices 1 2 3 4 5 6 
#
# 1 0.027897 -0.008214 -0.001680 0.004037 -0.003521 0.014360
# 2 -0.008214 0.027758 -0.002611 -0.016596 -0.000030 -0.003406
# 3 -0.001680 -0.002611 0.004710 0.002000 -0.000864 0.003191
# 4 0.004037 -0.016596 0.002000 0.056756 -0.000448 0.036664
# 5 -0.003521 -0.000030 -0.000864 -0.000448 0.035708 -0.020060
# 6 0.014360 -0.003406 0.003191 0.036664 -0.020060 0.104682
#
#
# Mechanical properties :
#
#
# Convention : Reuss Voigt Hill
#
# Bulk Modulus (GPa) = 28.28594 58.73306 43.50950
# Shear Modulus (GPa) = 16.98915 33.65609 25.32262
#
# Velocity S-wave (km/s) = 2.60388 3.66494 3.17899
# Velocity P-wave (km/s) = 4.50876 6.43031 5.55328
#
# Compressibility (1/GPa) = 0.03535325
#
# Stress axis : x y z
#
# Youngs Moduli (GPa) = 35.84672 36.02602 212.32245
#
# Poissons Ratio (x) = 0.29593 0.35663
# Poissons Ratio (y) = 0.29446 0.55445
# Poissons Ratio (z) = 0.06021 0.09408
#
# Static dielectric constant tensor:
#      x y z
#    x 2.130630 -0.055580 -0.057830 
#    y -0.055580 2.038990 0.071900 
#    z -0.057830 0.071900 1.980580 
# 
# From -- ./inp_files/505085.got.cif
#   From: 2010.05.17/outbox.cif.g08.bks.cpg/sg2_253_cif.got.tgz:505085.got - 2010.06.03 11:33:40.
