data_PCOD9107643
_publ_section_title
;
Structure prediction by ZEFSAII (Michael W. Deem and Ramdas Pophale) SiO2 
 PCOD9107643
Probable space group: P -1
;
_chemical_formula_sum "Si O2"
_cell_formula_units_Z 16
_cell_length_a 6.536297
_cell_length_b 12.408629
_cell_length_c 8.090597
_cell_angle_alpha 101.392881
_cell_angle_beta 75.503198
_cell_angle_gamma 98.879090
_cell_volume 618.973357
_symmetry_space_group_name_H-M "P -1"
_symmetry_group_IT_number 2
_symmetry_cell_setting 'triclinic'
loop_
_space_group_symop_operation_xyz
x,y,z
-x,-y,-z
loop_
_atom_site_type_symbol
_atom_site_label
_atom_site_fract_x
_atom_site_fract_y
_atom_site_fract_z
Si Si1 0.637528 0.693013 0.605173
Si Si2 0.191775 0.880577 0.208257
Si Si3 0.612983 0.829992 0.979504
Si Si4 0.684026 0.599883 0.029690
Si Si5 0.183771 0.490716 0.326519
Si Si6 0.798775 0.975322 0.262120
Si Si7 0.976778 0.666548 0.267699
Si Si8 0.417603 0.841828 0.493972
O O1 0.629344 0.568183 0.640462
O O2 0.855499 0.706554 0.462695
O O3 0.455616 0.723819 0.526352
O O4 0.647670 0.782481 0.777282
O O5 0.394792 0.885334 0.053825
O O6 0.275077 0.855848 0.366758
O O7 0.042582 0.977498 0.266806
O O8 0.044009 0.767940 0.164526
O O9 0.596189 0.717839 0.061217
O O10 0.777251 0.915994 0.070591
O O11 0.801063 0.589259 0.176039
O O12 0.500000 0.500000 0.000000
O O13 0.856976 0.592928 0.845694
O O14 0.000000 0.500000 0.500000
O O15 0.175770 0.606210 0.268274
O O16 0.647749 0.900569 0.402459
O O17 0.692851 0.088349 0.324838
#
# Coordination Sequence:
#
# PCOD9107643 Si02
#       8
#     2   2   2   2   2   2   2   2
#     4  10  21  42  57  87 132 156 197 252 310 357
#     4  11  20  39  64  92 117 158 210 249 295 360
#     4  10  22  39  60  91 126 161 196 252 309 352
#     4  11  21  39  61  88 122 162 207 249 294 357
#     4   9  21  37  59  88 120 159 198 245 306 355
#     4  10  20  40  65  90 121 156 211 252 295 360
#     4  11  20  40  64  88 120 163 208 247 296 362
#     4  10  21  38  65  92 118 163 201 254 302 357
#
# _framework density 25.849256
#
# number of rings (size 3 to 8) (size 9 to 14) (size 15 to 20)
#    0.000    1.750    2.500    2.250    0.000    0.500 
#    2.250   14.375    0.000    0.000    0.000    0.000 
#    0.000    0.000    0.000    0.000    0.000    0.000 
#
# Total GULP energy -89371.483707 kJ/mol
# GULP energy per Si atom -5585.717732 kJ/mol
# Density = 2.579042 g / cm^3
# Si number density = 25.849256 Si / 1000 Ang^3
#
#
#
# Elastic Constant Matrix: (Units=GPa)
#
#
# Indices 1 2 3 4 5 6 
#
# 1 112.3336 58.9548 57.2613 7.5374 2.7211 -33.4680
# 2 58.9548 121.0118 15.7962 -1.3469 -2.3434 -43.3795
# 3 57.2613 15.7962 161.2727 12.8924 2.8566 -21.8489
# 4 7.5374 -1.3469 12.8924 30.5474 -5.0410 -2.9208
# 5 2.7211 -2.3434 2.8566 -5.0410 32.9917 6.3990
# 6 -33.4680 -43.3795 -21.8489 -2.9208 6.3990 50.7636
#
#
#
# Elastic Compliance Matrix: (Units=1/GPa)
#
#
# Indices 1 2 3 4 5 6 
#
# 1 0.015291 -0.005690 -0.004158 -0.002314 -0.002356 0.003593
# 2 -0.005690 0.014133 0.001712 0.002163 -0.000130 0.009204
# 3 -0.004158 0.001712 0.007998 -0.002230 -0.000988 0.002160
# 4 -0.002314 0.002163 -0.002230 0.035366 0.005812 0.000665
# 5 -0.002356 -0.000130 -0.000988 0.005812 0.032607 -0.005865
# 6 0.003593 0.009204 0.002160 0.000665 -0.005865 0.031640
#
#
# Mechanical properties :
#
#
# Convention : Reuss Voigt Hill
#
# Bulk Modulus (GPa) = 47.28263 73.18252 60.23258
# Shear Modulus (GPa) = 31.18045 40.36759 35.77402
#
# Velocity S-wave (km/s) = 3.47687 3.95606 3.72418
# Velocity P-wave (km/s) = 5.86937 7.01712 6.46875
#
# Compressibility (1/GPa) = 0.02114942
#
# Stress axis : x y z
#
# Youngs Moduli (GPa) = 65.39924 70.75609 125.03339
#
# Poissons Ratio (x) = 0.40261 0.51993
# Poissons Ratio (y) = 0.37212 -0.21409
# Poissons Ratio (z) = 0.27195 -0.12115
#
# Static dielectric constant tensor:
#      x y z
#    x 2.070210 0.032300 0.021670 
#    y 0.032300 2.088210 -0.023330 
#    z 0.021670 -0.023330 2.061170 
# 
# From -- ./inp_files/135636.got.cif
#   From: 2010.05.17/outbox.cif.g08.bks.cpg/sg2_68_cif.got.tgz:135636.got - 2010.06.03 11:33:40.
