data_PCOD9107184
_publ_section_title
;
Structure prediction by ZEFSAII (Michael W. Deem and Ramdas Pophale) SiO2 
 PCOD9107184
Probable space group: P -1
;
_chemical_formula_sum "Si O2"
_cell_formula_units_Z 16
_cell_length_a 15.788962
_cell_length_b 8.805586
_cell_length_c 15.109678
_cell_angle_alpha 96.067036
_cell_angle_beta 153.512782
_cell_angle_gamma 67.489289
_cell_volume 708.035909
_symmetry_space_group_name_H-M "P -1"
_symmetry_group_IT_number 2
_symmetry_cell_setting 'triclinic'
loop_
_space_group_symop_operation_xyz
x,y,z
-x,-y,-z
loop_
_atom_site_type_symbol
_atom_site_label
_atom_site_fract_x
_atom_site_fract_y
_atom_site_fract_z
Si Si1 0.361082 0.496329 0.453485
Si Si2 0.433587 0.154622 0.177106
Si Si3 0.119904 0.844476 0.023539
Si Si4 0.020123 0.102871 0.780175
Si Si5 0.603379 0.263520 0.984831
Si Si6 0.649924 0.596540 0.055287
Si Si7 0.030567 0.539657 0.903292
Si Si8 0.192487 0.301416 0.491721
O O1 0.500000 0.500000 0.500000
O O2 0.583367 0.296064 0.699064
O O3 0.233655 0.678711 0.415881
O O4 0.151063 0.487275 0.221611
O O5 0.688927 0.930385 0.417832
O O6 0.438897 0.244983 0.096070
O O7 0.220479 0.135559 0.974530
O O8 0.314769 0.329812 0.149623
O O9 0.035880 0.713122 0.944616
O O10 0.000000 0.000000 0.000000
O O11 0.046436 0.962173 0.871577
O O12 0.122987 0.958327 0.781922
O O13 0.492502 0.295942 0.980587
O O14 0.411806 0.289135 0.737243
O O15 0.608563 0.441038 0.982193
O O16 0.949953 0.448580 0.335743
O O17 0.914922 0.599238 0.698732
#
# Coordination Sequence:
#
# PCOD9107184 Si02
#       8
#     2   2   2   2   2   2   2   2
#     4  11  23  44  63  93 123 160 210 262 321 374
#     4   9  20  39  63  92 127 161 209 255 305 374
#     4  12  25  44  65  90 126 162 211 266 318 377
#     4  10  21  41  62  91 125 166 205 259 315 372
#     4  10  21  39  65  91 133 164 207 259 307 375
#     4  10  21  39  62  98 127 167 208 254 308 369
#     4  10  24  41  65  92 125 167 209 259 318 377
#     4  10  20  40  63  90 127 168 206 250 315 369
#
# _framework density 22.597722999999998
#
# number of rings (size 3 to 8) (size 9 to 14) (size 15 to 20)
#    0.000    1.750    1.250    3.375    0.000    5.000 
#    0.000   12.500    0.000    0.000    0.000    0.000 
#    0.000    0.000    0.000    0.000    0.000    0.000 
#
# Total GULP energy -89377.645132 kJ/mol
# GULP energy per Si atom -5586.102821 kJ/mol
# Density = 2.254629 g / cm^3
# Si number density = 22.597723 Si / 1000 Ang^3
#
#
#
# Elastic Constant Matrix: (Units=GPa)
#
#
# Indices 1 2 3 4 5 6 
#
# 1 108.9096 55.2410 12.1308 -10.7792 29.8807 0.6871
# 2 55.2410 120.4349 18.2589 -8.9458 14.2791 -12.6069
# 3 12.1308 18.2589 59.9176 -13.1848 20.1839 -8.8651
# 4 -10.7792 -8.9458 -13.1848 55.8140 -2.5743 12.2245
# 5 29.8807 14.2791 20.1839 -2.5743 29.8147 -8.5255
# 6 0.6871 -12.6069 -8.8651 12.2245 -8.5255 44.9309
#
#
#
# Elastic Compliance Matrix: (Units=1/GPa)
#
#
# Indices 1 2 3 4 5 6 
#
# 1 0.017931 -0.007023 0.005018 0.003944 -0.019381 -0.006005
# 2 -0.007023 0.011821 -0.003387 -0.000897 0.004706 0.003893
# 3 0.005018 -0.003387 0.024414 0.005607 -0.019882 -0.001508
# 4 0.003944 -0.000897 0.005607 0.020897 -0.007310 -0.006278
# 5 -0.019381 0.004706 -0.019882 -0.007310 0.067088 0.012413
# 6 -0.006005 0.003893 -0.001508 -0.006278 0.012413 0.027206
#
#
# Mechanical properties :
#
#
# Convention : Reuss Voigt Hill
#
# Bulk Modulus (GPa) = 23.05157 51.16927 37.11042
# Shear Modulus (GPa) = 25.69351 39.68735 32.69043
#
# Velocity S-wave (km/s) = 3.37559 4.19532 3.80758
# Velocity P-wave (km/s) = 5.04141 6.79413 5.98231
#
# Compressibility (1/GPa) = 0.04338100
#
# Stress axis : x y z
#
# Youngs Moduli (GPa) = 55.77000 84.59531 40.96046
#
# Poissons Ratio (x) = 0.59412 -0.20553
# Poissons Ratio (y) = 0.39168 0.13874
# Poissons Ratio (z) = -0.27985 0.28653
#
# Static dielectric constant tensor:
#      x y z
#    x 1.898080 -0.012310 0.033220 
#    y -0.012310 1.861030 0.004290 
#    z 0.033220 0.004290 1.892950 
# 
# From -- ./inp_files/529817.got.cif
#   From: 2010.05.17/outbox.cif.g08.bks.cpg/sg2_265_cif.got.tgz:529817.got - 2010.06.03 11:33:40.
