data_PCOD9107478
_publ_section_title
;
Structure prediction by ZEFSAII (Michael W. Deem and Ramdas Pophale) SiO2 
 PCOD9107478
Probable space group: P -1
;
_chemical_formula_sum "Si O2"
_cell_formula_units_Z 16
_cell_length_a 9.460075
_cell_length_b 8.974205
_cell_length_c 19.507396
_cell_angle_alpha 60.535758
_cell_angle_beta 116.880517
_cell_angle_gamma 148.893280
_cell_volume 743.173383
_symmetry_space_group_name_H-M "P -1"
_symmetry_group_IT_number 2
_symmetry_cell_setting 'triclinic'
loop_
_space_group_symop_operation_xyz
x,y,z
-x,-y,-z
loop_
_atom_site_type_symbol
_atom_site_label
_atom_site_fract_x
_atom_site_fract_y
_atom_site_fract_z
Si Si1 0.925127 0.576708 0.821159
Si Si2 0.862691 0.475635 0.234907
Si Si3 0.440826 0.464667 0.819648
Si Si4 0.581048 0.924338 0.087156
Si Si5 0.292661 0.161927 0.523854
Si Si6 0.827344 0.176280 0.557418
Si Si7 0.404870 0.885180 0.346862
Si Si8 0.966185 0.986049 0.725906
O O1 0.054658 0.544626 0.811221
O O2 0.628190 0.257956 0.853411
O O3 0.916434 0.750862 0.739401
O O4 0.114520 0.778946 0.883523
O O5 0.771551 0.591456 0.179502
O O6 0.097553 0.629145 0.307045
O O7 0.583279 0.159229 0.275874
O O8 0.466290 0.308468 0.900773
O O9 0.729154 0.787407 0.778530
O O10 0.267473 0.255264 0.762486
O O11 0.500000 0.000000 0.000000
O O12 0.500000 0.500000 0.500000
O O13 0.429370 0.146816 0.610025
O O14 0.275283 0.028511 0.482213
O O15 0.000000 0.000000 0.500000
O O16 0.608497 0.053558 0.592431
O O17 0.000000 0.500000 0.500000
O O18 0.968474 0.150121 0.639259
#
# Coordination Sequence:
#
# PCOD9107478 Si02
#       8
#     2   2   2   2   2   2   2   2
#     4  10  23  39  65  98 130 170 212 273 327 381
#     4  12  22  42  64  96 130 163 223 272 328 389
#     4  10  20  40  64  94 126 166 215 263 317 399
#     4  10  21  42  67  97 134 174 214 256 322 401
#     4  12  29  47  63  95 131 169 228 289 354 402
#     4  12  25  46  70  94 130 178 232 282 347 412
#     4  12  26  43  65  90 125 179 216 278 338 399
#     4  10  22  39  63  90 121 169 221 263 326 396
#
# _framework density 21.529297
#
# number of rings (size 3 to 8) (size 9 to 14) (size 15 to 20)
#    0.000    1.000    2.500    3.750    3.500    3.000 
#    0.000    1.250    0.000    0.000    0.000    0.000 
#    0.000    0.000    0.000    0.000    0.000    0.000 
#
# Total GULP energy -89153.331231 kJ/mol
# GULP energy per Si atom -5572.083202 kJ/mol
# Density = 2.148030 g / cm^3
# Si number density = 21.529297 Si / 1000 Ang^3
#
#
#
# Elastic Constant Matrix: (Units=GPa)
#
#
# Indices 1 2 3 4 5 6 
#
# 1 193.5142 86.3066 43.7799 -2.7312 34.7445 26.6252
# 2 86.3066 195.7897 26.6870 5.4606 22.3411 48.0744
# 3 43.7799 26.6870 87.0198 -13.8375 46.4535 -6.7289
# 4 -2.7312 5.4606 -13.8375 28.0552 -1.4539 12.4515
# 5 34.7445 22.3411 46.4535 -1.4539 41.5663 4.8972
# 6 26.6252 48.0744 -6.7289 12.4515 4.8972 56.4393
#
#
#
# Elastic Compliance Matrix: (Units=1/GPa)
#
#
# Indices 1 2 3 4 5 6 
#
# 1 0.007292 -0.002334 -0.001046 0.001148 -0.003451 -0.001530
# 2 -0.002334 0.007759 -0.002124 -0.000170 0.000832 -0.005796
# 3 -0.001046 -0.002124 0.035633 0.012781 -0.038189 0.007045
# 4 0.001148 -0.000170 0.012781 0.044837 -0.012681 -0.007665
# 5 -0.003451 0.000832 -0.038189 -0.012681 0.069540 -0.006870
# 6 -0.001530 -0.005796 0.007045 -0.007665 -0.006870 0.026504
#
#
# Mechanical properties :
#
#
# Convention : Reuss Voigt Hill
#
# Bulk Modulus (GPa) = 25.20553 87.76343 56.48448
# Shear Modulus (GPa) = 23.16962 46.51553 34.84257
#
# Velocity S-wave (km/s) = 3.28409 4.65323 4.02727
# Velocity P-wave (km/s) = 5.11012 8.35005 6.92230
#
# Compressibility (1/GPa) = 0.03967384
#
# Stress axis : x y z
#
# Youngs Moduli (GPa) = 137.14393 128.88347 28.06377
#
# Poissons Ratio (x) = 0.30083 0.02936
# Poissons Ratio (y) = 0.32012 0.05962
# Poissons Ratio (z) = 0.14349 0.27381
#
# Static dielectric constant tensor:
#      x y z
#    x 1.857620 -0.056830 0.083550 
#    y -0.056830 2.018600 -0.031790 
#    z 0.083550 -0.031790 1.854550 
# 
# From -- ./inp_files/587915.got.cif
#   From: 2010.05.17/outbox.cif.g08.bks.cpg/sg2_294_cif.got.tgz:587915.got - 2010.06.03 11:33:40.
