data_PCOD9107002
_publ_section_title
;
Structure prediction by ZEFSAII (Michael W. Deem and Ramdas Pophale) SiO2 
 PCOD9107002
Probable space group: P -1
;
_chemical_formula_sum "Si O2"
_cell_formula_units_Z 16
_cell_length_a 17.342382
_cell_length_b 5.501394
_cell_length_c 11.603293
_cell_angle_alpha 120.579611
_cell_angle_beta 56.006873
_cell_angle_gamma 100.515433
_cell_volume 782.100677
_symmetry_space_group_name_H-M "P -1"
_symmetry_group_IT_number 2
_symmetry_cell_setting 'triclinic'
loop_
_space_group_symop_operation_xyz
x,y,z
-x,-y,-z
loop_
_atom_site_type_symbol
_atom_site_label
_atom_site_fract_x
_atom_site_fract_y
_atom_site_fract_z
Si Si1 0.091720 0.120565 0.404704
Si Si2 0.130520 0.700497 0.580903
Si Si3 0.591049 0.824118 0.533903
Si Si4 0.443412 0.741169 0.022876
Si Si5 0.524137 0.569783 0.306519
Si Si6 0.064652 0.698454 0.867256
Si Si7 0.732146 0.054062 0.619401
Si Si8 0.044728 0.792477 0.161262
O O1 0.082973 0.460712 0.496359
O O2 0.177680 0.051024 0.404220
O O3 0.108709 0.954684 0.229372
O O4 0.000000 0.000000 0.500000
O O5 0.145194 0.664503 0.697038
O O6 0.227972 0.715322 0.439327
O O7 0.052370 0.984049 0.713793
O O8 0.590293 0.670210 0.374370
O O9 0.535655 0.646051 0.627900
O O10 0.538840 0.146881 0.626822
O O11 0.690235 0.848865 0.514880
O O12 0.423560 0.592073 0.883615
O O13 0.500000 0.500000 0.000000
O O14 0.351682 0.851644 0.199752
O O15 0.500000 0.000000 0.000000
O O16 0.995597 0.484412 0.825423
O O17 0.091033 0.670397 0.972685
O O18 0.000000 0.000000 0.000000
#
# Coordination Sequence:
#
# PCOD9107002 Si02
#       8
#     2   2   2   2   2   2   2   2
#     4  12  24  41  63  94 136 179 230 279 335 405
#     4  11  22  39  63  94 131 175 232 280 336 399
#     4  10  22  40  72  97 131 174 223 281 338 422
#     4  12  24  44  71 101 140 177 222 288 354 413
#     4  10  20  44  69  99 129 175 221 273 355 409
#     4   9  19  36  65  87 121 170 226 273 334 394
#     4  12  26  38  66 102 130 178 228 281 341 410
#     4  10  20  40  62  91 125 181 223 272 341 392
#
# _framework density 20.457726999999998
#
# number of rings (size 3 to 8) (size 9 to 14) (size 15 to 20)
#    0.000    1.250    5.000    0.375    3.500    0.000 
#    0.000    6.250    0.000    0.000    0.000    0.000 
#    0.000    0.000    0.000    0.000    0.000    0.000 
#
# Total GULP energy -89122.488129 kJ/mol
# GULP energy per Si atom -5570.155508 kJ/mol
# Density = 2.041116 g / cm^3
# Si number density = 20.457727 Si / 1000 Ang^3
#
#
#
# Elastic Constant Matrix: (Units=GPa)
#
#
# Indices 1 2 3 4 5 6 
#
# 1 117.5262 28.6711 49.1604 -2.9275 14.7314 16.7312
# 2 28.6711 120.5056 56.4189 -1.2534 -0.2711 14.4417
# 3 49.1604 56.4189 125.3500 -16.0614 29.3786 15.4661
# 4 -2.9275 -1.2534 -16.0614 41.3020 -0.2439 5.8803
# 5 14.7314 -0.2711 29.3786 -0.2439 39.9713 5.2783
# 6 16.7312 14.4417 15.4661 5.8803 5.2783 31.0671
#
#
#
# Elastic Compliance Matrix: (Units=1/GPa)
#
#
# Indices 1 2 3 4 5 6 
#
# 1 0.010654 -0.000599 -0.003196 0.000012 -0.001095 -0.003684
# 2 -0.000599 0.011585 -0.006063 -0.001649 0.005088 -0.002597
# 3 -0.003196 -0.006063 0.015304 0.005844 -0.009742 -0.002530
# 4 0.000012 -0.001649 0.005844 0.027381 -0.003248 -0.006780
# 5 -0.001095 0.005088 -0.009742 -0.003248 0.032846 -0.001892
# 6 -0.003684 -0.002597 -0.002530 -0.006780 -0.001892 0.038244
#
#
# Mechanical properties :
#
#
# Convention : Reuss Voigt Hill
#
# Bulk Modulus (GPa) = 56.09402 70.20917 63.15160
# Shear Modulus (GPa) = 30.92688 37.74351 34.33520
#
# Velocity S-wave (km/s) = 3.89234 4.29995 4.10121
# Velocity P-wave (km/s) = 6.90503 7.68417 7.30499
#
# Compressibility (1/GPa) = 0.01782721
#
# Stress axis : x y z
#
# Youngs Moduli (GPa) = 93.86346 86.31933 65.34325
#
# Poissons Ratio (x) = 0.05174 0.20881
# Poissons Ratio (y) = 0.05627 0.39615
# Poissons Ratio (z) = 0.29995 0.52332
#
# Static dielectric constant tensor:
#      x y z
#    x 1.767310 -0.093880 0.030960 
#    y -0.093880 1.882230 -0.016970 
#    z 0.030960 -0.016970 1.751280 
# 
# From -- ./inp_files/459645.got.cif
#   From: 2010.05.17/outbox.cif.g08.bks.cpg/sg2_230_cif.got.tgz:459645.got - 2010.06.03 11:33:40.
