data_PCOD9107369
_publ_section_title
;
Structure prediction by ZEFSAII (Michael W. Deem and Ramdas Pophale) SiO2 
 PCOD9107369
Probable space group: P -1
;
_chemical_formula_sum "Si O2"
_cell_formula_units_Z 16
_cell_length_a 8.554895
_cell_length_b 10.076086
_cell_length_c 18.460586
_cell_angle_alpha 35.743904
_cell_angle_beta 60.735034
_cell_angle_gamma 85.569323
_cell_volume 631.744388
_symmetry_space_group_name_H-M "P -1"
_symmetry_group_IT_number 2
_symmetry_cell_setting 'triclinic'
loop_
_space_group_symop_operation_xyz
x,y,z
-x,-y,-z
loop_
_atom_site_type_symbol
_atom_site_label
_atom_site_fract_x
_atom_site_fract_y
_atom_site_fract_z
Si Si1 0.069039 0.145529 0.041095
Si Si2 0.532577 0.753484 0.161509
Si Si3 0.034704 0.837471 0.783072
Si Si4 0.455670 0.286100 0.668430
Si Si5 0.928423 0.117129 0.401887
Si Si6 0.387091 0.676188 0.075436
Si Si7 0.444371 0.767049 0.865833
Si Si8 0.564569 0.187621 0.308325
O O1 0.030178 0.081325 0.165054
O O2 0.202051 0.059174 0.005543
O O3 0.244727 0.495906 0.840304
O O4 0.816351 0.968396 0.146890
O O5 0.464352 0.577547 0.329732
O O6 0.413305 0.580314 0.190667
O O7 0.497795 0.989493 0.083255
O O8 0.029089 0.956650 0.654457
O O9 0.283219 0.913280 0.700681
O O10 0.831299 0.486249 0.975032
O O11 0.500000 0.500000 0.500000
O O12 0.532843 0.094934 0.713226
O O13 0.116081 0.466217 0.214582
O O14 0.672324 0.017009 0.504230
O O15 0.000000 0.000000 0.500000
O O16 0.489232 0.682765 0.970742
O O17 0.529986 0.779310 0.760763
#
# Coordination Sequence:
#
# PCOD9107369 Si02
#       8
#     2   2   2   2   2   2   2   2
#     4  11  21  38  63  91 119 152 208 247 298 364
#     4  10  22  41  62  86 118 172 203 238 298 360
#     4  10  20  40  64  88 123 159 194 256 311 358
#     4  11  22  37  58  89 125 152 198 253 292 349
#     4  11  24  38  60  96 124 154 203 254 303 362
#     4   9  21  42  62  82 126 163 201 243 295 364
#     4   9  18  39  63  85 116 157 200 239 306 359
#     4  11  20  38  66  89 122 157 198 251 314 363
#
# _framework density 25.326699999999999
#
# number of rings (size 3 to 8) (size 9 to 14) (size 15 to 20)
#    0.000    1.750    2.500    2.250    0.000    4.000 
#    2.250    3.750    0.000    5.250    0.000    0.000 
#    0.000    0.000    0.000    0.000    0.000    0.000 
#
# Total GULP energy -89264.289880 kJ/mol
# GULP energy per Si atom -5579.018118 kJ/mol
# Density = 2.526905 g / cm^3
# Si number density = 25.326700 Si / 1000 Ang^3
#
#
#
# Elastic Constant Matrix: (Units=GPa)
#
#
# Indices 1 2 3 4 5 6 
#
# 1 55.0162 20.6245 28.4942 8.1850 18.1152 20.4825
# 2 20.6245 147.4372 40.5785 26.6689 20.6003 34.8194
# 3 28.4942 40.5785 94.6430 19.4751 6.9121 21.0386
# 4 8.1850 26.6689 19.4751 49.0865 16.5003 7.5181
# 5 18.1152 20.6003 6.9121 16.5003 50.0289 11.2779
# 6 20.4825 34.8194 21.0386 7.5181 11.2779 36.2932
#
#
#
# Elastic Compliance Matrix: (Units=1/GPa)
#
#
# Indices 1 2 3 4 5 6 
#
# 1 0.027184 0.001250 -0.006008 0.001380 -0.007500 -0.011013
# 2 0.001250 0.009772 -0.002112 -0.003004 -0.001439 -0.007788
# 3 -0.006008 -0.002112 0.014622 -0.004220 0.003129 -0.003157
# 4 0.001380 -0.003004 -0.004220 0.025738 -0.007519 0.001554
# 5 -0.007500 -0.001439 0.003129 -0.007519 0.025955 -0.002708
# 6 -0.011013 -0.007788 -0.003157 0.001554 -0.002708 0.043590
#
#
# Mechanical properties :
#
#
# Convention : Reuss Voigt Hill
#
# Bulk Modulus (GPa) = 26.42807 52.94343 39.68575
# Shear Modulus (GPa) = 28.86594 40.90834 34.88714
#
# Velocity S-wave (km/s) = 3.37967 4.02335 3.71547
# Velocity P-wave (km/s) = 5.06824 6.52171 5.84037
#
# Compressibility (1/GPa) = 0.03783855
#
# Stress axis : x y z
#
# Youngs Moduli (GPa) = 36.78598 102.32889 68.38894
#
# Poissons Ratio (x) = -0.12794 0.41091
# Poissons Ratio (y) = -0.04599 0.14445
# Poissons Ratio (z) = 0.22102 0.21613
#
# Static dielectric constant tensor:
#      x y z
#    x 2.124890 0.006960 0.063220 
#    y 0.006960 2.008980 0.028670 
#    z 0.063220 0.028670 2.034630 
# 
# From -- ./inp_files/558948.got.cif
#   From: 2010.05.17/outbox.cif.g08.bks.cpg/sg2_280_cif.got.tgz:558948.got - 2010.06.03 11:33:40.
