data_PCOD9107586
_publ_section_title
;
Structure prediction by ZEFSAII (Michael W. Deem and Ramdas Pophale) SiO2 
 PCOD9107586
Probable space group: P -1
;
_chemical_formula_sum "Si O2"
_cell_formula_units_Z 14
_cell_length_a 11.680516
_cell_length_b 11.449024
_cell_length_c 9.478262
_cell_angle_alpha 128.555505
_cell_angle_beta 140.262660
_cell_angle_gamma 64.362282
_cell_volume 630.894364
_symmetry_space_group_name_H-M "P -1"
_symmetry_group_IT_number 2
_symmetry_cell_setting 'triclinic'
loop_
_space_group_symop_operation_xyz
x,y,z
-x,-y,-z
loop_
_atom_site_type_symbol
_atom_site_label
_atom_site_fract_x
_atom_site_fract_y
_atom_site_fract_z
Si Si1 0.609329 0.978670 0.922339
Si Si2 0.540406 0.459170 0.168001
Si Si3 0.770575 0.982300 0.371437
Si Si4 0.375855 0.365754 0.354415
Si Si5 0.074863 0.626435 0.556345
Si Si6 0.169083 0.342460 0.888288
Si Si7 0.969645 0.039028 0.160496
O O1 0.563105 0.797369 0.750922
O O2 0.426194 0.050083 0.769227
O O3 0.703303 0.048224 0.208206
O O4 0.762511 0.995171 0.965156
O O5 0.613866 0.599093 0.443929
O O6 0.710048 0.360676 0.245576
O O7 0.500000 0.500000 0.000000
O O8 0.356292 0.391203 0.018012
O O9 0.857716 0.836790 0.287800
O O10 0.905813 0.040043 0.667228
O O11 0.500000 0.500000 0.500000
O O12 0.192129 0.373790 0.098920
O O13 0.003606 0.781944 0.656078
O O14 0.000000 0.500000 0.500000
O O15 0.987223 0.589786 0.293390
O O16 0.000000 0.000000 0.000000
#
# Coordination Sequence:
#
# PCOD9107586 Si02
#       7
#     2   2   2   2   2   2   2
#     4  10  20  40  65  86 121 158 201 248 302 355
#     4  11  21  35  59  84 117 158 193 239 301 350
#     4   9  20  39  64  86 115 159 199 245 303 358
#     4   9  21  38  60  92 119 152 202 251 294 354
#     4  11  23  39  60  85 118 162 201 239 299 352
#     4   9  19  40  58  85 118 148 200 251 289 354
#     4  11  25  39  60  92 125 156 203 248 299 362
#
# _framework density 22.190721
#
# number of rings (size 3 to 8) (size 9 to 14) (size 15 to 20)
#    0.000    2.000    1.429    1.286    2.000    3.429 
#    0.000    0.000    0.000    0.000    0.000    0.000 
#    0.000    0.000    0.000    0.000    0.000    0.000 
#
# Total GULP energy -78036.984003 kJ/mol
# GULP energy per Si atom -5574.070286 kJ/mol
# Density = 2.214021 g / cm^3
# Si number density = 22.190721 Si / 1000 Ang^3
#
#
#
# Elastic Constant Matrix: (Units=GPa)
#
#
# Indices 1 2 3 4 5 6 
#
# 1 105.0715 9.2698 40.2882 -9.6909 -13.3917 -10.7579
# 2 9.2698 64.1464 31.9206 -9.4611 -7.0339 -0.4351
# 3 40.2882 31.9206 119.0278 -23.9937 -36.3853 -5.6286
# 4 -9.6909 -9.4611 -23.9937 41.4172 -0.9083 8.8021
# 5 -13.3917 -7.0339 -36.3853 -0.9083 49.8504 -0.7953
# 6 -10.7579 -0.4351 -5.6286 8.8021 -0.7953 25.0280
#
#
#
# Elastic Compliance Matrix: (Units=1/GPa)
#
#
# Indices 1 2 3 4 5 6 
#
# 1 0.011346 0.000193 -0.003588 -0.000257 0.000519 0.004180
# 2 0.000193 0.018155 -0.004997 0.001552 -0.001026 -0.001304
# 3 -0.003588 -0.004997 0.015339 0.007203 0.009652 -0.000406
# 4 -0.000257 0.001552 0.007203 0.030666 0.005822 -0.009063
# 5 0.000519 -0.001026 0.009652 0.005822 0.027224 0.001193
# 6 0.004180 -0.001304 -0.000406 -0.009063 0.001193 0.044863
#
#
# Mechanical properties :
#
#
# Convention : Reuss Voigt Hill
#
# Bulk Modulus (GPa) = 35.63989 50.13364 42.88677
# Shear Modulus (GPa) = 28.78032 37.04359 32.91195
#
# Velocity S-wave (km/s) = 3.60523 4.09017 3.85533
# Velocity P-wave (km/s) = 5.78151 6.70427 6.25991
#
# Compressibility (1/GPa) = 0.02805845
#
# Stress axis : x y z
#
# Youngs Moduli (GPa) = 88.13345 55.07981 65.19342
#
# Poissons Ratio (x) = -0.01063 0.23390
# Poissons Ratio (y) = -0.01702 0.32574
# Poissons Ratio (z) = 0.31620 0.27521
#
# Static dielectric constant tensor:
#      x y z
#    x 1.851790 0.009400 0.028710 
#    y 0.009400 1.865450 0.009730 
#    z 0.028710 0.009730 1.891130 
# 
# From -- ./inp_files/186572.got.cif
#   From: 2010.05.17/outbox.cif.g08.bks.cpg/sg2_94_cif.got.tgz:186572.got - 2010.06.03 11:33:40.
