data_PCOD9107631
_publ_section_title
;
Structure prediction by ZEFSAII (Michael W. Deem and Ramdas Pophale) SiO2 
 PCOD9107631
Probable space group: P -1
;
_chemical_formula_sum "Si O2"
_cell_formula_units_Z 16
_cell_length_a 14.862136
_cell_length_b 12.073799
_cell_length_c 8.584861
_cell_angle_alpha 87.239798
_cell_angle_beta 103.533336
_cell_angle_gamma 148.980186
_cell_volume 735.257412
_symmetry_space_group_name_H-M "P -1"
_symmetry_group_IT_number 2
_symmetry_cell_setting 'triclinic'
loop_
_space_group_symop_operation_xyz
x,y,z
-x,-y,-z
loop_
_atom_site_type_symbol
_atom_site_label
_atom_site_fract_x
_atom_site_fract_y
_atom_site_fract_z
Si Si1 0.603175 0.821310 0.788393
Si Si2 0.436991 0.483361 0.277669
Si Si3 0.024321 0.644315 0.579118
Si Si4 0.169414 0.140635 0.446189
Si Si5 0.616806 0.221332 0.454684
Si Si6 0.618842 0.375069 0.972896
Si Si7 0.025606 0.782141 0.251185
Si Si8 0.601933 0.044577 0.178406
O O1 0.576549 0.661652 0.761876
O O2 0.487033 0.771958 0.618258
O O3 0.815789 0.081005 0.820475
O O4 0.526358 0.770545 0.931146
O O5 0.291988 0.350789 0.371928
O O6 0.655470 0.732253 0.397281
O O7 0.378051 0.502085 0.114176
O O8 0.054781 0.754327 0.433311
O O9 0.199095 0.812686 0.754517
O O10 0.000000 0.500000 0.500000
O O11 0.824009 0.460180 0.588607
O O12 0.065506 0.951045 0.297399
O O13 0.000000 0.000000 0.500000
O O14 0.638237 0.184034 0.298961
O O15 0.500000 0.000000 0.500000
O O16 0.544842 0.207810 0.828987
O O17 0.819611 0.552150 0.114070
O O18 0.500000 0.000000 0.000000
#
# Coordination Sequence:
#
# PCOD9107631 Si02
#       8
#     2   2   2   2   2   2   2   2
#     4  11  22  41  66  93 134 170 223 267 337 394
#     4  10  24  40  65  96 131 172 219 283 323 392
#     4  10  20  40  65  89 126 168 214 268 325 383
#     4  10  22  41  64  91 127 170 224 268 325 390
#     4  11  23  42  69  96 128 178 222 272 334 397
#     4  12  23  43  64  95 138 172 218 277 337 386
#     4  11  23  41  66  94 129 176 218 269 328 401
#     4  11  22  42  66  93 135 170 218 280 327 388
#
# _framework density 21.761085999999999
#
# number of rings (size 3 to 8) (size 9 to 14) (size 15 to 20)
#    0.000    1.250    2.500    4.125    0.000    5.000 
#    2.250    1.250    0.000    0.000    0.000    0.000 
#    0.000    0.000    0.000    0.000    0.000    0.000 
#
# Total GULP energy -89180.912632 kJ/mol
# GULP energy per Si atom -5573.807040 kJ/mol
# Density = 2.171156 g / cm^3
# Si number density = 21.761086 Si / 1000 Ang^3
#
#
#
# Elastic Constant Matrix: (Units=GPa)
#
#
# Indices 1 2 3 4 5 6 
#
# 1 77.6817 54.3317 25.5218 -2.5526 24.5326 9.3789
# 2 54.3317 132.0558 51.6812 3.6433 24.0486 27.4511
# 3 25.5218 51.6812 92.1166 4.7775 40.2631 19.5595
# 4 -2.5526 3.6433 4.7775 49.8828 -6.8303 0.4611
# 5 24.5326 24.0486 40.2631 -6.8303 34.9824 -1.6378
# 6 9.3789 27.4511 19.5595 0.4611 -1.6378 54.2420
#
#
#
# Elastic Compliance Matrix: (Units=1/GPa)
#
#
# Indices 1 2 3 4 5 6 
#
# 1 0.022354 -0.007900 0.007347 -0.001577 -0.019153 -0.003081
# 2 -0.007900 0.013234 -0.005833 -0.000381 0.002935 -0.003136
# 3 0.007347 -0.005833 0.032809 -0.007845 -0.040965 -0.011319
# 4 -0.001577 -0.000381 -0.007845 0.022768 0.015009 0.003554
# 5 -0.019153 0.002935 -0.040965 0.015009 0.090979 0.019218
# 6 -0.003081 -0.003136 -0.011319 0.003554 0.019218 0.025188
#
#
# Mechanical properties :
#
#
# Convention : Reuss Voigt Hill
#
# Bulk Modulus (GPa) = 17.97821 62.76927 40.37374
# Shear Modulus (GPa) = 20.95166 39.17606 30.06386
#
# Velocity S-wave (km/s) = 3.10627 4.24757 3.72094
# Velocity P-wave (km/s) = 4.59835 7.27758 6.08720
#
# Compressibility (1/GPa) = 0.05562289
#
# Stress axis : x y z
#
# Youngs Moduli (GPa) = 44.73503 75.56469 30.47982
#
# Poissons Ratio (x) = 0.59698 -0.22392
# Poissons Ratio (y) = 0.35342 0.17779
# Poissons Ratio (z) = -0.32865 0.44077
#
# Static dielectric constant tensor:
#      x y z
#    x 1.882490 0.062650 0.005200 
#    y 0.062650 1.840170 -0.018130 
#    z 0.005200 -0.018130 1.863150 
# 
# From -- ./inp_files/307404.got.cif
#   From: 2010.05.17/outbox.cif.g08.bks.cpg/sg2_154_cif.got.tgz:307404.got - 2010.06.03 11:33:40.
