data_PCOD9107779
_publ_section_title
;
Structure prediction by ZEFSAII (Michael W. Deem and Ramdas Pophale) SiO2 
 PCOD9107779
Probable space group: P -1
;
_chemical_formula_sum "Si O2"
_cell_formula_units_Z 12
_cell_length_a 13.812636
_cell_length_b 11.411063
_cell_length_c 5.612062
_cell_angle_alpha 114.287364
_cell_angle_beta 72.480212
_cell_angle_gamma 146.665285
_cell_volume 441.461457
_symmetry_space_group_name_H-M "P -1"
_symmetry_group_IT_number 2
_symmetry_cell_setting 'triclinic'
loop_
_space_group_symop_operation_xyz
x,y,z
-x,-y,-z
loop_
_atom_site_type_symbol
_atom_site_label
_atom_site_fract_x
_atom_site_fract_y
_atom_site_fract_z
Si Si1 0.308887 0.666976 0.777405
Si Si2 0.635526 0.543847 0.196381
Si Si3 0.091912 0.765188 0.378063
Si Si4 0.062343 0.235913 0.127085
Si Si5 0.262362 0.129468 0.246676
Si Si6 0.280447 0.716337 0.335430
O O1 0.320826 0.527430 0.709319
O O2 0.377192 0.772054 0.551277
O O3 0.099547 0.487654 0.766415
O O4 0.377628 0.800068 0.081301
O O5 0.429499 0.310226 0.099219
O O6 0.680379 0.718135 0.453667
O O7 0.756200 0.649159 0.963376
O O8 0.036361 0.839660 0.616890
O O9 0.195477 0.768173 0.457606
O O10 0.222763 0.946266 0.224132
O O11 0.123725 0.446557 0.204323
O O12 0.922238 0.030979 0.877473
#
# Coordination Sequence:
#
# PCOD9107779 Si02
#       6
#     2   2   2   2   2   2
#     4  10  20  40  65  96 131 177 211 275 328 389
#     4  10  23  44  64  93 135 166 225 274 328 383
#     4  11  22  38  69  97 128 172 220 263 334 394
#     4  10  21  41  65  93 126 176 210 270 327 393
#     4  11  23  43  64  96 128 174 219 274 327 393
#     4  10  21  38  72  97 132 174 218 271 333 392
#
# _framework density 27.182442000000002
#
# number of rings (size 3 to 8) (size 9 to 14) (size 15 to 20)
#    0.000    1.667    3.333    3.000    2.333    0.667 
#   15.000    5.833    0.000    1.000    0.000    0.000 
#    0.000    0.000    0.000    0.000    0.000    0.000 
#
# Total GULP energy -67109.773545 kJ/mol
# GULP energy per Si atom -5592.481129 kJ/mol
# Density = 2.712057 g / cm^3
# Si number density = 27.182442 Si / 1000 Ang^3
#
#
#
# Elastic Constant Matrix: (Units=GPa)
#
#
# Indices 1 2 3 4 5 6 
#
# 1 101.8553 26.7331 4.6554 -9.7702 2.5787 -10.8369
# 2 26.7331 145.1496 37.8908 -1.2746 -2.6738 12.3458
# 3 4.6554 37.8908 122.1973 -8.5685 11.8912 -7.0928
# 4 -9.7702 -1.2746 -8.5685 44.6807 -1.6799 5.6859
# 5 2.5787 -2.6738 11.8912 -1.6799 38.7107 -10.7375
# 6 -10.8369 12.3458 -7.0928 5.6859 -10.7375 32.1423
#
#
#
# Elastic Compliance Matrix: (Units=1/GPa)
#
#
# Indices 1 2 3 4 5 6 
#
# 1 0.011150 -0.002633 0.000777 0.001925 0.000217 0.004674
# 2 -0.002633 0.008519 -0.002863 -0.000280 0.000348 -0.004626
# 3 0.000777 -0.002863 0.009525 0.001520 -0.002450 0.002376
# 4 0.001925 -0.000280 0.001520 0.023478 -0.000490 -0.003225
# 5 0.000217 0.000348 -0.002450 -0.000490 0.029130 0.009217
# 6 0.004674 -0.004626 0.002376 -0.003225 0.009217 0.038638
#
#
# Mechanical properties :
#
#
# Convention : Reuss Voigt Hill
#
# Bulk Modulus (GPa) = 50.62037 56.41786 53.51911
# Shear Modulus (GPa) = 36.63989 43.10161 39.87075
#
# Velocity S-wave (km/s) = 3.67539 3.98633 3.83402
# Velocity P-wave (km/s) = 6.05592 6.47982 6.27146
#
# Compressibility (1/GPa) = 0.01975489
#
# Stress axis : x y z
#
# Youngs Moduli (GPa) = 89.68726 117.38103 104.99000
#
# Poissons Ratio (x) = 0.30906 -0.08156
# Poissons Ratio (y) = 0.23614 0.30062
# Poissons Ratio (z) = -0.06967 0.33610
#
# Static dielectric constant tensor:
#      x y z
#    x 2.103730 -0.017310 -0.002850 
#    y -0.017310 2.125090 -0.050670 
#    z -0.002850 -0.050670 2.161880 
# 
# From -- ./inp_files/95274.got.cif
#   From: 2010.05.17/outbox.cif.g08.bks.cpg/sg2_48_cif.got.tgz:95274.got - 2010.06.03 11:33:40.
