data_PCOD9107265
_publ_section_title
;
Structure prediction by ZEFSAII (Michael W. Deem and Ramdas Pophale) SiO2 
 PCOD9107265
Probable space group: P -1
;
_chemical_formula_sum "Si O2"
_cell_formula_units_Z 16
_cell_length_a 23.991401
_cell_length_b 6.282661
_cell_length_c 5.327049
_cell_angle_alpha 74.141693
_cell_angle_beta 95.491292
_cell_angle_gamma 120.095781
_cell_volume 667.434377
_symmetry_space_group_name_H-M "P -1"
_symmetry_group_IT_number 2
_symmetry_cell_setting 'triclinic'
loop_
_space_group_symop_operation_xyz
x,y,z
-x,-y,-z
loop_
_atom_site_type_symbol
_atom_site_label
_atom_site_fract_x
_atom_site_fract_y
_atom_site_fract_z
Si Si1 0.541690 0.605320 0.233884
Si Si2 0.874845 0.526162 0.222514
Si Si3 0.989370 0.330974 0.799999
Si Si4 0.747015 0.485180 0.276530
Si Si5 0.854268 0.190259 0.821010
Si Si6 0.715038 0.974681 0.733928
Si Si7 0.351056 0.468749 0.504352
Si Si8 0.359083 0.859695 0.021936
O O1 0.500000 0.500000 0.500000
O O2 0.596187 0.521482 0.288938
O O3 0.500000 0.500000 0.000000
O O4 0.579110 0.913505 0.151724
O O5 0.951365 0.725645 0.164214
O O6 0.820582 0.610214 0.181897
O O7 0.867862 0.385156 0.531608
O O8 0.858223 0.331954 0.041534
O O9 0.000000 0.500000 0.500000
O O10 0.913087 0.131970 0.841558
O O11 0.000000 0.500000 0.000000
O O12 0.722257 0.627392 0.404188
O O13 0.734594 0.225743 0.494311
O O14 0.690681 0.382471 0.080039
O O15 0.780562 0.971995 0.822395
O O16 0.659413 0.735782 0.645635
O O17 0.685470 0.021785 0.954195
O O18 0.376130 0.745614 0.305917
#
# Coordination Sequence:
#
# PCOD9107265 Si02
#       8
#     2   2   2   2   2   2   2   2
#     4  12  29  51  73 100 135 173 212 266 330 402
#     4   9  16  30  51  84 125 165 214 271 319 372
#     4   8  14  24  44  78 120 163 215 260 313 382
#     4  10  21  38  65  96 127 171 222 273 325 383
#     4   9  16  28  52  85 121 171 215 263 322 378
#     4  10  20  40  63  95 135 170 221 277 324 380
#     4  11  26  43  71  99 131 177 215 276 329 392
#     4  11  24  44  71  98 134 169 220 270 326 396
#
# _framework density 23.972394999999999
#
# number of rings (size 3 to 8) (size 9 to 14) (size 15 to 20)
#    0.000    2.000    2.500    0.750    5.250    1.000 
#    0.000    0.000    0.000    0.750    0.000    0.875 
#    0.000    0.000    0.000    0.000    0.000    0.000 
#
# Total GULP energy -89344.841897 kJ/mol
# GULP energy per Si atom -5584.052619 kJ/mol
# Density = 2.391783 g / cm^3
# Si number density = 23.972395 Si / 1000 Ang^3
#
#
#
# Elastic Constant Matrix: (Units=GPa)
#
#
# Indices 1 2 3 4 5 6 
#
# 1 138.4440 24.5947 32.8363 -15.7356 13.8918 13.1127
# 2 24.5947 43.3351 21.0501 -11.5657 -1.2964 20.4844
# 3 32.8363 21.0501 104.3134 -8.1122 -1.0971 6.0094
# 4 -15.7356 -11.5657 -8.1122 36.9286 3.4239 -5.4341
# 5 13.8918 -1.2964 -1.0971 3.4239 45.7284 0.4692
# 6 13.1127 20.4844 6.0094 -5.4341 0.4692 34.0654
#
#
#
# Elastic Compliance Matrix: (Units=1/GPa)
#
#
# Indices 1 2 3 4 5 6 
#
# 1 0.008914 -0.003174 -0.001957 0.002548 -0.003028 -0.000729
# 2 -0.003174 0.038656 -0.005119 0.006518 0.001656 -0.020103
# 3 -0.001957 -0.005119 0.011151 0.000228 0.000680 0.001891
# 4 0.002548 0.006518 0.000228 0.030517 -0.002868 -0.000033
# 5 -0.003028 0.001656 0.000680 -0.002868 0.023074 -0.000725
# 6 -0.000729 -0.020103 0.001891 -0.000033 -0.000725 0.041395
#
#
# Mechanical properties :
#
#
# Convention : Reuss Voigt Hill
#
# Bulk Modulus (GPa) = 26.16430 49.22832 37.69631
# Shear Modulus (GPa) = 26.74542 37.18523 31.96532
#
# Velocity S-wave (km/s) = 3.34380 3.94276 3.65557
# Velocity P-wave (km/s) = 5.08390 6.42706 5.79453
#
# Compressibility (1/GPa) = 0.03822001
#
# Stress axis : x y z
#
# Youngs Moduli (GPa) = 112.18683 25.86943 89.67438
#
# Poissons Ratio (x) = 0.08212 0.17550
# Poissons Ratio (y) = 0.35613 0.45904
# Poissons Ratio (z) = 0.21956 0.13242
#
# Static dielectric constant tensor:
#      x y z
#    x 1.951470 0.009270 0.016080 
#    y 0.009270 1.845830 -0.033730 
#    z 0.016080 -0.033730 1.978080 
# 
# From -- ./inp_files/114524.got.cif
#   From: 2010.05.17/outbox.cif.g08.bks.cpg/sg2_58_cif.got.tgz:114524.got - 2010.06.03 11:33:40.
