data_PCOD9107217
_publ_section_title
;
Structure prediction by ZEFSAII (Michael W. Deem and Ramdas Pophale) SiO2 
 PCOD9107217
Probable space group: P -1
;
_chemical_formula_sum "Si O2"
_cell_formula_units_Z 12
_cell_length_a 7.617101
_cell_length_b 9.266544
_cell_length_c 13.271580
_cell_angle_alpha 52.490147
_cell_angle_beta 96.971695
_cell_angle_gamma 131.879205
_cell_volume 484.540280
_symmetry_space_group_name_H-M "P -1"
_symmetry_group_IT_number 2
_symmetry_cell_setting 'triclinic'
loop_
_space_group_symop_operation_xyz
x,y,z
-x,-y,-z
loop_
_atom_site_type_symbol
_atom_site_label
_atom_site_fract_x
_atom_site_fract_y
_atom_site_fract_z
Si Si1 0.179762 0.106975 0.565390
Si Si2 0.987237 0.763890 0.348141
Si Si3 0.456710 0.595214 0.846165
Si Si4 0.668566 0.310447 0.398062
Si Si5 0.252924 0.171541 0.871962
Si Si6 0.975019 0.263551 0.096761
O O1 0.088542 0.887480 0.737460
O O2 0.167960 0.295586 0.537023
O O3 0.458277 0.255866 0.476994
O O4 0.000000 0.000000 0.500000
O O5 0.939798 0.532774 0.388813
O O6 0.844716 0.779674 0.247576
O O7 0.287268 0.077525 0.251749
O O8 0.288165 0.581041 0.757302
O O9 0.490708 0.440116 0.843035
O O10 0.261870 0.416824 0.004138
O O11 0.500000 0.000000 0.500000
O O12 0.250234 0.974834 0.900458
O O13 0.000000 0.000000 0.000000
O O14 0.000000 0.500000 0.000000
#
# Coordination Sequence:
#
# PCOD9107217 Si02
#       6
#     2   2   2   2   2   2
#     4  11  22  42  65  97 129 176 219 263 319 402
#     4  10  21  39  65  92 125 169 223 261 323 387
#     4  10  20  40  63  92 124 167 222 265 315 395
#     4  11  23  41  66  94 133 168 215 275 328 384
#     4   8  18  34  59  87 116 161 208 261 311 376
#     4  10  21  39  66  95 133 169 213 277 333 371
#
# _framework density 24.765740000000001
#
# number of rings (size 3 to 8) (size 9 to 14) (size 15 to 20)
#    0.000    2.000    1.667    1.500    0.000    6.667 
#    0.000    1.667    0.000   14.000    0.000    0.000 
#    0.000    0.000    0.000    0.000    0.000    0.000 
#
# Total GULP energy -66813.567000 kJ/mol
# GULP energy per Si atom -5567.797250 kJ/mol
# Density = 2.470937 g / cm^3
# Si number density = 24.765740 Si / 1000 Ang^3
#
#
#
# Elastic Constant Matrix: (Units=GPa)
#
#
# Indices 1 2 3 4 5 6 
#
# 1 36.2363 28.9324 15.3581 -3.5603 -1.8417 -13.1970
# 2 28.9324 275.6580 50.0444 1.7988 12.2927 -17.3748
# 3 15.3581 50.0444 134.9599 15.3394 -1.9978 1.1105
# 4 -3.5603 1.7988 15.3394 45.6088 -1.4748 -0.8254
# 5 -1.8417 12.2927 -1.9978 -1.4748 33.1851 -7.7573
# 6 -13.1970 -17.3748 1.1105 -0.8254 -7.7573 26.2771
#
#
#
# Elastic Compliance Matrix: (Units=1/GPa)
#
#
# Indices 1 2 3 4 5 6 
#
# 1 0.040057 -0.002482 -0.004297 0.005315 0.008078 0.021209
# 2 -0.002482 0.004274 -0.001342 0.000061 -0.001521 0.001189
# 3 -0.004297 -0.001342 0.008799 -0.003313 -0.000196 -0.003579
# 4 0.005315 0.000061 -0.003313 0.023597 0.002106 0.004213
# 5 0.008078 -0.001521 -0.000196 0.002106 0.034327 0.013259
# 6 0.021209 0.001189 -0.003579 0.004213 0.013259 0.053692
#
#
# Mechanical properties :
#
#
# Convention : Reuss Voigt Hill
#
# Bulk Modulus (GPa) = 27.10882 70.61378 48.86130
# Shear Modulus (GPa) = 25.86873 44.51551 35.19212
#
# Velocity S-wave (km/s) = 3.23544 4.24425 3.77371
# Velocity P-wave (km/s) = 4.99272 7.25209 6.22575
#
# Compressibility (1/GPa) = 0.03688836
#
# Stress axis : x y z
#
# Youngs Moduli (GPa) = 24.96456 233.96346 113.64663
#
# Poissons Ratio (x) = 0.58076 0.48834
# Poissons Ratio (y) = 0.06197 0.15248
# Poissons Ratio (z) = 0.10727 0.31391
#
# Static dielectric constant tensor:
#      x y z
#    x 2.138090 -0.095380 0.078110 
#    y -0.095380 2.243640 -0.155060 
#    z 0.078110 -0.155060 2.050730 
# 
# From -- ./inp_files/363534.got.cif
#   From: 2010.05.17/outbox.cif.g08.bks.cpg/sg2_182_cif.got.tgz:363534.got - 2010.06.03 11:33:40.
