data_PCOD9107322
_publ_section_title
;
Structure prediction by ZEFSAII (Michael W. Deem and Ramdas Pophale) SiO2 
 PCOD9107322
Probable space group: P -1
;
_chemical_formula_sum "Si O2"
_cell_formula_units_Z 16
_cell_length_a 6.645813
_cell_length_b 11.183208
_cell_length_c 13.166277
_cell_angle_alpha 61.797357
_cell_angle_beta 94.952695
_cell_angle_gamma 122.133279
_cell_volume 712.183808
_symmetry_space_group_name_H-M "P -1"
_symmetry_group_IT_number 2
_symmetry_cell_setting 'triclinic'
loop_
_space_group_symop_operation_xyz
x,y,z
-x,-y,-z
loop_
_atom_site_type_symbol
_atom_site_label
_atom_site_fract_x
_atom_site_fract_y
_atom_site_fract_z
Si Si1 0.960996 0.600331 0.147795
Si Si2 0.714806 0.494151 0.687296
Si Si3 0.164278 0.043767 0.192489
Si Si4 0.673026 0.939884 0.513298
Si Si5 0.755167 0.792411 0.154542
Si Si6 0.126936 0.197577 0.544248
Si Si7 0.448269 0.859163 0.975389
Si Si8 0.419276 0.332485 0.221938
O O1 0.902652 0.713597 0.164024
O O2 0.699096 0.456745 0.151432
O O3 0.078939 0.533491 0.256301
O O4 0.166821 0.713536 0.028505
O O5 0.457287 0.321734 0.728059
O O6 0.774678 0.615537 0.547174
O O7 0.663485 0.571950 0.751808
O O8 0.240890 0.217583 0.171217
O O9 0.411879 0.066632 0.153423
O O10 0.950923 0.974201 0.128185
O O11 0.034839 0.896866 0.327732
O O12 0.683019 0.854393 0.445409
O O13 0.596067 0.801229 0.649594
O O14 0.500000 0.000000 0.500000
O O15 0.938646 0.103595 0.479822
O O16 0.600389 0.789832 0.055094
O O17 0.500000 0.000000 0.000000
#
# Coordination Sequence:
#
# PCOD9107322 Si02
#       8
#     2   2   2   2   2   2   2   2
#     4  10  20  40  64  84 115 163 196 236 294 352
#     4   9  19  39  62  85 119 163 188 225 303 356
#     4  11  22  39  59  92 121 150 200 250 292 336
#     4   9  16  32  55  82 120 164 186 220 298 353
#     4  10  22  41  64  83 114 158 201 242 293 354
#     4   9  19  34  54  87 125 149 189 244 280 348
#     4  11  23  42  65  82 111 162 203 241 299 353
#     4   9  20  36  57  90 122 145 193 247 288 351
#
# _framework density 22.466111999999999
#
# number of rings (size 3 to 8) (size 9 to 14) (size 15 to 20)
#    0.000    2.250    1.250    1.875    0.000    1.000 
#    6.750    6.250    0.000    0.000    0.000    0.000 
#    0.000    0.000    0.000    0.000    0.000    0.000 
#
# Total GULP energy -89264.581918 kJ/mol
# GULP energy per Si atom -5579.036370 kJ/mol
# Density = 2.241498 g / cm^3
# Si number density = 22.466112 Si / 1000 Ang^3
#
#
#
# Elastic Constant Matrix: (Units=GPa)
#
#
# Indices 1 2 3 4 5 6 
#
# 1 128.0423 23.9559 34.2633 -11.5766 1.5867 -8.3690
# 2 23.9559 95.1666 15.7753 -18.3321 -8.3284 20.3978
# 3 34.2633 15.7753 100.3347 -21.5785 -28.5119 1.9427
# 4 -11.5766 -18.3321 -21.5785 31.3520 2.2275 -10.6863
# 5 1.5867 -8.3284 -28.5119 2.2275 33.8538 -14.9105
# 6 -8.3690 20.3978 1.9427 -10.6863 -14.9105 34.4217
#
#
#
# Elastic Compliance Matrix: (Units=1/GPa)
#
#
# Indices 1 2 3 4 5 6 
#
# 1 0.009542 -0.002562 -0.003491 0.000886 -0.002691 0.003145
# 2 -0.002562 0.013601 -0.000310 0.004261 -0.000382 -0.007508
# 3 -0.003491 -0.000310 0.020411 0.015232 0.021697 0.012310
# 4 0.000886 0.004261 0.015232 0.051039 0.019846 0.021273
# 5 -0.002691 -0.000382 0.021697 0.019846 0.059965 0.030484
# 6 0.003145 -0.007508 0.012310 0.021273 0.030484 0.053379
#
#
# Mechanical properties :
#
#
# Convention : Reuss Voigt Hill
#
# Bulk Modulus (GPa) = 32.43901 52.39252 42.41576
# Shear Modulus (GPa) = 21.65073 36.56211 29.10642
#
# Velocity S-wave (km/s) = 3.10773 4.03852 3.60331
# Velocity P-wave (km/s) = 5.22951 6.71696 6.01936
#
# Compressibility (1/GPa) = 0.03082708
#
# Stress axis : x y z
#
# Youngs Moduli (GPa) = 104.79531 73.52443 48.99426
#
# Poissons Ratio (x) = 0.18839 0.17103
# Poissons Ratio (y) = 0.26852 0.01520
# Poissons Ratio (z) = 0.36581 0.02281
#
# Static dielectric constant tensor:
#      x y z
#    x 1.879720 -0.011060 -0.049180 
#    y -0.011060 1.884020 0.041320 
#    z -0.049180 0.041320 1.942640 
# 
# From -- ./inp_files/482739.got.cif
#   From: 2010.05.17/outbox.cif.g08.bks.cpg/sg2_242_cif.got.tgz:482739.got - 2010.06.03 11:33:40.
