data_PCOD9107358
_publ_section_title
;
Structure prediction by ZEFSAII (Michael W. Deem and Ramdas Pophale) SiO2 
 PCOD9107358
Probable space group: P -1
;
_chemical_formula_sum "Si O2"
_cell_formula_units_Z 16
_cell_length_a 16.094461
_cell_length_b 9.690327
_cell_length_c 8.184504
_cell_angle_alpha 130.866503
_cell_angle_beta 54.279857
_cell_angle_gamma 104.048384
_cell_volume 763.285834
_symmetry_space_group_name_H-M "P -1"
_symmetry_group_IT_number 2
_symmetry_cell_setting 'triclinic'
loop_
_space_group_symop_operation_xyz
x,y,z
-x,-y,-z
loop_
_atom_site_type_symbol
_atom_site_label
_atom_site_fract_x
_atom_site_fract_y
_atom_site_fract_z
Si Si1 0.040068 0.986123 0.129994
Si Si2 0.614258 0.968999 0.277516
Si Si3 0.618331 0.524351 0.346978
Si Si4 0.692522 0.684637 0.684954
Si Si5 0.272256 0.731274 0.722966
Si Si6 0.755412 0.668183 0.071743
Si Si7 0.101835 0.363375 0.433226
Si Si8 0.953834 0.650951 0.032212
O O1 0.159338 0.863543 0.920950
O O2 0.971839 0.858345 0.201093
O O3 0.041833 0.196203 0.346636
O O4 0.000000 0.000000 0.000000
O O5 0.500000 0.000000 0.500000
O O6 0.640899 0.158740 0.336975
O O7 0.629395 0.825954 0.997588
O O8 0.697517 0.877102 0.248935
O O9 0.500000 0.500000 0.500000
O O10 0.637114 0.688373 0.576365
O O11 0.702407 0.341999 0.177822
O O12 0.661622 0.569154 0.155916
O O13 0.707962 0.465710 0.546691
O O14 0.811571 0.709398 0.580117
O O15 0.829440 0.607141 0.781091
O O16 0.835684 0.654904 0.118877
O O17 0.026468 0.557245 0.722917
O O18 0.000000 0.500000 0.000000
#
# Coordination Sequence:
#
# PCOD9107358 Si02
#       8
#     2   2   2   2   2   2   2   2
#     4  12  22  38  67  96 133 168 217 264 321 387
#     4  11  22  40  65  93 127 165 223 277 322 381
#     4  10  22  44  68  91 129 172 220 272 327 387
#     4   9  21  40  68  87 129 170 211 260 336 375
#     4  10  20  40  64  87 129 169 211 263 328 380
#     4  11  22  40  65  97 130 169 221 270 317 390
#     4  11  22  41  69  96 136 170 218 265 328 386
#     4  12  24  42  67  97 136 179 209 263 330 389
#
# _framework density 20.962001999999998
#
# number of rings (size 3 to 8) (size 9 to 14) (size 15 to 20)
#    0.750    0.500    5.000    2.625    0.000    1.000 
#    2.250    2.500    2.750    0.000    0.000    0.000 
#    0.000    0.000    0.000    0.000    0.000    0.000 
#
# Total GULP energy -89160.539169 kJ/mol
# GULP energy per Si atom -5572.533698 kJ/mol
# Density = 2.091429 g / cm^3
# Si number density = 20.962002 Si / 1000 Ang^3
#
#
#
# Elastic Constant Matrix: (Units=GPa)
#
#
# Indices 1 2 3 4 5 6 
#
# 1 69.1194 4.9058 19.4647 -6.9766 9.5431 2.1776
# 2 4.9058 117.4255 11.7347 -2.3330 10.2264 4.7174
# 3 19.4647 11.7347 54.6393 2.7461 -11.9408 16.0175
# 4 -6.9766 -2.3330 2.7461 29.6875 9.1233 -1.8296
# 5 9.5431 10.2264 -11.9408 9.1233 22.8537 -0.2520
# 6 2.1776 4.7174 16.0175 -1.8296 -0.2520 34.9980
#
#
#
# Elastic Compliance Matrix: (Units=1/GPa)
#
#
# Indices 1 2 3 4 5 6 
#
# 1 0.024976 0.003373 -0.018862 0.017100 -0.028540 0.007312
# 2 0.003373 0.010133 -0.006781 0.005965 -0.011847 0.001754
# 3 -0.018862 -0.006781 0.042046 -0.022808 0.041785 -0.018047
# 4 0.017100 0.005965 -0.022808 0.054261 -0.043266 0.011095
# 5 -0.028540 -0.011847 0.041785 -0.043266 0.099889 -0.017294
# 6 0.007312 0.001754 -0.018047 0.011095 -0.017294 0.036597
#
#
# Mechanical properties :
#
#
# Convention : Reuss Voigt Hill
#
# Bulk Modulus (GPa) = 30.66091 34.82161 32.74126
# Shear Modulus (GPa) = 15.46494 31.17978 23.32236
#
# Velocity S-wave (km/s) = 2.71912 3.86092 3.33919
# Velocity P-wave (km/s) = 4.95145 6.04346 5.52450
#
# Compressibility (1/GPa) = 0.03261482
#
# Stress axis : x y z
#
# Youngs Moduli (GPa) = 40.03847 98.69173 23.78360
#
# Poissons Ratio (x) = -0.33288 0.44860
# Poissons Ratio (y) = -0.13505 0.16127
# Poissons Ratio (z) = 0.75520 0.66922
#
# Static dielectric constant tensor:
#      x y z
#    x 0.657060 0.155340 0.954750 
#    y 0.155340 1.725250 -0.191810 
#    z 0.954750 -0.191810 1.021600 
# 
# From -- ./inp_files/329512.got.cif
#   From: 2010.05.17/outbox.cif.g08.bks.cpg/sg2_165_cif.got.tgz:329512.got - 2010.06.03 11:33:40.
