data_PCOD9107684
_publ_section_title
;
Structure prediction by ZEFSAII (Michael W. Deem and Ramdas Pophale) SiO2 
 PCOD9107684
Probable space group: P -1
;
_chemical_formula_sum "Si O2"
_cell_formula_units_Z 12
_cell_length_a 5.155746
_cell_length_b 7.931891
_cell_length_c 16.786068
_cell_angle_alpha 124.722527
_cell_angle_beta 53.543871
_cell_angle_gamma 116.035863
_cell_volume 448.535578
_symmetry_space_group_name_H-M "P -1"
_symmetry_group_IT_number 2
_symmetry_cell_setting 'triclinic'
loop_
_space_group_symop_operation_xyz
x,y,z
-x,-y,-z
loop_
_atom_site_type_symbol
_atom_site_label
_atom_site_fract_x
_atom_site_fract_y
_atom_site_fract_z
Si Si1 0.441569 0.004773 0.754306
Si Si2 0.660689 0.935752 0.374836
Si Si3 0.741541 0.514972 0.214649
Si Si4 0.833087 0.661935 0.627799
Si Si5 0.130938 0.146937 0.088848
Si Si6 0.694961 0.310371 0.935685
O O1 0.541555 0.118172 0.683689
O O2 0.563313 0.780535 0.665975
O O3 0.052697 0.971302 0.834919
O O4 0.598414 0.136552 0.837220
O O5 0.891056 0.141238 0.360352
O O6 0.500000 0.000000 0.500000
O O7 0.794388 0.725026 0.313000
O O8 0.362105 0.425612 0.279966
O O9 0.955649 0.348226 0.162133
O O10 0.922025 0.596534 0.120344
O O11 0.000000 0.500000 0.500000
O O12 0.518132 0.215253 0.023793
O O13 0.000000 0.000000 0.000000
O O14 0.500000 0.500000 0.000000
#
# Coordination Sequence:
#
# PCOD9107684 Si02
#       6
#     2   2   2   2   2   2
#     4  10  22  41  69  95 132 176 211 267 338 377
#     4  12  25  44  63  97 134 172 226 269 316 396
#     4  10  20  40  65  91 134 166 209 280 316 376
#     4  11  23  44  63  93 131 172 222 277 318 385
#     4   8  17  37  66  92 124 168 212 264 321 381
#     4   9  17  38  69  94 126 169 211 266 322 386
#
# _framework density 26.753731999999999
#
# number of rings (size 3 to 8) (size 9 to 14) (size 15 to 20)
#    0.000    2.000    3.333    0.000    0.000    1.333 
#    9.000    8.333    0.000    0.000    0.000    0.000 
#    0.000    0.000    0.000    0.000    0.000    0.000 
#
# Total GULP energy -66966.758322 kJ/mol
# GULP energy per Si atom -5580.563193 kJ/mol
# Density = 2.669284 g / cm^3
# Si number density = 26.753732 Si / 1000 Ang^3
#
#
#
# Elastic Constant Matrix: (Units=GPa)
#
#
# Indices 1 2 3 4 5 6 
#
# 1 66.8354 43.3287 48.3738 -10.2684 -4.2545 8.9574
# 2 43.3287 172.7599 73.8392 -13.9629 -2.5426 14.7558
# 3 48.3738 73.8392 217.3169 -4.7009 -19.2381 -7.8525
# 4 -10.2684 -13.9629 -4.7009 88.8951 -9.4330 -12.1116
# 5 -4.2545 -2.5426 -19.2381 -9.4330 35.2553 -2.8388
# 6 8.9574 14.7558 -7.8525 -12.1116 -2.8388 46.3341
#
#
#
# Elastic Compliance Matrix: (Units=1/GPa)
#
#
# Indices 1 2 3 4 5 6 
#
# 1 0.020178 -0.003213 -0.003448 0.001264 0.000410 -0.003106
# 2 -0.003213 0.007665 -0.002052 0.000321 -0.001042 -0.002148
# 3 -0.003448 -0.002052 0.006461 0.000336 0.003269 0.002703
# 4 0.001264 0.000321 0.000336 0.012310 0.003908 0.003167
# 5 0.000410 -0.001042 0.003269 0.003908 0.031471 0.003756
# 6 -0.003106 -0.002148 0.002703 0.003167 0.003756 0.024383
#
#
# Mechanical properties :
#
#
# Convention : Reuss Voigt Hill
#
# Bulk Modulus (GPa) = 59.25436 87.55509 73.40472
# Shear Modulus (GPa) = 39.83421 53.52160 46.67790
#
# Velocity S-wave (km/s) = 3.86284 4.47758 4.18152
# Velocity P-wave (km/s) = 6.48780 7.71550 7.12813
#
# Compressibility (1/GPa) = 0.01687639
#
# Stress axis : x y z
#
# Youngs Moduli (GPa) = 49.55980 130.45546 154.78020
#
# Poissons Ratio (x) = 0.41919 0.53373
# Poissons Ratio (y) = 0.15925 0.31763
# Poissons Ratio (z) = 0.17090 0.26772
#
# Static dielectric constant tensor:
#      x y z
#    x 2.290410 0.032680 -0.005810 
#    y 0.032680 2.172730 -0.064480 
#    z -0.005810 -0.064480 2.052420 
# 
# From -- ./inp_files/178595.got.cif
#   From: 2010.05.17/outbox.cif.g08.bks.cpg/sg2_90_cif.got.tgz:178595.got - 2010.06.03 11:33:40.
