data_PCOD9107877
_publ_section_title
;
Structure prediction by ZEFSAII (Michael W. Deem and Ramdas Pophale) SiO2 
 PCOD9107877
Probable space group: P -1
;
_chemical_formula_sum "Si O2"
_cell_formula_units_Z 14
_cell_length_a 17.066132
_cell_length_b 8.547732
_cell_length_c 13.934695
_cell_angle_alpha 120.088131
_cell_angle_beta 154.116582
_cell_angle_gamma 46.194524
_cell_volume 590.925832
_symmetry_space_group_name_H-M "P -1"
_symmetry_group_IT_number 2
_symmetry_cell_setting 'triclinic'
loop_
_space_group_symop_operation_xyz
x,y,z
-x,-y,-z
loop_
_atom_site_type_symbol
_atom_site_label
_atom_site_fract_x
_atom_site_fract_y
_atom_site_fract_z
Si Si1 0.448701 0.578147 0.077291
Si Si2 0.732767 0.966753 0.729499
Si Si3 0.370967 0.833740 0.516153
Si Si4 0.322997 0.279425 0.878287
Si Si5 0.800222 0.652378 0.462945
Si Si6 0.908516 0.551124 0.026117
Si Si7 0.047310 0.081495 0.838695
O O1 0.635035 0.611984 0.321631
O O2 0.500000 0.500000 0.000000
O O3 0.446947 0.390485 0.073844
O O4 0.189433 0.828180 0.870337
O O5 0.500000 0.000000 0.500000
O O6 0.686162 0.147268 0.654138
O O7 0.921958 0.701634 0.817663
O O8 0.828559 0.979120 0.938897
O O9 0.645954 0.653089 0.774979
O O10 0.281815 0.092437 0.524017
O O11 0.220050 0.791437 0.397255
O O12 0.256759 0.327779 0.707536
O O13 0.075582 0.433272 0.708368
O O14 0.500000 0.000000 0.000000
O O15 0.000000 0.500000 0.000000
O O16 0.919873 0.752766 0.130079
#
# Coordination Sequence:
#
# PCOD9107877 Si02
#       7
#     2   2   2   2   2   2   2
#     4  10  20  40  66  88 124 166 203 256 318 366
#     4  11  22  42  65  90 131 164 208 262 313 373
#     4  12  22  41  65  92 131 166 208 262 314 373
#     4  10  22  40  65  92 124 160 214 259 309 374
#     4  10  21  40  64  87 127 166 200 263 316 362
#     4  10  22  41  63  88 125 165 214 254 315 369
#     4  11  22  41  64  94 125 168 212 260 316 371
#
# _framework density 23.691635999999999
#
# number of rings (size 3 to 8) (size 9 to 14) (size 15 to 20)
#    0.000    1.429    5.714    0.429    0.000    4.000 
#    2.571    1.429    0.000    0.000    0.000    0.000 
#    0.000    0.000    0.000    0.000    0.000    0.000 
#
# Total GULP energy -78350.334744 kJ/mol
# GULP energy per Si atom -5596.452482 kJ/mol
# Density = 2.363771 g / cm^3
# Si number density = 23.691636 Si / 1000 Ang^3
#
#
#
# Elastic Constant Matrix: (Units=GPa)
#
#
# Indices 1 2 3 4 5 6 
#
# 1 57.7046 11.5837 44.1973 -6.6212 19.1443 -1.4908
# 2 11.5837 105.5852 41.7309 -22.2874 15.7699 1.2123
# 3 44.1973 41.7309 150.8570 -24.1046 45.8906 11.9330
# 4 -6.6212 -22.2874 -24.1046 44.5775 -9.1398 5.1267
# 5 19.1443 15.7699 45.8906 -9.1398 40.6013 2.9174
# 6 -1.4908 1.2123 11.9330 5.1267 2.9174 36.9927
#
#
#
# Elastic Compliance Matrix: (Units=1/GPa)
#
#
# Indices 1 2 3 4 5 6 
#
# 1 0.023365 0.000238 -0.005807 -0.000959 -0.005002 0.003334
# 2 0.000238 0.011389 -0.002184 0.004348 -0.001075 -0.000177
# 3 -0.005807 -0.002184 0.012774 0.003401 -0.009800 -0.003981
# 4 -0.000959 0.004348 0.003401 0.027185 0.001410 -0.005157
# 5 -0.005002 -0.001075 -0.009800 0.001410 0.038818 -0.000262
# 6 0.003334 -0.000177 -0.003981 -0.005157 -0.000262 0.029192
#
#
# Mechanical properties :
#
#
# Convention : Reuss Voigt Hill
#
# Bulk Modulus (GPa) = 31.22928 56.57451 43.90190
# Shear Modulus (GPa) = 29.60282 38.87663 34.23972
#
# Velocity S-wave (km/s) = 3.53867 4.05525 3.80573
# Velocity P-wave (km/s) = 5.46868 6.77186 6.15486
#
# Compressibility (1/GPa) = 0.03202123
#
# Stress axis : x y z
#
# Youngs Moduli (GPa) = 42.79948 87.80663 78.28599
#
# Poissons Ratio (x) = -0.02089 0.45457
# Poissons Ratio (y) = -0.01018 0.17099
# Poissons Ratio (z) = 0.24852 0.19179
#
# Static dielectric constant tensor:
#      x y z
#    x 1.935640 -0.004800 -0.020170 
#    y -0.004800 1.952020 0.039990 
#    z -0.020170 0.039990 1.902880 
# 
# From -- ./inp_files/355700.got.cif
#   From: 2010.05.17/outbox.cif.g08.bks.cpg/sg2_178_cif.got.tgz:355700.got - 2010.06.03 11:33:40.
