data_PCOD9107126
_publ_section_title
;
Structure prediction by ZEFSAII (Michael W. Deem and Ramdas Pophale) SiO2 
 PCOD9107126
Probable space group: P -1
;
_chemical_formula_sum "Si O2"
_cell_formula_units_Z 16
_cell_length_a 9.659909
_cell_length_b 11.725700
_cell_length_c 13.522802
_cell_angle_alpha 32.141499
_cell_angle_beta 67.715879
_cell_angle_gamma 67.498074
_cell_volume 748.098606
_symmetry_space_group_name_H-M "P -1"
_symmetry_group_IT_number 2
_symmetry_cell_setting 'triclinic'
loop_
_space_group_symop_operation_xyz
x,y,z
-x,-y,-z
loop_
_atom_site_type_symbol
_atom_site_label
_atom_site_fract_x
_atom_site_fract_y
_atom_site_fract_z
Si Si1 0.634438 0.400815 0.103469
Si Si2 0.784035 0.990743 0.262600
Si Si3 0.126776 0.931528 0.252922
Si Si4 0.713736 0.417113 0.385505
Si Si5 0.176608 0.649027 0.268865
Si Si6 0.840446 0.706082 0.288023
Si Si7 0.852897 0.589449 0.034458
Si Si8 0.445747 0.336991 0.383425
O O1 0.746164 0.232495 0.133957
O O2 0.718107 0.584976 0.996151
O O3 0.559331 0.288579 0.297665
O O4 0.500000 0.500000 0.000000
O O5 0.796478 0.938307 0.180604
O O6 0.650731 0.859577 0.431261
O O7 0.949546 0.900569 0.325243
O O8 0.219113 0.779974 0.419198
O O9 0.183578 0.858725 0.181361
O O10 0.138750 0.176958 0.094672
O O11 0.733061 0.629483 0.289697
O O12 0.816600 0.435719 0.247280
O O13 0.547637 0.388564 0.412060
O O14 0.167686 0.463724 0.493393
O O15 0.324109 0.549937 0.242592
O O16 0.017755 0.677216 0.233114
O O17 0.000000 0.500000 0.000000
#
# Coordination Sequence:
#
# PCOD9107126 Si02
#       8
#     2   2   2   2   2   2   2   2
#     4  11  25  42  56  85 126 159 196 246 302 353
#     4  10  20  40  63  87 117 159 203 241 291 361
#     4  10  21  41  65  89 120 158 200 248 298 345
#     4  10  22  38  62  95 119 156 197 245 309 349
#     4   8  16  34  60  88 118 153 195 244 293 353
#     4   8  16  34  61  89 115 150 201 245 289 348
#     4  11  24  44  60  88 124 154 207 252 283 361
#     4  10  21  38  60  91 120 152 201 243 296 370
#
# _framework density 21.387554999999999
#
# number of rings (size 3 to 8) (size 9 to 14) (size 15 to 20)
#    0.000    2.250    1.250    2.625    1.750    7.000 
#    2.250    2.500    0.000    0.000    0.000    0.000 
#    0.000    0.000    0.000    0.000    0.000    0.000 
#
# Total GULP energy -89329.516387 kJ/mol
# GULP energy per Si atom -5583.094774 kJ/mol
# Density = 2.133888 g / cm^3
# Si number density = 21.387555 Si / 1000 Ang^3
#
#
#
# Elastic Constant Matrix: (Units=GPa)
#
#
# Indices 1 2 3 4 5 6 
#
# 1 103.1593 17.0287 18.5696 3.4083 -7.9781 19.5151
# 2 17.0287 88.1075 15.3969 -16.3541 0.5172 3.3391
# 3 18.5696 15.3969 43.7863 -6.5722 -13.0955 9.5510
# 4 3.4083 -16.3541 -6.5722 31.3573 1.7814 -2.9198
# 5 -7.9781 0.5172 -13.0955 1.7814 27.6721 -3.4527
# 6 19.5151 3.3391 9.5510 -2.9198 -3.4527 36.0715
#
#
#
# Elastic Compliance Matrix: (Units=1/GPa)
#
#
# Indices 1 2 3 4 5 6 
#
# 1 0.011927 -0.002245 -0.003157 -0.003734 0.001533 -0.005565
# 2 -0.002245 0.013734 -0.004056 0.006852 -0.003105 0.001274
# 3 -0.003157 -0.004056 0.031046 0.003565 0.013054 -0.004599
# 4 -0.003734 0.006852 0.003565 0.037008 -0.001489 0.003295
# 5 0.001533 -0.003105 0.013054 -0.001489 0.042910 -0.000011
# 6 -0.005565 0.001274 -0.004599 0.003295 -0.000011 0.032098
#
#
# Mechanical properties :
#
#
# Convention : Reuss Voigt Hill
#
# Bulk Modulus (GPa) = 26.46083 37.44929 31.95506
# Shear Modulus (GPa) = 24.97052 31.29070 28.13061
#
# Velocity S-wave (km/s) = 3.42061 3.82911 3.63061
# Velocity P-wave (km/s) = 5.29148 6.09076 5.70513
#
# Compressibility (1/GPa) = 0.03779171
#
# Stress axis : x y z
#
# Youngs Moduli (GPa) = 83.84210 72.81151 32.21054
#
# Poissons Ratio (x) = 0.16344 0.10170
# Poissons Ratio (y) = 0.18820 0.13064
# Poissons Ratio (z) = 0.26471 0.29530
#
# Static dielectric constant tensor:
#      x y z
#    x 1.751350 0.000180 -0.014100 
#    y 0.000180 1.810790 0.011730 
#    z -0.014100 0.011730 1.849910 
# 
# From -- ./inp_files/224217.got.cif
#   From: 2010.05.17/outbox.cif.g08.bks.cpg/sg2_113_cif.got.tgz:224217.got - 2010.06.03 11:33:40.
