data_PCOD9107834
_publ_section_title
;
Structure prediction by ZEFSAII (Michael W. Deem and Ramdas Pophale) SiO2 
 PCOD9107834
Probable space group: P -1
;
_chemical_formula_sum "Si O2"
_cell_formula_units_Z 13
_cell_length_a 10.584298
_cell_length_b 14.549200
_cell_length_c 10.073966
_cell_angle_alpha 70.903310
_cell_angle_beta 152.223258
_cell_angle_gamma 121.179017
_cell_volume 584.248269
_symmetry_space_group_name_H-M "P -1"
_symmetry_group_IT_number 2
_symmetry_cell_setting 'triclinic'
loop_
_space_group_symop_operation_xyz
x,y,z
-x,-y,-z
loop_
_atom_site_type_symbol
_atom_site_label
_atom_site_fract_x
_atom_site_fract_y
_atom_site_fract_z
Si Si1 0.521265 0.022649 0.852539
Si Si2 0.227148 0.167143 0.430415
Si Si3 0.247677 0.889234 0.404183
Si Si4 0.288287 0.506866 0.687759
Si Si5 0.000000 0.500000 0.000000
Si Si6 0.727827 0.624428 0.512165
Si Si7 0.572277 0.752427 0.712675
O O1 0.440544 0.120485 0.705248
O O2 0.293374 0.924014 0.584549
O O3 0.878003 0.063303 0.120646
O O4 0.500000 0.000000 0.000000
O O5 0.171226 0.245285 0.440870
O O6 0.380441 0.238568 0.405817
O O7 0.323322 0.790145 0.497345
O O8 0.500000 0.000000 0.500000
O O9 0.898295 0.841951 0.045476
O O10 0.203116 0.408315 0.550596
O O11 0.460519 0.625727 0.712426
O O12 0.000000 0.500000 0.500000
O O13 0.500000 0.500000 0.000000
O O14 0.349346 0.556623 0.221085
O O15 0.085575 0.411472 0.196130
#
# Coordination Sequence:
#
# PCOD9107834 Si02
#       7
#     2   2   2   2   1   2   2
#     4  12  27  44  67 103 144 178 230 298 360 423
#     4  12  24  44  72 102 131 183 237 285 361 433
#     4  12  23  45  72 102 142 179 241 301 349 425
#     4  12  28  47  67 103 148 190 239 292 356 436
#     4  10  20  40  66 102 126 170 216 292 346 394
#     4  11  24  42  71  97 145 172 233 292 355 418
#     4  12  24  43  76 101 132 190 241 287 359 425
#
# _framework density 22.250814999999999
#
# number of rings (size 3 to 8) (size 9 to 14) (size 15 to 20)
#    0.000    0.308    3.077    6.462    0.000    6.154 
#    0.000    0.000    0.000    0.000    0.000    0.000 
#    0.000    0.000    0.000    0.000    0.000    0.000 
#
# Total GULP energy -72537.050561 kJ/mol
# GULP energy per Si atom -5579.773120 kJ/mol
# Density = 2.220017 g / cm^3
# Si number density = 22.250815 Si / 1000 Ang^3
#
#
#
# Elastic Constant Matrix: (Units=GPa)
#
#
# Indices 1 2 3 4 5 6 
#
# 1 118.2125 47.4840 37.1828 -2.4886 -13.7261 -4.6967
# 2 47.4840 66.4595 15.5098 -23.5668 -17.2849 1.3288
# 3 37.1828 15.5098 100.8144 -27.8446 17.3147 9.3415
# 4 -2.4886 -23.5668 -27.8446 36.3746 -5.6041 -7.7388
# 5 -13.7261 -17.2849 17.3147 -5.6041 46.6007 -3.1528
# 6 -4.6967 1.3288 9.3415 -7.7388 -3.1528 41.9393
#
#
#
# Elastic Compliance Matrix: (Units=1/GPa)
#
#
# Indices 1 2 3 4 5 6 
#
# 1 0.017005 -0.015209 -0.008228 -0.014528 0.000786 0.001597
# 2 -0.015209 0.038235 0.006020 0.030554 0.011290 0.002231
# 3 -0.008228 0.006020 0.017343 0.015312 -0.004964 -0.002523
# 4 -0.014528 0.030554 0.015312 0.060659 0.009056 0.005868
# 5 0.000786 0.011290 -0.004964 0.009056 0.029129 0.004697
# 6 0.001597 0.002231 -0.002523 0.005868 0.004697 0.025950
#
#
# Mechanical properties :
#
#
# Convention : Reuss Voigt Hill
#
# Bulk Modulus (GPa) = 26.48968 53.98217 40.23593
# Shear Modulus (GPa) = 21.21004 37.33691 29.27347
#
# Velocity S-wave (km/s) = 3.09078 4.10079 3.63107
# Velocity P-wave (km/s) = 4.96670 6.83633 5.97509
#
# Compressibility (1/GPa) = 0.03775055
#
# Stress axis : x y z
#
# Youngs Moduli (GPa) = 58.80500 26.15414 57.66025
#
# Poissons Ratio (x) = 0.39778 0.47441
# Poissons Ratio (y) = 0.89437 -0.34714
# Poissons Ratio (z) = 0.48382 -0.15746
#
# Static dielectric constant tensor:
#      x y z
#    x 1.813360 -0.028750 -0.046750 
#    y -0.028750 1.883980 0.121980 
#    z -0.046750 0.121980 1.852690 
# 
# From -- ./inp_files/206628.got.cif
#   From: 2010.05.17/outbox.cif.g08.bks.cpg/sg2_104_cif.got.tgz:206628.got - 2010.06.03 11:33:40.
