data_PCOD9108907
_publ_section_title
;
Structure prediction by ZEFSAII (Michael W. Deem and Ramdas Pophale) SiO2 
 PCOD9108907
Probable space group: P -1
;
_chemical_formula_sum "Si O2"
_cell_formula_units_Z 14
_cell_length_a 8.467785
_cell_length_b 14.492231
_cell_length_c 9.561694
_cell_angle_alpha 56.904390
_cell_angle_beta 50.933732
_cell_angle_gamma 79.430426
_cell_volume 739.571595
_symmetry_space_group_name_H-M "P -1"
_symmetry_group_IT_number 2
_symmetry_cell_setting 'triclinic'
loop_
_space_group_symop_operation_xyz
x,y,z
-x,-y,-z
loop_
_atom_site_type_symbol
_atom_site_label
_atom_site_fract_x
_atom_site_fract_y
_atom_site_fract_z
Si Si1 0.984058 0.879251 0.824908
Si Si2 0.029628 0.763440 0.187806
Si Si3 0.676524 0.768526 0.857978
Si Si4 0.304219 0.340197 0.333613
Si Si5 0.702319 0.030621 0.964218
Si Si6 0.576144 0.002289 0.614087
Si Si7 0.694761 0.400660 0.893943
O O1 0.811549 0.794355 0.899290
O O2 0.192360 0.916416 0.584817
O O3 0.883812 0.983967 0.830194
O O4 0.030935 0.831463 0.987443
O O5 0.186583 0.843264 0.145496
O O6 0.111758 0.653550 0.190905
O O7 0.802264 0.725147 0.417739
O O8 0.793677 0.730895 0.690408
O O9 0.603197 0.880254 0.755606
O O10 0.475719 0.662298 0.073667
O O11 0.261523 0.464887 0.250645
O O12 0.554469 0.359553 0.147319
O O13 0.500000 0.000000 0.000000
O O14 0.598584 0.966199 0.216252
O O15 0.500000 0.000000 0.500000
#
# Coordination Sequence:
#
# PCOD9108907 Si02
#       7
#     2   2   2   2   2   2   2
#     4  12  25  37  55  91 124 152 192 235 286 356
#     4  12  22  37  60  87 117 151 194 240 288 342
#     4  10  20  41  58  82 119 152 189 239 288 336
#     4   9  21  37  67  80 108 152 200 241 287 340
#     4  12  24  38  58  86 118 160 194 229 286 350
#     4  12  23  39  59  85 122 157 191 236 285 347
#     4   9  19  41  63  83 108 149 202 237 295 338
#
# _framework density 18.929877000000001
#
# number of rings (size 3 to 8) (size 9 to 14) (size 15 to 20)
#    0.857    0.286    4.286    2.143    4.000    0.000 
#    0.000    1.429    0.000    0.000    0.000    0.000 
#    0.000    0.000    0.000    0.000    0.000    0.000 
#
# Total GULP energy -77962.602993 kJ/mol
# GULP energy per Si atom -5568.757357 kJ/mol
# Density = 1.888679 g / cm^3
# Si number density = 18.929877 Si / 1000 Ang^3
#
#
#
# Elastic Constant Matrix: (Units=GPa)
#
#
# Indices 1 2 3 4 5 6 
#
# 1 46.7037 8.6548 -9.1756 -5.6961 6.3367 12.1320
# 2 8.6548 73.2638 -1.2834 -3.3864 3.2631 7.0493
# 3 -9.1756 -1.2834 81.1000 5.5076 -8.5087 5.1173
# 4 -5.6961 -3.3864 5.5076 21.4146 0.2401 -3.0077
# 5 6.3367 3.2631 -8.5087 0.2401 20.7694 8.6570
# 6 12.1320 7.0493 5.1173 -3.0077 8.6570 14.7004
#
#
#
# Elastic Compliance Matrix: (Units=1/GPa)
#
#
# Indices 1 2 3 4 5 6 
#
# 1 0.029656 -0.000777 0.005554 0.002249 0.005280 -0.028684
# 2 -0.000777 0.014415 0.000636 0.000918 0.001126 -0.006968
# 3 0.005554 0.000636 0.015853 -0.005302 0.012658 -0.018946
# 4 0.002249 0.000918 -0.005302 0.051179 -0.010299 0.016085
# 5 0.005280 0.001126 0.012658 -0.010299 0.074776 -0.055446
# 6 -0.028684 -0.006968 -0.018946 0.016085 -0.055446 0.137577
#
#
# Mechanical properties :
#
#
# Convention : Reuss Voigt Hill
#
# Bulk Modulus (GPa) = 14.13460 21.93990 18.03725
# Shear Modulus (GPa) = 14.87154 24.90165 19.88660
#
# Velocity S-wave (km/s) = 2.80592 3.63087 3.24472
# Velocity P-wave (km/s) = 4.24035 5.40305 4.85662
#
# Compressibility (1/GPa) = 0.07074840
#
# Stress axis : x y z
#
# Youngs Moduli (GPa) = 33.71998 69.37247 63.08151
#
# Poissons Ratio (x) = 0.05392 -0.35036
# Poissons Ratio (y) = 0.02621 -0.04010
# Poissons Ratio (z) = -0.18728 -0.04410
#
# Static dielectric constant tensor:
#      x y z
#    x 1.659140 0.000760 -0.027530 
#    y 0.000760 1.679870 0.029630 
#    z -0.027530 0.029630 1.687390 
# 
# From -- ./inp_files/195520.got.cif
#   From: 2010.05.17/outbox.cif.g08.bks.cpg/sg2_98_cif.got.tgz:195520.got - 2010.06.03 11:33:40.
