data_PCOD9108536
_publ_section_title
;
Structure prediction by ZEFSAII (Michael W. Deem and Ramdas Pophale) SiO2 
 PCOD9108536
Probable space group: P -1
;
_chemical_formula_sum "Si O2"
_cell_formula_units_Z 16
_cell_length_a 14.060267
_cell_length_b 8.701949
_cell_length_c 12.144562
_cell_angle_alpha 49.848180
_cell_angle_beta 31.208303
_cell_angle_gamma 53.917720
_cell_volume 585.847189
_symmetry_space_group_name_H-M "P -1"
_symmetry_group_IT_number 2
_symmetry_cell_setting 'triclinic'
loop_
_space_group_symop_operation_xyz
x,y,z
-x,-y,-z
loop_
_atom_site_type_symbol
_atom_site_label
_atom_site_fract_x
_atom_site_fract_y
_atom_site_fract_z
Si Si1 0.134944 0.435338 0.996549
Si Si2 0.508604 0.213475 0.684948
Si Si3 0.341587 0.865620 0.118721
Si Si4 0.882381 0.105720 0.453767
Si Si5 0.096390 0.258759 0.779603
Si Si6 0.874271 0.707371 0.509628
Si Si7 0.692651 0.063234 0.128967
Si Si8 0.570518 0.578120 0.727386
O O1 0.063888 0.221235 0.202243
O O2 0.076329 0.601459 0.068927
O O3 0.000000 0.500000 0.000000
O O4 0.350710 0.396612 0.772137
O O5 0.721352 0.232226 0.482438
O O6 0.462263 0.091139 0.677639
O O7 0.462516 0.052871 0.900194
O O8 0.185191 0.881091 0.359649
O O9 0.459015 0.654133 0.127320
O O10 0.260360 0.859866 0.076120
O O11 0.875505 0.879171 0.519477
O O12 0.270801 0.393786 0.532843
O O13 0.163272 0.075930 0.877202
O O14 0.069188 0.203488 0.705202
O O15 0.671025 0.643261 0.710601
O O16 0.000000 0.500000 0.500000
O O17 0.598424 0.255797 0.196625
#
# Coordination Sequence:
#
# PCOD9108536 Si02
#       8
#     2   2   2   2   2   2   2   2
#     4  12  25  46  74 101 145 190 247 295 364 439
#     4  10  24  40  69 107 139 183 237 301 349 431
#     4  10  22  39  71 108 139 184 245 296 353 433
#     4  12  24  47  70 106 146 186 239 307 366 413
#     4  10  22  45  67  98 143 194 238 293 366 426
#     4  10  24  39  71 102 143 188 240 292 364 430
#     4  10  20  40  70  99 143 178 247 291 353 433
#     4  10  20  40  69 105 135 196 237 293 363 430
#
# _framework density 27.310876
#
# number of rings (size 3 to 8) (size 9 to 14) (size 15 to 20)
#    1.500    0.000    3.750    1.125    3.500    1.000 
#    0.000    1.875    0.000    0.000    0.000    0.000 
#    0.000    0.000    0.000    0.000    0.000    0.000 
#
# Total GULP energy -89627.896439 kJ/mol
# GULP energy per Si atom -5601.743527 kJ/mol
# Density = 2.724872 g / cm^3
# Si number density = 27.310876 Si / 1000 Ang^3
#
#
#
# Elastic Constant Matrix: (Units=GPa)
#
#
# Indices 1 2 3 4 5 6 
#
# 1 120.6822 51.4168 17.0599 -7.8081 -6.5999 0.6262
# 2 51.4168 205.0471 34.7365 21.0873 -1.4038 -11.3796
# 3 17.0599 34.7365 87.8758 5.9125 -9.5672 0.2984
# 4 -7.8081 21.0873 5.9125 44.3163 -8.1531 9.9214
# 5 -6.5999 -1.4038 -9.5672 -8.1531 39.5147 1.6611
# 6 0.6262 -11.3796 0.2984 9.9214 1.6611 48.4866
#
#
#
# Elastic Compliance Matrix: (Units=1/GPa)
#
#
# Indices 1 2 3 4 5 6 
#
# 1 0.010019 -0.002866 -0.000830 0.004039 0.002276 -0.001701
# 2 -0.002866 0.006478 -0.001913 -0.004198 -0.001683 0.002486
# 3 -0.000830 -0.001913 0.012624 -0.000278 0.002816 -0.000556
# 4 0.004039 -0.004198 -0.000278 0.028085 0.006548 -0.007007
# 5 0.002276 -0.001683 0.002816 0.006548 0.027775 -0.002733
# 6 -0.001701 0.002486 -0.000556 -0.007007 -0.002733 0.022760
#
#
# Mechanical properties :
#
#
# Convention : Reuss Voigt Hill
#
# Bulk Modulus (GPa) = 55.86003 68.89239 62.37621
# Shear Modulus (GPa) = 40.02276 47.15630 43.58953
#
# Velocity S-wave (km/s) = 3.83227 4.15980 3.99939
# Velocity P-wave (km/s) = 6.33084 6.95356 6.64949
#
# Compressibility (1/GPa) = 0.01790189
#
# Stress axis : x y z
#
# Youngs Moduli (GPa) = 99.80737 154.37048 79.21148
#
# Poissons Ratio (x) = 0.44242 0.06578
# Poissons Ratio (y) = 0.28605 0.15157
# Poissons Ratio (z) = 0.08289 0.29538
#
# Static dielectric constant tensor:
#      x y z
#    x 2.170510 -0.014110 -0.079990 
#    y -0.014110 2.111130 0.044610 
#    z -0.079990 0.044610 2.205330 
# 
# From -- ./inp_files/274247.got.cif
#   From: 2010.05.17/outbox.cif.g08.bks.cpg/sg2_138_cif.got.tgz:274247.got - 2010.06.03 11:33:40.
