data_PCOD9108118
_publ_section_title
;
Structure prediction by ZEFSAII (Michael W. Deem and Ramdas Pophale) SiO2 
 PCOD9108118
Probable space group: P -1
;
_chemical_formula_sum "Si O2"
_cell_formula_units_Z 16
_cell_length_a 10.976095
_cell_length_b 6.498193
_cell_length_c 11.438640
_cell_angle_alpha 84.265861
_cell_angle_beta 62.750498
_cell_angle_gamma 92.370142
_cell_volume 718.178940
_symmetry_space_group_name_H-M "P -1"
_symmetry_group_IT_number 2
_symmetry_cell_setting 'triclinic'
loop_
_space_group_symop_operation_xyz
x,y,z
-x,-y,-z
loop_
_atom_site_type_symbol
_atom_site_label
_atom_site_fract_x
_atom_site_fract_y
_atom_site_fract_z
Si Si1 0.597237 0.324149 0.620813
Si Si2 0.512222 0.785446 0.071154
Si Si3 0.373450 0.280669 0.550527
Si Si4 0.243220 0.563465 0.787381
Si Si5 0.703577 0.469177 0.983517
Si Si6 0.882573 0.052843 0.301065
Si Si7 0.082769 0.620342 0.560042
Si Si8 0.996732 0.677324 0.173770
O O1 0.526924 0.231675 0.774251
O O2 0.512154 0.217246 0.554350
O O3 0.597724 0.573377 0.582970
O O4 0.760256 0.307375 0.548551
O O5 0.662893 0.705066 0.992085
O O6 0.396105 0.633680 0.065395
O O7 0.500000 0.000000 0.000000
O O8 0.324147 0.438070 0.663971
O O9 0.250133 0.103653 0.595666
O O10 0.327327 0.608552 0.866023
O O11 0.183818 0.770795 0.754954
O O12 0.107806 0.400596 0.879334
O O13 0.854835 0.402381 0.898835
O O14 0.960898 0.173285 0.368223
O O15 0.983099 0.917691 0.192201
O O16 0.000000 0.500000 0.500000
O O17 0.068975 0.447245 0.677522
#
# Coordination Sequence:
#
# PCOD9108118 Si02
#       8
#     2   2   2   2   2   2   2   2
#     4  11  21  45  68  97 139 176 223 292 342 396
#     4  11  27  45  65  97 135 187 230 271 341 418
#     4  10  21  41  69  98 139 169 229 293 340 402
#     4  10  20  40  67 100 134 173 225 287 337 399
#     4  11  24  45  65  93 140 183 227 279 334 400
#     4  10  21  40  65 107 131 177 227 275 354 403
#     4  11  23  42  65  99 139 175 228 283 340 412
#     4  10  22  42  65  97 135 173 228 283 340 403
#
# _framework density 22.278570999999999
#
# number of rings (size 3 to 8) (size 9 to 14) (size 15 to 20)
#    0.000    1.500    5.000    1.125    1.750    3.500 
#    4.500    0.000    0.000    0.000    0.000    0.000 
#    0.000    0.000    0.000    0.000    0.000    0.000 
#
# Total GULP energy -89185.875573 kJ/mol
# GULP energy per Si atom -5574.117223 kJ/mol
# Density = 2.222786 g / cm^3
# Si number density = 22.278571 Si / 1000 Ang^3
#
#
#
# Elastic Constant Matrix: (Units=GPa)
#
#
# Indices 1 2 3 4 5 6 
#
# 1 69.4515 17.3998 21.7347 11.9008 -11.0028 -7.5085
# 2 17.3998 113.9024 36.8956 6.7475 -3.6208 -15.8503
# 3 21.7347 36.8956 65.7164 4.8145 3.5760 -11.6830
# 4 11.9008 6.7475 4.8145 23.7673 -11.8252 1.5091
# 5 -11.0028 -3.6208 3.5760 -11.8252 45.2458 9.8771
# 6 -7.5085 -15.8503 -11.6830 1.5091 9.8771 35.1480
#
#
#
# Elastic Compliance Matrix: (Units=1/GPa)
#
#
# Indices 1 2 3 4 5 6 
#
# 1 0.017783 -0.000401 -0.005062 -0.006532 0.002665 0.001467
# 2 -0.000401 0.011167 -0.005402 -0.002100 -0.000036 0.003255
# 3 -0.005062 -0.005402 0.021384 -0.003256 -0.005347 0.005233
# 4 -0.006532 -0.002100 -0.003256 0.054684 0.014971 -0.009980
# 5 0.002665 -0.000036 -0.005347 0.014971 0.029286 -0.010097
# 6 0.001467 0.003255 0.005233 -0.009980 -0.010097 0.035237
#
#
# Mechanical properties :
#
#
# Convention : Reuss Voigt Hill
#
# Bulk Modulus (GPa) = 34.96124 44.57007 39.76566
# Shear Modulus (GPa) = 24.89960 32.36822 28.63391
#
# Velocity S-wave (km/s) = 3.34675 3.81581 3.58895
# Velocity P-wave (km/s) = 5.53725 6.28197 5.92133
#
# Compressibility (1/GPa) = 0.02860310
#
# Stress axis : x y z
#
# Youngs Moduli (GPa) = 56.23239 89.55100 46.76415
#
# Poissons Ratio (x) = 0.03591 0.23672
# Poissons Ratio (y) = 0.02255 0.25264
# Poissons Ratio (z) = 0.28465 0.48379
#
# Static dielectric constant tensor:
#      x y z
#    x 1.938600 -0.022500 -0.021670 
#    y -0.022500 1.877920 0.030070 
#    z -0.021670 0.030070 1.884200 
# 
# From -- ./inp_files/410449.got.cif
#   From: 2010.05.17/outbox.cif.g08.bks.cpg/sg2_206_cif.got.tgz:410449.got - 2010.06.03 11:33:40.
