data_PCOD9108316
_publ_section_title
;
Structure prediction by ZEFSAII (Michael W. Deem and Ramdas Pophale) SiO2 
 PCOD9108316
Probable space group: P -1
;
_chemical_formula_sum "Si O2"
_cell_formula_units_Z 14
_cell_length_a 5.286999
_cell_length_b 5.229431
_cell_length_c 22.749592
_cell_angle_alpha 106.392837
_cell_angle_beta 114.380819
_cell_angle_gamma 92.175572
_cell_volume 540.945765
_symmetry_space_group_name_H-M "P -1"
_symmetry_group_IT_number 2
_symmetry_cell_setting 'triclinic'
loop_
_space_group_symop_operation_xyz
x,y,z
-x,-y,-z
loop_
_atom_site_type_symbol
_atom_site_label
_atom_site_fract_x
_atom_site_fract_y
_atom_site_fract_z
Si Si1 0.901002 0.217634 0.145360
Si Si2 0.218489 0.558905 0.108550
Si Si3 0.471751 0.925404 0.789715
Si Si4 0.390445 0.813868 0.640660
Si Si5 0.392666 0.710770 0.399805
Si Si6 0.875780 0.883819 0.541575
Si Si7 0.269562 0.253869 0.987990
O O1 0.732618 0.224415 0.189675
O O2 0.002523 0.491622 0.137082
O O3 0.208516 0.136272 0.182001
O O4 0.724435 0.015614 0.066713
O O5 0.049468 0.707963 0.055599
O O6 0.490621 0.758545 0.169202
O O7 0.278423 0.297789 0.062019
O O8 0.367609 0.870398 0.710518
O O9 0.596678 0.596076 0.636975
O O10 0.077244 0.700272 0.578190
O O11 0.482274 0.087585 0.628890
O O12 0.569328 0.742067 0.480612
O O13 0.132430 0.856672 0.400905
O O14 0.000000 0.000000 0.500000
O O15 0.500000 0.500000 0.000000
#
# Coordination Sequence:
#
# PCOD9108316 Si02
#       7
#     2   2   2   2   2   2   2
#     4  11  25  44  68  97 137 187 239 300 371 437
#     4  10  23  42  66  97 137 179 233 306 367 441
#     4  11  27  45  64 101 142 191 245 297 365 455
#     4  11  25  44  68 103 145 197 247 302 373 450
#     4  10  23  43  71 104 141 187 245 308 372 440
#     4   9  21  43  72 105 141 183 242 311 371 435
#     4  10  20  40  67  99 131 172 239 299 369 436
#
# _framework density 25.880597999999999
#
# number of rings (size 3 to 8) (size 9 to 14) (size 15 to 20)
#    0.000    1.714    1.429    0.857    6.000    8.000 
#    0.000    0.000    0.000    0.000    0.000    0.000 
#    0.000    0.000    0.000    0.000    0.000    0.000 
#
# Total GULP energy -78241.366756 kJ/mol
# GULP energy per Si atom -5588.669054 kJ/mol
# Density = 2.582169 g / cm^3
# Si number density = 25.880598 Si / 1000 Ang^3
#
#
#
# Elastic Constant Matrix: (Units=GPa)
#
#
# Indices 1 2 3 4 5 6 
#
# 1 130.1606 28.7559 40.4972 -14.1153 -31.8917 -1.7436
# 2 28.7559 99.0643 25.7325 -9.6922 -18.4703 6.5398
# 3 40.4972 25.7325 143.5029 -25.4408 -31.3340 2.6258
# 4 -14.1153 -9.6922 -25.4408 20.0458 6.6740 -9.1407
# 5 -31.8917 -18.4703 -31.3340 6.6740 33.8156 -0.7190
# 6 -1.7436 6.5398 2.6258 -9.1407 -0.7190 41.4695
#
#
#
# Elastic Compliance Matrix: (Units=1/GPa)
#
#
# Indices 1 2 3 4 5 6 
#
# 1 0.010553 -0.001132 -0.000154 0.004759 0.008290 0.001825
# 2 -0.001132 0.011663 -0.000359 0.002310 0.004487 -0.001277
# 3 -0.000154 -0.000359 0.010740 0.011878 0.007310 0.002115
# 4 0.004759 0.002310 0.011878 0.075963 0.002102 0.015864
# 5 0.008290 0.004487 0.007310 0.002102 0.046210 0.000443
# 6 0.001825 -0.001277 0.002115 0.015864 0.000443 0.027763
#
#
# Mechanical properties :
#
#
# Convention : Reuss Voigt Hill
#
# Bulk Modulus (GPa) = 33.71094 62.52210 48.11652
# Shear Modulus (GPa) = 25.50080 37.58231 31.54155
#
# Velocity S-wave (km/s) = 3.14239 3.81483 3.49482
# Velocity P-wave (km/s) = 5.12055 6.60411 5.90907
#
# Compressibility (1/GPa) = 0.02966396
#
# Stress axis : x y z
#
# Youngs Moduli (GPa) = 94.76077 85.73907 93.11056
#
# Poissons Ratio (x) = 0.09707 0.01438
# Poissons Ratio (y) = 0.10729 0.03346
# Poissons Ratio (z) = 0.01464 0.03081
#
# Static dielectric constant tensor:
#      x y z
#    x 2.159800 -0.070080 0.060290 
#    y -0.070080 2.164280 0.049590 
#    z 0.060290 0.049590 2.030260 
# 
# From -- ./inp_files/580342.got.cif
#   From: 2010.05.17/outbox.cif.g08.bks.cpg/sg2_291_cif.got.tgz:580342.got - 2010.06.03 11:33:40.
