data_PCOD9108248
_publ_section_title
;
Structure prediction by ZEFSAII (Michael W. Deem and Ramdas Pophale) SiO2 
 PCOD9108248
Probable space group: P -1
;
_chemical_formula_sum "Si O2"
_cell_formula_units_Z 14
_cell_length_a 14.711070
_cell_length_b 8.135182
_cell_length_c 17.369365
_cell_angle_alpha 145.149081
_cell_angle_beta 37.312493
_cell_angle_gamma 138.083585
_cell_volume 694.504844
_symmetry_space_group_name_H-M "P -1"
_symmetry_group_IT_number 2
_symmetry_cell_setting 'triclinic'
loop_
_space_group_symop_operation_xyz
x,y,z
-x,-y,-z
loop_
_atom_site_type_symbol
_atom_site_label
_atom_site_fract_x
_atom_site_fract_y
_atom_site_fract_z
Si Si1 0.341071 0.566456 0.613403
Si Si2 0.476609 0.323231 0.123097
Si Si3 0.963845 0.867532 0.088518
Si Si4 0.385674 0.670734 0.448297
Si Si5 0.148819 0.383832 0.379390
Si Si6 0.258072 0.160245 0.908955
Si Si7 0.033593 0.232663 0.771802
O O1 0.500000 0.500000 0.500000
O O2 0.330249 0.555489 0.524954
O O3 0.202256 0.335413 0.660451
O O4 0.340403 0.898034 0.767292
O O5 0.480216 0.473634 0.262911
O O6 0.308798 0.356197 0.216552
O O7 0.617311 0.523566 0.055713
O O8 0.500000 0.000000 0.000000
O O9 0.820585 0.903878 0.147724
O O10 0.959292 0.877604 0.187459
O O11 0.975578 0.533038 0.930658
O O12 0.115955 0.104690 0.043280
O O13 0.230661 0.610850 0.478261
O O14 0.500000 0.000000 0.500000
O O15 0.000000 0.500000 0.500000
O O16 0.072740 0.031873 0.308917
#
# Coordination Sequence:
#
# PCOD9108248 Si02
#       7
#     2   2   2   2   2   2   2
#     4  11  24  37  65 102 129 179 236 281 326 419
#     4  10  22  40  70  98 136 177 226 285 342 408
#     4   9  21  39  67  96 129 183 214 290 340 417
#     4  10  23  44  69  94 132 187 229 280 346 413
#     4  10  24  39  65 100 137 174 224 292 346 403
#     4  10  20  40  67  94 131 176 240 263 344 413
#     4  10  22  40  62  96 141 167 228 277 349 402
#
# _framework density 20.158248
#
# number of rings (size 3 to 8) (size 9 to 14) (size 15 to 20)
#    0.857    1.143    1.429    0.857    8.000    0.571 
#    2.571    2.143    0.000    0.000    0.000    0.000 
#    0.000    0.000    0.000    0.000    0.000    0.000 
#
# Total GULP energy -77957.887901 kJ/mol
# GULP energy per Si atom -5568.420564 kJ/mol
# Density = 2.011237 g / cm^3
# Si number density = 20.158248 Si / 1000 Ang^3
#
#
#
# Elastic Constant Matrix: (Units=GPa)
#
#
# Indices 1 2 3 4 5 6 
#
# 1 96.1599 52.9168 32.6290 -12.1466 -17.4576 11.2567
# 2 52.9168 176.2668 53.2840 -9.8478 -7.3000 13.5023
# 3 32.6290 53.2840 83.0925 -1.1967 -14.9089 11.5450
# 4 -12.1466 -9.8478 -1.1967 29.5875 3.3874 10.9180
# 5 -17.4576 -7.3000 -14.9089 3.3874 36.3365 -6.0534
# 6 11.2567 13.5023 11.5450 10.9180 -6.0534 27.4843
#
#
#
# Elastic Compliance Matrix: (Units=1/GPa)
#
#
# Indices 1 2 3 4 5 6 
#
# 1 0.015014 -0.002782 -0.002521 0.006691 0.004083 -0.005482
# 2 -0.002782 0.007967 -0.003991 0.002520 -0.002033 -0.002547
# 3 -0.002521 -0.003991 0.016733 -0.001275 0.004551 -0.002527
# 4 0.006691 0.002520 -0.001275 0.046369 -0.004948 -0.022953
# 5 0.004083 -0.002033 0.004551 -0.004948 0.032491 0.006537
# 6 -0.005482 -0.002547 -0.002527 -0.022953 0.006537 0.051500
#
#
# Mechanical properties :
#
#
# Convention : Reuss Voigt Hill
#
# Bulk Modulus (GPa) = 47.33536 70.35321 58.84428
# Shear Modulus (GPa) = 25.54885 33.12762 29.33823
#
# Velocity S-wave (km/s) = 3.56394 4.05826 3.81910
# Velocity P-wave (km/s) = 6.36148 7.54556 6.97868
#
# Compressibility (1/GPa) = 0.02112586
#
# Stress axis : x y z
#
# Youngs Moduli (GPa) = 66.60379 125.52432 59.76221
#
# Poissons Ratio (x) = 0.34927 0.15065
# Poissons Ratio (y) = 0.18532 0.23849
# Poissons Ratio (z) = 0.16790 0.50092
#
# Static dielectric constant tensor:
#      x y z
#    x 1.717260 0.015540 -0.009140 
#    y 0.015540 1.698820 -0.005670 
#    z -0.009140 -0.005670 1.766700 
# 
# From -- ./inp_files/599798.got.cif
#   From: 2010.05.17/outbox.cif.g08.bks.cpg/sg2_300_cif.got.tgz:599798.got - 2010.06.03 11:33:40.
