data_PCOD9108753
_publ_section_title
;
Structure prediction by ZEFSAII (Michael W. Deem and Ramdas Pophale) SiO2 
 PCOD9108753
Probable space group: P -1
;
_chemical_formula_sum "Si O2"
_cell_formula_units_Z 14
_cell_length_a 16.525508
_cell_length_b 5.614817
_cell_length_c 17.619092
_cell_angle_alpha 47.040915
_cell_angle_beta 29.420851
_cell_angle_gamma 59.480961
_cell_volume 570.745366
_symmetry_space_group_name_H-M "P -1"
_symmetry_group_IT_number 2
_symmetry_cell_setting 'triclinic'
loop_
_space_group_symop_operation_xyz
x,y,z
-x,-y,-z
loop_
_atom_site_type_symbol
_atom_site_label
_atom_site_fract_x
_atom_site_fract_y
_atom_site_fract_z
Si Si1 0.939540 0.623853 0.810044
Si Si2 0.089761 0.370338 0.880616
Si Si3 0.259864 0.331196 0.250805
Si Si4 0.376420 0.304510 0.328518
Si Si5 0.095701 0.640678 0.512794
Si Si6 0.644547 0.929108 0.201262
Si Si7 0.354143 0.071686 0.974115
O O1 0.832444 0.891000 0.859897
O O2 0.069117 0.601754 0.776428
O O3 0.027300 0.673766 0.646361
O O4 0.795604 0.271034 0.001475
O O5 0.276149 0.332355 0.760420
O O6 0.000000 0.500000 0.000000
O O7 0.000000 0.000000 0.000000
O O8 0.329003 0.241485 0.293475
O O9 0.069109 0.388840 0.397638
O O10 0.363467 0.688543 0.058877
O O11 0.226487 0.987983 0.305204
O O12 0.202752 0.363151 0.491148
O O13 0.474398 0.040113 0.340091
O O14 0.513221 0.660070 0.144601
O O15 0.616954 0.817542 0.160931
#
# Coordination Sequence:
#
# PCOD9108753 Si02
#       7
#     2   2   2   2   2   2   2
#     4  10  22  39  66  97 126 168 218 277 333 395
#     4  10  20  40  71 103 130 170 224 284 336 401
#     4  11  25  41  63  89 130 180 224 264 324 397
#     4  11  25  40  61  92 135 174 216 275 330 392
#     4  11  25  41  61  93 133 175 218 268 333 400
#     4  10  21  41  64  97 128 165 219 277 332 395
#     4  11  22  40  65  92 128 168 225 272 323 392
#
# _framework density 24.529329000000001
#
# number of rings (size 3 to 8) (size 9 to 14) (size 15 to 20)
#    0.000    1.429    2.857    1.714    6.000    2.286 
#    0.000    0.714    0.000    3.429    0.000    0.000 
#    0.000    0.000    0.000    0.000    0.000    0.000 
#
# Total GULP energy -78262.513303 kJ/mol
# GULP energy per Si atom -5590.179522 kJ/mol
# Density = 2.447350 g / cm^3
# Si number density = 24.529329 Si / 1000 Ang^3
#
#
#
# Elastic Constant Matrix: (Units=GPa)
#
#
# Indices 1 2 3 4 5 6 
#
# 1 110.6966 34.6955 13.3298 16.7143 -22.7760 -32.1693
# 2 34.6955 138.9981 45.2929 39.0344 -11.6969 -33.4957
# 3 13.3298 45.2929 58.7229 13.7766 -19.2821 -12.2222
# 4 16.7143 39.0344 13.7766 63.5106 3.4760 -16.3303
# 5 -22.7760 -11.6969 -19.2821 3.4760 40.1618 7.3077
# 6 -32.1693 -33.4957 -12.2222 -16.3303 7.3077 45.3995
#
#
#
# Elastic Compliance Matrix: (Units=1/GPa)
#
#
# Indices 1 2 3 4 5 6 
#
# 1 0.012867 -0.001114 0.002055 -0.001682 0.006804 0.007148
# 2 -0.001114 0.012187 -0.007542 -0.004251 -0.001216 0.004839
# 3 0.002055 -0.007542 0.026956 -0.002314 0.012042 0.000377
# 4 -0.001682 -0.004251 -0.002314 0.020469 -0.005680 0.003326
# 5 0.006804 -0.001216 0.012042 -0.005680 0.034763 -0.000473
# 6 0.007148 0.004839 0.000377 0.003326 -0.000473 0.032036
#
#
# Mechanical properties :
#
#
# Convention : Reuss Voigt Hill
#
# Bulk Modulus (GPa) = 25.76840 55.00600 40.38720
# Shear Modulus (GPa) = 30.22698 44.15432 37.19065
#
# Velocity S-wave (km/s) = 3.51419 4.24732 3.89803
# Velocity P-wave (km/s) = 5.19558 6.82101 6.06301
#
# Compressibility (1/GPa) = 0.03880722
#
# Stress axis : x y z
#
# Youngs Moduli (GPa) = 77.72112 82.05145 37.09805
#
# Poissons Ratio (x) = 0.09139 -0.07623
# Poissons Ratio (y) = 0.08657 0.27980
# Poissons Ratio (z) = -0.15970 0.61885
#
# Static dielectric constant tensor:
#      x y z
#    x 1.916970 0.023380 -0.028020 
#    y 0.023380 2.036610 -0.013810 
#    z -0.028020 -0.013810 1.986900 
# 
# From -- ./inp_files/34287.got.cif
#   From: 2010.05.17/outbox.cif.g08.bks.cpg/sg2_18_cif.got.tgz:34287.got - 2010.06.03 11:33:40.
