data_PCOD9108148
_publ_section_title
;
Structure prediction by ZEFSAII (Michael W. Deem and Ramdas Pophale) SiO2 
 PCOD9108148
Probable space group: P -1
;
_chemical_formula_sum "Si O2"
_cell_formula_units_Z 16
_cell_length_a 17.227807
_cell_length_b 8.520717
_cell_length_c 11.014155
_cell_angle_alpha 122.274331
_cell_angle_beta 30.635648
_cell_angle_gamma 124.123693
_cell_volume 676.975781
_symmetry_space_group_name_H-M "P -1"
_symmetry_group_IT_number 2
_symmetry_cell_setting 'triclinic'
loop_
_space_group_symop_operation_xyz
x,y,z
-x,-y,-z
loop_
_atom_site_type_symbol
_atom_site_label
_atom_site_fract_x
_atom_site_fract_y
_atom_site_fract_z
Si Si1 0.112498 0.375197 0.685146
Si Si2 0.857761 0.682821 0.827330
Si Si3 0.087841 0.705287 0.312265
Si Si4 0.446480 0.696563 0.128966
Si Si5 0.851276 0.211151 0.133016
Si Si6 0.178940 0.866384 0.591196
Si Si7 0.388077 0.087619 0.774668
Si Si8 0.310822 0.082001 0.269836
O O1 0.197170 0.591063 0.693002
O O2 0.223474 0.250621 0.434318
O O3 0.977113 0.361297 0.760890
O O4 0.030119 0.280192 0.880095
O O5 0.846343 0.465761 0.789999
O O6 0.936301 0.721634 0.604189
O O7 0.998601 0.807355 0.770253
O O8 0.694361 0.743271 0.085059
O O9 0.218653 0.901205 0.239274
O O10 0.262029 0.688605 0.383805
O O11 0.523685 0.840134 0.191695
O O12 0.500000 0.500000 0.000000
O O13 0.514928 0.812467 0.962876
O O14 0.817862 0.093861 0.254048
O O15 0.761881 0.089101 0.093100
O O16 0.276066 0.022105 0.432287
O O17 0.500000 0.000000 0.500000
#
# Coordination Sequence:
#
# PCOD9108148 Si02
#       8
#     2   2   2   2   2   2   2   2
#     4  11  22  40  66 106 137 189 235 292 343 428
#     4  10  23  40  75 101 140 183 238 298 352 414
#     4  10  20  40  67 108 140 176 242 299 352 405
#     4  12  27  47  75  99 144 188 239 295 354 419
#     4  11  23  43  66  96 147 185 233 281 354 432
#     4  11  23  46  68 105 140 184 236 290 352 417
#     4  12  26  46  69 104 142 193 233 284 365 430
#     4  11  24  39  71 103 140 181 243 295 351 409
#
# _framework density 23.634523999999999
#
# number of rings (size 3 to 8) (size 9 to 14) (size 15 to 20)
#    0.000    1.000    2.500    4.500    5.250    2.000 
#    0.000    0.000    0.000    3.000    0.000    0.000 
#    0.000    0.000    0.000    0.000    0.000    0.000 
#
# Total GULP energy -89422.896467 kJ/mol
# GULP energy per Si atom -5588.931029 kJ/mol
# Density = 2.358073 g / cm^3
# Si number density = 23.634524 Si / 1000 Ang^3
#
#
#
# Elastic Constant Matrix: (Units=GPa)
#
#
# Indices 1 2 3 4 5 6 
#
# 1 95.8391 19.0836 24.1094 -0.9213 10.6529 9.7572
# 2 19.0836 91.5174 16.6193 11.5101 18.2044 6.8319
# 3 24.1094 16.6193 94.9863 11.5442 -7.2867 -21.4417
# 4 -0.9213 11.5101 11.5442 38.1158 -8.9867 4.8242
# 5 10.6529 18.2044 -7.2867 -8.9867 36.4099 3.7550
# 6 9.7572 6.8319 -21.4417 4.8242 3.7550 29.7708
#
#
#
# Elastic Compliance Matrix: (Units=1/GPa)
#
#
# Indices 1 2 3 4 5 6 
#
# 1 0.013217 -0.000834 -0.005613 0.002582 -0.003089 -0.008212
# 2 -0.000834 0.014182 -0.003066 -0.004915 -0.008329 -0.003342
# 3 -0.005613 -0.003066 0.016820 -0.005345 0.003669 0.015061
# 4 0.002582 -0.004915 -0.005345 0.033003 0.009825 -0.010156
# 5 -0.003089 -0.008329 0.003669 0.009825 0.035748 -0.000535
# 6 -0.008212 -0.003342 0.015061 -0.010156 -0.000535 0.049609
#
#
# Mechanical properties :
#
#
# Convention : Reuss Voigt Hill
#
# Bulk Modulus (GPa) = 39.69446 44.66304 42.17875
# Shear Modulus (GPa) = 26.31566 35.69467 31.00516
#
# Velocity S-wave (km/s) = 3.34045 3.89044 3.62589
# Velocity P-wave (km/s) = 5.63114 6.25453 5.95100
#
# Compressibility (1/GPa) = 0.02519243
#
# Stress axis : x y z
#
# Youngs Moduli (GPa) = 75.66297 70.51255 59.45371
#
# Poissons Ratio (x) = 0.05880 0.33373
# Poissons Ratio (y) = 0.06309 0.18227
# Poissons Ratio (z) = 0.42472 0.21617
#
# Static dielectric constant tensor:
#      x y z
#    x 1.915110 -0.030590 -0.030280 
#    y -0.030590 1.916810 0.009580 
#    z -0.030280 0.009580 1.954590 
# 
# From -- ./inp_files/462411.got.cif
#   From: 2010.05.17/outbox.cif.g08.bks.cpg/sg2_232_cif.got.tgz:462411.got - 2010.06.03 11:33:40.
