data_PCOD9108100
_publ_section_title
;
Structure prediction by ZEFSAII (Michael W. Deem and Ramdas Pophale) SiO2 
 PCOD9108100
Probable space group: P -1
;
_chemical_formula_sum "Si O2"
_cell_formula_units_Z 16
_cell_length_a 10.882930
_cell_length_b 16.282351
_cell_length_c 19.200814
_cell_angle_alpha 153.676397
_cell_angle_beta 148.096272
_cell_angle_gamma 44.738940
_cell_volume 778.569991
_symmetry_space_group_name_H-M "P -1"
_symmetry_group_IT_number 2
_symmetry_cell_setting 'triclinic'
loop_
_space_group_symop_operation_xyz
x,y,z
-x,-y,-z
loop_
_atom_site_type_symbol
_atom_site_label
_atom_site_fract_x
_atom_site_fract_y
_atom_site_fract_z
Si Si1 0.526632 0.474860 0.575141
Si Si2 0.928614 0.046315 0.379634
Si Si3 0.086278 0.337146 0.997120
Si Si4 0.660872 0.872563 0.257527
Si Si5 0.117029 0.333751 0.462999
Si Si6 0.641153 0.486419 0.877614
Si Si7 0.290964 0.814213 0.743798
Si Si8 0.741418 0.908183 0.776706
O O1 0.500000 0.500000 0.500000
O O2 0.789392 0.558406 0.795242
O O3 0.386937 0.623154 0.655699
O O4 0.413937 0.259341 0.378078
O O5 0.819005 0.191286 0.391114
O O6 0.193626 0.089784 0.571785
O O7 0.782484 0.994311 0.341519
O O8 0.901925 0.874267 0.180513
O O9 0.242195 0.451247 0.095019
O O10 0.810133 0.347218 0.875202
O O11 0.408747 0.931428 0.187216
O O12 0.674906 0.663970 0.080615
O O13 0.359182 0.419015 0.685334
O O14 0.206264 0.204519 0.351045
O O15 0.000000 0.500000 0.500000
O O16 0.920650 0.201283 0.315127
O O17 0.500000 0.000000 0.000000
O O18 0.000000 0.000000 0.000000
#
# Coordination Sequence:
#
# PCOD9108100 Si02
#       8
#     2   2   2   2   2   2   2   2
#     4  12  26  42  67 100 138 173 222 279 333 398
#     4  10  22  41  67  98 134 172 223 276 327 403
#     4  10  20  40  66  98 132 176 222 265 336 400
#     4  10  23  40  69 100 131 173 223 276 334 396
#     4  12  24  45  68  96 135 181 228 274 333 401
#     4  10  21  39  68  97 131 175 224 273 326 401
#     4  12  26  45  69 100 134 178 227 277 337 399
#     4  12  26  42  66  99 135 177 225 274 334 396
#
# _framework density 20.550497
#
# number of rings (size 3 to 8) (size 9 to 14) (size 15 to 20)
#    0.000    1.000    3.750    2.250   12.250    0.000 
#    0.000    4.375    0.000    0.000    0.000    0.000 
#    0.000    0.000    0.000    0.000    0.000    0.000 
#
# Total GULP energy -89252.538084 kJ/mol
# GULP energy per Si atom -5578.283630 kJ/mol
# Density = 2.050372 g / cm^3
# Si number density = 20.550497 Si / 1000 Ang^3
#
#
#
# Elastic Constant Matrix: (Units=GPa)
#
#
# Indices 1 2 3 4 5 6 
#
# 1 68.4132 9.5408 19.5617 -6.8538 0.7935 -7.4162
# 2 9.5408 108.7526 29.5339 -19.5232 4.5621 -21.5784
# 3 19.5617 29.5339 85.2407 -26.4024 1.1866 7.0804
# 4 -6.8538 -19.5232 -26.4024 36.3862 -3.4671 -2.4457
# 5 0.7935 4.5621 1.1866 -3.4671 30.7975 -7.0840
# 6 -7.4162 -21.5784 7.0804 -2.4457 -7.0840 33.6060
#
#
#
# Elastic Compliance Matrix: (Units=1/GPa)
#
#
# Indices 1 2 3 4 5 6 
#
# 1 0.016366 0.000907 -0.004235 0.000947 0.000945 0.005354
# 2 0.000907 0.013054 -0.004019 0.005034 0.001069 0.010021
# 3 -0.004235 -0.004019 0.017525 0.009274 -0.000451 -0.006628
# 4 0.000947 0.005034 0.009274 0.037850 0.004319 0.005152
# 5 0.000945 0.001069 -0.000451 0.004319 0.034777 0.008636
# 6 0.005354 0.010021 -0.006628 0.005152 0.008636 0.040964
#
#
# Mechanical properties :
#
#
# Convention : Reuss Voigt Hill
#
# Bulk Modulus (GPa) = 31.00637 42.18659 36.59648
# Shear Modulus (GPa) = 26.88454 33.74261 30.31357
#
# Velocity S-wave (km/s) = 3.62085 4.05648 3.84484
# Velocity P-wave (km/s) = 5.70977 6.52019 6.12839
#
# Compressibility (1/GPa) = 0.03225143
#
# Stress axis : x y z
#
# Youngs Moduli (GPa) = 61.10333 76.60317 57.06099
#
# Poissons Ratio (x) = -0.06947 0.24164
# Poissons Ratio (y) = -0.05541 0.22933
# Poissons Ratio (z) = 0.25875 0.30787
#
# Static dielectric constant tensor:
#      x y z
#    x 1.737090 0.008380 0.002080 
#    y 0.008380 1.764410 0.006830 
#    z 0.002080 0.006830 1.668600 
# 
# From -- ./inp_files/260126.got.cif
#   From: 2010.05.17/outbox.cif.g08.bks.cpg/sg2_131_cif.got.tgz:260126.got - 2010.06.03 11:33:40.
