data_PCOD9108361
_publ_section_title
;
Structure prediction by ZEFSAII (Michael W. Deem and Ramdas Pophale) SiO2 
 PCOD9108361
Probable space group: P -1
;
_chemical_formula_sum "Si O2"
_cell_formula_units_Z 16
_cell_length_a 14.616995
_cell_length_b 14.899218
_cell_length_c 7.363677
_cell_angle_alpha 100.646192
_cell_angle_beta 70.513601
_cell_angle_gamma 150.459353
_cell_volume 725.941975
_symmetry_space_group_name_H-M "P -1"
_symmetry_group_IT_number 2
_symmetry_cell_setting 'triclinic'
loop_
_space_group_symop_operation_xyz
x,y,z
-x,-y,-z
loop_
_atom_site_type_symbol
_atom_site_label
_atom_site_fract_x
_atom_site_fract_y
_atom_site_fract_z
Si Si1 0.596138 0.393345 0.138841
Si Si2 0.463002 0.852969 0.778697
Si Si3 0.591837 0.880758 0.316466
Si Si4 0.674922 0.680318 0.826785
Si Si5 0.279207 0.882083 0.975741
Si Si6 0.004018 0.207198 0.003793
Si Si7 0.936969 0.929774 0.302584
Si Si8 0.524340 0.400269 0.587867
O O1 0.591932 0.282308 0.122073
O O2 0.393713 0.272902 0.157530
O O3 0.609529 0.441056 0.353669
O O4 0.783044 0.589054 0.984503
O O5 0.533102 0.878842 0.544018
O O6 0.291761 0.788570 0.866064
O O7 0.642089 0.045980 0.845246
O O8 0.573068 0.937716 0.187014
O O9 0.477116 0.690024 0.314970
O O10 0.826371 0.049747 0.207113
O O11 0.894599 0.868459 0.829919
O O12 0.649676 0.589035 0.644335
O O13 0.500000 0.500000 0.000000
O O14 0.074065 0.767262 0.045432
O O15 0.023887 0.138645 0.828667
O O16 0.000000 0.000000 0.500000
O O17 0.708784 0.766455 0.350087
#
# Coordination Sequence:
#
# PCOD9108361 Si02
#       8
#     2   2   2   2   2   2   2   2
#     4  11  22  40  58  88 121 160 206 253 305 370
#     4  10  20  40  68  85 119 160 203 257 314 365
#     4   9  22  38  63  89 122 163 199 253 312 371
#     4  12  25  36  58  88 123 166 203 252 305 359
#     4   9  21  39  65  91 116 154 211 255 306 377
#     4  10  22  38  59  87 127 155 207 259 300 369
#     4  12  23  39  64  87 124 172 209 253 304 369
#     4  11  23  41  59  88 125 166 209 250 303 368
#
# _framework density 22.040329
#
# number of rings (size 3 to 8) (size 9 to 14) (size 15 to 20)
#    0.750    0.750    2.500    3.000    5.250    1.500 
#    0.000    0.000    0.000    1.500    0.000    0.000 
#    0.000    0.000    0.000    0.000    0.000    0.000 
#
# Total GULP energy -89298.906204 kJ/mol
# GULP energy per Si atom -5581.181638 kJ/mol
# Density = 2.199016 g / cm^3
# Si number density = 22.040329 Si / 1000 Ang^3
#
#
#
# Elastic Constant Matrix: (Units=GPa)
#
#
# Indices 1 2 3 4 5 6 
#
# 1 111.3759 29.1045 21.0756 14.7379 -28.3852 -22.2736
# 2 29.1045 108.9371 33.3902 0.6917 -22.6757 -3.2464
# 3 21.0756 33.3902 92.5088 18.8182 -19.6116 -13.3879
# 4 14.7379 0.6917 18.8182 33.3961 -5.3441 2.2778
# 5 -28.3852 -22.6757 -19.6116 -5.3441 36.0809 0.0328
# 6 -22.2736 -3.2464 -13.3879 2.2778 0.0328 33.0198
#
#
#
# Elastic Compliance Matrix: (Units=1/GPa)
#
#
# Indices 1 2 3 4 5 6 
#
# 1 0.015090 -0.002236 0.002840 -0.007256 0.010924 0.011600
# 2 -0.002236 0.011740 -0.003964 0.003773 0.004025 -0.002226
# 3 0.002840 -0.003964 0.016407 -0.009869 0.007191 0.008852
# 4 -0.007256 0.003773 -0.009869 0.038925 -0.002926 -0.011208
# 5 0.010924 0.004025 0.007191 -0.002926 0.042305 0.010840
# 6 0.011600 -0.002226 0.008852 -0.011208 0.010840 0.042242
#
#
# Mechanical properties :
#
#
# Convention : Reuss Voigt Hill
#
# Bulk Modulus (GPa) = 27.38584 53.32918 40.35751
# Shear Modulus (GPa) = 26.93949 35.78277 31.36113
#
# Velocity S-wave (km/s) = 3.49991 4.03366 3.77622
# Velocity P-wave (km/s) = 5.36514 6.77809 6.11258
#
# Compressibility (1/GPa) = 0.03651523
#
# Stress axis : x y z
#
# Youngs Moduli (GPa) = 66.26978 85.18118 60.95059
#
# Poissons Ratio (x) = 0.19050 -0.17311
# Poissons Ratio (y) = 0.14820 0.24163
# Poissons Ratio (z) = -0.18822 0.33769
#
# Static dielectric constant tensor:
#      x y z
#    x 1.878790 -0.012140 0.062580 
#    y -0.012140 1.829770 -0.009700 
#    z 0.062580 -0.009700 1.902610 
# 
# From -- ./inp_files/315565.got.cif
#   From: 2010.05.17/outbox.cif.g08.bks.cpg/sg2_158_cif.got.tgz:315565.got - 2010.06.03 11:33:40.
