data_PCOD9108525
_publ_section_title
;
Structure prediction by ZEFSAII (Michael W. Deem and Ramdas Pophale) SiO2 
 PCOD9108525
Probable space group: P -1
;
_chemical_formula_sum "Si O2"
_cell_formula_units_Z 16
_cell_length_a 29.614671
_cell_length_b 18.363797
_cell_length_c 24.423235
_cell_angle_alpha 18.197893
_cell_angle_beta 10.530280
_cell_angle_gamma 17.368774
_cell_volume 707.904612
_symmetry_space_group_name_H-M "P -1"
_symmetry_group_IT_number 2
_symmetry_cell_setting 'triclinic'
loop_
_space_group_symop_operation_xyz
x,y,z
-x,-y,-z
loop_
_atom_site_type_symbol
_atom_site_label
_atom_site_fract_x
_atom_site_fract_y
_atom_site_fract_z
Si Si1 0.766456 0.263773 0.357808
Si Si2 0.140770 0.703942 0.110440
Si Si3 0.397301 0.071849 0.131736
Si Si4 0.054584 0.482603 0.689981
Si Si5 0.627494 0.333037 0.742888
Si Si6 0.332659 0.131178 0.523773
Si Si7 0.827420 0.077719 0.298888
Si Si8 0.660696 0.756518 0.320560
O O1 0.500000 0.500000 0.500000
O O2 0.789636 0.098740 0.393418
O O3 0.731707 0.116321 0.557255
O O4 0.034546 0.321166 0.002567
O O5 0.888062 0.723284 0.361107
O O6 0.375099 0.446060 0.003523
O O7 0.025343 0.812164 0.229814
O O8 0.241623 0.916217 0.812552
O O9 0.174097 0.346356 0.198576
O O10 0.617836 0.089077 0.899035
O O11 0.500000 0.000000 0.000000
O O12 0.128621 0.662252 0.514998
O O13 0.309110 0.319695 0.466866
O O14 0.948159 0.289483 0.985708
O O15 0.611467 0.531494 0.571821
O O16 0.590309 0.982120 0.288240
O O17 0.551012 0.150519 0.542597
#
# Coordination Sequence:
#
# PCOD9108525 Si02
#       8
#     2   2   2   2   2   2   2   2
#     4  12  28  47  67  95 126 175 227 272 331 391
#     4   8  15  31  62 102 134 169 210 261 313 389
#     4  12  28  49  65  91 134 172 221 282 324 386
#     4  11  20  38  70 103 135 172 216 265 322 386
#     4  11  21  38  72 103 129 174 222 261 327 388
#     4   8  15  31  62 102 136 167 210 261 316 385
#     4  10  20  40  69 102 138 169 216 268 320 385
#     4  10  21  40  71 102 132 172 219 268 322 386
#
# _framework density 22.601914000000001
#
# number of rings (size 3 to 8) (size 9 to 14) (size 15 to 20)
#    0.000    1.750    3.750    2.250    1.750    3.500 
#    0.000    1.250    0.000    0.000    0.000    0.000 
#    0.000    0.000    0.000    0.000    0.000    0.000 
#
# Total GULP energy -89414.019497 kJ/mol
# GULP energy per Si atom -5588.376219 kJ/mol
# Density = 2.255047 g / cm^3
# Si number density = 22.601914 Si / 1000 Ang^3
#
#
#
# Elastic Constant Matrix: (Units=GPa)
#
#
# Indices 1 2 3 4 5 6 
#
# 1 65.0879 0.0268 23.8506 15.2171 -7.6146 10.1719
# 2 0.0268 42.2265 34.1718 15.3163 4.6103 10.8914
# 3 23.8506 34.1718 100.0514 27.1513 -8.4017 3.8761
# 4 15.2171 15.3163 27.1513 23.3302 4.7086 3.2077
# 5 -7.6146 4.6103 -8.4017 4.7086 42.5757 -1.1287
# 6 10.1719 10.8914 3.8761 3.2077 -1.1287 32.1488
#
#
#
# Elastic Compliance Matrix: (Units=1/GPa)
#
#
# Indices 1 2 3 4 5 6 
#
# 1 0.022559 0.011154 -0.003917 -0.017043 0.003710 -0.008613
# 2 0.011154 0.045320 -0.012527 -0.019578 -0.003632 -0.015546
# 3 -0.003917 -0.012527 0.019168 -0.013397 0.006045 0.004721
# 4 -0.017043 -0.019578 -0.013397 0.084345 -0.012773 0.004776
# 5 0.003710 -0.003632 0.006045 -0.012773 0.027191 0.001557
# 6 -0.008613 -0.015546 0.004721 0.004776 0.001557 0.038106
#
#
# Mechanical properties :
#
#
# Convention : Reuss Voigt Hill
#
# Bulk Modulus (GPa) = 13.07773 35.94046 24.50910
# Shear Modulus (GPa) = 18.33121 29.56537 23.94829
#
# Velocity S-wave (km/s) = 2.85098 3.62068 3.25863
# Velocity P-wave (km/s) = 4.07874 5.78058 5.00256
#
# Compressibility (1/GPa) = 0.07646586
#
# Stress axis : x y z
#
# Youngs Moduli (GPa) = 44.32777 22.06523 52.17158
#
# Poissons Ratio (x) = -0.24611 0.20436
# Poissons Ratio (y) = -0.49442 0.65357
# Poissons Ratio (z) = 0.17363 0.27642
#
# Static dielectric constant tensor:
#      x y z
#    x 1.844010 0.027590 -0.025890 
#    y 0.027590 1.851510 0.030710 
#    z -0.025890 0.030710 1.834780 
# 
# From -- ./inp_files/614546.got.cif
#   From: 2010.05.17/outbox.cif.g08.bks.cpg/sg2_308_cif.got.tgz:614546.got - 2010.06.03 11:33:40.
