data_PCOD9108708
_publ_section_title
;
Structure prediction by ZEFSAII (Michael W. Deem and Ramdas Pophale) SiO2 
 PCOD9108708
Probable space group: P -1
;
_chemical_formula_sum "Si O2"
_cell_formula_units_Z 16
_cell_length_a 19.164957
_cell_length_b 5.356401
_cell_length_c 21.254294
_cell_angle_alpha 59.256342
_cell_angle_beta 161.009659
_cell_angle_gamma 119.386229
_cell_volume 610.007625
_symmetry_space_group_name_H-M "P -1"
_symmetry_group_IT_number 2
_symmetry_cell_setting 'triclinic'
loop_
_space_group_symop_operation_xyz
x,y,z
-x,-y,-z
loop_
_atom_site_type_symbol
_atom_site_label
_atom_site_fract_x
_atom_site_fract_y
_atom_site_fract_z
Si Si1 0.621626 0.170122 0.527579
Si Si2 0.106575 0.687000 0.145912
Si Si3 0.414194 0.221719 0.688473
Si Si4 0.895980 0.232555 0.654504
Si Si5 0.705823 0.445853 0.017165
Si Si6 0.594152 0.675313 0.117062
Si Si7 0.994992 0.072899 0.616124
Si Si8 0.308738 0.660060 0.193119
O O1 0.807450 0.326282 0.708278
O O2 0.747333 0.019071 0.597695
O O3 0.433501 0.371853 0.318366
O O4 0.500000 0.000000 0.500000
O O5 0.292202 0.680924 0.251582
O O6 0.935089 0.422345 0.023171
O O7 0.000000 0.000000 0.000000
O O8 0.249925 0.482212 0.501434
O O9 0.606733 0.327195 0.883796
O O10 0.537380 0.116800 0.743825
O O11 0.239630 0.006619 0.601192
O O12 0.939747 0.175615 0.626455
O O13 0.127586 0.285091 0.876852
O O14 0.501796 0.484530 0.883036
O O15 0.854742 0.203121 0.207448
O O16 0.847979 0.718437 0.317012
O O17 0.500000 0.500000 0.000000
O O18 0.500000 0.000000 0.000000
#
# Coordination Sequence:
#
# PCOD9108708 Si02
#       8
#     2   2   2   2   2   2   2   2
#     4  11  22  38  59  84 117 162 205 251 323 370
#     4  11  22  38  58  84 112 152 208 256 308 378
#     4  10  23  39  60  91 122 162 209 263 316 383
#     4  10  22  40  60  86 124 161 206 266 311 388
#     4  10  21  41  64  89 125 165 209 253 327 379
#     4  10  20  40  70  96 135 175 215 266 328 392
#     4  10  22  39  63  92 124 163 209 257 321 381
#     4  10  23  40  58  82 123 158 200 264 316 371
#
# _framework density 26.229178000000001
#
# number of rings (size 3 to 8) (size 9 to 14) (size 15 to 20)
#    0.000    1.750    2.500    1.125    1.750    2.500 
#    2.250    0.625    0.000    0.000    0.000    0.000 
#    0.000    0.000    0.000    0.000    0.000    0.000 
#
# Total GULP energy -89343.757826 kJ/mol
# GULP energy per Si atom -5583.984864 kJ/mol
# Density = 2.616948 g / cm^3
# Si number density = 26.229178 Si / 1000 Ang^3
#
#
#
# Elastic Constant Matrix: (Units=GPa)
#
#
# Indices 1 2 3 4 5 6 
#
# 1 138.3380 -0.2474 10.5150 18.7676 58.7092 -4.1523
# 2 -0.2474 45.6529 31.1152 -4.9748 17.1741 -3.7458
# 3 10.5150 31.1152 77.2093 2.7085 13.8915 16.3564
# 4 18.7676 -4.9748 2.7085 54.6031 1.6788 3.6630
# 5 58.7092 17.1741 13.8915 1.6788 65.7596 18.7154
# 6 -4.1523 -3.7458 16.3564 3.6630 18.7154 32.1071
#
#
#
# Elastic Compliance Matrix: (Units=1/GPa)
#
#
# Indices 1 2 3 4 5 6 
#
# 1 0.027129 0.027873 -0.015789 -0.007376 -0.038878 0.038307
# 2 0.027873 0.071200 -0.035825 -0.003815 -0.053377 0.061711
# 3 -0.015789 -0.035825 0.032813 0.002323 0.027652 -0.039321
# 4 -0.007376 -0.003815 0.002323 0.020799 0.009556 -0.010525
# 5 -0.038878 -0.053377 0.027652 0.009556 0.078281 -0.072063
# 6 0.038307 0.061711 -0.039321 -0.010525 -0.072063 0.106537
#
#
# Mechanical properties :
#
#
# Convention : Reuss Voigt Hill
#
# Bulk Modulus (GPa) = 11.95321 38.21841 25.08581
# Shear Modulus (GPa) = 12.13218 45.14846 28.64032
#
# Velocity S-wave (km/s) = 2.15302 4.15336 3.30802
# Velocity P-wave (km/s) = 3.27838 6.13214 4.91686
#
# Compressibility (1/GPa) = 0.08365956
#
# Stress axis : x y z
#
# Youngs Moduli (GPa) = 36.86140 14.04495 30.47597
#
# Poissons Ratio (x) = -0.39147 0.48118
# Poissons Ratio (y) = -1.02744 1.09180
# Poissons Ratio (z) = 0.58200 0.50316
#
# Static dielectric constant tensor:
#      x y z
#    x 2.311580 0.227730 -0.052810 
#    y 0.227730 2.306550 0.051410 
#    z -0.052810 0.051410 2.045060 
# 
# From -- ./inp_files/52855.got.cif
#   From: 2010.05.17/outbox.cif.g08.bks.cpg/sg2_27_cif.got.tgz:52855.got - 2010.06.03 11:33:40.
