data_PCOD9108305
_publ_section_title
;
Structure prediction by ZEFSAII (Michael W. Deem and Ramdas Pophale) SiO2 
 PCOD9108305
Probable space group: P -1
;
_chemical_formula_sum "Si O2"
_cell_formula_units_Z 16
_cell_length_a 9.404841
_cell_length_b 17.888675
_cell_length_c 9.319337
_cell_angle_alpha 118.356726
_cell_angle_beta 43.691063
_cell_angle_gamma 144.063701
_cell_volume 611.561673
_symmetry_space_group_name_H-M "P -1"
_symmetry_group_IT_number 2
_symmetry_cell_setting 'triclinic'
loop_
_space_group_symop_operation_xyz
x,y,z
-x,-y,-z
loop_
_atom_site_type_symbol
_atom_site_label
_atom_site_fract_x
_atom_site_fract_y
_atom_site_fract_z
Si Si1 0.214824 0.985410 0.587432
Si Si2 0.721019 0.389129 0.945495
Si Si3 0.830108 0.282445 0.438152
Si Si4 0.264082 0.867779 0.878798
Si Si5 0.473241 0.191962 0.190412
Si Si6 0.904277 0.872255 0.982202
Si Si7 0.451303 0.478867 0.345422
Si Si8 0.643014 0.371425 0.472948
O O1 0.594153 0.994740 0.667040
O O2 0.886580 0.920861 0.709108
O O3 0.109492 0.895581 0.718072
O O4 0.474444 0.135219 0.591483
O O5 0.450846 0.270529 0.924506
O O6 0.064237 0.504776 0.728298
O O7 0.687120 0.310633 0.027466
O O8 0.629075 0.453290 0.129207
O O9 0.919360 0.259014 0.205877
O O10 0.789591 0.365529 0.490880
O O11 0.086265 0.351751 0.438850
O O12 0.376103 0.851493 0.920677
O O13 0.041248 0.878880 0.036211
O O14 0.460551 0.244367 0.392769
O O15 0.000000 0.000000 0.000000
O O16 0.500000 0.500000 0.500000
O O17 0.547884 0.602959 0.328882
#
# Coordination Sequence:
#
# PCOD9108305 Si02
#       8
#     2   2   2   2   2   2   2   2
#     4   9  20  39  69  90 130 171 221 280 331 401
#     4  11  24  45  66  98 142 178 226 285 340 402
#     4   9  22  42  66 100 129 177 232 282 334 407
#     4   9  19  38  68  95 126 172 221 277 335 399
#     4  10  20  40  67  98 134 173 220 280 346 394
#     4  11  23  42  64  99 130 177 229 278 349 405
#     4  12  24  42  67  99 137 183 231 274 341 408
#     4  11  24  42  69  96 138 183 228 276 340 410
#
# _framework density 26.162527999999998
#
# number of rings (size 3 to 8) (size 9 to 14) (size 15 to 20)
#    0.750    1.000    2.500    1.500    1.750    0.500 
#    0.000    2.500    2.750    0.000    0.000    0.875 
#    0.000    0.000    0.000    0.000    0.000    0.000 
#
# Total GULP energy -89516.154342 kJ/mol
# GULP energy per Si atom -5594.759646 kJ/mol
# Density = 2.610298 g / cm^3
# Si number density = 26.162528 Si / 1000 Ang^3
#
#
#
# Elastic Constant Matrix: (Units=GPa)
#
#
# Indices 1 2 3 4 5 6 
#
# 1 219.1442 60.6171 31.8259 -4.9467 -15.8202 4.0800
# 2 60.6171 91.3608 28.7544 11.7167 -8.4382 22.7762
# 3 31.8259 28.7544 71.2114 11.1977 6.5567 -1.4796
# 4 -4.9467 11.7167 11.1977 40.3294 -9.1062 -1.7769
# 5 -15.8202 -8.4382 6.5567 -9.1062 27.8295 6.0787
# 6 4.0800 22.7762 -1.4796 -1.7769 6.0787 58.4961
#
#
#
# Elastic Compliance Matrix: (Units=1/GPa)
#
#
# Indices 1 2 3 4 5 6 
#
# 1 0.006244 -0.003688 -0.002174 0.003350 0.003899 0.000642
# 2 -0.003688 0.017986 -0.005754 -0.003214 0.005308 -0.007541
# 3 -0.002174 -0.005754 0.019336 -0.006139 -0.010369 0.003772
# 4 0.003350 -0.003214 -0.006139 0.030643 0.012290 0.000516
# 5 0.003899 0.005308 -0.010369 0.012290 0.047795 -0.007194
# 6 0.000642 -0.007541 0.003772 0.000516 -0.007194 0.020845
#
#
# Mechanical properties :
#
#
# Convention : Reuss Voigt Hill
#
# Bulk Modulus (GPa) = 49.17956 69.34571 59.26263
# Shear Modulus (GPa) = 28.92512 42.69893 35.81203
#
# Velocity S-wave (km/s) = 3.32865 4.04426 3.70378
# Velocity P-wave (km/s) = 5.79757 6.95495 6.40247
#
# Compressibility (1/GPa) = 0.02033365
#
# Stress axis : x y z
#
# Youngs Moduli (GPa) = 160.14602 55.59804 51.71684
#
# Poissons Ratio (x) = 0.20507 0.11242
# Poissons Ratio (y) = 0.59069 0.29759
# Poissons Ratio (z) = 0.34812 0.31993
#
# Static dielectric constant tensor:
#      x y z
#    x 2.035120 -0.014090 -0.032150 
#    y -0.014090 2.038390 0.076730 
#    z -0.032150 0.076730 2.242970 
# 
# From -- ./inp_files/222248.got.cif
#   From: 2010.05.17/outbox.cif.g08.bks.cpg/sg2_112_cif.got.tgz:222248.got - 2010.06.03 11:33:40.
