data_PCOD9108172
_publ_section_title
;
Structure prediction by ZEFSAII (Michael W. Deem and Ramdas Pophale) SiO2 
 PCOD9108172
Probable space group: P -1
;
_chemical_formula_sum "Si O2"
_cell_formula_units_Z 16
_cell_length_a 7.973566
_cell_length_b 20.695730
_cell_length_c 8.826166
_cell_angle_alpha 74.095754
_cell_angle_beta 35.080088
_cell_angle_gamma 69.402347
_cell_volume 783.300205
_symmetry_space_group_name_H-M "P -1"
_symmetry_group_IT_number 2
_symmetry_cell_setting 'triclinic'
loop_
_space_group_symop_operation_xyz
x,y,z
-x,-y,-z
loop_
_atom_site_type_symbol
_atom_site_label
_atom_site_fract_x
_atom_site_fract_y
_atom_site_fract_z
Si Si1 0.107471 0.645622 0.033219
Si Si2 0.064600 0.835610 0.539622
Si Si3 0.665069 0.494764 0.224990
Si Si4 0.488420 0.729349 0.512083
Si Si5 0.524785 0.077937 0.953624
Si Si6 0.244274 0.546599 0.260581
Si Si7 0.811414 0.077400 0.070335
Si Si8 0.770184 0.837077 0.418337
O O1 0.135458 0.617212 0.204107
O O2 0.748964 0.673269 0.268881
O O3 0.274863 0.578946 0.855401
O O4 0.282249 0.700969 0.805104
O O5 0.275489 0.771807 0.511918
O O6 0.793596 0.868565 0.831046
O O7 0.930720 0.822462 0.477934
O O8 0.258849 0.893172 0.336514
O O9 0.500000 0.500000 0.500000
O O10 0.436459 0.553001 0.261686
O O11 0.000000 0.500000 0.000000
O O12 0.671034 0.774587 0.447710
O O13 0.667454 0.079323 0.011198
O O14 0.500000 0.000000 0.000000
O O15 0.000000 0.500000 0.500000
O O16 0.500000 0.500000 0.000000
O O17 0.535162 0.103970 0.369458
O O18 0.019024 0.131859 0.869762
O O19 0.000000 0.000000 0.000000
#
# Coordination Sequence:
#
# PCOD9108172 Si02
#       8
#     2   2   2   2   2   2   2   2
#     4  11  24  43  64 100 124 169 219 241 311 397
#     4  10  23  41  58  87 124 164 206 267 312 372
#     4  11  22  41  68 100 134 161 204 266 322 363
#     4  12  24  42  67  86 133 175 209 257 311 392
#     4  10  21  36  60  88 118 154 208 266 328 379
#     4  10  20  40  67  89 131 164 199 263 304 362
#     4  10  21  36  60  88 117 152 209 272 316 388
#     4  10  23  41  58  86 123 163 210 258 325 369
#
# _framework density 20.426397000000001
#
# number of rings (size 3 to 8) (size 9 to 14) (size 15 to 20)
#    0.000    1.500    0.000    6.000    3.500    0.000 
#    6.750    0.000    0.000    0.000    0.000    0.000 
#    0.000    0.000    0.000    0.000    0.000    0.000 
#
# Total GULP energy -89178.439777 kJ/mol
# GULP energy per Si atom -5573.652486 kJ/mol
# Density = 2.037991 g / cm^3
# Si number density = 20.426397 Si / 1000 Ang^3
#
#
#
# Elastic Constant Matrix: (Units=GPa)
#
#
# Indices 1 2 3 4 5 6 
#
# 1 79.2930 37.2104 38.6374 -2.8382 -7.0254 -23.4157
# 2 37.2104 73.5062 15.3338 4.2591 -4.2949 -30.9292
# 3 38.6374 15.3338 112.3227 -1.1951 -20.7192 -13.4862
# 4 -2.8382 4.2591 -1.1951 35.9666 0.6293 -8.8362
# 5 -7.0254 -4.2949 -20.7192 0.6293 29.5001 4.4525
# 6 -23.4157 -30.9292 -13.4862 -8.8362 4.4525 36.3983
#
#
#
# Elastic Compliance Matrix: (Units=1/GPa)
#
#
# Indices 1 2 3 4 5 6 
#
# 1 0.020386 -0.006774 -0.005468 0.003815 -0.001017 0.006383
# 2 -0.006774 0.023619 0.001089 0.000700 0.000120 0.016271
# 3 -0.005468 0.001089 0.012081 -0.000041 0.007192 0.000994
# 4 0.003815 0.000700 -0.000041 0.030655 -0.001277 0.010632
# 5 -0.001017 0.000120 0.007192 -0.001277 0.039204 -0.002993
# 6 0.006383 0.016271 0.000994 0.010632 -0.002993 0.048722
#
#
# Mechanical properties :
#
#
# Convention : Reuss Voigt Hill
#
# Bulk Modulus (GPa) = 29.60375 49.72057 39.66216
# Shear Modulus (GPa) = 24.01148 31.96902 27.99025
#
# Velocity S-wave (km/s) = 3.43229 3.96041 3.70577
# Velocity P-wave (km/s) = 5.49835 6.73107 6.14570
#
# Compressibility (1/GPa) = 0.03377950
#
# Stress axis : x y z
#
# Youngs Moduli (GPa) = 49.05235 42.33870 82.77538
#
# Poissons Ratio (x) = 0.28680 0.45265
# Poissons Ratio (y) = 0.33227 -0.09013
# Poissons Ratio (z) = 0.26824 -0.04610
#
# Static dielectric constant tensor:
#      x y z
#    x 1.673130 -0.023830 -0.041450 
#    y -0.023830 1.869120 -0.010850 
#    z -0.041450 -0.010850 1.763660 
# 
# From -- ./inp_files/223346.got.cif
#   From: 2010.05.17/outbox.cif.g08.bks.cpg/sg2_112_cif.got.tgz:223346.got - 2010.06.03 11:33:40.
