data_PCOD9108475
_publ_section_title
;
Structure prediction by ZEFSAII (Michael W. Deem and Ramdas Pophale) SiO2 
 PCOD9108475
Probable space group: P -1
;
_chemical_formula_sum "Si O2"
_cell_formula_units_Z 16
_cell_length_a 11.278961
_cell_length_b 12.290092
_cell_length_c 13.898645
_cell_angle_alpha 59.489716
_cell_angle_beta 146.422588
_cell_angle_gamma 95.875404
_cell_volume 679.103459
_symmetry_space_group_name_H-M "P -1"
_symmetry_group_IT_number 2
_symmetry_cell_setting 'triclinic'
loop_
_space_group_symop_operation_xyz
x,y,z
-x,-y,-z
loop_
_atom_site_type_symbol
_atom_site_label
_atom_site_fract_x
_atom_site_fract_y
_atom_site_fract_z
Si Si1 0.729695 0.680370 0.688917
Si Si2 0.094214 0.552654 0.812818
Si Si3 0.695328 0.734407 0.284996
Si Si4 0.658608 0.281283 0.092133
Si Si5 0.882840 0.184671 0.810900
Si Si6 0.870809 0.894709 0.198242
Si Si7 0.244911 0.925691 0.573167
Si Si8 0.720159 0.792315 0.828465
O O1 0.851412 0.684285 0.669660
O O2 0.462033 0.692958 0.483825
O O3 0.640232 0.812423 0.653753
O O4 0.000000 0.500000 0.000000
O O5 0.935559 0.598059 0.583999
O O6 0.320549 0.577394 0.946288
O O7 0.222488 0.372498 0.020503
O O8 0.824191 0.783948 0.274478
O O9 0.554399 0.677462 0.154705
O O10 0.435990 0.909613 0.088001
O O11 0.602339 0.220638 0.176440
O O12 0.983035 0.106505 0.362422
O O13 0.016211 0.167968 0.804951
O O14 0.001751 0.233571 0.949171
O O15 0.000000 0.000000 0.000000
O O16 0.098396 0.890617 0.412203
O O17 0.460933 0.932199 0.661155
#
# Coordination Sequence:
#
# PCOD9108475 Si02
#       8
#     2   2   2   2   2   2   2   2
#     4  10  25  46  66  93 136 183 222 278 334 400
#     4  11  24  42  65  96 129 177 219 268 333 406
#     4  10  21  39  66 101 132 171 213 272 335 402
#     4  10  22  38  68  95 130 172 213 267 333 399
#     4  12  26  43  70 102 131 176 229 284 332 395
#     4  10  20  40  68  97 135 167 219 276 331 393
#     4  10  20  41  66  97 129 172 214 267 333 393
#     4  11  26  44  68  94 137 173 222 280 332 398
#
# _framework density 23.560473999999999
#
# number of rings (size 3 to 8) (size 9 to 14) (size 15 to 20)
#    0.000    1.500    2.500    1.500    5.250    8.000 
#    0.000    1.250    0.000    0.000    0.000    0.000 
#    0.000    0.000    0.000    0.000    0.000    0.000 
#
# Total GULP energy -89605.758634 kJ/mol
# GULP energy per Si atom -5600.359915 kJ/mol
# Density = 2.350685 g / cm^3
# Si number density = 23.560474 Si / 1000 Ang^3
#
#
#
# Elastic Constant Matrix: (Units=GPa)
#
#
# Indices 1 2 3 4 5 6 
#
# 1 118.7190 19.6912 27.6378 10.9709 -0.2476 0.6831
# 2 19.6912 77.2748 21.6819 10.4140 -6.6793 18.9921
# 3 27.6378 21.6819 84.0993 16.7245 -0.4384 19.7630
# 4 10.9709 10.4140 16.7245 31.1657 1.5426 2.1424
# 5 -0.2476 -6.6793 -0.4384 1.5426 40.6312 -3.9322
# 6 0.6831 18.9921 19.7630 2.1424 -3.9322 34.0376
#
#
#
# Elastic Compliance Matrix: (Units=1/GPa)
#
#
# Indices 1 2 3 4 5 6 
#
# 1 0.009575 -0.002120 -0.003017 -0.001237 -0.000003 0.002820
# 2 -0.002120 0.016412 -0.000849 -0.003823 0.002033 -0.008147
# 3 -0.003017 -0.000849 0.016508 -0.006889 -0.000559 -0.008681
# 4 -0.001237 -0.003823 -0.006889 0.037337 -0.001779 0.003602
# 5 -0.000003 0.002033 -0.000559 -0.001779 0.025222 0.002216
# 6 0.002820 -0.008147 -0.008681 0.003602 0.002216 0.038938
#
#
# Mechanical properties :
#
#
# Convention : Reuss Voigt Hill
#
# Bulk Modulus (GPa) = 32.76192 46.45723 39.60957
# Shear Modulus (GPa) = 30.09515 35.23904 32.66709
#
# Velocity S-wave (km/s) = 3.57789 3.87160 3.72764
# Velocity P-wave (km/s) = 5.56813 6.30451 5.94773
#
# Compressibility (1/GPa) = 0.03052325
#
# Stress axis : x y z
#
# Youngs Moduli (GPa) = 104.43523 60.92918 60.57574
#
# Poissons Ratio (x) = 0.12918 0.18275
# Poissons Ratio (y) = 0.22142 0.05145
# Poissons Ratio (z) = 0.31507 0.05175
#
# Static dielectric constant tensor:
#      x y z
#    x 1.907410 -0.083390 0.066970 
#    y -0.083390 1.932090 -0.074600 
#    z 0.066970 -0.074600 1.916570 
# 
# From -- ./inp_files/315509.got.cif
#   From: 2010.05.17/outbox.cif.g08.bks.cpg/sg2_158_cif.got.tgz:315509.got - 2010.06.03 11:33:40.
