data_PCOD9108443
_publ_section_title
;
Structure prediction by ZEFSAII (Michael W. Deem and Ramdas Pophale) SiO2 
 PCOD9108443
Probable space group: P -1
;
_chemical_formula_sum "Si O2"
_cell_formula_units_Z 16
_cell_length_a 7.018060
_cell_length_b 14.122023
_cell_length_c 15.986795
_cell_angle_alpha 34.572272
_cell_angle_beta 51.970149
_cell_angle_gamma 43.513658
_cell_volume 618.316108
_symmetry_space_group_name_H-M "P -1"
_symmetry_group_IT_number 2
_symmetry_cell_setting 'triclinic'
loop_
_space_group_symop_operation_xyz
x,y,z
-x,-y,-z
loop_
_atom_site_type_symbol
_atom_site_label
_atom_site_fract_x
_atom_site_fract_y
_atom_site_fract_z
Si Si1 0.241854 0.846744 0.417457
Si Si2 0.495175 0.318547 0.091583
Si Si3 0.914685 0.806686 0.997520
Si Si4 0.272106 0.084523 0.608867
Si Si5 0.502027 0.754643 0.246829
Si Si6 0.966761 0.720974 0.848029
Si Si7 0.491436 0.630375 0.672368
Si Si8 0.892217 0.351313 0.651330
O O1 0.168868 0.059373 0.307743
O O2 0.980956 0.867228 0.420518
O O3 0.490069 0.774023 0.335341
O O4 0.311463 0.717764 0.573163
O O5 0.220533 0.357777 0.087418
O O6 0.547674 0.144427 0.267274
O O7 0.500000 0.500000 0.000000
O O8 0.785830 0.231918 0.026837
O O9 0.789170 0.702168 0.163734
O O10 0.927451 0.746227 0.940631
O O11 0.709117 0.034288 0.886358
O O12 0.406257 0.214758 0.450873
O O13 0.142987 0.160117 0.682093
O O14 0.364008 0.628210 0.350574
O O15 0.282127 0.631080 0.796634
O O16 0.742771 0.421534 0.730761
O O17 0.000000 0.500000 0.500000
#
# Coordination Sequence:
#
# PCOD9108443 Si02
#       8
#     2   2   2   2   2   2   2   2
#     4  10  20  40  68  96 130 170 210 271 330 383
#     4  12  25  42  65  94 133 173 224 269 318 398
#     4  10  22  46  67  88 133 172 219 275 320 381
#     4  10  21  43  64  94 132 166 217 275 329 376
#     4   9  19  40  70  90 121 179 214 264 335 369
#     4  11  24  42  65  97 130 178 213 266 333 387
#     4  11  23  38  68 100 131 169 219 265 324 401
#     4   9  19  38  65  96 127 166 210 270 322 378
#
# _framework density 25.876732000000001
#
# number of rings (size 3 to 8) (size 9 to 14) (size 15 to 20)
#    0.000    1.750    5.000    0.375    1.750    4.000 
#    0.000    9.375    2.750    0.000    0.000    0.000 
#    0.000    0.000    0.000    0.000    0.000    0.000 
#
# Total GULP energy -89467.732203 kJ/mol
# GULP energy per Si atom -5591.733263 kJ/mol
# Density = 2.581784 g / cm^3
# Si number density = 25.876732 Si / 1000 Ang^3
#
#
#
# Elastic Constant Matrix: (Units=GPa)
#
#
# Indices 1 2 3 4 5 6 
#
# 1 153.8614 25.1204 55.4721 10.5948 -24.1190 -0.4016
# 2 25.1204 130.6748 70.5172 13.3528 -16.9720 2.1954
# 3 55.4721 70.5172 126.9724 4.6375 -35.3433 10.6067
# 4 10.5948 13.3528 4.6375 56.9505 2.6078 -9.2974
# 5 -24.1190 -16.9720 -35.3433 2.6078 55.1888 -0.8393
# 6 -0.4016 2.1954 10.6067 -9.2974 -0.8393 27.5973
#
#
#
# Elastic Compliance Matrix: (Units=1/GPa)
#
#
# Indices 1 2 3 4 5 6 
#
# 1 0.007969 0.000639 -0.003444 -0.001258 0.001548 0.001012
# 2 0.000639 0.011259 -0.006652 -0.002040 -0.000407 0.000971
# 3 -0.003444 -0.006652 0.015225 -0.000176 0.006128 -0.005246
# 4 -0.001258 -0.002040 -0.000176 0.019478 -0.002108 0.006710
# 5 0.001548 -0.000407 0.006128 -0.002108 0.022660 -0.002321
# 6 0.001012 0.000971 -0.005246 0.006710 -0.002321 0.040379
#
#
# Mechanical properties :
#
#
# Convention : Reuss Voigt Hill
#
# Bulk Modulus (GPa) = 64.35457 79.30312 71.82885
# Shear Modulus (GPa) = 35.44554 45.30724 40.37639
#
# Velocity S-wave (km/s) = 3.70507 4.18890 3.95439
# Velocity P-wave (km/s) = 6.57473 7.35587 6.97624
#
# Compressibility (1/GPa) = 0.01553891
#
# Stress axis : x y z
#
# Youngs Moduli (GPa) = 125.49220 88.82103 65.68117
#
# Poissons Ratio (x) = -0.05678 0.22621
# Poissons Ratio (y) = -0.08022 0.43691
# Poissons Ratio (z) = 0.43220 0.59083
#
# Static dielectric constant tensor:
#      x y z
#    x 2.042150 -0.070400 0.027840 
#    y -0.070400 2.153520 -0.063740 
#    z 0.027840 -0.063740 2.036120 
# 
# From -- ./inp_files/590451.got.cif
#   From: 2010.05.17/outbox.cif.g08.bks.cpg/sg2_296_cif.got.tgz:590451.got - 2010.06.03 11:33:40.
