data_PCOD9108617
_publ_section_title
;
Structure prediction by ZEFSAII (Michael W. Deem and Ramdas Pophale) SiO2 
 PCOD9108617
Probable space group: P -1
;
_chemical_formula_sum "Si O2"
_cell_formula_units_Z 16
_cell_length_a 14.035668
_cell_length_b 11.917822
_cell_length_c 14.876774
_cell_angle_alpha 28.281614
_cell_angle_beta 136.624352
_cell_angle_gamma 118.384935
_cell_volume 698.363801
_symmetry_space_group_name_H-M "P -1"
_symmetry_group_IT_number 2
_symmetry_cell_setting 'triclinic'
loop_
_space_group_symop_operation_xyz
x,y,z
-x,-y,-z
loop_
_atom_site_type_symbol
_atom_site_label
_atom_site_fract_x
_atom_site_fract_y
_atom_site_fract_z
Si Si1 0.644327 0.192473 0.450194
Si Si2 0.814472 0.129012 0.802202
Si Si3 0.375888 0.615424 0.251185
Si Si4 0.600391 0.694135 0.243318
Si Si5 0.902128 0.344435 0.049504
Si Si6 0.814440 0.807131 0.197200
Si Si7 0.721303 0.584167 0.934183
Si Si8 0.113828 0.720323 0.563635
O O1 0.722136 0.156613 0.627466
O O2 0.451833 0.385493 0.186098
O O3 0.738009 0.290004 0.380503
O O4 0.682514 0.887528 0.664529
O O5 0.749029 0.438242 0.577663
O O6 0.790162 0.942558 0.988198
O O7 0.000000 0.000000 0.000000
O O8 0.500000 0.500000 0.500000
O O9 0.470438 0.598209 0.236970
O O10 0.255942 0.505060 0.229379
O O11 0.261410 0.932125 0.971789
O O12 0.694111 0.695085 0.217185
O O13 0.500000 0.000000 0.000000
O O14 0.828886 0.376115 0.076436
O O15 0.013648 0.029625 0.317150
O O16 0.000000 0.500000 0.000000
O O17 0.000879 0.661835 0.459866
O O18 0.822635 0.489349 0.162461
#
# Coordination Sequence:
#
# PCOD9108617 Si02
#       8
#     2   2   2   2   2   2   2   2
#     4  11  25  45  67  98 137 184 230 283 348 419
#     4  12  24  41  70 100 144 180 227 290 352 415
#     4  10  20  40  69  99 139 177 221 290 351 413
#     4  10  23  42  66 100 141 183 229 281 349 423
#     4  11  23  43  72 102 135 182 240 284 348 419
#     4  10  23  39  68 103 138 178 229 282 357 414
#     4  11  25  44  69  95 136 183 234 281 346 413
#     4  11  23  44  70 101 137 180 232 294 340 418
#
# _framework density 22.910693999999999
#
# number of rings (size 3 to 8) (size 9 to 14) (size 15 to 20)
#    0.000    1.250    3.750    1.500    1.750    2.500 
#    0.000    7.500    0.000    0.000    0.000    0.000 
#    0.000    0.000    0.000    0.000    0.000    0.000 
#
# Total GULP energy -89259.153880 kJ/mol
# GULP energy per Si atom -5578.697118 kJ/mol
# Density = 2.285855 g / cm^3
# Si number density = 22.910694 Si / 1000 Ang^3
#
#
#
# Elastic Constant Matrix: (Units=GPa)
#
#
# Indices 1 2 3 4 5 6 
#
# 1 161.3898 33.7424 27.8472 4.6893 3.2488 15.0510
# 2 33.7424 86.3751 26.6938 9.8369 11.0258 3.9606
# 3 27.8472 26.6938 89.3883 -2.0745 6.2807 6.3448
# 4 4.6893 9.8369 -2.0745 47.0221 -6.0119 7.3034
# 5 3.2488 11.0258 6.2807 -6.0119 38.9759 5.4316
# 6 15.0510 3.9606 6.3448 7.3034 5.4316 37.2106
#
#
#
# Elastic Compliance Matrix: (Units=1/GPa)
#
#
# Indices 1 2 3 4 5 6 
#
# 1 0.007145 -0.002356 -0.001385 0.000201 0.000679 -0.002542
# 2 -0.002356 0.014449 -0.003473 -0.003668 -0.004082 0.001323
# 3 -0.001385 -0.003473 0.012835 0.001598 -0.000515 -0.001497
# 4 0.000201 -0.003668 0.001598 0.023572 0.005144 -0.005340
# 5 0.000679 -0.004082 -0.000515 0.005144 0.028313 -0.004895
# 6 -0.002542 0.001323 -0.001497 -0.005340 -0.004895 0.029779
#
#
# Mechanical properties :
#
#
# Convention : Reuss Voigt Hill
#
# Bulk Modulus (GPa) = 49.99730 57.07999 53.53865
# Shear Modulus (GPa) = 36.44568 41.23304 38.83936
#
# Velocity S-wave (km/s) = 3.99277 4.24692 4.12181
# Velocity P-wave (km/s) = 6.56707 7.00119 6.78760
#
# Compressibility (1/GPa) = 0.02000108
#
# Stress axis : x y z
#
# Youngs Moduli (GPa) = 139.95147 69.20693 77.90991
#
# Poissons Ratio (x) = 0.16308 0.10790
# Poissons Ratio (y) = 0.32978 0.27060
# Poissons Ratio (z) = 0.19383 0.24037
#
# Static dielectric constant tensor:
#      x y z
#    x 1.889730 -0.009750 0.030980 
#    y -0.009750 1.878230 -0.047330 
#    z 0.030980 -0.047330 1.884060 
# 
# From -- ./inp_files/532295.got.cif
#   From: 2010.05.17/outbox.cif.g08.bks.cpg/sg2_267_cif.got.tgz:532295.got - 2010.06.03 11:33:40.
