data_PCOD9108306
_publ_section_title
;
Structure prediction by ZEFSAII (Michael W. Deem and Ramdas Pophale) SiO2 
 PCOD9108306
Probable space group: P -1
;
_chemical_formula_sum "Si O2"
_cell_formula_units_Z 12
_cell_length_a 7.615731
_cell_length_b 12.899067
_cell_length_c 10.018706
_cell_angle_alpha 144.938771
_cell_angle_beta 115.876948
_cell_angle_gamma 81.664216
_cell_volume 463.805109
_symmetry_space_group_name_H-M "P -1"
_symmetry_group_IT_number 2
_symmetry_cell_setting 'triclinic'
loop_
_space_group_symop_operation_xyz
x,y,z
-x,-y,-z
loop_
_atom_site_type_symbol
_atom_site_label
_atom_site_fract_x
_atom_site_fract_y
_atom_site_fract_z
Si Si1 0.782593 0.254355 0.283636
Si Si2 0.689180 0.614408 0.580458
Si Si3 0.380061 0.942173 0.693879
Si Si4 0.236787 0.320604 0.602757
Si Si5 0.165604 0.639463 0.092517
Si Si6 0.969768 0.916008 0.188442
O O1 0.806964 0.468388 0.474971
O O2 0.680036 0.191138 0.331384
O O3 0.012585 0.255914 0.379283
O O4 0.617840 0.103977 0.966946
O O5 0.500000 0.500000 0.500000
O O6 0.607003 0.620780 0.410268
O O7 0.833092 0.826451 0.914150
O O8 0.347483 0.813891 0.416875
O O9 0.202902 0.036849 0.731284
O O10 0.253021 0.505494 0.893351
O O11 0.179286 0.120855 0.456359
O O12 0.038722 0.745914 0.082371
O O13 0.000000 0.500000 0.000000
#
# Coordination Sequence:
#
# PCOD9108306 Si02
#       6
#     2   2   2   2   2   2
#     4  10  20  40  67  98 134 173 229 273 330 402
#     4  12  23  42  69 102 136 176 234 287 330 393
#     4  10  21  38  66 104 135 179 220 276 342 400
#     4  11  25  42  70 104 133 183 228 274 342 401
#     4  12  22  41  70 101 141 184 221 276 343 409
#     4  11  22  40  69 101 139 178 225 278 338 405
#
# _framework density 25.872935999999999
#
# number of rings (size 3 to 8) (size 9 to 14) (size 15 to 20)
#    0.000    1.000    6.667    1.500    0.000    0.000 
#    0.000    0.833    0.000    5.000    0.000    0.000 
#    0.000    0.000    0.000    0.000    0.000    0.000 
#
# Total GULP energy -67225.422000 kJ/mol
# GULP energy per Si atom -5602.118500 kJ/mol
# Density = 2.581405 g / cm^3
# Si number density = 25.872936 Si / 1000 Ang^3
#
#
#
# Elastic Constant Matrix: (Units=GPa)
#
#
# Indices 1 2 3 4 5 6 
#
# 1 71.8794 12.8976 24.6487 -9.7776 -17.5130 7.1302
# 2 12.8976 104.1572 36.8905 15.0137 -29.2486 -8.4298
# 3 24.6487 36.8905 197.4495 -10.1677 -26.4695 12.8343
# 4 -9.7776 15.0137 -10.1677 42.1630 -3.0021 -6.7971
# 5 -17.5130 -29.2486 -26.4695 -3.0021 28.4982 -7.9746
# 6 7.1302 -8.4298 12.8343 -6.7971 -7.9746 33.7679
#
#
#
# Elastic Compliance Matrix: (Units=1/GPa)
#
#
# Indices 1 2 3 4 5 6 
#
# 1 0.017337 0.000591 -0.000543 0.004529 0.011311 0.000276
# 2 0.000591 0.016018 -0.001431 -0.003420 0.017301 0.007815
# 3 -0.000543 -0.001431 0.006075 0.001901 0.003676 -0.001301
# 4 0.004529 -0.003420 0.001901 0.027486 0.005111 0.004207
# 5 0.011311 0.017301 0.003676 0.005111 0.068729 0.017793
# 6 0.000276 0.007815 -0.001301 0.004207 0.017793 0.037050
#
#
# Mechanical properties :
#
#
# Convention : Reuss Voigt Hill
#
# Bulk Modulus (GPa) = 27.27494 58.03997 42.65745
# Shear Modulus (GPa) = 26.64064 40.82242 33.73153
#
# Velocity S-wave (km/s) = 3.21233 3.97647 3.61465
# Velocity P-wave (km/s) = 4.93189 6.60034 5.82615
#
# Compressibility (1/GPa) = 0.03666370
#
# Stress axis : x y z
#
# Youngs Moduli (GPa) = 57.68074 62.42802 164.60748
#
# Poissons Ratio (x) = -0.03692 0.08941
# Poissons Ratio (y) = -0.03411 0.23563
# Poissons Ratio (z) = 0.03133 0.08936
#
# Static dielectric constant tensor:
#      x y z
#    x 2.273770 0.059940 -0.013310 
#    y 0.059940 2.118220 0.003950 
#    z -0.013310 0.003950 1.996030 
# 
# From -- ./inp_files/157845.got.cif
#   From: 2010.05.17/outbox.cif.g08.bks.cpg/sg2_79_cif.got.tgz:157845.got - 2010.06.03 11:33:40.
