data_PCOD9108015
_publ_section_title
;
Structure prediction by ZEFSAII (Michael W. Deem and Ramdas Pophale) SiO2 
 PCOD9108015
Probable space group: P -1
;
_chemical_formula_sum "Si O2"
_cell_formula_units_Z 13
_cell_length_a 6.985813
_cell_length_b 9.342778
_cell_length_c 11.190688
_cell_angle_alpha 124.647343
_cell_angle_beta 98.826285
_cell_angle_gamma 54.269629
_cell_volume 470.004069
_symmetry_space_group_name_H-M "P -1"
_symmetry_group_IT_number 2
_symmetry_cell_setting 'triclinic'
loop_
_space_group_symop_operation_xyz
x,y,z
-x,-y,-z
loop_
_atom_site_type_symbol
_atom_site_label
_atom_site_fract_x
_atom_site_fract_y
_atom_site_fract_z
Si Si1 0.351271 0.482560 0.581791
Si Si2 0.500000 0.000000 0.000000
Si Si3 0.719663 0.694087 0.723795
Si Si4 0.044643 0.698710 0.026104
Si Si5 0.879928 0.682186 0.253340
Si Si6 0.143201 0.033234 0.202082
Si Si7 0.259725 0.927588 0.439394
O O1 0.500000 0.500000 0.500000
O O2 0.286179 0.346541 0.433677
O O3 0.110501 0.719118 0.706756
O O4 0.532231 0.324538 0.627178
O O5 0.494544 0.795413 0.838343
O O6 0.224967 0.196716 0.000238
O O7 0.948185 0.468819 0.692072
O O8 0.688493 0.927785 0.842543
O O9 0.023518 0.695900 0.165468
O O10 0.124127 0.847588 0.068077
O O11 0.209746 0.449985 0.875017
O O12 0.700366 0.920752 0.405186
O O13 0.226827 0.979331 0.321310
O O14 0.000000 0.000000 0.500000
#
# Coordination Sequence:
#
# PCOD9108015 Si02
#       7
#     2   1   2   2   2   2   2
#     4  12  23  41  71 103 138 186 231 275 346 423
#     4  10  22  42  66  92 130 186 228 266 346 418
#     4  11  24  42  69 100 141 177 234 291 342 409
#     4  10  22  41  69  94 133 183 233 278 340 413
#     4  10  20  40  66  94 130 185 224 271 340 410
#     4  12  25  44  67 108 140 177 230 296 344 401
#     4  12  22  40  71 100 139 183 228 282 344 414
#
# _framework density 27.659333
#
# number of rings (size 3 to 8) (size 9 to 14) (size 15 to 20)
#    0.000    0.923    4.615    2.308    0.000    4.308 
#    2.769    0.000    0.000   13.846    0.000    0.000 
#    0.000    0.000    0.000    0.000    0.000    0.000 
#
# Total GULP energy -72698.727608 kJ/mol
# GULP energy per Si atom -5592.209816 kJ/mol
# Density = 2.759638 g / cm^3
# Si number density = 27.659333 Si / 1000 Ang^3
#
#
#
# Elastic Constant Matrix: (Units=GPa)
#
#
# Indices 1 2 3 4 5 6 
#
# 1 117.3431 56.5825 55.5954 6.7549 -8.5040 19.3718
# 2 56.5825 203.3584 42.6425 -14.8917 -3.3525 12.0861
# 3 55.5954 42.6425 134.0651 13.8884 -7.6381 5.9222
# 4 6.7549 -14.8917 13.8884 63.0986 10.0648 5.4568
# 5 -8.5040 -3.3525 -7.6381 10.0648 43.8664 3.3055
# 6 19.3718 12.0861 5.9222 5.4568 3.3055 41.3692
#
#
#
# Elastic Compliance Matrix: (Units=1/GPa)
#
#
# Indices 1 2 3 4 5 6 
#
# 1 0.012566 -0.002414 -0.004017 -0.000968 0.002124 -0.004646
# 2 -0.002414 0.006010 -0.001132 0.002086 -0.000633 -0.000688
# 3 -0.004017 -0.001132 0.009748 -0.002274 0.001278 0.001014
# 4 -0.000968 0.002086 -0.002274 0.017800 -0.004370 -0.001829
# 5 0.002124 -0.000633 0.001278 -0.004370 0.024564 -0.002379
# 6 -0.004646 -0.000688 0.001014 -0.001829 -0.002379 0.026835
#
#
# Mechanical properties :
#
#
# Convention : Reuss Voigt Hill
#
# Bulk Modulus (GPa) = 75.76650 84.93415 80.35033
# Shear Modulus (GPa) = 42.71733 49.66324 46.19028
#
# Velocity S-wave (km/s) = 3.93416 4.24197 4.09096
# Velocity P-wave (km/s) = 6.93463 7.40043 7.17131
#
# Compressibility (1/GPa) = 0.01319845
#
# Stress axis : x y z
#
# Youngs Moduli (GPa) = 79.58276 166.39716 102.58024
#
# Poissons Ratio (x) = 0.40164 0.41202
# Poissons Ratio (y) = 0.19209 0.11616
# Poissons Ratio (z) = 0.31965 0.18842
#
# Static dielectric constant tensor:
#      x y z
#    x 2.487750 0.044920 0.169390 
#    y 0.044920 2.095630 -0.003510 
#    z 0.169390 -0.003510 2.436960 
# 
# From -- ./inp_files/179692.got.cif
#   From: 2010.05.17/outbox.cif.g08.bks.cpg/sg2_90_cif.got.tgz:179692.got - 2010.06.03 11:33:40.
