data_PCOD9108820
_publ_section_title
;
Structure prediction by ZEFSAII (Michael W. Deem and Ramdas Pophale) SiO2 
 PCOD9108820
Probable space group: P -1
;
_chemical_formula_sum "Si O2"
_cell_formula_units_Z 11
_cell_length_a 8.806096
_cell_length_b 10.410434
_cell_length_c 14.480821
_cell_angle_alpha 34.480870
_cell_angle_beta 36.601896
_cell_angle_gamma 61.581687
_cell_volume 374.079456
_symmetry_space_group_name_H-M "P -1"
_symmetry_group_IT_number 2
_symmetry_cell_setting 'triclinic'
loop_
_space_group_symop_operation_xyz
x,y,z
-x,-y,-z
loop_
_atom_site_type_symbol
_atom_site_label
_atom_site_fract_x
_atom_site_fract_y
_atom_site_fract_z
Si Si1 0.000000 0.000000 0.500000
Si Si2 0.378878 0.492094 0.894488
Si Si3 0.949289 0.155397 0.819607
Si Si4 0.366983 0.835117 0.415620
Si Si5 0.084389 0.716783 0.435307
Si Si6 0.003154 0.275264 0.029933
O O1 0.701816 0.985247 0.593733
O O2 0.227773 0.311751 0.164610
O O3 0.731063 0.602102 0.659634
O O4 0.215317 0.304995 0.994219
O O5 0.263820 0.693295 0.824303
O O6 0.129250 0.468037 0.576454
O O7 0.786891 0.158165 0.802198
O O8 0.691293 0.970289 0.129387
O O9 0.113749 0.004966 0.799633
O O10 0.220958 0.535720 0.703275
O O11 0.171223 0.859821 0.408698
#
# Coordination Sequence:
#
# PCOD9108820 Si02
#       6
#     1   2   2   2   2   2
#     4  10  20  40  72  86 130 168 216 262 318 378
#     4  10  22  45  65 102 122 181 216 263 325 392
#     4  11  24  43  66 100 132 174 211 279 317 386
#     4  11  23  44  67  99 130 175 211 276 321 387
#     4  11  25  41  73  95 127 171 236 252 319 395
#     4  10  24  42  68  92 143 167 209 272 341 366
#
# _framework density 29.405521
#
# number of rings (size 3 to 8) (size 9 to 14) (size 15 to 20)
#    0.000    1.455    1.818    2.182    5.091    4.364 
#    3.273    0.000    0.000    0.000    0.000    0.000 
#    0.000    0.000    0.000    0.000    0.000    0.000 
#
# Total GULP energy -61524.629433 kJ/mol
# GULP energy per Si atom -5593.148130 kJ/mol
# Density = 2.933859 g / cm^3
# Si number density = 29.405521 Si / 1000 Ang^3
#
#
#
# Elastic Constant Matrix: (Units=GPa)
#
#
# Indices 1 2 3 4 5 6 
#
# 1 144.7823 -7.6460 -0.5957 6.8811 8.2341 24.8885
# 2 -7.6460 168.4817 1.6670 -17.7727 -7.1931 -20.4804
# 3 -0.5957 1.6670 78.1374 -1.4385 49.2767 9.2088
# 4 6.8811 -17.7727 -1.4385 52.8540 -8.0350 6.2513
# 5 8.2341 -7.1931 49.2767 -8.0350 55.0492 5.2009
# 6 24.8885 -20.4804 9.2088 6.2513 5.2009 46.4468
#
#
#
# Elastic Compliance Matrix: (Units=1/GPa)
#
#
# Indices 1 2 3 4 5 6 
#
# 1 0.007908 -0.000474 0.002749 -0.001111 -0.003446 -0.004456
# 2 -0.000474 0.006696 -0.002513 0.002383 0.003258 0.003020
# 3 0.002749 -0.002513 0.032020 -0.004225 -0.029541 -0.005053
# 4 -0.001111 0.002383 -0.004225 0.021021 0.007439 -0.001178
# 5 -0.003446 0.003258 -0.029541 0.007439 0.046358 0.002948
# 6 -0.004456 0.003020 -0.005053 -0.001178 0.002948 0.026080
#
#
# Mechanical properties :
#
#
# Convention : Reuss Voigt Hill
#
# Bulk Modulus (GPa) = 21.67011 42.02802 31.84906
# Shear Modulus (GPa) = 32.06289 57.40174 44.73232
#
# Velocity S-wave (km/s) = 3.30566 4.42302 3.90452
# Velocity P-wave (km/s) = 4.68564 6.35671 5.58404
#
# Compressibility (1/GPa) = 0.04614652
#
# Stress axis : x y z
#
# Youngs Moduli (GPa) = 126.45392 149.33720 31.23018
#
# Poissons Ratio (x) = 0.07084 -0.08584
# Poissons Ratio (y) = 0.05998 0.07849
# Poissons Ratio (z) = -0.34756 0.37532
#
# Static dielectric constant tensor:
#      x y z
#    x 2.417000 -0.009860 -0.086250 
#    y -0.009860 3.538830 0.413340 
#    z -0.086250 0.413340 2.414120 
# 
# From -- ./inp_files/22732.got.cif
#   From: 2010.05.17/outbox.cif.g08.bks.cpg/sg2_12_cif.got.tgz:22732.got - 2010.06.03 11:33:40.
