data_PCOD9108780
_publ_section_title
;
Structure prediction by ZEFSAII (Michael W. Deem and Ramdas Pophale) SiO2 
 PCOD9108780
Probable space group: P -1
;
_chemical_formula_sum "Si O2"
_cell_formula_units_Z 16
_cell_length_a 7.594794
_cell_length_b 7.183397
_cell_length_c 16.285009
_cell_angle_alpha 70.591582
_cell_angle_beta 76.989859
_cell_angle_gamma 120.302703
_cell_volume 633.744011
_symmetry_space_group_name_H-M "P -1"
_symmetry_group_IT_number 2
_symmetry_cell_setting 'triclinic'
loop_
_space_group_symop_operation_xyz
x,y,z
-x,-y,-z
loop_
_atom_site_type_symbol
_atom_site_label
_atom_site_fract_x
_atom_site_fract_y
_atom_site_fract_z
Si Si1 0.455363 0.136422 0.734387
Si Si2 0.018319 0.902295 0.710537
Si Si3 0.104568 0.792210 0.957577
Si Si4 0.111900 0.824029 0.534018
Si Si5 0.053857 0.680644 0.315666
Si Si6 0.722364 0.726488 0.900377
Si Si7 0.634058 0.624193 0.555241
Si Si8 0.732550 0.138768 0.897083
O O1 0.694875 0.184127 0.686516
O O2 0.516215 0.407022 0.669401
O O3 0.349779 0.008728 0.853644
O O4 0.243274 0.955805 0.720255
O O5 0.012656 0.845005 0.626338
O O6 0.784725 0.675480 0.815235
O O7 0.024423 0.144071 0.694661
O O8 0.935484 0.820419 0.922535
O O9 0.000000 0.500000 0.000000
O O10 0.101889 0.812124 0.052411
O O11 0.124846 0.599798 0.583241
O O12 0.899561 0.719880 0.509267
O O13 0.331665 0.122997 0.457400
O O14 0.107530 0.642299 0.220999
O O15 0.673603 0.920860 0.874374
O O16 0.500000 0.500000 0.000000
O O17 0.500000 0.500000 0.500000
O O18 0.500000 0.000000 0.000000
#
# Coordination Sequence:
#
# PCOD9108780 Si02
#       8
#     2   2   2   2   2   2   2   2
#     4  10  21  41  64  88 132 172 202 280 325 364
#     4  10  22  41  65  92 134 169 217 267 323 392
#     4  11  23  36  60  90 124 170 215 252 315 390
#     4  10  22  41  70  97 129 178 211 271 341 378
#     4  10  23  41  65  97 131 168 222 268 318 396
#     4  10  23  37  57  88 126 165 213 268 307 376
#     4  10  20  40  71  96 130 168 218 274 330 392
#     4  11  21  37  59  87 125 165 209 259 318 368
#
# _framework density 25.246786
#
# number of rings (size 3 to 8) (size 9 to 14) (size 15 to 20)
#    0.000    1.750    2.500    1.125    7.000    0.000 
#    0.000    8.750    0.000    0.000    0.000    0.000 
#    0.000    0.000    0.000    0.000    0.000    0.000 
#
# Total GULP energy -89113.311711 kJ/mol
# GULP energy per Si atom -5569.581982 kJ/mol
# Density = 2.518932 g / cm^3
# Si number density = 25.246786 Si / 1000 Ang^3
#
#
#
# Elastic Constant Matrix: (Units=GPa)
#
#
# Indices 1 2 3 4 5 6 
#
# 1 98.1861 16.2804 3.8176 6.4687 4.7803 9.1516
# 2 16.2804 80.4245 27.6063 5.7095 3.9466 -7.2189
# 3 3.8176 27.6063 109.8315 -6.2034 19.8600 6.5212
# 4 6.4687 5.7095 -6.2034 48.9118 4.5410 1.2452
# 5 4.7803 3.9466 19.8600 4.5410 36.2300 -2.2871
# 6 9.1516 -7.2189 6.5212 1.2452 -2.2871 37.3578
#
#
#
# Elastic Compliance Matrix: (Units=1/GPa)
#
#
# Indices 1 2 3 4 5 6 
#
# 1 0.011052 -0.002661 0.000749 -0.000812 -0.001694 -0.003429
# 2 -0.002661 0.014945 -0.004357 -0.002214 0.001672 0.004477
# 3 0.000749 -0.004357 0.011726 0.002601 -0.006603 -0.003563
# 4 -0.000812 -0.002214 0.002601 0.021543 -0.003881 -0.001639
# 5 -0.001694 0.001672 -0.006603 -0.003881 0.032000 0.003979
# 6 -0.003429 0.004477 -0.003563 -0.001639 0.003979 0.029393
#
#
# Mechanical properties :
#
#
# Convention : Reuss Voigt Hill
#
# Bulk Modulus (GPa) = 39.70682 42.65009 41.17845
# Shear Modulus (GPa) = 35.31196 40.54912 37.93054
#
# Velocity S-wave (km/s) = 3.74394 4.01198 3.88027
# Velocity P-wave (km/s) = 5.86950 6.19607 6.03499
#
# Compressibility (1/GPa) = 0.02518459
#
# Stress axis : x y z
#
# Youngs Moduli (GPa) = 90.47752 66.91003 85.27716
#
# Poissons Ratio (x) = 0.17808 -0.06386
# Poissons Ratio (y) = 0.24080 0.37157
# Poissons Ratio (z) = -0.06775 0.29154
#
# Static dielectric constant tensor:
#      x y z
#    x 2.041650 -0.037880 0.125300 
#    y -0.037880 2.434090 -0.843600 
#    z 0.125300 -0.843600 3.750330 
# 
# From -- ./inp_files/556086.got.cif
#   From: 2010.05.17/outbox.cif.g08.bks.cpg/sg2_279_cif.got.tgz:556086.got - 2010.06.03 11:33:40.
