data_PCOD9108868
_publ_section_title
;
Structure prediction by ZEFSAII (Michael W. Deem and Ramdas Pophale) SiO2 
 PCOD9108868
Probable space group: P -1
;
_chemical_formula_sum "Si O2"
_cell_formula_units_Z 13
_cell_length_a 9.301549
_cell_length_b 11.761684
_cell_length_c 8.139953
_cell_angle_alpha 76.020134
_cell_angle_beta 110.921431
_cell_angle_gamma 142.591082
_cell_volume 503.936871
_symmetry_space_group_name_H-M "P -1"
_symmetry_group_IT_number 2
_symmetry_cell_setting 'triclinic'
loop_
_space_group_symop_operation_xyz
x,y,z
-x,-y,-z
loop_
_atom_site_type_symbol
_atom_site_label
_atom_site_fract_x
_atom_site_fract_y
_atom_site_fract_z
Si Si1 0.280109 0.169495 0.117427
Si Si2 0.218568 0.326457 0.295058
Si Si3 0.031124 0.681433 0.317890
Si Si4 0.855407 0.290813 0.002130
Si Si5 0.000000 0.000000 0.500000
Si Si6 0.308404 0.292895 0.761428
Si Si7 0.673483 0.238965 0.291383
O O1 0.308789 0.268753 0.250250
O O2 0.394280 0.116046 0.243326
O O3 0.422901 0.311481 0.972628
O O4 0.000000 0.000000 0.000000
O O5 0.088998 0.191857 0.445688
O O6 0.463109 0.549855 0.324357
O O7 0.031054 0.288961 0.125321
O O8 0.204320 0.770845 0.518212
O O9 0.860152 0.696007 0.256758
O O10 0.840408 0.457050 0.306140
O O11 0.196604 0.761747 0.192609
O O12 0.678264 0.194988 0.121460
O O13 0.000000 0.500000 0.000000
O O14 0.156564 0.092578 0.698848
#
# Coordination Sequence:
#
# PCOD9108868 Si02
#       7
#     2   2   2   2   1   2   2
#     4  12  24  47  75 105 150 198 257 312 376 459
#     4  12  24  47  77 109 152 201 252 313 386 454
#     4  10  20  40  74 106 148 193 250 309 382 455
#     4  10  21  41  74 112 147 194 257 306 377 467
#     4  12  28  42  68 118 150 186 260 320 370 452
#     4  12  23  45  77 107 148 203 252 314 383 452
#     4  10  22  41  67 110 146 195 249 307 380 450
#
# _framework density 25.796880999999999
#
# number of rings (size 3 to 8) (size 9 to 14) (size 15 to 20)
#    0.000    0.923    4.615    3.692    0.000    0.000 
#    5.538    1.538    3.385    0.000    0.000    0.000 
#    0.000    0.000    0.000    0.000    0.000    0.000 
#
# Total GULP energy -72420.467919 kJ/mol
# GULP energy per Si atom -5570.805225 kJ/mol
# Density = 2.573817 g / cm^3
# Si number density = 25.796881 Si / 1000 Ang^3
#
#
#
# Elastic Constant Matrix: (Units=GPa)
#
#
# Indices 1 2 3 4 5 6 
#
# 1 101.7180 -1.4203 33.1973 7.2724 5.9997 -11.2950
# 2 -1.4203 81.7617 11.3117 -6.1892 -0.2703 -3.5677
# 3 33.1973 11.3117 100.4573 -5.1845 8.9776 0.7381
# 4 7.2724 -6.1892 -5.1845 45.5503 -8.3158 -1.6389
# 5 5.9997 -0.2703 8.9776 -8.3158 51.6821 7.5482
# 6 -11.2950 -3.5677 0.7381 -1.6389 7.5482 26.0015
#
#
#
# Elastic Compliance Matrix: (Units=1/GPa)
#
#
# Indices 1 2 3 4 5 6 
#
# 1 0.012125 0.000845 -0.004097 -0.002430 -0.001946 0.005911
# 2 0.000845 0.012686 -0.001662 0.001511 0.000179 0.002198
# 3 -0.004097 -0.001662 0.011680 0.001498 -0.001037 -0.001944
# 4 -0.002430 0.001511 0.001498 0.023406 0.003875 -0.000540
# 5 -0.001946 0.000179 -0.001037 0.003875 0.021365 -0.006749
# 6 0.005911 0.002198 -0.001944 -0.000540 -0.006749 0.043309
#
#
# Mechanical properties :
#
#
# Convention : Reuss Voigt Hill
#
# Bulk Modulus (GPa) = 37.50483 41.12382 39.31433
# Shear Modulus (GPa) = 34.89526 40.70331 37.79928
#
# Velocity S-wave (km/s) = 3.68189 3.97651 3.83203
# Velocity P-wave (km/s) = 5.71359 6.08765 5.90359
#
# Compressibility (1/GPa) = 0.02666323
#
# Stress axis : x y z
#
# Youngs Moduli (GPa) = 82.47529 78.82585 85.61822
#
# Poissons Ratio (x) = -0.06661 0.35077
# Poissons Ratio (y) = -0.06969 0.14229
# Poissons Ratio (z) = 0.33789 0.13100
#
# Static dielectric constant tensor:
#      x y z
#    x 2.121620 -0.685540 0.482790 
#    y -0.685540 10.721780 -6.667140 
#    z 0.482790 -6.667140 7.440530 
# 
# From -- ./inp_files/178135.got.cif
#   From: 2010.05.17/outbox.cif.g08.bks.cpg/sg2_90_cif.got.tgz:178135.got - 2010.06.03 11:33:40.
