data_PCOD9108797
_publ_section_title
;
Structure prediction by ZEFSAII (Michael W. Deem and Ramdas Pophale) SiO2 
 PCOD9108797
Probable space group: P -1
;
_chemical_formula_sum "Si O2"
_cell_formula_units_Z 16
_cell_length_a 24.075874
_cell_length_b 18.232292
_cell_length_c 5.062915
_cell_angle_alpha 96.678144
_cell_angle_beta 74.753099
_cell_angle_gamma 159.841037
_cell_volume 679.573870
_symmetry_space_group_name_H-M "P -1"
_symmetry_group_IT_number 2
_symmetry_cell_setting 'triclinic'
loop_
_space_group_symop_operation_xyz
x,y,z
-x,-y,-z
loop_
_atom_site_type_symbol
_atom_site_label
_atom_site_fract_x
_atom_site_fract_y
_atom_site_fract_z
Si Si1 0.620869 0.886701 0.445729
Si Si2 0.319349 0.761350 0.972929
Si Si3 0.052909 0.274901 0.613326
Si Si4 0.798987 0.235425 0.058978
Si Si5 0.058023 0.712799 0.447917
Si Si6 0.282860 0.550338 0.928637
Si Si7 0.716590 0.794509 0.547878
Si Si8 0.471230 0.372753 0.792988
O O1 0.455362 0.708371 0.762049
O O2 0.546635 0.735272 0.277263
O O3 0.691467 0.045684 0.282583
O O4 0.798210 0.072917 0.451733
O O5 0.299663 0.806471 0.823688
O O6 0.330859 0.691789 0.832241
O O7 0.132350 0.536865 0.282565
O O8 0.500000 0.000000 0.000000
O O9 0.127118 0.337971 0.826961
O O10 0.980593 0.272213 0.720655
O O11 0.213693 0.472888 0.280708
O O12 0.903448 0.043693 0.555946
O O13 0.839934 0.237866 0.743655
O O14 0.000000 0.500000 0.000000
O O15 0.659258 0.639292 0.587005
O O16 0.674518 0.768056 0.289751
O O17 0.573135 0.661318 0.864959
#
# Coordination Sequence:
#
# PCOD9108797 Si02
#       8
#     2   2   2   2   2   2   2   2
#     4  12  26  43  64  96 135 169 225 278 332 394
#     4  11  25  44  63  93 132 175 226 276 335 398
#     4  11  23  45  67  97 133 178 218 270 337 399
#     4  12  25  40  65  92 124 174 227 281 328 387
#     4  11  24  41  66  92 127 171 226 280 331 388
#     4  11  28  43  65  96 135 181 217 274 338 397
#     4  10  20  40  72 100 138 164 226 265 333 395
#     4  10  22  39  68 109 128 176 212 282 324 392
#
# _framework density 23.544166000000001
#
# number of rings (size 3 to 8) (size 9 to 14) (size 15 to 20)
#    0.000    1.000    2.500    3.375   10.500    0.500 
#    0.000    1.250    0.000    0.000    0.000    0.000 
#    0.000    0.000    0.000    0.000    0.000    0.000 
#
# Total GULP energy -89466.254785 kJ/mol
# GULP energy per Si atom -5591.640924 kJ/mol
# Density = 2.349058 g / cm^3
# Si number density = 23.544166 Si / 1000 Ang^3
#
#
#
# Elastic Constant Matrix: (Units=GPa)
#
#
# Indices 1 2 3 4 5 6 
#
# 1 36.4989 22.8296 8.2407 -8.0159 1.8250 1.0327
# 2 22.8296 118.1433 -6.2243 1.9263 -5.6713 -13.1052
# 3 8.2407 -6.2243 68.1400 7.6042 -6.3466 1.1808
# 4 -8.0159 1.9263 7.6042 33.1884 1.4392 1.4036
# 5 1.8250 -5.6713 -6.3466 1.4392 22.0114 -0.1656
# 6 1.0327 -13.1052 1.1808 1.4036 -0.1656 38.3603
#
#
#
# Elastic Compliance Matrix: (Units=1/GPa)
#
#
# Indices 1 2 3 4 5 6 
#
# 1 0.037652 -0.008725 -0.007370 0.011828 -0.008300 -0.004236
# 2 -0.008725 0.011038 0.002849 -0.003776 0.004666 0.004077
# 3 -0.007370 0.002849 0.017127 -0.006198 0.006695 0.000900
# 4 0.011828 -0.003776 -0.006198 0.035005 -0.006050 -0.002724
# 5 -0.008300 0.004666 0.006695 -0.006050 0.049663 0.002047
# 6 -0.004236 0.004077 0.000900 -0.002724 0.002047 0.027656
#
#
# Mechanical properties :
#
#
# Convention : Reuss Voigt Hill
#
# Bulk Modulus (GPa) = 25.42983 30.27494 27.85238
# Shear Modulus (GPa) = 22.96288 31.90777 27.43533
#
# Velocity S-wave (km/s) = 3.12639 3.68534 3.41731
# Velocity P-wave (km/s) = 4.88434 5.56738 5.23700
#
# Compressibility (1/GPa) = 0.03932390
#
# Stress axis : x y z
#
# Youngs Moduli (GPa) = 26.55875 90.59452 58.38764
#
# Poissons Ratio (x) = 0.79047 0.43033
# Poissons Ratio (y) = 0.23173 -0.16634
# Poissons Ratio (z) = 0.19575 -0.25809
#
# Static dielectric constant tensor:
#      x y z
#    x 1.938660 -0.019690 0.026680 
#    y -0.019690 1.918230 0.033270 
#    z 0.026680 0.033270 1.916160 
# 
# From -- ./inp_files/116681.got.cif
#   From: 2010.05.17/outbox.cif.g08.bks.cpg/sg2_59_cif.got.tgz:116681.got - 2010.06.03 11:33:40.
