data_PCOD9108764
_publ_section_title
;
Structure prediction by ZEFSAII (Michael W. Deem and Ramdas Pophale) SiO2 
 PCOD9108764
Probable space group: P -1
;
_chemical_formula_sum "Si O2"
_cell_formula_units_Z 14
_cell_length_a 15.950448
_cell_length_b 12.894426
_cell_length_c 6.367824
_cell_angle_alpha 40.642491
_cell_angle_beta 63.735128
_cell_angle_gamma 44.511168
_cell_volume 583.922205
_symmetry_space_group_name_H-M "P -1"
_symmetry_group_IT_number 2
_symmetry_cell_setting 'triclinic'
loop_
_space_group_symop_operation_xyz
x,y,z
-x,-y,-z
loop_
_atom_site_type_symbol
_atom_site_label
_atom_site_fract_x
_atom_site_fract_y
_atom_site_fract_z
Si Si1 0.840446 0.840178 0.938910
Si Si2 0.370307 0.089657 0.107300
Si Si3 0.061574 0.087754 0.655308
Si Si4 0.469367 0.693423 0.858536
Si Si5 0.937712 0.271324 0.905065
Si Si6 0.271608 0.783166 0.234744
Si Si7 0.705611 0.563173 0.013753
O O1 0.742678 0.805999 0.090991
O O2 0.895895 0.818453 0.684682
O O3 0.765946 0.076501 0.735616
O O4 0.956330 0.724892 0.140956
O O5 0.392745 0.892885 0.487636
O O6 0.500000 0.000000 0.000000
O O7 0.325507 0.249014 0.102739
O O8 0.036685 0.950557 0.766290
O O9 0.171665 0.922575 0.947572
O O10 0.947035 0.270578 0.642618
O O11 0.500000 0.500000 0.000000
O O12 0.394816 0.722587 0.100702
O O13 0.590617 0.650516 0.859866
O O14 0.822371 0.434621 0.927691
O O15 0.282693 0.591405 0.591677
#
# Coordination Sequence:
#
# PCOD9108764 Si02
#       7
#     2   2   2   2   2   2   2
#     4  11  22  44  71  99 140 182 236 280 335 415
#     4  12  27  48  69  98 144 184 227 290 353 410
#     4  10  20  40  71 105 139 176 235 288 334 397
#     4  12  24  46  74 100 134 183 240 288 343 410
#     4  10  23  38  69 107 137 181 229 289 338 404
#     4  11  22  41  74 104 133 180 237 286 338 404
#     4  12  25  42  67 107 144 177 229 288 350 411
#
# _framework density 23.975797
#
# number of rings (size 3 to 8) (size 9 to 14) (size 15 to 20)
#    0.000    0.857    2.857    4.714    4.000    0.571 
#    0.000    0.714    0.000    0.000    0.000    0.000 
#    0.000    0.000    0.000    0.000    0.000    0.000 
#
# Total GULP energy -78308.445083 kJ/mol
# GULP energy per Si atom -5593.460363 kJ/mol
# Density = 2.392123 g / cm^3
# Si number density = 23.975797 Si / 1000 Ang^3
#
#
#
# Elastic Constant Matrix: (Units=GPa)
#
#
# Indices 1 2 3 4 5 6 
#
# 1 174.2825 56.9527 -4.7662 2.9593 4.0396 -0.8677
# 2 56.9527 170.1104 28.6955 16.3858 -24.6929 -9.3320
# 3 -4.7662 28.6955 69.2162 6.3818 -9.9338 4.1165
# 4 2.9593 16.3858 6.3818 39.2919 -3.6146 -15.4064
# 5 4.0396 -24.6929 -9.9338 -3.6146 33.4715 9.0111
# 6 -0.8677 -9.3320 4.1165 -15.4064 9.0111 41.8698
#
#
#
# Elastic Compliance Matrix: (Units=1/GPa)
#
#
# Indices 1 2 3 4 5 6 
#
# 1 0.006765 -0.002870 0.001268 0.000254 -0.002534 0.000015
# 2 -0.002870 0.008297 -0.002649 -0.002300 0.005423 0.000037
# 3 0.001268 -0.002649 0.016667 -0.002961 0.003615 -0.004071
# 4 0.000254 -0.002300 -0.002961 0.031282 -0.002409 0.011813
# 5 -0.002534 0.005423 0.003615 -0.002409 0.037172 -0.008086
# 6 0.000015 0.000037 -0.004071 0.011813 -0.008086 0.030379
#
#
# Mechanical properties :
#
#
# Convention : Reuss Voigt Hill
#
# Bulk Modulus (GPa) = 43.05596 63.93034 53.49315
# Shear Modulus (GPa) = 34.05819 45.10846 39.58332
#
# Velocity S-wave (km/s) = 3.77307 4.34224 4.06762
# Velocity P-wave (km/s) = 6.08100 7.20156 6.66487
#
# Compressibility (1/GPa) = 0.02322559
#
# Stress axis : x y z
#
# Youngs Moduli (GPa) = 147.82099 120.52304 59.99862
#
# Poissons Ratio (x) = 0.34594 -0.07606
# Poissons Ratio (y) = 0.42429 0.15895
# Poissons Ratio (z) = -0.18740 0.31930
#
# Static dielectric constant tensor:
#      x y z
#    x 1.957550 -0.033200 0.026520 
#    y -0.033200 1.847950 -0.046850 
#    z 0.026520 -0.046850 1.896670 
# 
# From -- ./inp_files/94291.got.cif
#   From: 2010.05.17/outbox.cif.g08.bks.cpg/sg2_48_cif.got.tgz:94291.got - 2010.06.03 11:33:40.
