data_PCOD9108739
_publ_section_title
;
Structure prediction by ZEFSAII (Michael W. Deem and Ramdas Pophale) SiO2 
 PCOD9108739
Probable space group: P -1
;
_chemical_formula_sum "Si O2"
_cell_formula_units_Z 14
_cell_length_a 5.075400
_cell_length_b 15.242933
_cell_length_c 8.480998
_cell_angle_alpha 84.761758
_cell_angle_beta 91.204085
_cell_angle_gamma 60.283265
_cell_volume 565.786628
_symmetry_space_group_name_H-M "P -1"
_symmetry_group_IT_number 2
_symmetry_cell_setting 'triclinic'
loop_
_space_group_symop_operation_xyz
x,y,z
-x,-y,-z
loop_
_atom_site_type_symbol
_atom_site_label
_atom_site_fract_x
_atom_site_fract_y
_atom_site_fract_z
Si Si1 0.101118 0.719185 0.937383
Si Si2 0.397637 0.217287 0.308370
Si Si3 0.378584 0.720595 0.420249
Si Si4 0.315885 0.455811 0.099016
Si Si5 0.368434 0.065241 0.140061
Si Si6 0.712754 0.074540 0.591520
Si Si7 0.023059 0.627915 0.279840
O O1 0.442690 0.730559 0.603792
O O2 0.924151 0.704866 0.787409
O O3 0.960176 0.839042 0.918401
O O4 0.018767 0.683222 0.104739
O O5 0.533648 0.126871 0.195073
O O6 0.411819 0.146241 0.469660
O O7 0.819459 0.331734 0.604065
O O8 0.229606 0.838818 0.343965
O O9 0.693039 0.658435 0.336721
O O10 0.229277 0.508228 0.260394
O O11 0.500000 0.500000 0.000000
O O12 0.541913 0.338100 0.084630
O O13 0.000000 0.500000 0.000000
O O14 0.353041 0.992556 0.281288
O O15 0.500000 0.000000 0.000000
O O16 0.000000 0.000000 0.500000
#
# Coordination Sequence:
#
# PCOD9108739 Si02
#       7
#     2   2   2   2   2   2   2
#     4   9  21  40  67 101 135 175 242 300 348 423
#     4   8  22  39  64  92 143 178 232 278 364 402
#     4  10  24  40  68  95 139 185 236 277 359 430
#     4  10  21  42  70 101 139 181 226 299 375 415
#     4  10  20  40  70  99 141 184 248 294 347 421
#     4  10  22  40  65  97 143 198 228 281 372 425
#     4  11  21  43  68  99 133 186 234 296 350 429
#
# _framework density 24.744309000000001
#
# number of rings (size 3 to 8) (size 9 to 14) (size 15 to 20)
#    1.714    0.571    0.000    3.000    2.000    1.143 
#    7.714    2.857    0.000    0.000    0.000    0.000 
#    0.000    0.000    0.000    0.000    0.000    0.000 
#
# Total GULP energy -78102.493421 kJ/mol
# GULP energy per Si atom -5578.749530 kJ/mol
# Density = 2.468799 g / cm^3
# Si number density = 24.744309 Si / 1000 Ang^3
#
#
#
# Elastic Constant Matrix: (Units=GPa)
#
#
# Indices 1 2 3 4 5 6 
#
# 1 104.6140 28.5645 30.7243 9.7938 4.6585 -10.2274
# 2 28.5645 126.4734 24.8138 34.6115 13.9459 -10.7555
# 3 30.7243 24.8138 107.8190 5.8805 9.6001 -4.2305
# 4 9.7938 34.6115 5.8805 44.9589 4.3383 9.9961
# 5 4.6585 13.9459 9.6001 4.3383 39.5191 3.2270
# 6 -10.2274 -10.7555 -4.2305 9.9961 3.2270 32.8378
#
#
#
# Elastic Compliance Matrix: (Units=1/GPa)
#
#
# Indices 1 2 3 4 5 6 
#
# 1 0.011178 -0.001156 -0.002653 -0.001917 -0.000331 0.003377
# 2 -0.001156 0.012149 -0.001354 -0.010132 -0.003269 0.006850
# 3 -0.002653 -0.001354 0.010488 0.000392 -0.001812 0.000140
# 4 -0.001917 -0.010132 0.000392 0.033443 0.001191 -0.014162
# 5 -0.000331 -0.003269 -0.001812 0.001191 0.027169 -0.004440
# 6 0.003377 0.006850 0.000140 -0.014162 -0.004440 0.038514
#
#
# Mechanical properties :
#
#
# Convention : Reuss Voigt Hill
#
# Bulk Modulus (GPa) = 42.57207 56.34573 49.45890
# Shear Modulus (GPa) = 33.09154 40.45008 36.77081
#
# Velocity S-wave (km/s) = 3.66093 4.04756 3.85909
# Velocity P-wave (km/s) = 5.92554 6.68313 6.31571
#
# Compressibility (1/GPa) = 0.02348958
#
# Stress axis : x y z
#
# Youngs Moduli (GPa) = 89.46126 82.30881 95.34874
#
# Poissons Ratio (x) = 0.09513 0.25294
# Poissons Ratio (y) = 0.10340 0.12913
# Poissons Ratio (z) = 0.23732 0.11147
#
# Static dielectric constant tensor:
#      x y z
#    x 2.002330 -0.000680 0.035920 
#    y -0.000680 2.029520 -0.055120 
#    z 0.035920 -0.055120 1.979250 
# 
# From -- ./inp_files/136161.got.cif
#   From: 2010.05.17/outbox.cif.g08.bks.cpg/sg2_69_cif.got.tgz:136161.got - 2010.06.03 11:33:40.
