data_PCOD9108482
_publ_section_title
;
Structure prediction by ZEFSAII (Michael W. Deem and Ramdas Pophale) SiO2 
 PCOD9108482
Probable space group: P -1
;
_chemical_formula_sum "Si O2"
_cell_formula_units_Z 14
_cell_length_a 8.297387
_cell_length_b 13.329480
_cell_length_c 8.630775
_cell_angle_alpha 36.468501
_cell_angle_beta 101.993143
_cell_angle_gamma 101.939075
_cell_volume 553.689527
_symmetry_space_group_name_H-M "P -1"
_symmetry_group_IT_number 2
_symmetry_cell_setting 'triclinic'
loop_
_space_group_symop_operation_xyz
x,y,z
-x,-y,-z
loop_
_atom_site_type_symbol
_atom_site_label
_atom_site_fract_x
_atom_site_fract_y
_atom_site_fract_z
Si Si1 0.757273 0.812097 0.060761
Si Si2 0.985935 0.697851 0.714414
Si Si3 0.547383 0.672536 0.947151
Si Si4 0.926054 0.240698 0.009347
Si Si5 0.725878 0.557174 0.629833
Si Si6 0.318543 0.910535 0.074486
Si Si7 0.307571 0.664284 0.638654
O O1 0.628866 0.821779 0.881899
O O2 0.680343 0.658911 0.343037
O O3 0.930132 0.772343 0.070144
O O4 0.778684 0.973382 0.973469
O O5 0.142687 0.732922 0.591207
O O6 0.815380 0.697270 0.588681
O O7 0.011542 0.794248 0.761461
O O8 0.000000 0.500000 0.000000
O O9 0.410200 0.557809 0.160497
O O10 0.686534 0.539526 0.104891
O O11 0.457852 0.722865 0.710367
O O12 0.861296 0.428257 0.766260
O O13 0.772017 0.119834 0.068277
O O14 0.328519 0.731959 0.385860
O O15 0.500000 0.000000 0.000000
#
# Coordination Sequence:
#
# PCOD9108482 Si02
#       7
#     2   2   2   2   2   2   2
#     4  12  25  41  66  96 132 174 212 257 325 385
#     4  10  20  40  68  98 130 159 211 270 322 369
#     4  11  22  39  71 101 124 162 224 266 320 370
#     4  11  23  43  66  95 129 165 221 265 317 378
#     4  11  21  41  70  98 129 163 215 274 315 374
#     4  12  27  47  63  91 134 175 215 260 322 387
#     4  11  23  42  69  94 133 164 214 269 320 376
#
# _framework density 25.284929999999999
#
# number of rings (size 3 to 8) (size 9 to 14) (size 15 to 20)
#    0.000    0.857    2.857    6.429    2.000    0.571 
#    0.000    1.429    0.000    0.000    0.000    0.000 
#    0.000    0.000    0.000    0.000    0.000    0.000 
#
# Total GULP energy -78415.532971 kJ/mol
# GULP energy per Si atom -5601.109498 kJ/mol
# Density = 2.522738 g / cm^3
# Si number density = 25.284930 Si / 1000 Ang^3
#
#
#
# Elastic Constant Matrix: (Units=GPa)
#
#
# Indices 1 2 3 4 5 6 
#
# 1 95.0016 41.0259 13.0031 14.4660 -11.6339 -8.3261
# 2 41.0259 173.8429 7.8565 9.0753 8.6112 30.1425
# 3 13.0031 7.8565 28.4918 -6.2427 -5.5811 -3.3992
# 4 14.4660 9.0753 -6.2427 26.2990 -5.4823 6.6699
# 5 -11.6339 8.6112 -5.5811 -5.4823 20.1229 4.9446
# 6 -8.3261 30.1425 -3.3992 6.6699 4.9446 54.9718
#
#
#
# Elastic Compliance Matrix: (Units=1/GPa)
#
#
# Indices 1 2 3 4 5 6 
#
# 1 0.015521 -0.004015 -0.006258 -0.008708 0.005420 0.004734
# 2 -0.004015 0.007898 -0.002185 -0.001053 -0.005500 -0.004451
# 3 -0.006258 -0.002185 0.045432 0.018237 0.015010 -0.000504
# 4 -0.008708 -0.001053 0.018237 0.052909 0.016741 -0.007539
# 5 0.005420 -0.005500 0.015010 0.016741 0.064663 -0.003083
# 6 0.004734 -0.004451 -0.000504 -0.007539 -0.003083 0.022510
#
#
# Mechanical properties :
#
#
# Convention : Reuss Voigt Hill
#
# Bulk Modulus (GPa) = 22.76024 46.78970 34.77497
# Shear Modulus (GPa) = 20.12124 35.97547 28.04835
#
# Velocity S-wave (km/s) = 2.82402 3.77610 3.33422
# Velocity P-wave (km/s) = 4.43334 6.12838 5.34843
#
# Compressibility (1/GPa) = 0.04393626
#
# Stress axis : x y z
#
# Youngs Moduli (GPa) = 64.42811 126.61847 22.01075
#
# Poissons Ratio (x) = 0.50835 0.13774
# Poissons Ratio (y) = 0.25867 0.04809
# Poissons Ratio (z) = 0.40319 0.27662
#
# Static dielectric constant tensor:
#      x y z
#    x 2.052090 0.007530 0.018950 
#    y 0.007530 2.022160 -0.002880 
#    z 0.018950 -0.002880 1.977180 
# 
# From -- ./inp_files/183833.got.cif
#   From: 2010.05.17/outbox.cif.g08.bks.cpg/sg2_92_cif.got.tgz:183833.got - 2010.06.03 11:33:40.
