data_PCOD9108963
_publ_section_title
;
Structure prediction by ZEFSAII (Michael W. Deem and Ramdas Pophale) SiO2 
 PCOD9108963
Probable space group: P -1
;
_chemical_formula_sum "Si O2"
_cell_formula_units_Z 16
_cell_length_a 19.154092
_cell_length_b 9.034745
_cell_length_c 11.613695
_cell_angle_alpha 115.293969
_cell_angle_beta 28.347387
_cell_angle_gamma 115.912721
_cell_volume 854.039123
_symmetry_space_group_name_H-M "P -1"
_symmetry_group_IT_number 2
_symmetry_cell_setting 'triclinic'
loop_
_space_group_symop_operation_xyz
x,y,z
-x,-y,-z
loop_
_atom_site_type_symbol
_atom_site_label
_atom_site_fract_x
_atom_site_fract_y
_atom_site_fract_z
Si Si1 0.293836 0.461860 0.351443
Si Si2 0.026408 0.497701 0.096887
Si Si3 0.129287 0.151831 0.870436
Si Si4 0.446426 0.273812 0.880212
Si Si5 0.361146 0.940517 0.036931
Si Si6 0.684960 0.348767 0.152414
Si Si7 0.669320 0.842503 0.645506
Si Si8 0.381301 0.292107 0.712238
O O1 0.118647 0.457058 0.614197
O O2 0.385832 0.639988 0.307048
O O3 0.339431 0.333721 0.337904
O O4 0.347064 0.394929 0.130828
O O5 0.000000 0.500000 0.000000
O O6 0.052651 0.316274 0.036678
O O7 0.178342 0.613043 0.946372
O O8 0.227142 0.153952 0.613608
O O9 0.245812 0.167228 0.812429
O O10 0.000000 0.000000 0.000000
O O11 0.411732 0.265701 0.793053
O O12 0.411863 0.095119 0.930313
O O13 0.277912 0.786760 0.037378
O O14 0.507189 0.874465 0.852332
O O15 0.279219 0.017040 0.287099
O O16 0.531824 0.282614 0.418487
O O17 0.657573 0.521814 0.190898
#
# Coordination Sequence:
#
# PCOD9108963 Si02
#       8
#     2   2   2   2   2   2   2   2
#     4  10  21  40  60  88 122 155 199 237 294 357
#     4  11  22  38  62  88 115 160 197 238 294 352
#     4  11  24  40  60  90 121 152 196 247 296 343
#     4  10  22  37  62  91 119 153 195 252 287 340
#     4  10  21  37  64  91 112 153 202 244 293 341
#     4  10  21  38  61  86 115 160 200 233 293 359
#     4  10  20  41  61  85 119 158 195 239 296 355
#     4  10  21  40  61  84 119 157 195 242 293 350
#
# _framework density 18.734504999999999
#
# number of rings (size 3 to 8) (size 9 to 14) (size 15 to 20)
#    0.000    1.750    2.500    1.500    3.500    2.500 
#    2.250    2.500    0.000    0.000    0.000    0.000 
#    0.000    0.000    0.000    0.000    0.000    0.000 
#
# Total GULP energy -89338.401200 kJ/mol
# GULP energy per Si atom -5583.650075 kJ/mol
# Density = 1.869186 g / cm^3
# Si number density = 18.734505 Si / 1000 Ang^3
#
#
#
# Elastic Constant Matrix: (Units=GPa)
#
#
# Indices 1 2 3 4 5 6 
#
# 1 86.5051 22.5571 10.0758 2.7069 -5.9462 18.1801
# 2 22.5571 61.3539 4.3674 1.2292 -9.3102 27.9052
# 3 10.0758 4.3674 51.1186 0.9515 -11.0513 -1.3293
# 4 2.7069 1.2292 0.9515 20.9827 4.7204 -5.0192
# 5 -5.9462 -9.3102 -11.0513 4.7204 30.9932 -1.7112
# 6 18.1801 27.9052 -1.3293 -5.0192 -1.7112 26.8361
#
#
#
# Elastic Compliance Matrix: (Units=1/GPa)
#
#
# Indices 1 2 3 4 5 6 
#
# 1 0.014381 0.000279 -0.002611 -0.004828 0.002043 -0.010934
# 2 0.000279 0.036384 -0.001721 -0.013988 0.010288 -0.040068
# 3 -0.002611 -0.001721 0.021933 -0.001007 0.007228 0.004917
# 4 -0.004828 -0.013988 -0.001007 0.058727 -0.012890 0.027928
# 5 0.002043 0.010288 0.007228 -0.012890 0.039647 -0.011607
# 6 -0.010934 -0.040068 0.004917 0.027928 -0.011607 0.091061
#
#
# Mechanical properties :
#
#
# Convention : Reuss Voigt Hill
#
# Bulk Modulus (GPa) = 15.48190 30.33089 22.90640
# Shear Modulus (GPa) = 17.13674 26.56089 21.84881
#
# Velocity S-wave (km/s) = 3.02771 3.76939 3.41872
# Velocity P-wave (km/s) = 4.52819 5.93038 5.27607
#
# Compressibility (1/GPa) = 0.06459155
#
# Stress axis : x y z
#
# Youngs Moduli (GPa) = 69.53621 27.48454 45.59302
#
# Poissons Ratio (x) = -0.00765 0.11905
# Poissons Ratio (y) = -0.01937 0.07846
# Poissons Ratio (z) = 0.18156 0.04730
#
# Static dielectric constant tensor:
#      x y z
#    x 1.650810 0.025800 0.004260 
#    y 0.025800 1.663390 0.007780 
#    z 0.004260 0.007780 1.633750 
# 
# From -- ./inp_files/257954.got.cif
#   From: 2010.05.17/outbox.cif.g08.bks.cpg/sg2_129_cif.got.tgz:257954.got - 2010.06.03 11:33:40.
