data_PCOD9108803
_publ_section_title
;
Structure prediction by ZEFSAII (Michael W. Deem and Ramdas Pophale) SiO2 
 PCOD9108803
Probable space group: P -1
;
_chemical_formula_sum "Si O2"
_cell_formula_units_Z 15
_cell_length_a 10.286623
_cell_length_b 12.888107
_cell_length_c 11.446307
_cell_angle_alpha 39.055968
_cell_angle_beta 95.123282
_cell_angle_gamma 121.718375
_cell_volume 653.637423
_symmetry_space_group_name_H-M "P -1"
_symmetry_group_IT_number 2
_symmetry_cell_setting 'triclinic'
loop_
_space_group_symop_operation_xyz
x,y,z
-x,-y,-z
loop_
_atom_site_type_symbol
_atom_site_label
_atom_site_fract_x
_atom_site_fract_y
_atom_site_fract_z
Si Si1 0.858025 0.124913 0.625656
Si Si2 0.084979 0.250654 0.742280
Si Si3 0.490569 0.407189 0.952185
Si Si4 0.989145 0.530928 0.108372
Si Si5 0.658021 0.942081 0.287774
Si Si6 0.125147 0.145386 0.494808
Si Si7 0.706514 0.457650 0.278129
Si Si8 0.500000 0.500000 0.500000
O O1 0.913161 0.312952 0.372904
O O2 0.935273 0.214749 0.684044
O O3 0.983903 0.082276 0.635363
O O4 0.640280 0.872295 0.816862
O O5 0.141491 0.402586 0.728950
O O6 0.286844 0.389628 0.576711
O O7 0.000000 0.000000 0.000000
O O8 0.699422 0.575295 0.769143
O O9 0.384217 0.443775 0.828628
O O10 0.500000 0.500000 0.000000
O O11 0.822472 0.514270 0.124491
O O12 0.000000 0.500000 0.000000
O O13 0.191547 0.774711 0.964623
O O14 0.777693 0.933034 0.390551
O O15 0.468689 0.815495 0.455664
O O16 0.590701 0.759782 0.336906
O O17 0.000000 0.000000 0.500000
#
# Coordination Sequence:
#
# PCOD9108803 Si02
#       8
#     2   2   2   2   2   2   2   1
#     4  12  25  41  66 103 130 182 224 275 346 403
#     4  11  21  41  71  98 132 166 228 290 333 393
#     4  11  23  39  69 100 130 170 236 290 324 392
#     4  12  28  45  63  96 149 188 217 269 347 422
#     4  10  22  43  68  98 128 179 223 277 341 393
#     4  11  21  39  67  97 131 170 233 287 328 389
#     4  10  24  44  66  98 133 179 226 281 336 397
#     4  10  20  40  72 102 126 170 232 284 334 390
#
# _framework density 22.948502000000001
#
# number of rings (size 3 to 8) (size 9 to 14) (size 15 to 20)
#    0.000    1.067    4.000    2.400    3.733    2.133 
#    0.000    2.667    0.000    0.000    0.000    0.000 
#    0.000    0.000    0.000    0.000    0.000    0.000 
#
# Total GULP energy -83576.138617 kJ/mol
# GULP energy per Si atom -5571.742574 kJ/mol
# Density = 2.289627 g / cm^3
# Si number density = 22.948502 Si / 1000 Ang^3
#
#
#
# Elastic Constant Matrix: (Units=GPa)
#
#
# Indices 1 2 3 4 5 6 
#
# 1 36.3584 9.7649 16.0653 -14.7532 -14.9292 -7.3647
# 2 9.7649 98.7571 33.5569 -21.3928 5.4440 18.9393
# 3 16.0653 33.5569 153.3324 -37.8975 -3.6406 14.4583
# 4 -14.7532 -21.3928 -37.8975 38.1897 11.4335 -5.2727
# 5 -14.9292 5.4440 -3.6406 11.4335 39.8229 10.6981
# 6 -7.3647 18.9393 14.4583 -5.2727 10.6981 29.6075
#
#
#
# Elastic Compliance Matrix: (Units=1/GPa)
#
#
# Indices 1 2 3 4 5 6 
#
# 1 0.039572 -0.003845 -0.001613 0.010423 0.009088 0.011663
# 2 -0.003845 0.013408 -0.000610 0.005289 -0.002902 -0.007245
# 3 -0.001613 -0.000610 0.009014 0.008034 -0.001332 -0.002501
# 4 0.010423 0.005289 0.008034 0.045505 -0.011138 0.007415
# 5 0.009088 -0.002902 -0.001332 -0.011138 0.034602 -0.009719
# 6 0.011663 -0.007245 -0.002501 0.007415 -0.009719 0.047364
#
#
# Mechanical properties :
#
#
# Convention : Reuss Voigt Hill
#
# Bulk Modulus (GPa) = 20.05624 45.24692 32.65158
# Shear Modulus (GPa) = 22.91265 36.79475 29.85370
#
# Velocity S-wave (km/s) = 3.16323 4.00854 3.61071
# Velocity P-wave (km/s) = 4.70107 6.41748 5.62513
#
# Compressibility (1/GPa) = 0.04985980
#
# Stress axis : x y z
#
# Youngs Moduli (GPa) = 25.27019 74.57998 110.93759
#
# Poissons Ratio (x) = 0.28674 0.17890
# Poissons Ratio (y) = 0.09716 0.06769
# Poissons Ratio (z) = 0.04075 0.04551
#
# Static dielectric constant tensor:
#      x y z
#    x 1.895300 -0.018800 0.033860 
#    y -0.018800 1.928650 0.022550 
#    z 0.033860 0.022550 1.975990 
# 
# From -- ./inp_files/430947.got.cif
#   From: 2010.05.17/outbox.cif.g08.bks.cpg/sg2_216_cif.got.tgz:430947.got - 2010.06.03 11:33:40.
