data_PCOD9108620
_publ_section_title
;
Structure prediction by ZEFSAII (Michael W. Deem and Ramdas Pophale) SiO2 
 PCOD9108620
Probable space group: P -1
;
_chemical_formula_sum "Si O2"
_cell_formula_units_Z 16
_cell_length_a 9.051019
_cell_length_b 15.046270
_cell_length_c 17.613978
_cell_angle_alpha 24.659019
_cell_angle_beta 120.577536
_cell_angle_gamma 134.850943
_cell_volume 634.643428
_symmetry_space_group_name_H-M "P -1"
_symmetry_group_IT_number 2
_symmetry_cell_setting 'triclinic'
loop_
_space_group_symop_operation_xyz
x,y,z
-x,-y,-z
loop_
_atom_site_type_symbol
_atom_site_label
_atom_site_fract_x
_atom_site_fract_y
_atom_site_fract_z
Si Si1 0.976541 0.478863 0.334213
Si Si2 0.764127 0.943957 0.106206
Si Si3 0.327445 0.173114 0.667315
Si Si4 0.535681 0.886935 0.523255
Si Si5 0.940108 0.215509 0.674562
Si Si6 0.402838 0.846783 0.827499
Si Si7 0.189627 0.288168 0.273937
Si Si8 0.245423 0.457465 0.315633
O O1 0.031184 0.425671 0.307039
O O2 0.004162 0.305997 0.532453
O O3 0.730799 0.377979 0.363663
O O4 0.153860 0.820880 0.117478
O O5 0.826697 0.035418 0.140534
O O6 0.487204 0.737927 0.195881
O O7 0.889843 0.822832 0.218331
O O8 0.500000 0.500000 0.500000
O O9 0.201807 0.195055 0.549158
O O10 0.420408 0.046603 0.742229
O O11 0.637715 0.076990 0.325194
O O12 0.500000 0.000000 0.500000
O O13 0.660047 0.778318 0.666285
O O14 0.000000 0.500000 0.500000
O O15 0.660784 0.951909 0.811727
O O16 0.201415 0.499073 0.057162
O O17 0.312953 0.500869 0.213056
O O18 0.000000 0.000000 0.500000
#
# Coordination Sequence:
#
# PCOD9108620 Si02
#       8
#     2   2   2   2   2   2   2   2
#     4  11  24  41  65 100 134 182 227 280 351 422
#     4  11  23  39  66  98 139 185 223 277 351 424
#     4  10  20  40  69  99 141 179 220 280 348 420
#     4  11  26  50  71  97 140 182 244 299 345 417
#     4  11  24  38  64  97 142 181 221 276 345 424
#     4  11  25  46  72 105 143 187 229 293 360 410
#     4  12  27  48  73 103 136 182 247 301 348 414
#     4  11  22  42  67  97 140 177 231 286 342 416
#
# _framework density 25.211006999999999
#
# number of rings (size 3 to 8) (size 9 to 14) (size 15 to 20)
#    0.000    1.000    2.500    4.125    5.250    1.500 
#    2.250    0.000    0.000    0.000    0.000    0.000 
#    0.000    0.000    0.000    0.000    0.000    0.000 
#
# Total GULP energy -89161.651548 kJ/mol
# GULP energy per Si atom -5572.603222 kJ/mol
# Density = 2.515363 g / cm^3
# Si number density = 25.211007 Si / 1000 Ang^3
#
#
#
# Elastic Constant Matrix: (Units=GPa)
#
#
# Indices 1 2 3 4 5 6 
#
# 1 142.0164 5.8957 49.9149 6.7597 21.8531 -5.6808
# 2 5.8957 24.2154 14.8318 8.7812 0.4949 -7.1486
# 3 49.9149 14.8318 156.4192 -6.5924 -8.1852 13.1759
# 4 6.7597 8.7812 -6.5924 18.2006 1.8901 -1.7584
# 5 21.8531 0.4949 -8.1852 1.8901 32.1309 1.7590
# 6 -5.6808 -7.1486 13.1759 -1.7584 1.7590 46.9821
#
#
#
# Elastic Compliance Matrix: (Units=1/GPa)
#
#
# Indices 1 2 3 4 5 6 
#
# 1 0.010085 0.003510 -0.004473 -0.005944 -0.007872 0.003080
# 2 0.003510 0.061719 -0.009558 -0.032976 -0.004458 0.011428
# 3 -0.004473 -0.009558 0.009769 0.008804 0.005412 -0.004608
# 4 -0.005944 -0.032976 0.008804 0.075444 0.002655 -0.005481
# 5 -0.007872 -0.004458 0.005412 0.002655 0.038013 -0.004472
# 6 0.003080 0.011428 -0.004608 -0.005481 -0.004472 0.024651
#
#
# Mechanical properties :
#
#
# Convention : Reuss Voigt Hill
#
# Bulk Modulus (GPa) = 16.52050 51.54843 34.03447
# Shear Modulus (GPa) = 19.16443 36.26327 27.71385
#
# Velocity S-wave (km/s) = 2.76009 3.79673 3.31913
# Velocity P-wave (km/s) = 4.08957 6.30169 5.31206
#
# Compressibility (1/GPa) = 0.06053085
#
# Stress axis : x y z
#
# Youngs Moduli (GPa) = 99.15391 16.20259 102.36248
#
# Poissons Ratio (x) = -0.05687 0.45787
# Poissons Ratio (y) = -0.34803 0.97838
# Poissons Ratio (z) = 0.44352 0.15486
#
# Static dielectric constant tensor:
#      x y z
#    x 1.458020 0.463970 0.505930 
#    y 0.463970 1.623350 -0.545910 
#    z 0.505930 -0.545910 1.614360 
# 
# From -- ./inp_files/590897.got.cif
#   From: 2010.05.17/outbox.cif.g08.bks.cpg/sg2_296_cif.got.tgz:590897.got - 2010.06.03 11:33:40.
