data_PCOD9108115
_publ_section_title
;
Structure prediction by ZEFSAII (Michael W. Deem and Ramdas Pophale) SiO2 
 PCOD9108115
Probable space group: P -1
;
_chemical_formula_sum "Si O2"
_cell_formula_units_Z 12
_cell_length_a 6.640131
_cell_length_b 17.814717
_cell_length_c 10.406282
_cell_angle_alpha 31.266313
_cell_angle_beta 109.863209
_cell_angle_gamma 128.268160
_cell_volume 443.997290
_symmetry_space_group_name_H-M "P -1"
_symmetry_group_IT_number 2
_symmetry_cell_setting 'triclinic'
loop_
_space_group_symop_operation_xyz
x,y,z
-x,-y,-z
loop_
_atom_site_type_symbol
_atom_site_label
_atom_site_fract_x
_atom_site_fract_y
_atom_site_fract_z
Si Si1 0.936289 0.635373 0.165162
Si Si2 0.032806 0.856552 0.624223
Si Si3 0.382573 0.757944 0.709135
Si Si4 0.050972 0.426482 0.321818
Si Si5 0.097980 0.973262 0.855399
Si Si6 0.346592 0.266171 0.696723
O O1 0.076265 0.555251 0.252692
O O2 0.662254 0.466797 0.436946
O O3 0.864908 0.695043 0.440400
O O4 0.858698 0.693450 0.935856
O O5 0.207156 0.814183 0.646261
O O6 0.136012 0.834720 0.000183
O O7 0.125679 0.118081 0.550999
O O8 0.285683 0.063598 0.445363
O O9 0.270717 0.703378 0.618478
O O10 0.260138 0.569038 0.041578
O O11 0.283873 0.102253 0.830105
O O12 0.761615 0.822557 0.054325
#
# Coordination Sequence:
#
# PCOD9108115 Si02
#       6
#     2   2   2   2   2   2
#     4  11  25  41  70 102 126 172 225 274 320 384
#     4  10  20  40  67 100 129 169 221 274 323 385
#     4   9  19  37  65  97 136 168 214 274 330 381
#     4  10  21  42  65  99 131 175 217 268 331 384
#     4  11  24  44  64 100 134 175 216 265 338 386
#     4  11  25  46  68  92 140 177 211 270 328 400
#
# _framework density 27.027191999999999
#
# number of rings (size 3 to 8) (size 9 to 14) (size 15 to 20)
#    0.000    1.667    1.667    2.000    2.333    1.333 
#    0.000    6.667    0.000    0.000    0.000    0.000 
#    0.000    0.000    0.000    0.000    0.000    0.000 
#
# Total GULP energy -67274.119271 kJ/mol
# GULP energy per Si atom -5606.176606 kJ/mol
# Density = 2.696568 g / cm^3
# Si number density = 27.027192 Si / 1000 Ang^3
#
#
#
# Elastic Constant Matrix: (Units=GPa)
#
#
# Indices 1 2 3 4 5 6 
#
# 1 93.2593 34.3744 30.1482 2.5008 2.9981 4.0903
# 2 34.3744 127.4730 21.4460 -7.7255 18.9892 -21.3457
# 3 30.1482 21.4460 118.5992 2.9395 14.0014 15.2648
# 4 2.5008 -7.7255 2.9395 52.8014 -2.5653 10.5605
# 5 2.9981 18.9892 14.0014 -2.5653 36.2727 -9.3670
# 6 4.0903 -21.3457 15.2648 10.5605 -9.3670 36.3759
#
#
#
# Elastic Compliance Matrix: (Units=1/GPa)
#
#
# Indices 1 2 3 4 5 6 
#
# 1 0.012933 -0.003628 -0.002497 -0.000532 0.001223 -0.002066
# 2 -0.003628 0.010608 -0.001468 0.000387 -0.003017 0.006359
# 3 -0.002497 -0.001468 0.010714 0.000357 -0.004792 -0.006415
# 4 -0.000532 0.000387 0.000357 0.020144 -0.000371 -0.005807
# 5 0.001223 -0.003017 -0.004792 -0.000371 0.033128 0.008741
# 6 -0.002066 0.006359 -0.006415 -0.005807 0.008741 0.038083
#
#
# Mechanical properties :
#
#
# Convention : Reuss Voigt Hill
#
# Bulk Modulus (GPa) = 52.43828 56.80762 54.62295
# Shear Modulus (GPa) = 33.97843 41.98085 37.97964
#
# Velocity S-wave (km/s) = 3.54954 3.94545 3.75272
# Velocity P-wave (km/s) = 6.02023 6.46682 6.24751
#
# Compressibility (1/GPa) = 0.01907004
#
# Stress axis : x y z
#
# Youngs Moduli (GPa) = 77.32380 94.26995 93.33238
#
# Poissons Ratio (x) = 0.34198 0.23303
# Poissons Ratio (y) = 0.28051 0.13700
# Poissons Ratio (z) = 0.19306 0.13838
#
# Static dielectric constant tensor:
#      x y z
#    x 2.126900 -0.021930 -0.046740 
#    y -0.021930 2.127220 -0.000150 
#    z -0.046740 -0.000150 2.087540 
# 
# From -- ./inp_files/429775.got.cif
#   From: 2010.05.17/outbox.cif.g08.bks.cpg/sg2_215_cif.got.tgz:429775.got - 2010.06.03 11:33:40.
