data_PCOD9108665
_publ_section_title
;
Structure prediction by ZEFSAII (Michael W. Deem and Ramdas Pophale) SiO2 
 PCOD9108665
Probable space group: P -1
;
_chemical_formula_sum "Si O2"
_cell_formula_units_Z 15
_cell_length_a 9.340228
_cell_length_b 9.868272
_cell_length_c 11.429333
_cell_angle_alpha 55.932136
_cell_angle_beta 125.494209
_cell_angle_gamma 118.404435
_cell_volume 692.597396
_symmetry_space_group_name_H-M "P -1"
_symmetry_group_IT_number 2
_symmetry_cell_setting 'triclinic'
loop_
_space_group_symop_operation_xyz
x,y,z
-x,-y,-z
loop_
_atom_site_type_symbol
_atom_site_label
_atom_site_fract_x
_atom_site_fract_y
_atom_site_fract_z
Si Si1 0.168938 0.930262 0.076040
Si Si2 0.470946 0.873794 0.939302
Si Si3 0.837761 0.377460 0.639939
Si Si4 0.040288 0.317307 0.098330
Si Si5 0.200578 0.582384 0.673541
Si Si6 0.500000 0.500000 0.500000
Si Si7 0.109873 0.863383 0.652447
Si Si8 0.564231 0.507920 0.814927
O O1 0.226297 0.814076 0.259141
O O2 0.336640 0.080169 0.054393
O O3 0.096900 0.804044 0.994948
O O4 0.000000 0.000000 0.000000
O O5 0.312293 0.927546 0.765328
O O6 0.419221 0.678571 0.046027
O O7 0.500000 0.000000 0.000000
O O8 0.824035 0.406643 0.482116
O O9 0.708601 0.477275 0.596337
O O10 0.052477 0.435294 0.735977
O O11 0.250257 0.354594 0.145444
O O12 0.003186 0.237597 0.246896
O O13 0.000000 0.500000 0.000000
O O14 0.144801 0.744670 0.621902
O O15 0.403230 0.557794 0.789572
O O16 0.519839 0.500307 0.657472
O O17 0.000000 0.000000 0.500000
#
# Coordination Sequence:
#
# PCOD9108665 Si02
#       8
#     2   2   2   2   2   1   2   2
#     4  12  27  43  70 105 147 184 232 306 368 425
#     4  12  25  46  71 107 144 189 239 297 368 433
#     4  10  22  43  70  99 142 184 236 289 362 432
#     4  12  24  48  72 106 139 194 246 292 356 445
#     4  10  24  43  69 105 136 186 242 300 350 438
#     4  10  20  40  70 108 130 186 238 302 348 422
#     4  12  28  45  72 105 151 188 237 307 371 427
#     4  11  24  43  78 102 141 189 253 294 357 440
#
# _framework density 21.657603999999999
#
# number of rings (size 3 to 8) (size 9 to 14) (size 15 to 20)
#    0.000    0.800    2.667    4.000    3.733    8.000 
#    0.000    1.333    0.000    0.000    0.000    0.000 
#    0.000    0.000    0.000    0.000    0.000    0.000 
#
# Total GULP energy -83554.775599 kJ/mol
# GULP energy per Si atom -5570.318373 kJ/mol
# Density = 2.160831 g / cm^3
# Si number density = 21.657604 Si / 1000 Ang^3
#
#
#
# Elastic Constant Matrix: (Units=GPa)
#
#
# Indices 1 2 3 4 5 6 
#
# 1 180.2299 39.9401 42.8034 -9.0719 12.7113 18.4076
# 2 39.9401 60.1009 14.8925 -8.1244 2.0343 8.7786
# 3 42.8034 14.8925 87.6420 -13.0249 7.4030 6.8331
# 4 -9.0719 -8.1244 -13.0249 16.1702 4.8550 7.6462
# 5 12.7113 2.0343 7.4030 4.8550 37.1477 1.5447
# 6 18.4076 8.7786 6.8331 7.6462 1.5447 45.5584
#
#
#
# Elastic Compliance Matrix: (Units=1/GPa)
#
#
# Indices 1 2 3 4 5 6 
#
# 1 0.007388 -0.003657 -0.002331 0.002089 -0.002044 -0.002212
# 2 -0.003657 0.021236 0.000337 0.011420 -0.001282 -0.004538
# 3 -0.002331 0.000337 0.015181 0.013976 -0.003923 -0.003613
# 4 0.002089 0.011420 0.013976 0.094365 -0.015608 -0.020449
# 5 -0.002044 -0.001282 -0.003923 -0.015608 0.030376 0.003251
# 6 -0.002212 -0.004538 -0.003613 -0.020449 0.003251 0.027582
#
#
# Mechanical properties :
#
#
# Convention : Reuss Voigt Hill
#
# Bulk Modulus (GPa) = 30.76726 58.13832 44.45279
# Shear Modulus (GPa) = 22.90807 35.13105 29.01956
#
# Velocity S-wave (km/s) = 3.25582 4.03191 3.66447
# Velocity P-wave (km/s) = 5.32643 6.96977 6.20276
#
# Compressibility (1/GPa) = 0.03250208
#
# Stress axis : x y z
#
# Youngs Moduli (GPa) = 135.35817 47.09082 65.87081
#
# Poissons Ratio (x) = 0.17222 0.15355
# Poissons Ratio (y) = 0.49504 -0.02220
# Poissons Ratio (z) = 0.31552 -0.01587
#
# Static dielectric constant tensor:
#      x y z
#    x 1.809640 -0.012460 0.006200 
#    y -0.012460 1.698650 0.076340 
#    z 0.006200 0.076340 1.777240 
# 
# From -- ./inp_files/219026.got.cif
#   From: 2010.05.17/outbox.cif.g08.bks.cpg/sg2_110_cif.got.tgz:219026.got - 2010.06.03 11:33:40.
