data_PCOD9108858
_publ_section_title
;
Structure prediction by ZEFSAII (Michael W. Deem and Ramdas Pophale) SiO2 
 PCOD9108858
Probable space group: P -1
;
_chemical_formula_sum "Si O2"
_cell_formula_units_Z 16
_cell_length_a 20.396501
_cell_length_b 6.837527
_cell_length_c 5.725170
_cell_angle_alpha 108.375937
_cell_angle_beta 101.606674
_cell_angle_gamma 66.960904
_cell_volume 694.516318
_symmetry_space_group_name_H-M "P -1"
_symmetry_group_IT_number 2
_symmetry_cell_setting 'triclinic'
loop_
_space_group_symop_operation_xyz
x,y,z
-x,-y,-z
loop_
_atom_site_type_symbol
_atom_site_label
_atom_site_fract_x
_atom_site_fract_y
_atom_site_fract_z
Si Si1 0.635573 0.053323 0.263975
Si Si2 0.015132 0.700255 0.476015
Si Si3 0.730190 0.691456 0.516640
Si Si4 0.509411 0.613860 0.800652
Si Si5 0.749526 0.036236 0.964048
Si Si6 0.666061 0.431628 0.720639
Si Si7 0.059418 0.872751 0.181370
Si Si8 0.161198 0.710414 0.810088
O O1 0.553314 0.148139 0.162783
O O2 0.648440 0.264426 0.467264
O O3 0.660638 0.859802 0.399289
O O4 0.691357 0.990032 0.068188
O O5 0.031180 0.695836 0.212768
O O6 0.089543 0.708268 0.634581
O O7 0.000000 0.500000 0.500000
O O8 0.950221 0.926598 0.572535
O O9 0.707058 0.558167 0.650626
O O10 0.779418 0.519482 0.303070
O O11 0.771089 0.840857 0.718253
O O12 0.500000 0.500000 0.500000
O O13 0.591747 0.594920 0.836738
O O14 0.500000 0.500000 0.000000
O O15 0.710277 0.267550 0.890705
O O16 0.811852 0.089658 0.163230
O O17 0.136123 0.759493 0.079483
O O18 0.000000 0.000000 0.000000
#
# Coordination Sequence:
#
# PCOD9108858 Si02
#       8
#     2   2   2   2   2   2   2   2
#     4  10  22  43  65  98 139 180 239 295 351 421
#     4  10  23  45  71 101 136 172 228 276 336 417
#     4  11  26  41  64 103 135 182 235 290 348 428
#     4  10  20  40  73  99 137 197 242 303 380 420
#     4  11  24  42  65  94 139 177 231 292 345 419
#     4  10  22  43  66  95 140 179 238 295 350 424
#     4   9  22  45  67  99 134 170 218 278 329 403
#     4  11  25  43  69 100 137 184 221 279 356 409
#
# _framework density 23.037617000000001
#
# number of rings (size 3 to 8) (size 9 to 14) (size 15 to 20)
#    0.000    1.750    2.500    0.000    5.250    2.500 
#    4.500    0.625    0.000    0.000    0.000    0.000 
#    0.000    0.000    0.000    0.000    0.000    0.000 
#
# Total GULP energy -89306.992494 kJ/mol
# GULP energy per Si atom -5581.687031 kJ/mol
# Density = 2.298518 g / cm^3
# Si number density = 23.037617 Si / 1000 Ang^3
#
#
#
# Elastic Constant Matrix: (Units=GPa)
#
#
# Indices 1 2 3 4 5 6 
#
# 1 96.3342 39.4269 26.2836 7.1807 -13.6792 -0.3089
# 2 39.4269 103.3097 25.4170 -9.5960 -4.1596 7.4720
# 3 26.2836 25.4170 61.0024 3.8368 -13.1999 -2.6825
# 4 7.1807 -9.5960 3.8368 49.4728 0.7109 -9.7120
# 5 -13.6792 -4.1596 -13.1999 0.7109 44.7809 1.2543
# 6 -0.3089 7.4720 -2.6825 -9.7120 1.2543 19.0388
#
#
#
# Elastic Compliance Matrix: (Units=1/GPa)
#
#
# Indices 1 2 3 4 5 6 
#
# 1 0.013742 -0.004586 -0.003222 -0.002672 0.002864 0.000017
# 2 -0.004586 0.012931 -0.004052 0.002668 -0.001317 -0.004272
# 3 -0.003222 -0.004052 0.020715 -0.001309 0.004669 0.003482
# 4 -0.002672 0.002668 -0.001309 0.023353 -0.001626 0.010745
# 5 0.002864 -0.001317 0.004669 -0.001626 0.024520 -0.001224
# 6 0.000017 -0.004272 0.003482 0.010745 -0.001224 0.060254
#
#
# Mechanical properties :
#
#
# Convention : Reuss Voigt Hill
#
# Bulk Modulus (GPa) = 42.25143 49.21126 45.73135
# Shear Modulus (GPa) = 26.72031 33.95976 30.34003
#
# Velocity S-wave (km/s) = 3.40936 3.84357 3.63296
# Velocity P-wave (km/s) = 5.82051 6.41132 6.12304
#
# Compressibility (1/GPa) = 0.02366784
#
# Stress axis : x y z
#
# Youngs Moduli (GPa) = 72.76729 77.33546 48.27428
#
# Poissons Ratio (x) = 0.35467 0.15552
# Poissons Ratio (y) = 0.33372 0.19562
# Poissons Ratio (z) = 0.23443 0.31339
#
# Static dielectric constant tensor:
#      x y z
#    x 1.830810 -0.061430 -0.046150 
#    y -0.061430 1.802680 -0.086470 
#    z -0.046150 -0.086470 1.964990 
# 
# From -- ./inp_files/14393.got.cif
#   From: 2010.05.17/outbox.cif.g08.bks.cpg/sg2_8_cif.got.tgz:14393.got - 2010.06.03 11:33:40.
