data_PCOD9108206
_publ_section_title
;
Structure prediction by ZEFSAII (Michael W. Deem and Ramdas Pophale) SiO2 
 PCOD9108206
Probable space group: P -1
;
_chemical_formula_sum "Si O2"
_cell_formula_units_Z 16
_cell_length_a 8.019149
_cell_length_b 19.295982
_cell_length_c 7.631025
_cell_angle_alpha 91.068503
_cell_angle_beta 142.977554
_cell_angle_gamma 93.052900
_cell_volume 706.302747
_symmetry_space_group_name_H-M "P -1"
_symmetry_group_IT_number 2
_symmetry_cell_setting 'triclinic'
loop_
_space_group_symop_operation_xyz
x,y,z
-x,-y,-z
loop_
_atom_site_type_symbol
_atom_site_label
_atom_site_fract_x
_atom_site_fract_y
_atom_site_fract_z
Si Si1 0.134367 0.664074 0.169826
Si Si2 0.560957 0.423281 0.095649
Si Si3 0.242012 0.986937 0.414622
Si Si4 0.623841 0.940990 0.976662
Si Si5 0.247209 0.138504 0.596696
Si Si6 0.977302 0.657876 0.450561
Si Si7 0.179362 0.771656 0.914648
Si Si8 0.399204 0.420841 0.363037
O O1 0.059955 0.672327 0.314925
O O2 0.436396 0.636950 0.408096
O O3 0.928095 0.601080 0.909201
O O4 0.093189 0.730821 0.020216
O O5 0.477212 0.414040 0.226228
O O6 0.878121 0.408208 0.359145
O O7 0.500000 0.500000 0.000000
O O8 0.352584 0.364889 0.818658
O O9 0.261714 0.062393 0.525519
O O10 0.500000 0.000000 0.500000
O O11 0.908983 0.968165 0.111551
O O12 0.357398 0.926215 0.627362
O O13 0.718188 0.878827 0.169316
O O14 0.500000 0.000000 0.000000
O O15 0.982260 0.164280 0.280642
O O16 0.503514 0.197305 0.784297
O O17 0.105303 0.719211 0.687321
O O18 0.500000 0.500000 0.500000
#
# Coordination Sequence:
#
# PCOD9108206 Si02
#       8
#     2   2   2   2   2   2   2   2
#     4  10  23  41  57  85 124 159 205 266 315 377
#     4  10  21  36  60  87 115 150 206 268 318 392
#     4  11  22  41  68 101 138 166 212 279 334 374
#     4  10  20  40  67  92 134 170 209 273 317 377
#     4  11  23  42  63  99 122 170 224 245 318 404
#     4  10  23  41  57  85 122 160 207 259 326 375
#     4  12  24  41  66  86 130 174 210 258 315 401
#     4  10  21  36  60  87 115 153 204 263 329 384
#
# _framework density 22.653175000000001
#
# number of rings (size 3 to 8) (size 9 to 14) (size 15 to 20)
#    0.000    1.500    0.000    6.375    3.500    0.000 
#    6.750    0.000    0.000    0.000    0.000    0.000 
#    0.000    0.000    0.000    0.000    0.000    0.000 
#
# Total GULP energy -89152.300415 kJ/mol
# GULP energy per Si atom -5572.018776 kJ/mol
# Density = 2.260162 g / cm^3
# Si number density = 22.653175 Si / 1000 Ang^3
#
#
#
# Elastic Constant Matrix: (Units=GPa)
#
#
# Indices 1 2 3 4 5 6 
#
# 1 46.0378 6.6680 25.6058 -18.2911 0.7224 11.9548
# 2 6.6680 60.0396 4.4997 -17.2350 -10.6399 8.1235
# 3 25.6058 4.4997 108.2062 -10.8758 8.3066 -0.2604
# 4 -18.2911 -17.2350 -10.8758 51.6524 9.9329 -2.0667
# 5 0.7224 -10.6399 8.3066 9.9329 23.7858 -0.4497
# 6 11.9548 8.1235 -0.2604 -2.0667 -0.4497 23.3359
#
#
#
# Elastic Compliance Matrix: (Units=1/GPa)
#
#
# Indices 1 2 3 4 5 6 
#
# 1 0.034249 0.001742 -0.006885 0.011111 -0.002823 -0.017299
# 2 0.001742 0.020388 -0.001268 0.005497 0.007075 -0.007381
# 3 -0.006885 -0.001268 0.011331 0.000546 -0.004467 0.004058
# 4 0.011111 0.005497 0.000546 0.026830 -0.009376 -0.005404
# 5 -0.002823 0.007075 -0.004467 -0.009376 0.050750 -0.000919
# 6 -0.017299 -0.007381 0.004058 -0.005404 -0.000919 0.053833
#
#
# Mechanical properties :
#
#
# Convention : Reuss Voigt Hill
#
# Bulk Modulus (GPa) = 18.81657 31.98116 25.39887
# Shear Modulus (GPa) = 21.93751 31.58881 26.76316
#
# Velocity S-wave (km/s) = 3.11530 3.73829 3.44092
# Velocity P-wave (km/s) = 4.61135 5.72551 5.19837
#
# Compressibility (1/GPa) = 0.05314464
#
# Stress axis : x y z
#
# Youngs Moduli (GPa) = 29.19765 49.04948 88.25196
#
# Poissons Ratio (x) = -0.08545 0.60764
# Poissons Ratio (y) = -0.05086 0.11194
# Poissons Ratio (z) = 0.20104 0.06222
#
# Static dielectric constant tensor:
#      x y z
#    x 1.899650 0.025720 -0.026330 
#    y 0.025720 1.858480 -0.040320 
#    z -0.026330 -0.040320 1.890610 
# 
# From -- ./inp_files/222123.got.cif
#   From: 2010.05.17/outbox.cif.g08.bks.cpg/sg2_112_cif.got.tgz:222123.got - 2010.06.03 11:33:40.
