data_PCOD9108722
_publ_section_title
;
Structure prediction by ZEFSAII (Michael W. Deem and Ramdas Pophale) SiO2 
 PCOD9108722
Probable space group: P -1
;
_chemical_formula_sum "Si O2"
_cell_formula_units_Z 16
_cell_length_a 7.404809
_cell_length_b 16.588951
_cell_length_c 9.512294
_cell_angle_alpha 85.627089
_cell_angle_beta 128.473715
_cell_angle_gamma 111.727684
_cell_volume 830.508234
_symmetry_space_group_name_H-M "P -1"
_symmetry_group_IT_number 2
_symmetry_cell_setting 'triclinic'
loop_
_space_group_symop_operation_xyz
x,y,z
-x,-y,-z
loop_
_atom_site_type_symbol
_atom_site_label
_atom_site_fract_x
_atom_site_fract_y
_atom_site_fract_z
Si Si1 0.898340 0.855274 0.166174
Si Si2 0.460038 0.924739 0.376233
Si Si3 0.787599 0.711961 0.364345
Si Si4 0.342973 0.277152 0.162928
Si Si5 0.224135 0.180477 0.397978
Si Si6 0.732299 0.999619 0.204365
Si Si7 0.086649 0.603568 0.493591
Si Si8 0.292414 0.401217 0.902267
O O1 0.925456 0.797268 0.318369
O O2 0.960985 0.096651 0.314436
O O3 0.161513 0.885216 0.205995
O O4 0.680907 0.794499 0.960948
O O5 0.442158 0.144302 0.499351
O O6 0.376085 0.037497 0.689443
O O7 0.500000 0.000000 0.500000
O O8 0.950014 0.658239 0.501796
O O9 0.609290 0.643603 0.170667
O O10 0.975058 0.604824 0.284214
O O11 0.195110 0.224050 0.233237
O O12 0.251038 0.343937 0.029256
O O13 0.158658 0.064979 0.810001
O O14 0.303166 0.251840 0.551764
O O15 0.500000 0.000000 0.000000
O O16 0.378963 0.660335 0.655098
O O17 0.000000 0.500000 0.500000
O O18 0.500000 0.500000 0.000000
#
# Coordination Sequence:
#
# PCOD9108722 Si02
#       8
#     2   2   2   2   2   2   2   2
#     4  11  23  44  62  98 132 185 233 278 331 393
#     4  12  24  42  66  88 133 185 233 281 330 387
#     4   9  21  39  64  93 132 166 225 272 331 400
#     4  11  23  38  67  95 131 169 224 275 335 406
#     4  12  24  42  61  97 133 178 231 278 337 391
#     4  12  27  41  62  93 138 183 231 280 333 391
#     4  10  20  40  70  98 124 172 214 270 354 409
#     4   9  19  40  66  93 126 164 219 272 338 417
#
# _framework density 19.265312000000002
#
# number of rings (size 3 to 8) (size 9 to 14) (size 15 to 20)
#    0.750    0.500    3.750    2.625    3.500    1.000 
#    0.000    2.500    0.000    1.500    0.000    0.000 
#    0.000    0.000    0.000    0.000    0.000    0.000 
#
# Total GULP energy -89143.912371 kJ/mol
# GULP energy per Si atom -5571.494523 kJ/mol
# Density = 1.922146 g / cm^3
# Si number density = 19.265312 Si / 1000 Ang^3
#
#
#
# Elastic Constant Matrix: (Units=GPa)
#
#
# Indices 1 2 3 4 5 6 
#
# 1 67.2805 43.2342 42.7327 -3.0271 -2.7207 -3.4614
# 2 43.2342 127.2036 50.4628 -2.0420 -6.1371 -2.1972
# 3 42.7327 50.4628 121.6018 -6.1992 -2.0722 9.9162
# 4 -3.0271 -2.0420 -6.1992 35.7102 3.8587 1.5253
# 5 -2.7207 -6.1371 -2.0722 3.8587 39.5199 -2.5941
# 6 -3.4614 -2.1972 9.9162 1.5253 -2.5941 20.4055
#
#
#
# Elastic Compliance Matrix: (Units=1/GPa)
#
#
# Indices 1 2 3 4 5 6 
#
# 1 0.022447 -0.004962 -0.006332 0.000152 0.000851 0.006447
# 2 -0.004962 0.010787 -0.002895 -0.000536 0.001361 0.001940
# 3 -0.006332 -0.002895 0.012353 0.001868 -0.000922 -0.007646
# 4 0.000152 -0.000536 0.001868 0.028784 -0.003013 -0.003475
# 5 0.000851 0.001361 -0.000922 -0.003013 0.026101 0.004282
# 6 0.006447 0.001940 -0.007646 -0.003475 0.004282 0.054829
#
#
# Mechanical properties :
#
#
# Convention : Reuss Voigt Hill
#
# Bulk Modulus (GPa) = 58.11290 65.43838 61.77564
# Shear Modulus (GPa) = 26.39699 31.10420 28.75060
#
# Velocity S-wave (km/s) = 3.70561 4.02247 3.86729
# Velocity P-wave (km/s) = 6.96698 7.45750 7.21641
#
# Compressibility (1/GPa) = 0.01720788
#
# Stress axis : x y z
#
# Youngs Moduli (GPa) = 44.54977 92.70390 80.95038
#
# Poissons Ratio (x) = 0.46002 0.51261
# Poissons Ratio (y) = 0.22107 0.23435
# Poissons Ratio (z) = 0.28211 0.26837
#
# Static dielectric constant tensor:
#      x y z
#    x 1.655660 0.023180 0.015380 
#    y 0.023180 1.670040 -0.006090 
#    z 0.015380 -0.006090 1.695390 
# 
# From -- ./inp_files/179453.got.cif
#   From: 2010.05.17/outbox.cif.g08.bks.cpg/sg2_90_cif.got.tgz:179453.got - 2010.06.03 11:33:40.
