data_PCOD9108393
_publ_section_title
;
Structure prediction by ZEFSAII (Michael W. Deem and Ramdas Pophale) SiO2 
 PCOD9108393
Probable space group: P -1
;
_chemical_formula_sum "Si O2"
_cell_formula_units_Z 16
_cell_length_a 9.413844
_cell_length_b 31.659258
_cell_length_c 6.025257
_cell_angle_alpha 72.900530
_cell_angle_beta 99.854170
_cell_angle_gamma 151.548979
_cell_volume 802.490306
_symmetry_space_group_name_H-M "P -1"
_symmetry_group_IT_number 2
_symmetry_cell_setting 'triclinic'
loop_
_space_group_symop_operation_xyz
x,y,z
-x,-y,-z
loop_
_atom_site_type_symbol
_atom_site_label
_atom_site_fract_x
_atom_site_fract_y
_atom_site_fract_z
Si Si1 0.138177 0.738764 0.832668
Si Si2 0.708387 0.947836 0.579229
Si Si3 0.898648 0.454149 0.794906
Si Si4 0.753174 0.682828 0.144124
Si Si5 0.729632 0.122560 0.786529
Si Si6 0.790642 0.608312 0.555434
Si Si7 0.689087 0.027346 0.701978
Si Si8 0.878921 0.581325 0.221688
O O1 0.466520 0.849253 0.781178
O O2 0.058035 0.702819 0.618646
O O3 0.892834 0.708423 0.902003
O O4 0.067918 0.674155 0.039830
O O5 0.503663 0.915088 0.380955
O O6 0.828528 0.020801 0.648424
O O7 0.000000 0.000000 0.500000
O O8 0.540338 0.366281 0.849277
O O9 0.000000 0.500000 0.500000
O O10 0.998382 0.430143 0.835071
O O11 0.000000 0.500000 0.000000
O O12 0.684378 0.617188 0.340115
O O13 0.016699 0.777033 0.208697
O O14 0.873098 0.117858 0.714196
O O15 0.538737 0.052093 0.049649
O O16 0.899954 0.594654 0.473346
O O17 0.487798 0.516569 0.755993
O O18 0.500000 0.000000 0.500000
#
# Coordination Sequence:
#
# PCOD9108393 Si02
#       8
#     2   2   2   2   2   2   2   2
#     4  11  22  40  65  93 129 174 231 268 338 420
#     4  11  23  41  64  96 132 171 220 289 347 403
#     4  12  27  46  68 102 144 181 229 287 349 404
#     4  11  22  40  69  95 126 184 225 277 333 417
#     4  10  20  41  66  91 125 172 224 270 336 417
#     4  10  20  40  68  92 131 175 218 273 333 402
#     4   9  20  41  64  89 125 162 222 274 337 406
#     4  10  23  40  63  98 133 172 223 277 338 403
#
# _framework density 19.937936000000001
#
# number of rings (size 3 to 8) (size 9 to 14) (size 15 to 20)
#    0.000    1.500    3.750    1.125    1.750    0.500 
#    9.000    0.000    0.000    0.000    0.000    0.000 
#    0.000    0.000    0.000    0.000    0.000    0.000 
#
# Total GULP energy -89068.337104 kJ/mol
# GULP energy per Si atom -5566.771069 kJ/mol
# Density = 1.989256 g / cm^3
# Si number density = 19.937936 Si / 1000 Ang^3
#
#
#
# Elastic Constant Matrix: (Units=GPa)
#
#
# Indices 1 2 3 4 5 6 
#
# 1 153.6879 46.9941 42.3156 -0.8284 -41.8045 -24.6744
# 2 46.9941 70.3470 19.6752 2.8355 -9.6563 -18.6784
# 3 42.3156 19.6752 63.2231 -3.4985 -3.4099 -10.1674
# 4 -0.8284 2.8355 -3.4985 34.2140 -11.1719 -6.4673
# 5 -41.8045 -9.6563 -3.4099 -11.1719 38.4745 0.6992
# 6 -24.6744 -18.6784 -10.1674 -6.4673 0.6992 35.4262
#
#
#
# Elastic Compliance Matrix: (Units=1/GPa)
#
#
# Indices 1 2 3 4 5 6 
#
# 1 0.015609 -0.004525 -0.006498 0.007132 0.017182 0.007584
# 2 -0.004525 0.019465 -0.002091 -0.000933 -0.000604 0.006352
# 3 -0.006498 -0.002091 0.020606 0.000362 -0.005662 0.000463
# 4 0.007132 -0.000933 0.000362 0.037570 0.018255 0.011078
# 5 0.017182 -0.000604 -0.005662 0.018255 0.049082 0.012388
# 6 0.007584 0.006352 0.000463 0.011078 0.012388 0.038770
#
#
# Mechanical properties :
#
#
# Convention : Reuss Voigt Hill
#
# Bulk Modulus (GPa) = 33.95515 56.13642 45.04579
# Shear Modulus (GPa) = 23.02576 33.50783 28.26680
#
# Velocity S-wave (km/s) = 3.40203 4.10397 3.76937
# Velocity P-wave (km/s) = 5.70080 7.11853 6.44874
#
# Compressibility (1/GPa) = 0.02945061
#
# Stress axis : x y z
#
# Youngs Moduli (GPa) = 64.06479 51.37531 48.52942
#
# Poissons Ratio (x) = 0.23249 0.31534
# Poissons Ratio (y) = 0.28992 0.10149
# Poissons Ratio (z) = 0.41629 0.10744
#
# Static dielectric constant tensor:
#      x y z
#    x 1.708100 -0.037380 0.002290 
#    y -0.037380 1.718420 0.047830 
#    z 0.002290 0.047830 1.819820 
# 
# From -- ./inp_files/44185.got.cif
#   From: 2010.05.17/outbox.cif.g08.bks.cpg/sg2_23_cif.got.tgz:44185.got - 2010.06.03 11:33:40.
