data_PCOD9108107
_publ_section_title
;
Structure prediction by ZEFSAII (Michael W. Deem and Ramdas Pophale) SiO2 
 PCOD9108107
Probable space group: P -1
;
_chemical_formula_sum "Si O2"
_cell_formula_units_Z 15
_cell_length_a 15.662574
_cell_length_b 16.293383
_cell_length_c 5.520840
_cell_angle_alpha 98.703427
_cell_angle_beta 105.466598
_cell_angle_gamma 28.166848
_cell_volume 630.011787
_symmetry_space_group_name_H-M "P -1"
_symmetry_group_IT_number 2
_symmetry_cell_setting 'triclinic'
loop_
_space_group_symop_operation_xyz
x,y,z
-x,-y,-z
loop_
_atom_site_type_symbol
_atom_site_label
_atom_site_fract_x
_atom_site_fract_y
_atom_site_fract_z
Si Si1 0.275501 0.266447 0.904184
Si Si2 0.987619 0.662274 0.201571
Si Si3 0.255302 0.448837 0.722985
Si Si4 0.389486 0.611185 0.217970
Si Si5 0.346208 0.842875 0.277967
Si Si6 0.367912 0.974145 0.628428
Si Si7 0.500000 0.000000 0.500000
Si Si8 0.069425 0.744819 0.951002
O O1 0.128262 0.325481 0.939918
O O2 0.206863 0.415957 0.861434
O O3 0.347076 0.168086 0.660000
O O4 0.451468 0.129445 0.161181
O O5 0.163115 0.491300 0.425913
O O6 0.824101 0.847094 0.307166
O O7 0.058842 0.674941 0.086763
O O8 0.480377 0.273859 0.814481
O O9 0.169338 0.612962 0.746964
O O10 0.500000 0.500000 0.500000
O O11 0.343745 0.746595 0.250458
O O12 0.500000 0.500000 0.000000
O O13 0.204456 0.706771 0.118285
O O14 0.395855 0.853546 0.563552
O O15 0.139456 0.047555 0.150442
O O16 0.370799 0.020858 0.396477
#
# Coordination Sequence:
#
# PCOD9108107 Si02
#       8
#     2   2   2   2   2   2   1   2
#     4  11  25  40  72 108 153 209 259 318 387 460
#     4  11  25  44  69 109 153 204 263 319 385 464
#     4  12  25  46  71 108 156 201 261 314 392 460
#     4  12  29  55  90 120 159 203 262 331 405 482
#     4  12  26  51  78 112 153 204 253 328 397 471
#     4  11  24  42  73 107 148 203 260 309 389 457
#     4  10  20  40  66  98 148 192 256 304 374 448
#     4  12  28  50  77 111 156 199 259 324 393 478
#
# _framework density 23.809080999999999
#
# number of rings (size 3 to 8) (size 9 to 14) (size 15 to 20)
#    0.000    0.533    4.000    4.000    5.600    1.600 
#    0.000    2.000    0.000    0.000    0.000    0.000 
#    0.000    0.000    0.000    0.000    0.000    0.000 
#
# Total GULP energy -83619.859448 kJ/mol
# GULP energy per Si atom -5574.657297 kJ/mol
# Density = 2.375489 g / cm^3
# Si number density = 23.809081 Si / 1000 Ang^3
#
#
#
# Elastic Constant Matrix: (Units=GPa)
#
#
# Indices 1 2 3 4 5 6 
#
# 1 205.3963 85.3906 63.4994 -9.9519 30.8137 17.1299
# 2 85.3906 124.2180 31.7131 -1.9127 17.3237 22.7749
# 3 63.4994 31.7131 59.2890 -19.7713 26.3150 -3.7971
# 4 -9.9519 -1.9127 -19.7713 38.0011 -3.3186 5.1368
# 5 30.8137 17.3237 26.3150 -3.3186 38.6150 -2.3590
# 6 17.1299 22.7749 -3.7971 5.1368 -2.3590 58.0042
#
#
#
# Elastic Compliance Matrix: (Units=1/GPa)
#
#
# Indices 1 2 3 4 5 6 
#
# 1 0.009125 -0.003851 -0.008452 -0.001996 -0.000061 -0.001562
# 2 -0.003851 0.012171 -0.002676 -0.001363 -0.000909 -0.003733
# 3 -0.008452 -0.002676 0.041619 0.017133 -0.018701 0.003993
# 4 -0.001996 -0.001363 0.017133 0.034204 -0.006596 -0.001051
# 5 -0.000061 -0.000909 -0.018701 -0.006596 0.038611 0.001305
# 6 -0.001562 -0.003733 0.003993 -0.001051 0.001305 0.019575
#
#
# Mechanical properties :
#
#
# Convention : Reuss Voigt Hill
#
# Bulk Modulus (GPa) = 30.34124 83.34550 56.84337
# Shear Modulus (GPa) = 25.47801 40.81075 33.14438
#
# Velocity S-wave (km/s) = 3.27478 4.14464 3.73512
# Velocity P-wave (km/s) = 5.20290 7.61484 6.52135
#
# Compressibility (1/GPa) = 0.03295844
#
# Stress axis : x y z
#
# Youngs Moduli (GPa) = 109.58504 82.16257 24.02739
#
# Poissons Ratio (x) = 0.31641 0.20307
# Poissons Ratio (y) = 0.42202 0.06429
# Poissons Ratio (z) = 0.92618 0.21985
#
# Static dielectric constant tensor:
#      x y z
#    x 1.759950 -0.124090 0.152800 
#    y -0.124090 1.921460 0.267700 
#    z 0.152800 0.267700 1.755840 
# 
# From -- ./inp_files/98150.got.cif
#   From: 2010.05.17/outbox.cif.g08.bks.cpg/sg2_50_cif.got.tgz:98150.got - 2010.06.03 11:33:40.
