data_PCOD9108120
_publ_section_title
;
Structure prediction by ZEFSAII (Michael W. Deem and Ramdas Pophale) SiO2 
 PCOD9108120
Probable space group: P -1
;
_chemical_formula_sum "Si O2"
_cell_formula_units_Z 16
_cell_length_a 13.601449
_cell_length_b 10.587616
_cell_length_c 9.387915
_cell_angle_alpha 129.971049
_cell_angle_beta 94.423749
_cell_angle_gamma 116.946730
_cell_volume 777.924751
_symmetry_space_group_name_H-M "P -1"
_symmetry_group_IT_number 2
_symmetry_cell_setting 'triclinic'
loop_
_space_group_symop_operation_xyz
x,y,z
-x,-y,-z
loop_
_atom_site_type_symbol
_atom_site_label
_atom_site_fract_x
_atom_site_fract_y
_atom_site_fract_z
Si Si1 0.690047 0.846034 0.588793
Si Si2 0.775148 0.574543 0.342376
Si Si3 0.799576 0.061170 0.052217
Si Si4 0.200938 0.449284 0.982409
Si Si5 0.049989 0.007096 0.766394
Si Si6 0.952691 0.254233 0.958929
Si Si7 0.445514 0.797671 0.448569
Si Si8 0.367780 0.835319 0.775496
O O1 0.706899 0.678584 0.417066
O O2 0.558619 0.788557 0.483264
O O3 0.820587 0.091660 0.733626
O O4 0.707708 0.878434 0.786703
O O5 0.752653 0.462591 0.107060
O O6 0.716983 0.403790 0.338609
O O7 0.930437 0.772448 0.520598
O O8 0.867717 0.005456 0.121690
O O9 0.716010 0.092550 0.160167
O O10 0.906125 0.277470 0.120973
O O11 0.082664 0.436387 0.016853
O O12 0.139062 0.196376 0.795109
O O13 0.318852 0.583363 0.202608
O O14 0.985082 0.098957 0.896068
O O15 0.403225 0.831343 0.616501
O O16 0.500000 0.000000 0.500000
O O17 0.500000 0.000000 0.000000
#
# Coordination Sequence:
#
# PCOD9108120 Si02
#       8
#     2   2   2   2   2   2   2   2
#     4   9  22  41  73  93 131 177 225 266 340 388
#     4  11  24  42  72  99 135 172 226 278 322 402
#     4  10  20  40  67 100 137 168 225 274 330 399
#     4  10  23  40  69  98 139 171 219 280 326 382
#     4   9  20  37  69  97 135 166 221 271 330 378
#     4   7  18  37  67  92 134 161 217 263 325 377
#     4  12  27  47  66  95 140 176 219 279 339 397
#     4  12  26  44  65  95 136 179 223 272 335 395
#
# _framework density 20.567540999999999
#
# number of rings (size 3 to 8) (size 9 to 14) (size 15 to 20)
#    1.500    0.500    1.250    1.500    3.500    3.500 
#    0.000    1.250    0.000    0.000    0.000    0.000 
#    0.000    0.000    0.000    0.000    0.000    0.000 
#
# Total GULP energy -89192.432022 kJ/mol
# GULP energy per Si atom -5574.527001 kJ/mol
# Density = 2.052073 g / cm^3
# Si number density = 20.567541 Si / 1000 Ang^3
#
#
#
# Elastic Constant Matrix: (Units=GPa)
#
#
# Indices 1 2 3 4 5 6 
#
# 1 98.1074 10.4595 48.7776 -10.9777 10.9436 24.4574
# 2 10.4595 83.9179 34.6237 -17.5549 -9.1104 19.5854
# 3 48.7776 34.6237 86.8716 -6.4890 24.3296 3.8904
# 4 -10.9777 -17.5549 -6.4890 31.4213 -0.3393 0.6203
# 5 10.9436 -9.1104 24.3296 -0.3393 15.3215 6.1402
# 6 24.4574 19.5854 3.8904 0.6203 6.1402 18.0564
#
#
#
# Elastic Compliance Matrix: (Units=1/GPa)
#
#
# Indices 1 2 3 4 5 6 
#
# 1 0.006449 -0.012508 0.009843 -0.003344 -0.033438 0.014197
# 2 -0.012508 -0.005810 0.017256 -0.005048 -0.034651 0.031482
# 3 0.009843 0.017256 -0.006697 0.012849 0.030787 -0.041518
# 4 -0.003344 -0.005048 0.012849 0.029905 -0.026447 0.015202
# 5 -0.033438 -0.034651 0.030787 -0.026447 -0.013714 0.081816
# 6 0.014197 0.031482 -0.041518 0.015202 0.081816 -0.017395
#
#
# Mechanical properties :
#
#
# Convention : Reuss Voigt Hill
#
# Bulk Modulus (GPa) = 43.24192 50.73540 46.98866
# Shear Modulus (GPa) = -174.00393 24.62892 -74.68750
#
# Velocity S-wave (km/s) = -9.20787 3.46420 -6.03259
# Velocity P-wave (km/s) = 9.59044 6.38139 5.06233
#
# Compressibility (1/GPa) = 0.02312571
#
# Stress axis : x y z
#
# Youngs Moduli (GPa) = 155.06161 -172.12695 -149.33000
#
# Poissons Ratio (x) = -2.15298 1.46992
# Poissons Ratio (y) = 1.93953 2.57686
# Poissons Ratio (z) = -1.52634 2.97025
#
# Static dielectric constant tensor:
#      x y z
#    x 1.733920 0.022020 -0.014980 
#    y 0.022020 1.781110 0.026950 
#    z -0.014980 0.026950 1.726650 
# 
# From -- ./inp_files/263489.got.cif
#   From: 2010.05.17/outbox.cif.g08.bks.cpg/sg2_132_cif.got.tgz:263489.got - 2010.06.03 11:33:40.
