data_PCOD9108417
_publ_section_title
;
Structure prediction by ZEFSAII (Michael W. Deem and Ramdas Pophale) SiO2 
 PCOD9108417
Probable space group: P -1
;
_chemical_formula_sum "Si O2"
_cell_formula_units_Z 16
_cell_length_a 14.207543
_cell_length_b 14.329604
_cell_length_c 10.829080
_cell_angle_alpha 37.462787
_cell_angle_beta 84.612498
_cell_angle_gamma 55.023306
_cell_volume 757.276225
_symmetry_space_group_name_H-M "P -1"
_symmetry_group_IT_number 2
_symmetry_cell_setting 'triclinic'
loop_
_space_group_symop_operation_xyz
x,y,z
-x,-y,-z
loop_
_atom_site_type_symbol
_atom_site_label
_atom_site_fract_x
_atom_site_fract_y
_atom_site_fract_z
Si Si1 0.835955 0.924857 0.799996
Si Si2 0.337676 0.131365 0.019036
Si Si3 0.899467 0.290484 0.177637
Si Si4 0.491141 0.456400 0.905276
Si Si5 0.783954 0.269777 0.992427
Si Si6 0.413122 0.202010 0.182174
Si Si7 0.092465 0.911088 0.209950
Si Si8 0.342802 0.410682 0.575069
O O1 0.669556 0.241123 0.448797
O O2 0.909389 0.916158 0.918270
O O3 0.787500 0.819828 0.954732
O O4 0.970040 0.767823 0.839515
O O5 0.430338 0.091181 0.165516
O O6 0.465396 0.870624 0.186925
O O7 0.269072 0.354813 0.703024
O O8 0.772288 0.395591 0.979373
O O9 0.784050 0.518334 0.056055
O O10 0.000000 0.000000 0.500000
O O11 0.660254 0.293682 0.994129
O O12 0.500000 0.500000 0.000000
O O13 0.475793 0.293942 0.068786
O O14 0.730679 0.440111 0.702751
O O15 0.979270 0.970216 0.260628
O O16 0.500000 0.000000 0.500000
O O17 0.283433 0.612039 0.473127
O O18 0.000000 0.000000 0.000000
#
# Coordination Sequence:
#
# PCOD9108417 Si02
#       8
#     2   2   2   2   2   2   2   2
#     4  11  22  41  68  97 126 177 224 269 327 403
#     4  11  24  40  62  96 135 170 217 271 336 394
#     4  11  22  41  69  97 131 174 220 276 328 395
#     4  12  21  40  69  99 128 173 224 265 324 406
#     4  10  20  40  68  94 129 163 223 279 318 384
#     4  12  25  42  65  99 141 172 212 278 343 389
#     4   9  21  41  64  90 121 168 224 273 314 381
#     4  10  21  43  62  87 132 171 212 278 326 378
#
# _framework density 21.128354000000002
#
# number of rings (size 3 to 8) (size 9 to 14) (size 15 to 20)
#    0.000    1.250    3.750    2.250    1.750    1.000 
#   11.250    5.625    0.000    0.000    0.000    0.000 
#    0.000    0.000    0.000    0.000    0.000    0.000 
#
# Total GULP energy -89218.292929 kJ/mol
# GULP energy per Si atom -5576.143308 kJ/mol
# Density = 2.108026 g / cm^3
# Si number density = 21.128354 Si / 1000 Ang^3
#
#
#
# Elastic Constant Matrix: (Units=GPa)
#
#
# Indices 1 2 3 4 5 6 
#
# 1 136.1145 41.3017 15.7517 16.4529 -20.2343 -25.0695
# 2 41.3017 95.1555 25.3527 -6.0125 -3.4080 -11.5183
# 3 15.7517 25.3527 62.2842 22.2203 -16.9953 -11.5981
# 4 16.4529 -6.0125 22.2203 39.7289 -6.4959 -0.6851
# 5 -20.2343 -3.4080 -16.9953 -6.4959 21.5806 12.0904
# 6 -25.0695 -11.5183 -11.5981 -0.6851 12.0904 33.5518
#
#
#
# Elastic Compliance Matrix: (Units=1/GPa)
#
#
# Indices 1 2 3 4 5 6 
#
# 1 0.011789 -0.006136 0.005674 -0.007345 0.009488 0.005094
# 2 -0.006136 0.016485 -0.011013 0.009676 -0.009385 0.000847
# 3 0.005674 -0.011013 0.032180 -0.018453 0.021414 0.003489
# 4 -0.007345 0.009676 -0.018453 0.039120 -0.004731 -0.006042
# 5 0.009488 -0.009385 0.021414 -0.004731 0.078851 -0.017241
# 6 0.005094 0.000847 0.003489 -0.006042 -0.017241 0.041197
#
#
# Mechanical properties :
#
#
# Convention : Reuss Voigt Hill
#
# Bulk Modulus (GPa) = 26.66496 50.92959 38.79728
# Shear Modulus (GPa) = 19.60231 33.04880 26.32556
#
# Velocity S-wave (km/s) = 3.04924 3.95928 3.53368
# Velocity P-wave (km/s) = 5.00450 6.71255 5.92045
#
# Compressibility (1/GPa) = 0.03750240
#
# Stress axis : x y z
#
# Youngs Moduli (GPa) = 84.82763 60.66277 31.07560
#
# Poissons Ratio (x) = 0.37224 -0.17634
# Poissons Ratio (y) = 0.52053 0.34225
# Poissons Ratio (z) = -0.48135 0.66810
#
# Static dielectric constant tensor:
#      x y z
#    x 1.750850 -0.015910 0.059340 
#    y -0.015910 1.829500 -0.007520 
#    z 0.059340 -0.007520 1.912680 
# 
# From -- ./inp_files/433676.got.cif
#   From: 2010.05.17/outbox.cif.g08.bks.cpg/sg2_217_cif.got.tgz:433676.got - 2010.06.03 11:33:40.
