data_PCOD9108474
_publ_section_title
;
Structure prediction by ZEFSAII (Michael W. Deem and Ramdas Pophale) SiO2 
 PCOD9108474
Probable space group: P -1
;
_chemical_formula_sum "Si O2"
_cell_formula_units_Z 16
_cell_length_a 10.066141
_cell_length_b 9.452161
_cell_length_c 8.399553
_cell_angle_alpha 88.731731
_cell_angle_beta 67.274145
_cell_angle_gamma 103.160465
_cell_volume 712.371411
_symmetry_space_group_name_H-M "P -1"
_symmetry_group_IT_number 2
_symmetry_cell_setting 'triclinic'
loop_
_space_group_symop_operation_xyz
x,y,z
-x,-y,-z
loop_
_atom_site_type_symbol
_atom_site_label
_atom_site_fract_x
_atom_site_fract_y
_atom_site_fract_z
Si Si1 0.840828 0.347097 0.477829
Si Si2 0.732073 0.883385 0.654801
Si Si3 0.615721 0.162323 0.097209
Si Si4 0.315343 0.446523 0.262490
Si Si5 0.324596 0.942027 0.612782
Si Si6 0.138617 0.842437 0.243694
Si Si7 0.941901 0.580813 0.170119
Si Si8 0.662918 0.500716 0.116596
O O1 0.754439 0.438170 0.622106
O O2 0.735545 0.223127 0.420076
O O3 0.907292 0.251735 0.572703
O O4 0.943900 0.470375 0.317661
O O5 0.563610 0.875527 0.800230
O O6 0.742904 0.718537 0.645415
O O7 0.745711 0.956626 0.471333
O O8 0.847235 0.990603 0.717408
O O9 0.685217 0.066514 0.191357
O O10 0.665708 0.331525 0.120193
O O11 0.692698 0.156087 0.891699
O O12 0.491922 0.500598 0.212903
O O13 0.290759 0.442007 0.083930
O O14 0.500000 0.000000 0.500000
O O15 0.034831 0.744941 0.161433
O O16 0.773864 0.580038 0.199437
O O17 0.000000 0.500000 0.000000
#
# Coordination Sequence:
#
# PCOD9108474 Si02
#       8
#     2   2   2   2   2   2   2   2
#     4  11  21  37  62  90 115 159 201 241 295 353
#     4   9  21  35  57  86 123 153 194 243 300 346
#     4  10  16  36  58  86 116 147 197 251 290 335
#     4  10  21  40  60  86 123 155 198 239 297 359
#     4   9  18  34  54  87 121 143 193 249 295 336
#     4  11  21  36  60  90 114 156 203 244 295 345
#     4  12  22  38  60  88 121 152 204 251 288 349
#     4  10  20  37  60  87 119 157 192 249 293 343
#
# _framework density 22.460194999999999
#
# number of rings (size 3 to 8) (size 9 to 14) (size 15 to 20)
#    0.000    1.750    3.750    0.750    0.000    0.500 
#    0.000    1.250    0.000    0.000    0.000    0.000 
#    0.000    0.000    0.000    0.000    0.000    0.000 
#
# Total GULP energy -89333.609500 kJ/mol
# GULP energy per Si atom -5583.350594 kJ/mol
# Density = 2.240907 g / cm^3
# Si number density = 22.460195 Si / 1000 Ang^3
#
#
#
# Elastic Constant Matrix: (Units=GPa)
#
#
# Indices 1 2 3 4 5 6 
#
# 1 63.0450 25.9681 10.5480 -0.1725 4.9543 17.0252
# 2 25.9681 107.1538 11.4540 -14.5772 9.0218 19.6080
# 3 10.5480 11.4540 63.9986 -19.0878 2.3433 -10.8145
# 4 -0.1725 -14.5772 -19.0878 28.9113 -4.2384 9.6835
# 5 4.9543 9.0218 2.3433 -4.2384 24.4629 2.6362
# 6 17.0252 19.6080 -10.8145 9.6835 2.6362 26.9025
#
#
#
# Elastic Compliance Matrix: (Units=1/GPa)
#
#
# Indices 1 2 3 4 5 6 
#
# 1 0.021577 -0.001839 -0.005572 0.000130 -0.001579 -0.014446
# 2 -0.001839 0.013792 -0.001243 0.010246 -0.001426 -0.012937
# 3 -0.005572 -0.001243 0.021431 0.010440 0.000345 0.009255
# 4 0.000130 0.010246 0.010440 0.055846 0.007477 -0.024188
# 5 -0.001579 -0.001426 0.000345 0.007477 0.043501 -0.004777
# 6 -0.014446 -0.012937 0.009255 -0.024188 -0.004777 0.068638
#
#
# Mechanical properties :
#
#
# Convention : Reuss Voigt Hill
#
# Bulk Modulus (GPa) = 25.32134 36.68195 31.00165
# Shear Modulus (GPa) = 19.58807 28.47049 24.02928
#
# Velocity S-wave (km/s) = 2.95638 3.56420 3.27442
# Velocity P-wave (km/s) = 4.79082 5.77109 5.30365
#
# Compressibility (1/GPa) = 0.03949238
#
# Stress axis : x y z
#
# Youngs Moduli (GPa) = 46.34540 72.50436 46.66101
#
# Poissons Ratio (x) = 0.13336 0.25998
# Poissons Ratio (y) = 0.08525 0.05800
# Poissons Ratio (z) = 0.25822 0.09013
#
# Static dielectric constant tensor:
#      x y z
#    x 1.908060 0.022740 0.001680 
#    y 0.022740 1.781780 -0.018250 
#    z 0.001680 -0.018250 1.875820 
# 
# From -- ./inp_files/181475.got.cif
#   From: 2010.05.17/outbox.cif.g08.bks.cpg/sg2_91_cif.got.tgz:181475.got - 2010.06.03 11:33:40.
