data_PCOD9108668
_publ_section_title
;
Structure prediction by ZEFSAII (Michael W. Deem and Ramdas Pophale) SiO2 
 PCOD9108668
Probable space group: P -1
;
_chemical_formula_sum "Si O2"
_cell_formula_units_Z 12
_cell_length_a 6.908017
_cell_length_b 8.755154
_cell_length_c 9.570927
_cell_angle_alpha 80.631264
_cell_angle_beta 95.113918
_cell_angle_gamma 55.001862
_cell_volume 455.774270
_symmetry_space_group_name_H-M "P -1"
_symmetry_group_IT_number 2
_symmetry_cell_setting 'triclinic'
loop_
_space_group_symop_operation_xyz
x,y,z
-x,-y,-z
loop_
_atom_site_type_symbol
_atom_site_label
_atom_site_fract_x
_atom_site_fract_y
_atom_site_fract_z
Si Si1 0.318263 0.145268 0.274155
Si Si2 0.109299 0.544127 0.097910
Si Si3 0.777166 0.823332 0.430781
Si Si4 0.314243 0.488504 0.576903
Si Si5 0.752685 0.962784 0.998082
Si Si6 0.557062 0.589204 0.077685
O O1 0.220444 0.365943 0.237636
O O2 0.265866 0.097500 0.426429
O O3 0.190886 0.107551 0.150446
O O4 0.609660 0.009436 0.294883
O O5 0.368929 0.515831 0.063787
O O6 0.832487 0.567502 0.046020
O O7 0.965780 0.764314 0.114850
O O8 0.669297 0.703288 0.417456
O O9 0.060463 0.666639 0.470635
O O10 0.500000 0.500000 0.500000
O O11 0.345999 0.489718 0.746643
O O12 0.664158 0.179619 0.978434
O O13 0.500000 0.000000 0.000000
#
# Coordination Sequence:
#
# PCOD9108668 Si02
#       6
#     2   2   2   2   2   2
#     4  10  20  40  70 109 133 186 251 293 363 432
#     4  10  21  40  72  99 136 183 238 291 354 431
#     4  10  23  43  75  98 145 191 237 305 362 432
#     4  11  25  45  70 105 144 192 245 294 366 440
#     4  11  21  39  71 105 135 186 235 293 361 436
#     4  12  26  45  66 108 151 180 235 304 362 425
#
# _framework density 26.328823
#
# number of rings (size 3 to 8) (size 9 to 14) (size 15 to 20)
#    0.000    1.333    5.000    2.000    2.333    0.667 
#    0.000    5.000    0.000    0.000    0.000    0.000 
#    0.000    0.000    0.000    0.000    0.000    0.000 
#
# Total GULP energy -66965.085683 kJ/mol
# GULP energy per Si atom -5580.423807 kJ/mol
# Density = 2.626890 g / cm^3
# Si number density = 26.328823 Si / 1000 Ang^3
#
#
#
# Elastic Constant Matrix: (Units=GPa)
#
#
# Indices 1 2 3 4 5 6 
#
# 1 130.5359 46.9911 10.7087 2.2275 2.5632 3.5781
# 2 46.9911 227.9949 51.5011 -41.4806 23.4496 -14.7056
# 3 10.7087 51.5011 118.2468 -9.8124 7.6857 4.6753
# 4 2.2275 -41.4806 -9.8124 62.6488 -8.4357 9.5363
# 5 2.5632 23.4496 7.6857 -8.4357 27.6172 8.5815
# 6 3.5781 -14.7056 4.6753 9.5363 8.5815 42.2569
#
#
#
# Elastic Compliance Matrix: (Units=1/GPa)
#
#
# Indices 1 2 3 4 5 6 
#
# 1 0.008497 -0.002225 0.000068 -0.001404 0.001090 -0.001406
# 2 -0.002225 0.006577 -0.002224 0.002980 -0.004788 0.003023
# 3 0.000068 -0.002224 0.009524 0.000290 -0.000096 -0.001879
# 4 -0.001404 0.002980 0.000290 0.019304 0.004717 -0.004190
# 5 0.001090 -0.004788 -0.000096 0.004717 0.045378 -0.012028
# 6 -0.001406 0.003023 -0.001879 -0.004190 -0.012028 0.028432
#
#
# Mechanical properties :
#
#
# Convention : Reuss Voigt Hill
#
# Bulk Modulus (GPa) = 63.14798 77.24217 70.19508
# Shear Modulus (GPa) = 37.95008 51.00970 44.47989
#
# Velocity S-wave (km/s) = 3.80068 4.40638 4.11469
# Velocity P-wave (km/s) = 6.58002 7.43568 7.02090
#
# Compressibility (1/GPa) = 0.01583582
#
# Stress axis : x y z
#
# Youngs Moduli (GPa) = 117.68662 152.05471 104.99843
#
# Poissons Ratio (x) = 0.33828 -0.00711
# Poissons Ratio (y) = 0.26182 0.23350
# Poissons Ratio (z) = -0.00797 0.33815
#
# Static dielectric constant tensor:
#      x y z
#    x 2.518050 -0.088980 -0.002750 
#    y -0.088980 2.070390 0.032680 
#    z -0.002750 0.032680 2.110350 
# 
# From -- ./inp_files/49505.got.cif
#   From: 2010.05.17/outbox.cif.g08.bks.cpg/sg2_25_cif.got.tgz:49505.got - 2010.06.03 11:33:40.
