data_PCOD9108507
_publ_section_title
;
Structure prediction by ZEFSAII (Michael W. Deem and Ramdas Pophale) SiO2 
 PCOD9108507
Probable space group: P -1
;
_chemical_formula_sum "Si O2"
_cell_formula_units_Z 16
_cell_length_a 5.366102
_cell_length_b 14.039445
_cell_length_c 12.102904
_cell_angle_alpha 128.042240
_cell_angle_beta 82.105053
_cell_angle_gamma 81.107486
_cell_volume 677.014456
_symmetry_space_group_name_H-M "P -1"
_symmetry_group_IT_number 2
_symmetry_cell_setting 'triclinic'
loop_
_space_group_symop_operation_xyz
x,y,z
-x,-y,-z
loop_
_atom_site_type_symbol
_atom_site_label
_atom_site_fract_x
_atom_site_fract_y
_atom_site_fract_z
Si Si1 0.611320 0.026994 0.895204
Si Si2 0.411959 0.471345 0.865121
Si Si3 0.586309 0.679484 0.855527
Si Si4 0.304948 0.418438 0.453192
Si Si5 0.176292 0.742661 0.408523
Si Si6 0.053444 0.465081 0.713505
Si Si7 0.190066 0.965957 0.729725
Si Si8 0.807617 0.923624 0.409911
O O1 0.459173 0.962507 0.772035
O O2 0.929175 0.981247 0.830291
O O3 0.518077 0.178917 0.992416
O O4 0.500000 0.000000 0.000000
O O5 0.459113 0.583293 0.860850
O O6 0.579262 0.322279 0.730950
O O7 0.127307 0.467738 0.838600
O O8 0.500000 0.500000 0.000000
O O9 0.573657 0.681802 0.723251
O O10 0.899881 0.611561 0.803574
O O11 0.500000 0.500000 0.500000
O O12 0.293527 0.394636 0.568066
O O13 0.000000 0.500000 0.500000
O O14 0.137147 0.615532 0.368395
O O15 0.914457 0.800937 0.391541
O O16 0.215197 0.842569 0.564542
O O17 0.138299 0.082374 0.728200
O O18 0.500000 0.000000 0.500000
O O19 0.000000 0.000000 0.500000
#
# Coordination Sequence:
#
# PCOD9108507 Si02
#       8
#     2   2   2   2   2   2   2   2
#     4  12  29  48  72 107 146 195 243 301 365 433
#     4  11  25  42  70 107 144 187 232 297 370 435
#     4  10  25  45  67 103 143 189 236 297 367 428
#     4  10  20  40  68  99 132 178 235 287 347 418
#     4  10  25  42  71 106 137 183 242 299 351 435
#     4  10  23  43  71 103 140 186 236 299 366 423
#     4  11  26  48  73 104 142 194 245 297 363 426
#     4  10  22  42  69 102 136 181 235 293 351 414
#
# _framework density 23.633174
#
# number of rings (size 3 to 8) (size 9 to 14) (size 15 to 20)
#    0.000    1.500    1.250    1.875   10.500    3.000 
#    0.000    0.000    0.000    0.000    0.000    0.000 
#    0.000    0.000    0.000    0.000    0.000    0.000 
#
# Total GULP energy -89084.998589 kJ/mol
# GULP energy per Si atom -5567.812412 kJ/mol
# Density = 2.357938 g / cm^3
# Si number density = 23.633174 Si / 1000 Ang^3
#
#
#
# Elastic Constant Matrix: (Units=GPa)
#
#
# Indices 1 2 3 4 5 6 
#
# 1 100.6667 3.2859 15.0322 8.2972 9.4209 1.7122
# 2 3.2859 56.1580 12.1274 10.0973 3.8643 1.0443
# 3 15.0322 12.1274 97.2002 14.8911 22.9992 -2.9230
# 4 8.2972 10.0973 14.8911 43.1614 -4.5770 -1.3451
# 5 9.4209 3.8643 22.9992 -4.5770 39.4605 -2.8360
# 6 1.7122 1.0443 -2.9230 -1.3451 -2.8360 30.8536
#
#
#
# Elastic Compliance Matrix: (Units=1/GPa)
#
#
# Indices 1 2 3 4 5 6 
#
# 1 0.010453 0.000106 -0.000790 -0.002041 -0.002352 -0.000964
# 2 0.000106 0.018988 -0.001388 -0.004192 -0.001642 -0.001114
# 3 -0.000790 -0.001388 0.013223 -0.004913 -0.007924 0.000401
# 4 -0.002041 -0.004192 -0.004913 0.027031 0.007013 0.001613
# 5 -0.002352 -0.001642 -0.007924 0.007013 0.031686 0.002654
# 6 -0.000964 -0.001114 0.000401 0.001613 0.002654 0.032855
#
#
# Mechanical properties :
#
#
# Convention : Reuss Voigt Hill
#
# Bulk Modulus (GPa) = 25.96070 34.99062 30.47566
# Shear Modulus (GPa) = 33.06445 37.60038 35.33242
#
# Velocity S-wave (km/s) = 3.74447 3.99306 3.87076
# Velocity P-wave (km/s) = 5.45009 6.00810 5.73588
#
# Compressibility (1/GPa) = 0.03851976
#
# Stress axis : x y z
#
# Youngs Moduli (GPa) = 95.66686 52.66492 75.62605
#
# Poissons Ratio (x) = -0.00556 0.05971
# Poissons Ratio (y) = -0.01011 0.10498
# Poissons Ratio (z) = 0.07554 0.07311
#
# Static dielectric constant tensor:
#      x y z
#    x 2.105680 -0.006460 -0.182750 
#    y -0.006460 1.950540 -0.111570 
#    z -0.182750 -0.111570 2.060470 
# 
# From -- ./inp_files/368052.got.cif
#   From: 2010.05.17/outbox.cif.g08.bks.cpg/sg2_185_cif.got.tgz:368052.got - 2010.06.03 11:33:40.
