data_PCOD9108591
_publ_section_title
;
Structure prediction by ZEFSAII (Michael W. Deem and Ramdas Pophale) SiO2 
 PCOD9108591
Probable space group: P -1
;
_chemical_formula_sum "Si O2"
_cell_formula_units_Z 16
_cell_length_a 8.416148
_cell_length_b 23.719349
_cell_length_c 7.570442
_cell_angle_alpha 145.169109
_cell_angle_beta 118.772644
_cell_angle_gamma 51.456978
_cell_volume 673.576301
_symmetry_space_group_name_H-M "P -1"
_symmetry_group_IT_number 2
_symmetry_cell_setting 'triclinic'
loop_
_space_group_symop_operation_xyz
x,y,z
-x,-y,-z
loop_
_atom_site_type_symbol
_atom_site_label
_atom_site_fract_x
_atom_site_fract_y
_atom_site_fract_z
Si Si1 0.632155 0.868478 0.205174
Si Si2 0.923191 0.317040 0.051987
Si Si3 0.266160 0.829299 0.523960
Si Si4 0.660633 0.842413 0.729510
Si Si5 0.950467 0.950240 0.165209
Si Si6 0.359935 0.759129 0.804110
Si Si7 0.906465 0.609807 0.346389
Si Si8 0.351615 0.463215 0.726053
O O1 0.500000 0.000000 0.500000
O O2 0.644480 0.853212 0.961490
O O3 0.495990 0.817376 0.084986
O O4 0.866164 0.786302 0.170618
O O5 0.832464 0.425813 0.161281
O O6 0.955186 0.363073 0.373960
O O7 0.771666 0.262300 0.835153
O O8 0.443655 0.850244 0.582131
O O9 0.318307 0.784350 0.635476
O O10 0.075205 0.951591 0.729740
O O11 0.813485 0.715868 0.442784
O O12 0.760295 0.923163 0.949391
O O13 0.000000 0.000000 0.500000
O O14 0.138687 0.828574 0.943080
O O15 0.499660 0.628956 0.569344
O O16 0.739136 0.598816 0.354790
O O17 0.000000 0.500000 0.000000
O O18 0.500000 0.500000 0.000000
#
# Coordination Sequence:
#
# PCOD9108591 Si02
#       8
#     2   2   2   2   2   2   2   2
#     4  10  20  40  69  96 132 173 223 280 335 402
#     4  11  22  42  74 101 134 179 232 280 339 413
#     4  11  22  45  68  95 133 182 226 277 350 411
#     4  10  22  43  62  97 137 171 220 284 343 404
#     4  12  25  42  67 102 137 177 229 290 345 403
#     4  11  23  43  67  95 135 179 227 279 338 410
#     4  11  24  44  68  98 138 175 220 286 347 399
#     4  12  23  46  68  99 136 178 236 279 330 418
#
# _framework density 23.753806000000001
#
# number of rings (size 3 to 8) (size 9 to 14) (size 15 to 20)
#    0.000    1.000    5.000    4.125    1.750    1.000 
#    2.250    3.750    0.000    0.000    0.000    0.000 
#    0.000    0.000    0.000    0.000    0.000    0.000 
#
# Total GULP energy -89264.303912 kJ/mol
# GULP energy per Si atom -5579.018995 kJ/mol
# Density = 2.369974 g / cm^3
# Si number density = 23.753806 Si / 1000 Ang^3
#
#
#
# Elastic Constant Matrix: (Units=GPa)
#
#
# Indices 1 2 3 4 5 6 
#
# 1 49.6892 7.9386 47.9268 -3.9037 18.6640 -15.0968
# 2 7.9386 86.8372 44.5856 24.0395 -1.5847 -9.3805
# 3 47.9268 44.5856 186.6196 28.5192 16.2355 -14.2280
# 4 -3.9037 24.0395 28.5192 38.9854 -3.8055 4.4214
# 5 18.6640 -1.5847 16.2355 -3.8055 49.0681 2.2343
# 6 -15.0968 -9.3805 -14.2280 4.4214 2.2343 26.8767
#
#
#
# Elastic Compliance Matrix: (Units=1/GPa)
#
#
# Indices 1 2 3 4 5 6 
#
# 1 0.038833 0.000763 -0.008809 0.006717 -0.012099 0.017317
# 2 0.000763 0.015613 -0.002120 -0.008706 -0.000042 0.006191
# 3 -0.008809 -0.002120 0.009125 -0.006295 -0.000234 0.000198
# 4 0.006717 -0.008706 -0.006295 0.037568 0.002570 -0.008992
# 5 -0.012099 -0.000042 -0.000234 0.002570 0.025690 -0.009493
# 6 0.017317 0.006191 0.000198 -0.008992 -0.009493 0.051468
#
#
# Mechanical properties :
#
#
# Convention : Reuss Voigt Hill
#
# Bulk Modulus (GPa) = 23.12706 58.22753 40.67729
# Shear Modulus (GPa) = 23.46968 37.83237 30.65102
#
# Velocity S-wave (km/s) = 3.14672 3.99518 3.59606
# Velocity P-wave (km/s) = 4.79163 6.77112 5.86548
#
# Compressibility (1/GPa) = 0.04323940
#
# Stress axis : x y z
#
# Youngs Moduli (GPa) = 25.75100 64.05035 109.59266
#
# Poissons Ratio (x) = -0.04888 0.96540
# Poissons Ratio (y) = -0.01965 0.23232
# Poissons Ratio (z) = 0.22684 0.13578
#
# Static dielectric constant tensor:
#      x y z
#    x 1.982840 -0.058950 -0.016440 
#    y -0.058950 1.999720 0.019810 
#    z -0.016440 0.019810 1.891510 
# 
# From -- ./inp_files/227655.got.cif
#   From: 2010.05.17/outbox.cif.g08.bks.cpg/sg2_114_cif.got.tgz:227655.got - 2010.06.03 11:33:40.
