data_PCOD9108355
_publ_section_title
;
Structure prediction by ZEFSAII (Michael W. Deem and Ramdas Pophale) SiO2 
 PCOD9108355
Probable space group: P -1
;
_chemical_formula_sum "Si O2"
_cell_formula_units_Z 16
_cell_length_a 5.052040
_cell_length_b 16.905958
_cell_length_c 14.987655
_cell_angle_alpha 151.654984
_cell_angle_beta 95.658941
_cell_angle_gamma 84.700691
_cell_volume 604.756541
_symmetry_space_group_name_H-M "P -1"
_symmetry_group_IT_number 2
_symmetry_cell_setting 'triclinic'
loop_
_space_group_symop_operation_xyz
x,y,z
-x,-y,-z
loop_
_atom_site_type_symbol
_atom_site_label
_atom_site_fract_x
_atom_site_fract_y
_atom_site_fract_z
Si Si1 0.286169 0.662925 0.931100
Si Si2 0.016040 0.131452 0.321829
Si Si3 0.486056 0.176124 0.729692
Si Si4 0.308167 0.639786 0.367595
Si Si5 0.752144 0.777468 0.938692
Si Si6 0.850920 0.060568 0.426269
Si Si7 0.087310 0.356325 0.795952
Si Si8 0.256384 0.115408 0.135167
O O1 0.449524 0.486757 0.757480
O O2 0.315334 0.740148 0.108964
O O3 0.471533 0.762414 0.964397
O O4 0.987703 0.676811 0.896820
O O5 0.830046 0.297842 0.484105
O O6 0.075521 0.082529 0.379178
O O7 0.238924 0.158902 0.282512
O O8 0.843757 0.968546 0.134422
O O9 0.388267 0.312430 0.789783
O O10 0.500000 0.000000 0.500000
O O11 0.253463 0.118667 0.734228
O O12 0.376159 0.820317 0.506328
O O13 0.054896 0.589874 0.247338
O O14 0.745496 0.738862 0.794329
O O15 0.952344 0.173815 0.623426
O O16 0.000000 0.500000 0.000000
O O17 0.500000 0.000000 0.000000
O O18 0.000000 0.000000 0.000000
#
# Coordination Sequence:
#
# PCOD9108355 Si02
#       8
#     2   2   2   2   2   2   2   2
#     4  12  24  44  61  98 135 177 215 282 332 394
#     4   8  18  40  68  91 127 175 214 272 324 400
#     4  12  23  36  61  96 127 179 227 286 323 391
#     4   8  20  40  62  86 133 176 221 267 340 393
#     4  11  23  40  69  98 133 168 222 273 333 393
#     4   8  19  38  62  84 130 167 229 268 332 380
#     4   9  18  38  59  83 127 166 224 268 336 380
#     4  10  20  40  68 105 132 168 217 273 330 397
#
# _framework density 26.456928999999999
#
# number of rings (size 3 to 8) (size 9 to 14) (size 15 to 20)
#    1.500    0.500    2.500    1.875    3.500    1.000 
#    2.250    6.250    0.000    0.000    0.000    0.000 
#    0.000    0.000    0.000    0.000    0.000    0.000 
#
# Total GULP energy -89136.865386 kJ/mol
# GULP energy per Si atom -5571.054087 kJ/mol
# Density = 2.639671 g / cm^3
# Si number density = 26.456929 Si / 1000 Ang^3
#
#
#
# Elastic Constant Matrix: (Units=GPa)
#
#
# Indices 1 2 3 4 5 6 
#
# 1 95.2222 26.8458 28.8616 -3.9194 -24.5529 -0.0203
# 2 26.8458 115.7489 36.6628 10.0685 -17.4704 -7.7130
# 3 28.8616 36.6628 104.4422 5.2817 -33.6321 -5.5451
# 4 -3.9194 10.0685 5.2817 18.7769 5.7686 -16.0374
# 5 -24.5529 -17.4704 -33.6321 5.7686 39.2467 6.2782
# 6 -0.0203 -7.7130 -5.5451 -16.0374 6.2782 38.1421
#
#
#
# Elastic Compliance Matrix: (Units=1/GPa)
#
#
# Indices 1 2 3 4 5 6 
#
# 1 0.013055 -0.001905 -0.000940 0.000992 0.006556 -0.001177
# 2 -0.001905 0.010830 -0.001685 -0.009095 0.003926 -0.002526
# 3 -0.000940 -0.001685 0.015649 -0.013741 0.015104 -0.006330
# 4 0.000992 -0.009095 -0.013741 0.121029 -0.041615 0.053902
# 5 0.006556 0.003926 0.015104 -0.041615 0.054134 -0.023415
# 6 -0.001177 -0.002526 -0.006330 0.053902 -0.023415 0.051304
#
#
# Mechanical properties :
#
#
# Convention : Reuss Voigt Hill
#
# Bulk Modulus (GPa) = 32.81703 55.57266 44.19485
# Shear Modulus (GPa) = 17.53026 34.10266 25.81646
#
# Velocity S-wave (km/s) = 2.57689 3.59414 3.12716
# Velocity P-wave (km/s) = 4.61353 6.18663 5.45706
#
# Compressibility (1/GPa) = 0.03047198
#
# Stress axis : x y z
#
# Youngs Moduli (GPa) = 76.59970 92.33253 63.90345
#
# Poissons Ratio (x) = 0.17591 0.06009
# Poissons Ratio (y) = 0.14594 0.10770
# Poissons Ratio (z) = 0.07203 0.15562
#
# Static dielectric constant tensor:
#      x y z
#    x 2.199740 0.026410 -0.017650 
#    y 0.026410 2.262570 -0.097030 
#    z -0.017650 -0.097030 2.188770 
# 
# From -- ./inp_files/485328.got.cif
#   From: 2010.05.17/outbox.cif.g08.bks.cpg/sg2_243_cif.got.tgz:485328.got - 2010.06.03 11:33:40.
