data_PCOD9108398
_publ_section_title
;
Structure prediction by ZEFSAII (Michael W. Deem and Ramdas Pophale) SiO2 
 PCOD9108398
Probable space group: P -1
;
_chemical_formula_sum "Si O2"
_cell_formula_units_Z 16
_cell_length_a 11.959298
_cell_length_b 8.025979
_cell_length_c 11.989646
_cell_angle_alpha 51.086963
_cell_angle_beta 79.497762
_cell_angle_gamma 62.041211
_cell_volume 780.330477
_symmetry_space_group_name_H-M "P -1"
_symmetry_group_IT_number 2
_symmetry_cell_setting 'triclinic'
loop_
_space_group_symop_operation_xyz
x,y,z
-x,-y,-z
loop_
_atom_site_type_symbol
_atom_site_label
_atom_site_fract_x
_atom_site_fract_y
_atom_site_fract_z
Si Si1 0.723087 0.595771 0.624420
Si Si2 0.533785 0.412562 0.403373
Si Si3 0.761918 0.755659 0.319736
Si Si4 0.533120 0.887566 0.162135
Si Si5 0.048720 0.720397 0.580722
Si Si6 0.691484 0.928610 0.691365
Si Si7 0.004488 0.175588 0.694502
Si Si8 0.966351 0.723130 0.830786
O O1 0.594299 0.569949 0.637916
O O2 0.716326 0.772674 0.448510
O O3 0.718754 0.702061 0.703027
O O4 0.860622 0.356863 0.685495
O O5 0.500000 0.500000 0.500000
O O6 0.567085 0.607081 0.259341
O O7 0.646039 0.143799 0.517394
O O8 0.650793 0.905769 0.191408
O O9 0.809072 0.472080 0.399766
O O10 0.882093 0.810289 0.264541
O O11 0.419051 0.004552 0.224607
O O12 0.500000 0.000000 0.000000
O O13 0.978236 0.736766 0.470028
O O14 0.025600 0.620292 0.741950
O O15 0.000000 0.000000 0.500000
O O16 0.816940 0.881683 0.758725
O O17 0.014718 0.910244 0.790101
O O18 0.000000 0.500000 0.000000
#
# Coordination Sequence:
#
# PCOD9108398 Si02
#       8
#     2   2   2   2   2   2   2   2
#     4  11  20  41  70 101 123 158 228 273 312 372
#     4  10  20  40  68  93 120 173 216 261 314 374
#     4  11  21  39  66  96 131 163 215 265 329 375
#     4  11  26  44  63  93 133 175 210 263 327 394
#     4   9  20  37  62  94 124 165 209 263 315 375
#     4  11  23  42  68  94 126 167 223 269 313 383
#     4  10  21  40  67  95 126 165 209 276 321 378
#     4  11  24  42  64  94 132 169 216 261 323 389
#
# _framework density 20.504131999999998
#
# number of rings (size 3 to 8) (size 9 to 14) (size 15 to 20)
#    0.000    1.500    2.500    4.875    5.250    0.000 
#    2.250    1.875    0.000    0.000    0.000    0.000 
#    0.000    0.000    0.000    0.000    0.000    0.000 
#
# Total GULP energy -89190.760306 kJ/mol
# GULP energy per Si atom -5574.422519 kJ/mol
# Density = 2.045746 g / cm^3
# Si number density = 20.504132 Si / 1000 Ang^3
#
#
#
# Elastic Constant Matrix: (Units=GPa)
#
#
# Indices 1 2 3 4 5 6 
#
# 1 149.4766 29.2092 50.8467 -7.2964 20.3009 13.9665
# 2 29.2092 96.6448 35.9738 10.7766 1.0944 10.0877
# 3 50.8467 35.9738 141.5612 4.3319 -1.7639 1.3353
# 4 -7.2964 10.7766 4.3319 20.1424 4.8479 -1.1862
# 5 20.3009 1.0944 -1.7639 4.8479 18.2360 -5.7384
# 6 13.9665 10.0877 1.3353 -1.1862 -5.7384 21.6159
#
#
#
# Elastic Compliance Matrix: (Units=1/GPa)
#
#
# Indices 1 2 3 4 5 6 
#
# 1 0.013617 -0.001992 -0.004905 0.011757 -0.022714 -0.012950
# 2 -0.001992 0.013169 -0.002320 -0.007990 0.001860 -0.004660
# 3 -0.004905 -0.002320 0.009619 -0.004569 0.009621 0.005961
# 4 0.011757 -0.007990 -0.004569 0.066722 -0.033569 -0.008836
# 5 -0.022714 0.001860 0.009621 -0.033569 0.101962 0.038440
# 6 -0.012950 -0.004660 0.005961 -0.008836 0.038440 0.066156
#
#
# Mechanical properties :
#
#
# Convention : Reuss Voigt Hill
#
# Bulk Modulus (GPa) = 55.64378 68.86022 62.25200
# Shear Modulus (GPa) = 16.91082 30.10904 23.50993
#
# Velocity S-wave (km/s) = 2.87497 3.83618 3.38981
# Velocity P-wave (km/s) = 6.18202 7.29919 6.76371
#
# Compressibility (1/GPa) = 0.01797146
#
# Stress axis : x y z
#
# Youngs Moduli (GPa) = 73.43925 75.93704 103.96117
#
# Poissons Ratio (x) = 0.15123 0.50998
# Poissons Ratio (y) = 0.14625 0.24114
# Poissons Ratio (z) = 0.36026 0.17614
#
# Static dielectric constant tensor:
#      x y z
#    x 1.807370 -0.019410 -0.020240 
#    y -0.019410 1.788130 -0.039430 
#    z -0.020240 -0.039430 1.726320 
# 
# From -- ./inp_files/418903.got.cif
#   From: 2010.05.17/outbox.cif.g08.bks.cpg/sg2_210_cif.got.tgz:418903.got - 2010.06.03 11:33:40.
