data_PCOD9108852
_publ_section_title
;
Structure prediction by ZEFSAII (Michael W. Deem and Ramdas Pophale) SiO2 
 PCOD9108852
Probable space group: P -1
;
_chemical_formula_sum "Si O2"
_cell_formula_units_Z 16
_cell_length_a 5.518797
_cell_length_b 14.982878
_cell_length_c 24.059037
_cell_angle_alpha 28.364071
_cell_angle_beta 113.474933
_cell_angle_gamma 96.266535
_cell_volume 721.738327
_symmetry_space_group_name_H-M "P -1"
_symmetry_group_IT_number 2
_symmetry_cell_setting 'triclinic'
loop_
_space_group_symop_operation_xyz
x,y,z
-x,-y,-z
loop_
_atom_site_type_symbol
_atom_site_label
_atom_site_fract_x
_atom_site_fract_y
_atom_site_fract_z
Si Si1 0.531620 0.185894 0.372157
Si Si2 0.960200 0.910526 0.825371
Si Si3 0.359948 0.981365 0.906564
Si Si4 0.084190 0.476168 0.820254
Si Si5 0.632894 0.196464 0.872884
Si Si6 0.494992 0.384950 0.153168
Si Si7 0.864868 0.335630 0.390511
Si Si8 0.709262 0.020410 0.283971
O O1 0.486741 0.208057 0.290406
O O2 0.821850 0.171583 0.436697
O O3 0.241650 0.432692 0.229531
O O4 0.500000 0.000000 0.500000
O O5 0.604343 0.973610 0.764557
O O6 0.072007 0.997346 0.839475
O O7 0.055287 0.002295 0.730676
O O8 0.181831 0.636582 0.988864
O O9 0.406721 0.180046 0.816472
O O10 0.673741 0.789411 0.008181
O O11 0.386855 0.878795 0.025782
O O12 0.245105 0.583776 0.810279
O O13 0.036606 0.552039 0.709646
O O14 0.458586 0.464898 0.718278
O O15 0.000000 0.000000 0.000000
O O16 0.590104 0.259715 0.172031
O O17 0.105342 0.182410 0.544020
#
# Coordination Sequence:
#
# PCOD9108852 Si02
#       8
#     2   2   2   2   2   2   2   2
#     4  11  21  34  64  93 131 169 206 281 326 378
#     4  11  27  43  66  91 134 178 224 263 307 382
#     4   9  21  40  64  98 117 159 215 267 332 378
#     4   9  19  36  62  89 128 158 209 282 323 379
#     4  10  20  40  73  97 120 157 207 285 332 395
#     4  10  23  39  62  94 124 176 231 263 317 373
#     4  10  23  39  58  97 129 167 219 263 341 380
#     4  12  26  43  62  92 135 185 220 260 309 387
#
# _framework density 22.168700999999999
#
# number of rings (size 3 to 8) (size 9 to 14) (size 15 to 20)
#    0.000    1.750    0.000    3.750   10.500    2.000 
#    0.000    1.250    0.000    0.000    0.000    0.000 
#    0.000    0.000    0.000    0.000    0.000    0.000 
#
# Total GULP energy -89220.931239 kJ/mol
# GULP energy per Si atom -5576.308202 kJ/mol
# Density = 2.211824 g / cm^3
# Si number density = 22.168701 Si / 1000 Ang^3
#
#
#
# Elastic Constant Matrix: (Units=GPa)
#
#
# Indices 1 2 3 4 5 6 
#
# 1 49.1108 13.0165 16.9150 6.0613 -0.5503 -4.9760
# 2 13.0165 107.5793 13.8949 -2.1875 -3.3447 9.8854
# 3 16.9150 13.8949 65.7405 7.0024 12.4716 8.7219
# 4 6.0613 -2.1875 7.0024 30.6343 -6.1152 2.2071
# 5 -0.5503 -3.3447 12.4716 -6.1152 29.2288 -4.0793
# 6 -4.9760 9.8854 8.7219 2.2071 -4.0793 26.3891
#
#
#
# Elastic Compliance Matrix: (Units=1/GPa)
#
#
# Indices 1 2 3 4 5 6 
#
# 1 0.025064 -0.002858 -0.007440 -0.003343 0.003895 0.009138
# 2 -0.002858 0.010284 -0.001493 0.002256 0.001699 -0.003824
# 3 -0.007440 -0.001493 0.021495 -0.005247 -0.011885 -0.009346
# 4 -0.003343 0.002256 -0.005247 0.036742 0.009943 -0.001277
# 5 0.003895 0.001699 -0.011885 0.009943 0.043005 0.009843
# 6 0.009138 -0.003824 -0.009346 -0.001277 0.009843 0.045767
#
#
# Mechanical properties :
#
#
# Convention : Reuss Voigt Hill
#
# Bulk Modulus (GPa) = 30.06624 34.45372 32.25998
# Shear Modulus (GPa) = 23.03849 29.15739 26.09794
#
# Velocity S-wave (km/s) = 3.22721 3.63057 3.43482
# Velocity P-wave (km/s) = 5.24199 5.75761 5.50584
#
# Compressibility (1/GPa) = 0.03325990
#
# Stress axis : x y z
#
# Youngs Moduli (GPa) = 39.89721 97.23608 46.52289
#
# Poissons Ratio (x) = 0.27792 0.34614
# Poissons Ratio (y) = 0.11404 0.06948
# Poissons Ratio (z) = 0.29684 0.14522
#
# Static dielectric constant tensor:
#      x y z
#    x 1.896030 0.008820 0.015720 
#    y 0.008820 1.843650 -0.020900 
#    z 0.015720 -0.020900 1.844670 
# 
# From -- ./inp_files/93350.got.cif
#   From: 2010.05.17/outbox.cif.g08.bks.cpg/sg2_47_cif.got.tgz:93350.got - 2010.06.03 11:33:40.
