data_PCOD9108302
_publ_section_title
;
Structure prediction by ZEFSAII (Michael W. Deem and Ramdas Pophale) SiO2 
 PCOD9108302
Probable space group: P -1
;
_chemical_formula_sum "Si O2"
_cell_formula_units_Z 16
_cell_length_a 7.639991
_cell_length_b 14.925055
_cell_length_c 11.269791
_cell_angle_alpha 129.312556
_cell_angle_beta 110.761986
_cell_angle_gamma 107.890795
_cell_volume 630.326170
_symmetry_space_group_name_H-M "P -1"
_symmetry_group_IT_number 2
_symmetry_cell_setting 'triclinic'
loop_
_space_group_symop_operation_xyz
x,y,z
-x,-y,-z
loop_
_atom_site_type_symbol
_atom_site_label
_atom_site_fract_x
_atom_site_fract_y
_atom_site_fract_z
Si Si1 0.242252 0.845884 0.402670
Si Si2 0.104780 0.601817 0.989306
Si Si3 0.708727 0.987141 0.816368
Si Si4 0.579653 0.433955 0.290793
Si Si5 0.884133 0.740794 0.448337
Si Si6 0.242861 0.067831 0.956674
Si Si7 0.104606 0.378347 0.247391
Si Si8 0.697435 0.862454 0.369586
O O1 0.124756 0.740003 0.164199
O O2 0.992013 0.744982 0.351703
O O3 0.468791 0.884026 0.573013
O O4 0.338294 0.016378 0.528918
O O5 0.406283 0.695263 0.102612
O O6 0.000000 0.500000 0.000000
O O7 0.921032 0.525080 0.765941
O O8 0.634252 0.909815 0.866406
O O9 0.964523 0.018599 0.869677
O O10 0.834738 0.174179 0.015732
O O11 0.704175 0.563866 0.322422
O O12 0.448756 0.247287 0.087031
O O13 0.340269 0.403155 0.268974
O O14 0.815160 0.540599 0.536880
O O15 0.714766 0.780790 0.412921
O O16 0.142149 0.908343 0.727596
O O17 0.000000 0.000000 0.500000
#
# Coordination Sequence:
#
# PCOD9108302 Si02
#       8
#     2   2   2   2   2   2   2   2
#     4  11  25  43  68  96 138 184 227 275 343 421
#     4  12  25  42  69 105 139 182 227 290 342 413
#     4  10  20  40  67  98 128 170 236 277 344 415
#     4  10  22  41  65 102 135 173 225 294 342 407
#     4  11  23  45  65  99 140 179 224 284 348 409
#     4  10  22  38  72  98 128 182 222 285 351 408
#     4  10  21  39  67  97 134 171 229 286 345 402
#     4  10  23  44  69  98 135 181 231 282 344 410
#
# _framework density 25.383683000000001
#
# number of rings (size 3 to 8) (size 9 to 14) (size 15 to 20)
#    0.000    1.500    2.500    1.875    7.000    0.500 
#    4.500    2.500    0.000    0.000    0.000    0.000 
#    0.000    0.000    0.000    0.000    0.000    0.000 
#
# Total GULP energy -89394.176443 kJ/mol
# GULP energy per Si atom -5587.136028 kJ/mol
# Density = 2.532591 g / cm^3
# Si number density = 25.383683 Si / 1000 Ang^3
#
#
#
# Elastic Constant Matrix: (Units=GPa)
#
#
# Indices 1 2 3 4 5 6 
#
# 1 50.3393 24.7932 20.2138 -5.9313 0.2846 -3.6963
# 2 24.7932 198.8907 31.4988 4.8954 -3.5421 -4.8787
# 3 20.2138 31.4988 44.1820 -5.0625 -5.6204 -8.2256
# 4 -5.9313 4.8954 -5.0625 55.8865 -11.0779 8.2082
# 5 0.2846 -3.5421 -5.6204 -11.0779 19.4631 -9.3138
# 6 -3.6963 -4.8787 -8.2256 8.2082 -9.3138 32.1572
#
#
#
# Elastic Compliance Matrix: (Units=1/GPa)
#
#
# Indices 1 2 3 4 5 6 
#
# 1 0.025104 -0.001519 -0.011056 0.001262 -0.003894 -0.001623
# 2 -0.001519 0.005814 -0.003696 -0.001121 -0.000699 -0.000154
# 3 -0.011056 -0.003696 0.035058 0.004120 0.017262 0.011084
# 4 0.001262 -0.001121 0.004120 0.021108 0.012649 -0.000696
# 5 -0.003894 -0.000699 0.017262 0.012649 0.074061 0.022084
# 6 -0.001623 -0.000154 0.011084 -0.000696 0.022084 0.040296
#
#
# Mechanical properties :
#
#
# Convention : Reuss Voigt Hill
#
# Bulk Modulus (GPa) = 29.90831 49.60263 39.75547
# Shear Modulus (GPa) = 20.39748 35.96177 28.17962
#
# Velocity S-wave (km/s) = 2.83780 3.76803 3.33550
# Velocity P-wave (km/s) = 4.74822 6.20599 5.52539
#
# Compressibility (1/GPa) = 0.03343552
#
# Stress axis : x y z
#
# Youngs Moduli (GPa) = 39.83407 171.99991 28.52380
#
# Poissons Ratio (x) = 0.26123 0.31535
# Poissons Ratio (y) = 0.06050 0.10543
# Poissons Ratio (z) = 0.44039 0.63575
#
# Static dielectric constant tensor:
#      x y z
#    x 2.065100 0.054750 -0.052200 
#    y 0.054750 1.979260 0.122890 
#    z -0.052200 0.122890 2.154280 
# 
# From -- ./inp_files/399481.got.cif
#   From: 2010.05.17/outbox.cif.g08.bks.cpg/sg2_200_cif.got.tgz:399481.got - 2010.06.03 11:33:40.
