data_PCOD9108452
_publ_section_title
;
Structure prediction by ZEFSAII (Michael W. Deem and Ramdas Pophale) SiO2 
 PCOD9108452
Probable space group: P -1
;
_chemical_formula_sum "Si O2"
_cell_formula_units_Z 15
_cell_length_a 7.686817
_cell_length_b 12.035658
_cell_length_c 12.462376
_cell_angle_alpha 135.766800
_cell_angle_beta 80.201165
_cell_angle_gamma 121.835440
_cell_volume 639.935081
_symmetry_space_group_name_H-M "P -1"
_symmetry_group_IT_number 2
_symmetry_cell_setting 'triclinic'
loop_
_space_group_symop_operation_xyz
x,y,z
-x,-y,-z
loop_
_atom_site_type_symbol
_atom_site_label
_atom_site_fract_x
_atom_site_fract_y
_atom_site_fract_z
Si Si1 0.849485 0.667495 0.509642
Si Si2 0.000000 0.500000 0.500000
Si Si3 0.476226 0.234592 0.992852
Si Si4 0.809143 0.879431 0.263106
Si Si5 0.328490 0.008131 0.454661
Si Si6 0.080666 0.384745 0.854933
Si Si7 0.361815 0.321920 0.271639
Si Si8 0.500212 0.885460 0.731931
O O1 0.975589 0.569406 0.426313
O O2 0.602427 0.530857 0.398153
O O3 0.815230 0.656163 0.638532
O O4 0.991671 0.892084 0.615348
O O5 0.755283 0.290156 0.366791
O O6 0.367439 0.175263 0.846360
O O7 0.528144 0.079430 0.906554
O O8 0.698080 0.452126 0.114806
O O9 0.323024 0.237486 0.098810
O O10 0.874391 0.731287 0.144797
O O11 0.719877 0.860875 0.379718
O O12 0.106605 0.788201 0.318863
O O13 0.500000 0.000000 0.500000
O O14 0.407728 0.075124 0.371622
O O15 0.000000 0.500000 0.000000
O O16 0.382070 0.180413 0.250009
#
# Coordination Sequence:
#
# PCOD9108452 Si02
#       8
#     2   1   2   2   2   2   2   2
#     4  10  21  43  65  98 132 181 239 281 344 415
#     4  10  20  40  68  96 134 172 232 288 332 416
#     4  12  24  45  67 101 147 180 231 287 356 416
#     4  12  25  45  72 104 144 185 236 289 352 422
#     4  12  23  45  75 102 140 183 238 292 348 420
#     4  12  26  45  69 104 142 188 233 293 354 414
#     4  10  24  41  69  98 137 184 231 287 348 414
#     4  11  22  43  68 101 138 177 234 286 346 416
#
# _framework density 23.439878
#
# number of rings (size 3 to 8) (size 9 to 14) (size 15 to 20)
#    0.000    0.800    4.000    2.800    0.000    4.800 
#    0.000    2.667    0.000    0.000    0.000    0.000 
#    0.000    0.000    0.000    0.000    0.000    0.000 
#
# Total GULP energy -83732.213250 kJ/mol
# GULP energy per Si atom -5582.147550 kJ/mol
# Density = 2.338653 g / cm^3
# Si number density = 23.439878 Si / 1000 Ang^3
#
#
#
# Elastic Constant Matrix: (Units=GPa)
#
#
# Indices 1 2 3 4 5 6 
#
# 1 35.1332 4.0600 3.0756 14.1861 8.2656 -7.6674
# 2 4.0600 110.6302 39.2539 19.5727 -4.1862 4.0613
# 3 3.0756 39.2539 89.3039 -4.3467 -11.1103 3.8547
# 4 14.1861 19.5727 -4.3467 51.5161 5.2907 -13.0337
# 5 8.2656 -4.1862 -11.1103 5.2907 39.0379 7.4472
# 6 -7.6674 4.0613 3.8547 -13.0337 7.4472 29.1754
#
#
#
# Elastic Compliance Matrix: (Units=1/GPa)
#
#
# Indices 1 2 3 4 5 6 
#
# 1 0.035664 0.000431 -0.003291 -0.007056 -0.009191 0.008941
# 2 0.000431 0.012264 -0.005374 -0.006403 0.001342 -0.004087
# 3 -0.003291 -0.005374 0.014409 0.003351 0.004065 -0.001561
# 4 -0.007056 -0.006403 0.003351 0.027539 -0.004257 0.011984
# 5 -0.009191 0.001342 0.004065 -0.004257 0.031958 -0.013199
# 6 0.008941 -0.004087 -0.001561 0.011984 -0.013199 0.046123
#
#
# Mechanical properties :
#
#
# Convention : Reuss Voigt Hill
#
# Bulk Modulus (GPa) = 21.80035 36.42735 29.11385
# Shear Modulus (GPa) = 25.03585 36.52440 30.78013
#
# Velocity S-wave (km/s) = 3.27171 3.95171 3.62768
# Velocity P-wave (km/s) = 4.85724 6.03289 5.47671
#
# Compressibility (1/GPa) = 0.04587082
#
# Stress axis : x y z
#
# Youngs Moduli (GPa) = 28.03939 81.54142 69.39957
#
# Poissons Ratio (x) = -0.03516 0.22836
# Poissons Ratio (y) = -0.01209 0.37293
# Poissons Ratio (z) = 0.09227 0.43818
#
# Static dielectric constant tensor:
#      x y z
#    x 1.162420 0.124060 0.179520 
#    y 0.124060 1.915330 -0.082770 
#    z 0.179520 -0.082770 1.815290 
# 
# From -- ./inp_files/216187.got.cif
#   From: 2010.05.17/outbox.cif.g08.bks.cpg/sg2_109_cif.got.tgz:216187.got - 2010.06.03 11:33:40.
