data_PCOD9108031
_publ_section_title
;
Structure prediction by ZEFSAII (Michael W. Deem and Ramdas Pophale) SiO2 
 PCOD9108031
Probable space group: P -1
;
_chemical_formula_sum "Si O2"
_cell_formula_units_Z 14
_cell_length_a 12.306566
_cell_length_b 19.688219
_cell_length_c 13.795785
_cell_angle_alpha 26.251436
_cell_angle_beta 142.235891
_cell_angle_gamma 152.204760
_cell_volume 689.372650
_symmetry_space_group_name_H-M "P -1"
_symmetry_group_IT_number 2
_symmetry_cell_setting 'triclinic'
loop_
_space_group_symop_operation_xyz
x,y,z
-x,-y,-z
loop_
_atom_site_type_symbol
_atom_site_label
_atom_site_fract_x
_atom_site_fract_y
_atom_site_fract_z
Si Si1 0.680815 0.210240 0.411385
Si Si2 0.056596 0.208486 0.786451
Si Si3 0.451547 0.572116 0.472119
Si Si4 0.772609 0.943181 0.362796
Si Si5 0.586772 0.741844 0.682454
Si Si6 0.867402 0.690049 0.072108
Si Si7 0.080568 0.632870 0.130362
O O1 0.524485 0.212065 0.375362
O O2 0.873444 0.212401 0.595871
O O3 0.835168 0.422742 0.188413
O O4 0.500000 0.000000 0.500000
O O5 0.308225 0.390800 0.682761
O O6 0.026132 0.216039 0.869930
O O7 0.000000 0.000000 0.000000
O O8 0.500000 0.500000 0.500000
O O9 0.671212 0.780213 0.412893
O O10 0.276221 0.615819 0.272466
O O11 0.597838 0.831922 0.472684
O O12 0.000000 0.000000 0.500000
O O13 0.822102 0.149329 0.114209
O O14 0.397068 0.502602 0.841163
O O15 0.821824 0.799821 0.820497
O O16 0.007201 0.632802 0.190010
#
# Coordination Sequence:
#
# PCOD9108031 Si02
#       7
#     2   2   2   2   2   2   2
#     4  10  23  41  65  98 134 171 220 282 340 390
#     4  11  24  39  68  97 131 175 222 274 339 394
#     4  11  27  46  64  97 141 180 220 279 340 403
#     4  12  24  42  68 101 130 181 225 271 338 403
#     4  10  21  38  66  92 128 168 218 278 321 396
#     4  10  20  40  66  95 126 166 224 274 322 390
#     4  10  24  43  70  93 133 174 225 274 331 401
#
# _framework density 20.308319000000001
#
# number of rings (size 3 to 8) (size 9 to 14) (size 15 to 20)
#    0.000    1.429    2.857    1.286    4.000    6.286 
#    0.000    1.429    0.000    0.000    0.000    0.000 
#    0.000    0.000    0.000    0.000    0.000    0.000 
#
# Total GULP energy -77989.115428 kJ/mol
# GULP energy per Si atom -5570.651102 kJ/mol
# Density = 2.026210 g / cm^3
# Si number density = 20.308319 Si / 1000 Ang^3
#
#
#
# Elastic Constant Matrix: (Units=GPa)
#
#
# Indices 1 2 3 4 5 6 
#
# 1 116.7619 49.7947 47.2994 1.1226 14.4251 -8.4941
# 2 49.7947 134.1880 45.1967 -15.3792 4.8316 -20.4978
# 3 47.2994 45.1967 112.7440 -30.0374 0.3266 -11.7007
# 4 1.1226 -15.3792 -30.0374 33.0624 3.6432 2.3210
# 5 14.4251 4.8316 0.3266 3.6432 35.8213 2.0355
# 6 -8.4941 -20.4978 -11.7007 2.3210 2.0355 26.3117
#
#
#
# Elastic Compliance Matrix: (Units=1/GPa)
#
#
# Indices 1 2 3 4 5 6 
#
# 1 0.013012 -0.003532 -0.005927 -0.007012 -0.003981 -0.000260
# 2 -0.003532 0.010548 -0.001117 0.003647 -0.000720 0.006314
# 3 -0.005927 -0.001117 0.015757 0.013698 0.000833 0.002951
# 4 -0.007012 0.003647 0.013698 0.044696 -0.002505 0.002920
# 5 -0.003981 -0.000720 0.000833 -0.002505 0.030067 -0.003581
# 6 -0.000260 0.006314 0.002951 0.002920 -0.003581 0.044172
#
#
# Mechanical properties :
#
#
# Convention : Reuss Voigt Hill
#
# Bulk Modulus (GPa) = 55.05291 72.03061 63.54176
# Shear Modulus (GPa) = 26.95989 33.79928 30.37958
#
# Velocity S-wave (km/s) = 3.64748 4.08402 3.87191
# Velocity P-wave (km/s) = 6.70121 7.60161 7.16557
#
# Compressibility (1/GPa) = 0.01816434
#
# Stress axis : x y z
#
# Youngs Moduli (GPa) = 76.85155 94.80648 63.46279
#
# Poissons Ratio (x) = 0.33490 0.37612
# Poissons Ratio (y) = 0.27147 0.07091
# Poissons Ratio (z) = 0.45547 0.10593
#
# Static dielectric constant tensor:
#      x y z
#    x 1.748690 0.038460 -0.054220 
#    y 0.038460 1.826290 -0.029080 
#    z -0.054220 -0.029080 1.790980 
# 
# From -- ./inp_files/158988.got.cif
#   From: 2010.05.17/outbox.cif.g08.bks.cpg/sg2_80_cif.got.tgz:158988.got - 2010.06.03 11:33:40.
