data_PCOD9108887
_publ_section_title
;
Structure prediction by ZEFSAII (Michael W. Deem and Ramdas Pophale) SiO2 
 PCOD9108887
Probable space group: P -1
;
_chemical_formula_sum "Si O2"
_cell_formula_units_Z 14
_cell_length_a 9.574208
_cell_length_b 13.360763
_cell_length_c 9.829572
_cell_angle_alpha 120.263862
_cell_angle_beta 64.584157
_cell_angle_gamma 150.447046
_cell_volume 535.530277
_symmetry_space_group_name_H-M "P -1"
_symmetry_group_IT_number 2
_symmetry_cell_setting 'triclinic'
loop_
_space_group_symop_operation_xyz
x,y,z
-x,-y,-z
loop_
_atom_site_type_symbol
_atom_site_label
_atom_site_fract_x
_atom_site_fract_y
_atom_site_fract_z
Si Si1 0.398289 0.252755 0.110996
Si Si2 0.495953 0.060654 0.878116
Si Si3 0.172394 0.286214 0.439731
Si Si4 0.912979 0.594185 0.689738
Si Si5 0.676228 0.757755 0.177156
Si Si6 0.585550 0.181251 0.630893
Si Si7 0.025492 0.248280 0.776229
O O1 0.210897 0.198834 0.264895
O O2 0.719706 0.499490 0.154955
O O3 0.288236 0.216373 0.981242
O O4 0.408255 0.121571 0.032833
O O5 0.216656 0.816634 0.778090
O O6 0.648822 0.211039 0.783156
O O7 0.259641 0.871920 0.129197
O O8 0.500000 0.500000 0.500000
O O9 0.114503 0.358492 0.411422
O O10 0.003706 0.192411 0.589534
O O11 0.653943 0.482651 0.814432
O O12 0.173108 0.595534 0.392354
O O13 0.673832 0.890811 0.319362
O O14 0.862581 0.787932 0.206040
O O15 0.500000 0.000000 0.500000
#
# Coordination Sequence:
#
# PCOD9108887 Si02
#       7
#     2   2   2   2   2   2   2
#     4  10  20  43  77 105 150 213 256 304 373 474
#     4  11  25  41  74 113 155 199 249 321 388 447
#     4  10  20  40  75 113 152 200 259 314 376 457
#     4  10  22  43  75 112 148 200 259 308 389 458
#     4   9  20  43  78 105 145 202 263 304 376 467
#     4   9  21  44  72 104 144 200 251 308 375 460
#     4  11  22  42  76 115 157 197 251 325 383 446
#
# _framework density 26.142313000000001
#
# number of rings (size 3 to 8) (size 9 to 14) (size 15 to 20)
#    0.857    1.143    2.857    0.857    2.000    1.143 
#    0.000    1.429   12.571    6.000    0.000    1.000 
#    0.000    0.000    0.000    0.000    0.000    0.000 
#
# Total GULP energy -78354.293101 kJ/mol
# GULP energy per Si atom -5596.735222 kJ/mol
# Density = 2.608281 g / cm^3
# Si number density = 26.142313 Si / 1000 Ang^3
#
#
#
# Elastic Constant Matrix: (Units=GPa)
#
#
# Indices 1 2 3 4 5 6 
#
# 1 225.3771 108.6634 74.8007 10.7233 -18.3214 -15.4685
# 2 108.6634 168.6102 74.6596 -0.4596 -13.1802 -16.6903
# 3 74.8007 74.6596 160.7363 13.8451 -8.3329 -22.7203
# 4 10.7233 -0.4596 13.8451 49.6070 -6.5074 -6.0408
# 5 -18.3214 -13.1802 -8.3329 -6.5074 51.1646 3.7969
# 6 -15.4685 -16.6903 -22.7203 -6.0408 3.7969 48.2350
#
#
#
# Elastic Compliance Matrix: (Units=1/GPa)
#
#
# Indices 1 2 3 4 5 6 
#
# 1 0.006802 -0.003722 -0.001281 -0.000989 0.001137 0.000076
# 2 -0.003722 0.009729 -0.002757 0.001908 0.000889 0.001043
# 3 -0.001281 -0.002757 0.008598 -0.001873 -0.000190 0.002465
# 4 -0.000989 0.001908 -0.001873 0.021468 0.002417 0.001959
# 5 0.001137 0.000889 -0.000190 0.002417 0.020512 -0.000729
# 6 0.000076 0.001043 0.002465 0.001959 -0.000729 0.022581
#
#
# Mechanical properties :
#
#
# Convention : Reuss Voigt Hill
#
# Bulk Modulus (GPa) = 104.09657 118.99678 111.54668
# Shear Modulus (GPa) = 46.11939 49.57465 47.84702
#
# Velocity S-wave (km/s) = 4.20475 4.35942 4.28279
# Velocity P-wave (km/s) = 7.96737 8.42360 8.19866
#
# Compressibility (1/GPa) = 0.00960646
#
# Stress axis : x y z
#
# Youngs Moduli (GPa) = 147.02303 102.78900 116.29993
#
# Poissons Ratio (x) = 0.38261 0.14903
# Poissons Ratio (y) = 0.54727 0.32069
# Poissons Ratio (z) = 0.18839 0.28343
#
# Static dielectric constant tensor:
#      x y z
#    x 2.054540 0.062740 -0.038380 
#    y 0.062740 2.139240 0.064080 
#    z -0.038380 0.064080 2.133370 
# 
# From -- ./inp_files/270841.got.cif
#   From: 2010.05.17/outbox.cif.g08.bks.cpg/sg2_136_cif.got.tgz:270841.got - 2010.06.03 11:33:40.
