data_PCOD9108679
_publ_section_title
;
Structure prediction by ZEFSAII (Michael W. Deem and Ramdas Pophale) SiO2 
 PCOD9108679
Probable space group: P -1
;
_chemical_formula_sum "Si O2"
_cell_formula_units_Z 16
_cell_length_a 12.262512
_cell_length_b 6.585250
_cell_length_c 15.088525
_cell_angle_alpha 61.937260
_cell_angle_beta 43.115402
_cell_angle_gamma 78.040105
_cell_volume 715.873451
_symmetry_space_group_name_H-M "P -1"
_symmetry_group_IT_number 2
_symmetry_cell_setting 'triclinic'
loop_
_space_group_symop_operation_xyz
x,y,z
-x,-y,-z
loop_
_atom_site_type_symbol
_atom_site_label
_atom_site_fract_x
_atom_site_fract_y
_atom_site_fract_z
Si Si1 0.883891 0.173499 0.545165
Si Si2 0.290521 0.790289 0.542270
Si Si3 0.012300 0.965788 0.781252
Si Si4 0.148581 0.601314 0.259140
Si Si5 0.149958 0.275887 0.803097
Si Si6 0.409988 0.850214 0.164622
Si Si7 0.600495 0.968957 0.210777
Si Si8 0.832070 0.456354 0.950526
O O1 0.787946 0.212232 0.506807
O O2 0.007097 0.421875 0.429506
O O3 0.748181 0.071911 0.718485
O O4 0.000000 0.000000 0.500000
O O5 0.263185 0.522343 0.648768
O O6 0.173028 0.920202 0.643026
O O7 0.478524 0.907379 0.380978
O O8 0.087870 0.081527 0.804157
O O9 0.918417 0.159407 0.759762
O O10 0.876484 0.718620 0.910565
O O11 0.162964 0.523018 0.164390
O O12 0.313537 0.617497 0.215972
O O13 0.985210 0.351788 0.914400
O O14 0.252182 0.160959 0.834667
O O15 0.521727 0.872711 0.181623
O O16 0.500000 0.000000 0.000000
O O17 0.671248 0.252553 0.107587
#
# Coordination Sequence:
#
# PCOD9108679 Si02
#       8
#     2   2   2   2   2   2   2   2
#     4  11  22  42  73  98 128 177 226 267 324 409
#     4  10  21  41  65 100 133 164 216 279 330 384
#     4  10  20  40  70  91 125 174 222 266 324 388
#     4  11  21  44  68  95 126 177 219 268 320 403
#     4  10  21  41  71  91 128 175 221 270 321 397
#     4  11  24  41  66  98 136 173 216 273 344 382
#     4  11  23  41  63  97 136 171 214 272 339 387
#     4  10  21  41  68  92 130 169 223 269 322 390
#
# _framework density 22.350321000000001
#
# number of rings (size 3 to 8) (size 9 to 14) (size 15 to 20)
#    0.000    1.500    5.000    1.875    0.000    1.000 
#    0.000    8.750    5.500    0.000    0.000    0.000 
#    0.000    0.000    0.000    0.000    0.000    0.000 
#
# Total GULP energy -89185.579383 kJ/mol
# GULP energy per Si atom -5574.098711 kJ/mol
# Density = 2.229945 g / cm^3
# Si number density = 22.350321 Si / 1000 Ang^3
#
#
#
# Elastic Constant Matrix: (Units=GPa)
#
#
# Indices 1 2 3 4 5 6 
#
# 1 160.0924 101.0592 -37.3189 51.0101 -11.6889 -39.6980
# 2 101.0592 220.2161 -71.7306 100.2715 -11.5006 -96.6229
# 3 -37.3189 -71.7306 245.6853 -136.8714 15.8030 99.5555
# 4 51.0101 100.2715 -136.8714 153.6006 -16.1139 -110.1103
# 5 -11.6889 -11.5006 15.8030 -16.1139 28.2694 11.1385
# 6 -39.6980 -96.6229 99.5555 -110.1103 11.1385 106.2416
#
#
#
# Elastic Compliance Matrix: (Units=1/GPa)
#
#
# Indices 1 2 3 4 5 6 
#
# 1 0.009115 -0.004458 0.000047 -0.001996 0.001960 -0.002967
# 2 -0.004458 0.009912 -0.001212 -0.000010 -0.000499 0.008525
# 3 0.000047 -0.001212 0.008276 0.006996 -0.000507 -0.001536
# 4 -0.001996 -0.000010 0.006996 0.032202 0.003490 0.025698
# 5 0.001960 -0.000499 -0.000507 0.003490 0.038106 0.000376
# 6 -0.002967 0.008525 -0.001536 0.025698 0.000376 0.044090
#
#
# Mechanical properties :
#
#
# Convention : Reuss Voigt Hill
#
# Bulk Modulus (GPa) = 62.27831 67.77924 65.02878
# Shear Modulus (GPa) = 31.58590 99.88791 65.73690
#
# Velocity S-wave (km/s) = 3.76336 6.69246 5.42917
# Velocity P-wave (km/s) = 6.84171 9.49264 8.27403
#
# Compressibility (1/GPa) = 0.01605695
#
# Stress axis : x y z
#
# Youngs Moduli (GPa) = 109.70874 100.89283 120.83252
#
# Poissons Ratio (x) = 0.44981 -0.00570
# Poissons Ratio (y) = 0.48911 0.14641
# Poissons Ratio (z) = -0.00517 0.12225
#
# Static dielectric constant tensor:
#      x y z
#    x 1.831370 0.081010 -0.080280 
#    y 0.081010 1.807800 0.082270 
#    z -0.080280 0.082270 1.847540 
# 
# From -- ./inp_files/510808.got.cif
#   From: 2010.05.17/outbox.cif.g08.bks.cpg/sg2_256_cif.got.tgz:510808.got - 2010.06.03 11:33:40.
