data_PCOD9108174
_publ_section_title
;
Structure prediction by ZEFSAII (Michael W. Deem and Ramdas Pophale) SiO2 
 PCOD9108174
Probable space group: P -1
;
_chemical_formula_sum "Si O2"
_cell_formula_units_Z 16
_cell_length_a 19.371184
_cell_length_b 21.848552
_cell_length_c 8.891584
_cell_angle_alpha 135.525159
_cell_angle_beta 136.387559
_cell_angle_gamma 17.731056
_cell_volume 785.394994
_symmetry_space_group_name_H-M "P -1"
_symmetry_group_IT_number 2
_symmetry_cell_setting 'triclinic'
loop_
_space_group_symop_operation_xyz
x,y,z
-x,-y,-z
loop_
_atom_site_type_symbol
_atom_site_label
_atom_site_fract_x
_atom_site_fract_y
_atom_site_fract_z
Si Si1 0.359564 0.403960 0.106627
Si Si2 0.270794 0.264979 0.009659
Si Si3 0.234718 0.868305 0.504526
Si Si4 0.910200 0.759723 0.171463
Si Si5 0.249440 0.681700 0.347966
Si Si6 0.462764 0.171073 0.637720
Si Si7 0.386437 0.876224 0.520474
Si Si8 0.356924 0.065843 0.223708
O O1 0.605934 0.225167 0.265527
O O2 0.269950 0.561162 0.154213
O O3 0.177902 0.529365 0.174075
O O4 0.353647 0.326895 0.851413
O O5 0.420533 0.219789 0.252405
O O6 0.255274 0.185861 0.934332
O O7 0.393346 0.148898 0.839394
O O8 0.000000 0.500000 0.000000
O O9 0.231362 0.765567 0.330392
O O10 0.351162 0.812519 0.437807
O O11 0.976386 0.111396 0.547782
O O12 0.855115 0.884211 0.406901
O O13 0.819006 0.843460 0.005071
O O14 0.500000 0.500000 0.500000
O O15 0.555387 0.154125 0.614284
O O16 0.646240 0.974456 0.687810
O O17 0.315176 0.203229 0.404784
#
# Coordination Sequence:
#
# PCOD9108174 Si02
#       8
#     2   2   2   2   2   2   2   2
#     4  11  22  37  63  94 118 156 200 242 300 357
#     4  11  20  35  55  83 116 162 210 248 279 344
#     4  10  20  40  67  90 117 150 196 251 299 355
#     4  11  19  37  59  82 117 162 211 240 275 346
#     4   9  20  39  68  95 112 143 201 250 299 358
#     4  11  22  37  53  85 125 161 198 242 300 344
#     4  11  20  38  58  84 118 159 199 245 291 344
#     4  10  21  38  53  77 125 171 202 241 291 339
#
# _framework density 20.371914
#
# number of rings (size 3 to 8) (size 9 to 14) (size 15 to 20)
#    0.000    1.500    3.750    3.750    0.000    0.500 
#    4.500    0.625    0.000    6.750    0.000    0.000 
#    0.000    0.000    0.000    0.000    0.000    0.000 
#
# Total GULP energy -89103.965079 kJ/mol
# GULP energy per Si atom -5568.997817 kJ/mol
# Density = 2.032555 g / cm^3
# Si number density = 20.371914 Si / 1000 Ang^3
#
#
#
# Elastic Constant Matrix: (Units=GPa)
#
#
# Indices 1 2 3 4 5 6 
#
# 1 163.8097 22.5293 15.2770 8.7703 12.6382 9.9790
# 2 22.5293 108.3127 23.5933 7.6054 6.1094 -9.1600
# 3 15.2770 23.5933 39.2456 20.4142 0.4134 -1.7243
# 4 8.7703 7.6054 20.4142 21.3007 7.1036 7.7298
# 5 12.6382 6.1094 0.4134 7.1036 30.8275 0.9319
# 6 9.9790 -9.1600 -1.7243 7.7298 0.9319 29.5543
#
#
#
# Elastic Compliance Matrix: (Units=1/GPa)
#
#
# Indices 1 2 3 4 5 6 
#
# 1 0.006933 -0.000879 -0.004684 0.004569 -0.003538 -0.003970
# 2 -0.000879 0.011380 -0.009214 0.005448 -0.003086 0.001958
# 3 -0.004684 -0.009214 0.079013 -0.087057 0.021979 0.025412
# 4 0.004569 0.005448 -0.087057 0.154642 -0.036082 -0.044241
# 5 -0.003538 -0.003086 0.021979 -0.036082 0.042229 0.009626
# 6 -0.003970 0.001958 0.025412 -0.044241 0.009626 0.048534
#
#
# Mechanical properties :
#
#
# Convention : Reuss Voigt Hill
#
# Bulk Modulus (GPa) = 14.75578 48.24079 31.49829
# Shear Modulus (GPa) = 12.66225 33.00107 22.83166
#
# Velocity S-wave (km/s) = 2.49580 4.02920 3.35138
# Velocity P-wave (km/s) = 3.94516 6.73628 5.52004
#
# Compressibility (1/GPa) = 0.06777006
#
# Stress axis : x y z
#
# Youngs Moduli (GPa) = 144.24796 87.87683 12.65621
#
# Poissons Ratio (x) = 0.07721 0.05928
# Poissons Ratio (y) = 0.12674 0.11662
# Poissons Ratio (z) = 0.67569 0.80973
#
# Static dielectric constant tensor:
#      x y z
#    x 1.843280 0.052480 0.034420 
#    y 0.052480 1.797550 0.011130 
#    z 0.034420 0.011130 1.723260 
# 
# From -- ./inp_files/338151.got.cif
#   From: 2010.05.17/outbox.cif.g08.bks.cpg/sg2_170_cif.got.tgz:338151.got - 2010.06.03 11:33:40.
