data_PCOD9108911
_publ_section_title
;
Structure prediction by ZEFSAII (Michael W. Deem and Ramdas Pophale) SiO2 
 PCOD9108911
Probable space group: P -1
;
_chemical_formula_sum "Si O2"
_cell_formula_units_Z 16
_cell_length_a 20.969270
_cell_length_b 16.015463
_cell_length_c 8.622486
_cell_angle_alpha 146.875565
_cell_angle_beta 40.793588
_cell_angle_gamma 152.270421
_cell_volume 734.867217
_symmetry_space_group_name_H-M "P -1"
_symmetry_group_IT_number 2
_symmetry_cell_setting 'triclinic'
loop_
_space_group_symop_operation_xyz
x,y,z
-x,-y,-z
loop_
_atom_site_type_symbol
_atom_site_label
_atom_site_fract_x
_atom_site_fract_y
_atom_site_fract_z
Si Si1 0.725962 0.078825 0.984432
Si Si2 0.003879 0.967479 0.757200
Si Si3 0.639249 0.246209 0.586823
Si Si4 0.706562 0.809625 0.388440
Si Si5 0.472667 0.343979 0.100349
Si Si6 0.972694 0.611892 0.106193
Si Si7 0.848487 0.359921 0.632483
Si Si8 0.232761 0.081092 0.905751
O O1 0.722464 0.005795 0.706557
O O2 0.610966 0.853701 0.933953
O O3 0.876862 0.205003 0.965819
O O4 0.699442 0.226348 0.295056
O O5 0.947769 0.739381 0.449701
O O6 0.165433 0.136711 0.683637
O O7 0.909982 0.996080 0.903308
O O8 0.000000 0.000000 0.000000
O O9 0.750975 0.348931 0.678151
O O10 0.500000 0.000000 0.500000
O O11 0.588209 0.360760 0.837973
O O12 0.563017 0.585835 0.360187
O O13 0.726681 0.818525 0.183308
O O14 0.355659 0.264232 0.074343
O O15 0.000000 0.500000 0.000000
O O16 0.869231 0.455942 0.914928
O O17 0.000000 0.500000 0.500000
O O18 0.782192 0.118007 0.383022
#
# Coordination Sequence:
#
# PCOD9108911 Si02
#       8
#     2   2   2   2   2   2   2   2
#     4  10  20  41  58  89 123 156 203 257 301 365
#     4   9  21  40  61  92 126 158 201 260 315 366
#     4  10  21  41  62  85 127 166 211 248 311 363
#     4  10  22  39  64  88 118 164 203 256 319 363
#     4  11  22  41  63  84 123 170 206 251 308 375
#     4  11  22  40  67  98 126 162 209 260 316 373
#     4  12  22  40  67  92 124 169 208 261 313 370
#     4  11  22  42  61  91 128 157 209 262 312 368
#
# _framework density 21.772639999999999
#
# number of rings (size 3 to 8) (size 9 to 14) (size 15 to 20)
#    0.000    1.500    3.750    3.000    1.750    2.000 
#    6.750    2.500    0.000    0.000    0.000    0.000 
#    0.000    0.000    0.000    0.000    0.000    0.000 
#
# Total GULP energy -89233.767045 kJ/mol
# GULP energy per Si atom -5577.110440 kJ/mol
# Density = 2.172308 g / cm^3
# Si number density = 21.772640 Si / 1000 Ang^3
#
#
#
# Elastic Constant Matrix: (Units=GPa)
#
#
# Indices 1 2 3 4 5 6 
#
# 1 64.6687 23.0650 20.3884 1.2241 2.6419 28.5843
# 2 23.0650 84.9032 8.4486 13.6157 12.3818 18.6796
# 3 20.3884 8.4486 118.4249 7.4997 11.7202 17.3123
# 4 1.2241 13.6157 7.4997 31.0631 4.9290 1.7660
# 5 2.6419 12.3818 11.7202 4.9290 22.7835 4.6253
# 6 28.5843 18.6796 17.3123 1.7660 4.6253 36.1887
#
#
#
# Elastic Compliance Matrix: (Units=1/GPa)
#
#
# Indices 1 2 3 4 5 6 
#
# 1 0.024817 -0.003421 -0.001890 0.001464 0.003171 -0.017409
# 2 -0.003421 0.015479 0.001173 -0.005642 -0.006434 -0.004751
# 3 -0.001890 0.001173 0.009692 -0.001911 -0.004361 -0.003098
# 4 0.001464 -0.005642 -0.001911 0.035641 -0.004127 0.001458
# 5 0.003171 -0.006434 -0.004361 -0.004127 0.050846 -0.003394
# 6 -0.017409 -0.004751 -0.003098 0.001458 -0.003394 0.045681
#
#
# Mechanical properties :
#
#
# Convention : Reuss Voigt Hill
#
# Bulk Modulus (GPa) = 23.97368 41.31119 32.64244
# Shear Modulus (GPa) = 24.46952 32.41339 28.44145
#
# Velocity S-wave (km/s) = 3.35605 3.86258 3.61819
# Velocity P-wave (km/s) = 5.10414 6.23761 5.69912
#
# Compressibility (1/GPa) = 0.04171241
#
# Stress axis : x y z
#
# Youngs Moduli (GPa) = 40.29464 64.60278 103.18316
#
# Poissons Ratio (x) = 0.22100 0.19503
# Poissons Ratio (y) = 0.13785 -0.12107
# Poissons Ratio (z) = 0.07616 -0.07580
#
# Static dielectric constant tensor:
#      x y z
#    x 1.781600 -0.016490 0.013300 
#    y -0.016490 1.825560 -0.018730 
#    z 0.013300 -0.018730 1.864860 
# 
# From -- ./inp_files/348987.got.cif
#   From: 2010.05.17/outbox.cif.g08.bks.cpg/sg2_175_cif.got.tgz:348987.got - 2010.06.03 11:33:40.
