data_PCOD9108412
_publ_section_title
;
Structure prediction by ZEFSAII (Michael W. Deem and Ramdas Pophale) SiO2 
 PCOD9108412
Probable space group: P -1
;
_chemical_formula_sum "Si O2"
_cell_formula_units_Z 16
_cell_length_a 8.818079
_cell_length_b 14.387183
_cell_length_c 8.198198
_cell_angle_alpha 69.222377
_cell_angle_beta 47.374003
_cell_angle_gamma 60.577696
_cell_volume 666.183421
_symmetry_space_group_name_H-M "P -1"
_symmetry_group_IT_number 2
_symmetry_cell_setting 'triclinic'
loop_
_space_group_symop_operation_xyz
x,y,z
-x,-y,-z
loop_
_atom_site_type_symbol
_atom_site_label
_atom_site_fract_x
_atom_site_fract_y
_atom_site_fract_z
Si Si1 0.676364 0.236078 0.948720
Si Si2 0.116943 0.821133 0.498715
Si Si3 0.116134 0.966228 0.669378
Si Si4 0.287237 0.289824 0.690998
Si Si5 0.149848 0.094225 0.842223
Si Si6 0.485524 0.414476 0.242557
Si Si7 0.838086 0.489993 0.848913
Si Si8 0.232079 0.281774 0.113522
O O1 0.743232 0.249367 0.706634
O O2 0.898973 0.156485 0.918667
O O3 0.603213 0.337974 0.053443
O O4 0.448175 0.214173 0.106232
O O5 0.230390 0.864063 0.534890
O O6 0.957889 0.766062 0.718937
O O7 0.966031 0.930507 0.450041
O O8 0.903465 0.947771 0.918825
O O9 0.243857 0.997706 0.704727
O O10 0.448111 0.339727 0.453958
O O11 0.270310 0.178707 0.710117
O O12 0.048403 0.383105 0.774459
O O13 0.310667 0.282317 0.871848
O O14 0.257741 0.489904 0.278219
O O15 0.649710 0.476417 0.114753
O O16 0.865298 0.598446 0.818945
#
# Coordination Sequence:
#
# PCOD9108412 Si02
#       8
#     2   2   2   2   2   2   2   2
#     4  10  23  39  64  93 127 167 205 257 313 368
#     4  10  21  43  68  90 131 168 204 262 320 370
#     4   9  20  39  69  92 122 169 210 259 318 370
#     4  12  23  40  68  94 129 167 210 257 312 377
#     4  10  20  40  68  94 125 165 211 260 315 372
#     4  10  23  40  64  95 130 163 212 259 304 376
#     4  10  23  41  61  95 130 167 208 254 314 375
#     4  11  25  40  65  98 129 164 212 255 314 382
#
# _framework density 24.017410000000002
#
# number of rings (size 3 to 8) (size 9 to 14) (size 15 to 20)
#    0.000    1.750    2.500    0.750    7.000    5.500 
#    0.000    6.250    2.750    0.000    0.000    0.000 
#    0.000    0.000    0.000    0.000    0.000    0.000 
#
# Total GULP energy -89372.911808 kJ/mol
# GULP energy per Si atom -5585.806988 kJ/mol
# Density = 2.396274 g / cm^3
# Si number density = 24.017410 Si / 1000 Ang^3
#
#
#
# Elastic Constant Matrix: (Units=GPa)
#
#
# Indices 1 2 3 4 5 6 
#
# 1 36.4822 33.1679 -0.0154 -4.3445 -1.1972 -3.3018
# 2 33.1679 71.3472 48.1284 -20.5252 0.3852 16.0892
# 3 -0.0154 48.1284 96.6502 -24.4625 13.2419 5.3367
# 4 -4.3445 -20.5252 -24.4625 45.5281 3.8011 4.7186
# 5 -1.1972 0.3852 13.2419 3.8011 31.8882 3.6762
# 6 -3.3018 16.0892 5.3367 4.7186 3.6762 33.7903
#
#
#
# Elastic Compliance Matrix: (Units=1/GPa)
#
#
# Indices 1 2 3 4 5 6 
#
# 1 0.157251 -0.138577 0.063384 -0.019257 -0.025299 0.076780
# 2 -0.138577 0.148511 -0.067361 0.023529 0.027380 -0.079880
# 3 0.063384 -0.067361 0.043913 -0.002667 -0.018612 0.033729
# 4 -0.019257 0.023529 -0.002667 0.031186 -0.001676 -0.016836
# 5 -0.025299 0.027380 -0.018612 -0.001676 0.039931 -0.016679
# 6 0.076780 -0.079880 0.033729 -0.016836 -0.016679 0.073970
#
#
# Mechanical properties :
#
#
# Convention : Reuss Voigt Hill
#
# Bulk Modulus (GPa) = 15.48779 40.78239 28.13509
# Shear Modulus (GPa) = 6.23915 30.45457 18.34686
#
# Velocity S-wave (km/s) = 1.61351 3.56479 2.76687
# Velocity P-wave (km/s) = 3.15179 5.82759 4.68480
#
# Compressibility (1/GPa) = 0.06456699
#
# Stress axis : x y z
#
# Youngs Moduli (GPa) = 6.35928 6.73349 22.77245
#
# Poissons Ratio (x) = 0.93311 -1.44341
# Poissons Ratio (y) = 0.88125 1.53397
# Poissons Ratio (z) = -0.40308 0.45357
#
# Static dielectric constant tensor:
#      x y z
#    x 1.956320 -0.028110 -0.019470 
#    y -0.028110 1.932100 0.031370 
#    z -0.019470 0.031370 1.935320 
# 
# From -- ./inp_files/206130.got.cif
#   From: 2010.05.17/outbox.cif.g08.bks.cpg/sg2_104_cif.got.tgz:206130.got - 2010.06.03 11:33:40.
