data_PCOD9108837
_publ_section_title
;
Structure prediction by ZEFSAII (Michael W. Deem and Ramdas Pophale) SiO2 
 PCOD9108837
Probable space group: P -1
;
_chemical_formula_sum "Si O2"
_cell_formula_units_Z 13
_cell_length_a 12.902043
_cell_length_b 9.138018
_cell_length_c 11.444277
_cell_angle_alpha 51.087069
_cell_angle_beta 144.674592
_cell_angle_gamma 112.635455
_cell_volume 582.120772
_symmetry_space_group_name_H-M "P -1"
_symmetry_group_IT_number 2
_symmetry_cell_setting 'triclinic'
loop_
_space_group_symop_operation_xyz
x,y,z
-x,-y,-z
loop_
_atom_site_type_symbol
_atom_site_label
_atom_site_fract_x
_atom_site_fract_y
_atom_site_fract_z
Si Si1 0.042410 0.492911 0.179527
Si Si2 0.500000 0.000000 0.500000
Si Si3 0.204911 0.143573 0.682564
Si Si4 0.306492 0.388063 0.030753
Si Si5 0.852552 0.297534 0.444083
Si Si6 0.171537 0.803413 0.265859
Si Si7 0.420428 0.761925 0.949058
O O1 0.137827 0.285161 0.436082
O O2 0.161637 0.643895 0.240744
O O3 0.000000 0.500000 0.000000
O O4 0.846758 0.578485 0.024507
O O5 0.399795 0.160811 0.227575
O O6 0.639729 0.135174 0.591195
O O7 0.036684 0.183549 0.599782
O O8 0.276120 0.917848 0.820753
O O9 0.383657 0.195451 0.876097
O O10 0.430360 0.536651 0.098501
O O11 0.204661 0.482826 0.770749
O O12 0.861850 0.286391 0.595115
O O13 0.683313 0.214116 0.283859
O O14 0.000000 0.000000 0.000000
#
# Coordination Sequence:
#
# PCOD9108837 Si02
#       7
#     2   1   2   2   2   2   2
#     4  11  25  45  72 101 146 189 234 292 359 423
#     4  12  24  48  68 106 148 176 242 294 352 430
#     4  10  20  40  73 100 140 187 234 292 348 426
#     4   9  22  43  70  99 139 183 229 291 350 414
#     4   9  23  42  69 100 141 175 242 291 345 421
#     4  12  27  46  70 106 144 188 236 291 363 419
#     4   9  20  40  67 109 134 180 240 285 356 409
#
# _framework density 22.332138
#
# number of rings (size 3 to 8) (size 9 to 14) (size 15 to 20)
#    0.923    0.923    1.538    1.385    2.154    4.308 
#    0.000    6.154    0.000    0.000    0.000    0.000 
#    0.000    0.000    0.000    0.000    0.000    0.000 
#
# Total GULP energy -72392.817758 kJ/mol
# GULP energy per Si atom -5568.678289 kJ/mol
# Density = 2.228131 g / cm^3
# Si number density = 22.332138 Si / 1000 Ang^3
#
#
#
# Elastic Constant Matrix: (Units=GPa)
#
#
# Indices 1 2 3 4 5 6 
#
# 1 98.3580 58.2305 55.9835 4.7211 -19.1935 -0.3374
# 2 58.2305 117.0873 36.7498 3.1763 -20.3317 11.9249
# 3 55.9835 36.7498 93.0252 10.7592 -17.2799 -3.8013
# 4 4.7211 3.1763 10.7592 51.3938 0.4127 0.4136
# 5 -19.1935 -20.3317 -17.2799 0.4127 26.4317 8.9413
# 6 -0.3374 11.9249 -3.8013 0.4136 8.9413 28.8280
#
#
#
# Elastic Compliance Matrix: (Units=1/GPa)
#
#
# Indices 1 2 3 4 5 6 
#
# 1 0.019556 -0.006553 -0.008582 0.000373 0.003277 0.000786
# 2 -0.006553 0.014417 -0.000405 -0.000206 0.009083 -0.008908
# 3 -0.008582 -0.000405 0.017272 -0.002846 0.004453 0.001004
# 4 0.000373 -0.000206 -0.002846 0.020048 -0.002086 0.000074
# 5 0.003277 0.009083 0.004453 -0.002086 0.057194 -0.020841
# 6 0.000786 -0.008908 0.001004 0.000074 -0.020841 0.044978
#
#
# Mechanical properties :
#
#
# Convention : Reuss Voigt Hill
#
# Bulk Modulus (GPa) = 49.59208 67.82202 58.70705
# Shear Modulus (GPa) = 23.66693 31.83115 27.74904
#
# Velocity S-wave (km/s) = 3.25894 3.77948 3.52882
# Velocity P-wave (km/s) = 6.03455 7.03431 6.55352
#
# Compressibility (1/GPa) = 0.02016451
#
# Stress axis : x y z
#
# Youngs Moduli (GPa) = 51.13607 69.36443 57.89736
#
# Poissons Ratio (x) = 0.45454 0.49689
# Poissons Ratio (y) = 0.33509 0.02343
# Poissons Ratio (z) = 0.43886 0.02807
#
# Static dielectric constant tensor:
#      x y z
#    x 1.797250 -0.003750 0.050190 
#    y -0.003750 1.837740 0.004860 
#    z 0.050190 0.004860 1.868510 
# 
# From -- ./inp_files/395041.got.cif
#   From: 2010.05.17/outbox.cif.g08.bks.cpg/sg2_198_cif.got.tgz:395041.got - 2010.06.03 11:33:40.
