data_PCOD9108937
_publ_section_title
;
Structure prediction by ZEFSAII (Michael W. Deem and Ramdas Pophale) SiO2 
 PCOD9108937
Probable space group: P -1
;
_chemical_formula_sum "Si O2"
_cell_formula_units_Z 15
_cell_length_a 9.079222
_cell_length_b 11.040658
_cell_length_c 11.532148
_cell_angle_alpha 53.225397
_cell_angle_beta 137.550678
_cell_angle_gamma 120.450906
_cell_volume 620.412876
_symmetry_space_group_name_H-M "P -1"
_symmetry_group_IT_number 2
_symmetry_cell_setting 'triclinic'
loop_
_space_group_symop_operation_xyz
x,y,z
-x,-y,-z
loop_
_atom_site_type_symbol
_atom_site_label
_atom_site_fract_x
_atom_site_fract_y
_atom_site_fract_z
Si Si1 0.767993 0.495451 0.431501
Si Si2 0.219526 0.109668 0.421964
Si Si3 0.173756 0.819017 0.726034
Si Si4 0.556672 0.280711 0.862861
Si Si5 0.897889 0.794999 0.937622
Si Si6 0.000000 0.500000 0.000000
Si Si7 0.449380 0.651862 0.824130
Si Si8 0.671970 0.240120 0.693591
O O1 0.674644 0.657622 0.283855
O O2 0.612348 0.384308 0.321749
O O3 0.744174 0.411688 0.589769
O O4 0.000000 0.500000 0.500000
O O5 0.128982 0.091055 0.250080
O O6 0.476385 0.163077 0.544380
O O7 0.062722 0.225039 0.325164
O O8 0.178952 0.963818 0.563741
O O9 0.242953 0.695331 0.750046
O O10 0.356093 0.832774 0.926881
O O11 0.564317 0.229079 0.764970
O O12 0.745148 0.424838 0.899120
O O13 0.668274 0.769899 0.886536
O O14 0.944781 0.637342 0.988560
O O15 0.104240 0.834683 0.118845
O O16 0.500000 0.500000 0.000000
#
# Coordination Sequence:
#
# PCOD9108937 Si02
#       8
#     2   2   2   2   2   1   2   2
#     4  12  25  40  63 105 140 166 220 277 343 404
#     4  11  24  48  67  96 133 181 237 265 322 401
#     4  11  25  44  70  97 131 181 226 276 328 395
#     4  11  22  41  67  98 134 176 216 278 335 394
#     4  11  22  42  68  95 136 178 219 273 335 395
#     4  10  16  36  66  90 126 170 216 256 336 388
#     4  12  23  43  69  96 138 173 211 282 348 389
#     4  11  24  42  68  97 132 178 224 272 328 403
#
# _framework density 24.177447999999998
#
# number of rings (size 3 to 8) (size 9 to 14) (size 15 to 20)
#    0.000    0.800    6.667    1.200    1.867    3.200 
#    0.000    0.667    0.000    0.000    0.000    0.000 
#    0.000    0.000    0.000    0.000    0.000    0.000 
#
# Total GULP energy -83588.768414 kJ/mol
# GULP energy per Si atom -5572.584561 kJ/mol
# Density = 2.412242 g / cm^3
# Si number density = 24.177448 Si / 1000 Ang^3
#
#
#
# Elastic Constant Matrix: (Units=GPa)
#
#
# Indices 1 2 3 4 5 6 
#
# 1 54.5190 2.5239 28.6325 -11.5091 -4.3738 19.3485
# 2 2.5239 15.0504 14.1161 0.4727 3.4070 13.6423
# 3 28.6325 14.1161 154.3492 -1.5276 -10.7373 18.3130
# 4 -11.5091 0.4727 -1.5276 23.6332 11.2292 1.2726
# 5 -4.3738 3.4070 -10.7373 11.2292 50.4942 3.4507
# 6 19.3485 13.6423 18.3130 1.2726 3.4507 33.4639
#
#
#
# Elastic Compliance Matrix: (Units=1/GPa)
#
#
# Indices 1 2 3 4 5 6 
#
# 1 0.032559 0.022383 -0.004997 0.017350 -0.001856 -0.025684
# 2 0.022383 0.126084 -0.009057 0.014641 -0.007708 -0.059148
# 3 -0.004997 -0.009057 0.008138 -0.002992 0.002438 0.001990
# 4 0.017350 0.014641 -0.002992 0.056647 -0.011672 -0.015314
# 5 -0.001856 -0.007708 0.002438 -0.011672 0.023214 0.000931
# 6 -0.025684 -0.059148 0.001990 -0.015314 0.000931 0.068243
#
#
# Mechanical properties :
#
#
# Convention : Reuss Voigt Hill
#
# Bulk Modulus (GPa) = 5.45138 34.94041 20.19590
# Shear Modulus (GPa) = 13.91309 33.42799 23.67054
#
# Velocity S-wave (km/s) = 2.40147 3.72238 3.13235
# Velocity P-wave (km/s) = 3.15421 5.74089 4.63179
#
# Compressibility (1/GPa) = 0.18343967
#
# Stress axis : x y z
#
# Youngs Moduli (GPa) = 30.71305 7.93124 122.88130
#
# Poissons Ratio (x) = -0.17753 0.61404
# Poissons Ratio (y) = -0.68746 1.11292
# Poissons Ratio (z) = 0.15347 0.07183
#
# Static dielectric constant tensor:
#      x y z
#    x 1.942410 0.029960 -0.045200 
#    y 0.029960 1.928650 0.090200 
#    z -0.045200 0.090200 1.829490 
# 
# From -- ./inp_files/395563.got.cif
#   From: 2010.05.17/outbox.cif.g08.bks.cpg/sg2_198_cif.got.tgz:395563.got - 2010.06.03 11:33:40.
