data_PCOD9108284
_publ_section_title
;
Structure prediction by ZEFSAII (Michael W. Deem and Ramdas Pophale) SiO2 
 PCOD9108284
Probable space group: P -1
;
_chemical_formula_sum "Si O2"
_cell_formula_units_Z 11
_cell_length_a 9.596789
_cell_length_b 10.995378
_cell_length_c 8.355882
_cell_angle_alpha 72.108948
_cell_angle_beta 31.315158
_cell_angle_gamma 70.497733
_cell_volume 431.540043
_symmetry_space_group_name_H-M "P -1"
_symmetry_group_IT_number 2
_symmetry_cell_setting 'triclinic'
loop_
_space_group_symop_operation_xyz
x,y,z
-x,-y,-z
loop_
_atom_site_type_symbol
_atom_site_label
_atom_site_fract_x
_atom_site_fract_y
_atom_site_fract_z
Si Si1 0.478031 0.235254 0.657960
Si Si2 0.043186 0.434612 0.159301
Si Si3 0.678393 0.799931 0.680412
Si Si4 0.505761 0.575245 0.736007
Si Si5 0.500000 0.000000 0.500000
Si Si6 0.161702 0.857863 0.377944
O O1 0.238374 0.303218 0.978083
O O2 0.523085 0.336238 0.432619
O O3 0.422118 0.105910 0.678095
O O4 0.742872 0.197964 0.520755
O O5 0.226884 0.519261 0.048756
O O6 0.000000 0.500000 0.000000
O O7 0.746487 0.457826 0.517846
O O8 0.591174 0.668179 0.750883
O O9 0.966462 0.783293 0.491509
O O10 0.676140 0.898802 0.495045
O O11 0.439413 0.859445 0.008718
O O12 0.000000 0.000000 0.500000
#
# Coordination Sequence:
#
# PCOD9108284 Si02
#       6
#     2   2   2   2   1   2
#     4  10  22  40  68  96 129 173 216 266 329 382
#     4  10  20  40  67  97 129 166 220 270 318 379
#     4  11  25  45  66  97 134 171 218 272 321 389
#     4  10  22  43  68  97 127 169 223 270 312 384
#     4  10  22  44  66  98 124 174 222 270 316 380
#     4  12  25  44  64  97 141 171 213 263 337 391
#
# _framework density 25.490102
#
# number of rings (size 3 to 8) (size 9 to 14) (size 15 to 20)
#    0.000    1.455    1.818    3.818    0.000    5.091 
#    3.273    5.455    0.000    0.000    0.000    0.000 
#    0.000    0.000    0.000    0.000    0.000    0.000 
#
# Total GULP energy -61397.483098 kJ/mol
# GULP energy per Si atom -5581.589373 kJ/mol
# Density = 2.543209 g / cm^3
# Si number density = 25.490102 Si / 1000 Ang^3
#
#
#
# Elastic Constant Matrix: (Units=GPa)
#
#
# Indices 1 2 3 4 5 6 
#
# 1 164.7253 53.1967 31.9437 8.1786 -23.3266 -18.8730
# 2 53.1967 113.6863 10.0016 46.2170 -2.4226 4.5344
# 3 31.9437 10.0016 81.0494 11.6265 -31.4471 -9.9473
# 4 8.1786 46.2170 11.6265 44.6282 -0.0658 2.6636
# 5 -23.3266 -2.4226 -31.4471 -0.0658 33.3130 5.2899
# 6 -18.8730 4.5344 -9.9473 2.6636 5.2899 54.1558
#
#
#
# Elastic Compliance Matrix: (Units=1/GPa)
#
#
# Indices 1 2 3 4 5 6 
#
# 1 0.008968 -0.006081 -0.001668 0.004932 0.003842 0.002710
# 2 -0.006081 0.019454 0.002425 -0.019525 -0.000224 -0.002320
# 3 -0.001668 0.002425 0.021355 -0.007842 0.018884 0.001679
# 4 0.004932 -0.019525 -0.007842 0.043742 -0.005327 0.000282
# 5 0.003842 -0.000224 0.018884 -0.005327 0.050483 0.000157
# 6 0.002710 -0.002320 0.001679 0.000282 0.000157 0.019883
#
#
# Mechanical properties :
#
#
# Convention : Reuss Voigt Hill
#
# Bulk Modulus (GPa) = 25.55722 61.08278 43.32000
# Shear Modulus (GPa) = 26.65605 44.04068 35.34837
#
# Velocity S-wave (km/s) = 3.23730 4.16114 3.72795
# Velocity P-wave (km/s) = 4.90118 6.86310 5.96338
#
# Compressibility (1/GPa) = 0.03912789
#
# Stress axis : x y z
#
# Youngs Moduli (GPa) = 111.51254 51.40433 46.82847
#
# Poissons Ratio (x) = 0.31258 0.07813
# Poissons Ratio (y) = 0.67809 -0.11357
# Poissons Ratio (z) = 0.18605 -0.12467
#
# Static dielectric constant tensor:
#      x y z
#    x 1.987320 -0.016570 0.011490 
#    y -0.016570 2.097840 -0.089430 
#    z 0.011490 -0.089430 1.939860 
# 
# From -- ./inp_files/21478.got.cif
#   From: 2010.05.17/outbox.cif.g08.bks.cpg/sg2_11_cif.got.tgz:21478.got - 2010.06.03 11:33:40.
