data_PCOD9108754
_publ_section_title
;
Structure prediction by ZEFSAII (Michael W. Deem and Ramdas Pophale) SiO2 
 PCOD9108754
Probable space group: P -1
;
_chemical_formula_sum "Si O2"
_cell_formula_units_Z 16
_cell_length_a 8.095348
_cell_length_b 5.230324
_cell_length_c 14.312032
_cell_angle_alpha 80.466936
_cell_angle_beta 94.003071
_cell_angle_gamma 89.511770
_cell_volume 596.039093
_symmetry_space_group_name_H-M "P -1"
_symmetry_group_IT_number 2
_symmetry_cell_setting 'triclinic'
loop_
_space_group_symop_operation_xyz
x,y,z
-x,-y,-z
loop_
_atom_site_type_symbol
_atom_site_label
_atom_site_fract_x
_atom_site_fract_y
_atom_site_fract_z
Si Si1 0.916481 0.724939 0.616605
Si Si2 0.881003 0.761874 0.394427
Si Si3 0.370592 0.727912 0.454060
Si Si4 0.097962 0.748148 0.940042
Si Si5 0.388588 0.862102 0.639783
Si Si6 0.663183 0.507195 0.729835
Si Si7 0.533475 0.226020 0.065163
Si Si8 0.217451 0.981948 0.124009
O O1 0.850001 0.693372 0.507683
O O2 0.796711 0.722323 0.701921
O O3 0.048684 0.485265 0.643765
O O4 0.987051 0.011905 0.607513
O O5 0.721572 0.908902 0.333658
O O6 0.500000 0.500000 0.500000
O O7 0.287962 0.776763 0.548254
O O8 0.300348 0.635663 0.359738
O O9 0.459237 0.989008 0.409812
O O10 0.276877 0.735612 0.894288
O O11 0.164792 0.918909 0.018718
O O12 0.959115 0.889955 0.863022
O O13 0.000000 0.500000 0.000000
O O14 0.476126 0.624422 0.711487
O O15 0.716440 0.292297 0.818382
O O16 0.375457 0.169151 0.129338
O O17 0.500000 0.500000 0.000000
O O18 0.500000 0.000000 0.000000
#
# Coordination Sequence:
#
# PCOD9108754 Si02
#       8
#     2   2   2   2   2   2   2   2
#     4  10  23  38  61  89 127 170 217 279 329 394
#     4  10  22  39  62  89 122 172 229 269 330 386
#     4   9  19  34  60  85 117 164 222 265 322 382
#     4  10  20  41  73  99 130 179 222 270 334 418
#     4  10  21  37  61  87 119 171 226 272 320 396
#     4  11  24  40  62  92 133 170 217 278 345 396
#     4  10  20  40  71 103 134 174 226 273 328 415
#     4  10  23  42  66 102 138 174 223 278 347 413
#
# _framework density 26.843876000000002
#
# number of rings (size 3 to 8) (size 9 to 14) (size 15 to 20)
#    0.000    2.000    1.250    2.250   10.500    1.000 
#    2.250    0.000    0.000    0.000    0.000    0.000 
#    0.000    0.000    0.000    0.000    0.000    0.000 
#
# Total GULP energy -89225.717854 kJ/mol
# GULP energy per Si atom -5576.607366 kJ/mol
# Density = 2.678278 g / cm^3
# Si number density = 26.843876 Si / 1000 Ang^3
#
#
#
# Elastic Constant Matrix: (Units=GPa)
#
#
# Indices 1 2 3 4 5 6 
#
# 1 200.4846 38.3825 55.6689 -31.1353 18.1136 -15.3835
# 2 38.3825 102.1303 27.0497 -26.4122 22.8061 -13.6156
# 3 55.6689 27.0497 84.8958 -20.6080 25.9066 -11.2346
# 4 -31.1353 -26.4122 -20.6080 52.3713 -2.2559 16.8779
# 5 18.1136 22.8061 25.9066 -2.2559 44.6983 -18.3022
# 6 -15.3835 -13.6156 -11.2346 16.8779 -18.3022 62.9926
#
#
#
# Elastic Compliance Matrix: (Units=1/GPa)
#
#
# Indices 1 2 3 4 5 6 
#
# 1 0.006440 -0.001009 -0.003440 0.001885 0.000103 0.000266
# 2 -0.001009 0.013016 -0.000318 0.005843 -0.006091 -0.000825
# 3 -0.003440 -0.000318 0.017971 0.005032 -0.009327 -0.001762
# 4 0.001885 0.005843 0.005032 0.027045 -0.008162 -0.006997
# 5 0.000103 -0.006091 -0.009327 -0.008162 0.034184 0.009164
# 6 0.000266 -0.000825 -0.001762 -0.006997 0.009164 0.019985
#
#
# Mechanical properties :
#
#
# Convention : Reuss Voigt Hill
#
# Bulk Modulus (GPa) = 35.85147 69.96811 52.90979
# Shear Modulus (GPa) = 36.37085 49.77307 43.07196
#
# Velocity S-wave (km/s) = 3.68489 4.31068 4.01001
# Velocity P-wave (km/s) = 5.61152 7.13424 6.41820
#
# Compressibility (1/GPa) = 0.02789286
#
# Stress axis : x y z
#
# Youngs Moduli (GPa) = 155.27484 76.82844 55.64605
#
# Poissons Ratio (x) = 0.07755 0.19143
# Poissons Ratio (y) = 0.15672 0.01767
# Poissons Ratio (z) = 0.53418 0.02439
#
# Static dielectric constant tensor:
#      x y z
#    x 2.394070 0.158070 -0.076420 
#    y 0.158070 2.369780 0.023680 
#    z -0.076420 0.023680 2.102750 
# 
# From -- ./inp_files/552385.got.cif
#   From: 2010.05.17/outbox.cif.g08.bks.cpg/sg2_277_cif.got.tgz:552385.got - 2010.06.03 11:33:40.
