data_PCOD9108658
_publ_section_title
;
Structure prediction by ZEFSAII (Michael W. Deem and Ramdas Pophale) SiO2 
 PCOD9108658
Probable space group: P -1
;
_chemical_formula_sum "Si O2"
_cell_formula_units_Z 16
_cell_length_a 11.412665
_cell_length_b 11.455226
_cell_length_c 11.544236
_cell_angle_alpha 69.724557
_cell_angle_beta 78.659990
_cell_angle_gamma 137.027293
_cell_volume 685.306446
_symmetry_space_group_name_H-M "P -1"
_symmetry_group_IT_number 2
_symmetry_cell_setting 'triclinic'
loop_
_space_group_symop_operation_xyz
x,y,z
-x,-y,-z
loop_
_atom_site_type_symbol
_atom_site_label
_atom_site_fract_x
_atom_site_fract_y
_atom_site_fract_z
Si Si1 0.121501 0.667819 0.761102
Si Si2 0.596608 0.224533 0.937054
Si Si3 0.982421 0.751887 0.887661
Si Si4 0.532537 0.224000 0.413828
Si Si5 0.003678 0.011417 0.355666
Si Si6 0.448618 0.242250 0.184435
Si Si7 0.281848 0.132693 0.901798
Si Si8 0.779105 0.689685 0.290780
O O1 0.012183 0.631782 0.909504
O O2 0.226902 0.628827 0.728347
O O3 0.887348 0.477891 0.791101
O O4 0.359343 0.970753 0.598815
O O5 0.500032 0.248235 0.866870
O O6 0.493315 0.178974 0.097982
O O7 0.500000 0.000000 0.000000
O O8 0.007081 0.855305 0.730188
O O9 0.174104 0.969261 0.866613
O O10 0.712617 0.539328 0.051801
O O11 0.386801 0.128357 0.359397
O O12 0.626775 0.425485 0.400402
O O13 0.810968 0.769062 0.388990
O O14 0.000000 0.000000 0.500000
O O15 0.255508 0.172289 0.217026
O O16 0.335527 0.317489 0.777359
O O17 0.055752 0.927769 0.106174
#
# Coordination Sequence:
#
# PCOD9108658 Si02
#       8
#     2   2   2   2   2   2   2   2
#     4  10  25  43  65  99 141 183 234 282 349 420
#     4  11  24  41  70 104 140 177 236 289 346 408
#     4  10  22  41  68  98 137 179 231 280 347 409
#     4  11  23  45  67  95 142 190 229 282 355 420
#     4  11  23  42  68 102 143 178 229 286 353 413
#     4  11  23  38  69  97 134 182 231 286 347 406
#     4  10  20  40  70 105 134 171 236 292 337 408
#     4  10  21  41  72 100 135 186 228 285 351 410
#
# _framework density 23.34722
#
# number of rings (size 3 to 8) (size 9 to 14) (size 15 to 20)
#    0.000    1.500    2.500    1.875    1.750    3.000 
#    0.000   11.875    0.000    0.000    0.000    0.000 
#    0.000    0.000    0.000    0.000    0.000    0.000 
#
# Total GULP energy -89322.409671 kJ/mol
# GULP energy per Si atom -5582.650604 kJ/mol
# Density = 2.329408 g / cm^3
# Si number density = 23.347220 Si / 1000 Ang^3
#
#
#
# Elastic Constant Matrix: (Units=GPa)
#
#
# Indices 1 2 3 4 5 6 
#
# 1 134.8330 48.2983 22.6620 -3.0045 -23.4909 -18.0134
# 2 48.2983 127.5279 31.9117 2.6916 7.3733 -18.4608
# 3 22.6620 31.9117 67.7894 -2.7382 -13.7721 0.3943
# 4 -3.0045 2.6916 -2.7382 34.8839 1.5841 6.9364
# 5 -23.4909 7.3733 -13.7721 1.5841 34.7477 -4.6755
# 6 -18.0134 -18.4608 0.3943 6.9364 -4.6755 28.7401
#
#
#
# Elastic Compliance Matrix: (Units=1/GPa)
#
#
# Indices 1 2 3 4 5 6 
#
# 1 0.011239 -0.003860 -0.000119 -0.000387 0.009216 0.006159
# 2 -0.003860 0.011874 -0.005777 -0.002348 -0.006670 0.004769
# 3 -0.000119 -0.005777 0.019297 0.002220 0.008256 -0.003243
# 4 -0.000387 -0.002348 0.002220 0.030950 -0.001574 -0.009507
# 5 0.009216 -0.006670 0.008256 -0.001574 0.040901 0.008412
# 6 0.006159 0.004769 -0.003243 -0.009507 0.008412 0.045426
#
#
# Mechanical properties :
#
#
# Convention : Reuss Voigt Hill
#
# Bulk Modulus (GPa) = 43.67225 59.54380 51.60802
# Shear Modulus (GPa) = 26.76194 34.82624 30.79409
#
# Velocity S-wave (km/s) = 3.38932 3.86640 3.63569
# Velocity P-wave (km/s) = 5.83633 6.74470 6.30689
#
# Compressibility (1/GPa) = 0.02289784
#
# Stress axis : x y z
#
# Youngs Moduli (GPa) = 88.97428 84.21472 51.82185
#
# Poissons Ratio (x) = 0.32505 0.00618
# Poissons Ratio (y) = 0.34342 0.29938
# Poissons Ratio (z) = 0.01062 0.48652
#
# Static dielectric constant tensor:
#      x y z
#    x 1.921060 -0.020760 0.026570 
#    y -0.020760 1.897360 0.039500 
#    z 0.026570 0.039500 2.004520 
# 
# From -- ./inp_files/427993.got.cif
#   From: 2010.05.17/outbox.cif.g08.bks.cpg/sg2_214_cif.got.tgz:427993.got - 2010.06.03 11:33:40.
