data_PCOD9108461
_publ_section_title
;
Structure prediction by ZEFSAII (Michael W. Deem and Ramdas Pophale) SiO2 
 PCOD9108461
Probable space group: P -1
;
_chemical_formula_sum "Si O2"
_cell_formula_units_Z 15
_cell_length_a 10.209728
_cell_length_b 15.282250
_cell_length_c 11.633386
_cell_angle_alpha 150.653092
_cell_angle_beta 57.723859
_cell_angle_gamma 136.587043
_cell_volume 584.255982
_symmetry_space_group_name_H-M "P -1"
_symmetry_group_IT_number 2
_symmetry_cell_setting 'triclinic'
loop_
_space_group_symop_operation_xyz
x,y,z
-x,-y,-z
loop_
_atom_site_type_symbol
_atom_site_label
_atom_site_fract_x
_atom_site_fract_y
_atom_site_fract_z
Si Si1 0.788436 0.771260 0.876918
Si Si2 0.177119 0.406461 0.790835
Si Si3 0.661019 0.455755 0.378501
Si Si4 0.296127 0.755774 0.461165
Si Si5 0.000000 0.000000 0.500000
Si Si6 0.959465 0.772587 0.017558
Si Si7 0.255861 0.865419 0.368840
Si Si8 0.340850 0.001708 0.939282
O O1 0.763681 0.574803 0.587190
O O2 0.798968 0.745743 0.976575
O O3 0.643591 0.823148 0.962173
O O4 0.000000 0.000000 0.000000
O O5 0.209506 0.433801 0.670873
O O6 0.236702 0.274478 0.678504
O O7 0.933242 0.186588 0.669446
O O8 0.238202 0.642524 0.083244
O O9 0.500000 0.500000 0.500000
O O10 0.550280 0.185988 0.115609
O O11 0.237749 0.856731 0.505057
O O12 0.291605 0.806298 0.654083
O O13 0.531476 0.899611 0.492105
O O14 0.138674 0.486938 0.204979
O O15 0.993200 0.084547 0.729086
O O16 0.160944 0.900063 0.994465
#
# Coordination Sequence:
#
# PCOD9108461 Si02
#       8
#     2   2   2   2   1   2   2   2
#     4   9  20  38  62  98 124 166 223 258 333 387
#     4  11  22  44  67  93 130 177 218 271 322 405
#     4  10  20  40  68  97 128 172 215 270 329 399
#     4  11  22  45  63  97 131 172 225 274 318 391
#     4  12  24  42  66  94 136 164 220 276 334 384
#     4  11  24  42  64  99 131 172 214 284 331 380
#     4  10  24  42  66  91 132 181 225 251 335 396
#     4  10  21  40  68  94 131 173 216 271 334 394
#
# _framework density 25.673677999999999
#
# number of rings (size 3 to 8) (size 9 to 14) (size 15 to 20)
#    0.000    1.600    2.667    2.800    5.600    0.000 
#    7.200    1.333    0.000    0.000    0.000    0.000 
#    0.000    0.000    0.000    0.000    0.000    0.000 
#
# Total GULP energy -83658.645089 kJ/mol
# GULP energy per Si atom -5577.243006 kJ/mol
# Density = 2.561524 g / cm^3
# Si number density = 25.673678 Si / 1000 Ang^3
#
#
#
# Elastic Constant Matrix: (Units=GPa)
#
#
# Indices 1 2 3 4 5 6 
#
# 1 54.3463 29.9420 14.6641 2.7197 14.9453 -15.3521
# 2 29.9420 143.0099 70.3929 -12.0980 7.7959 -25.6785
# 3 14.6641 70.3929 158.8398 -30.4151 11.4444 -10.8735
# 4 2.7197 -12.0980 -30.4151 34.0889 -4.7520 7.5903
# 5 14.9453 7.7959 11.4444 -4.7520 32.9075 9.4459
# 6 -15.3521 -25.6785 -10.8735 7.5903 9.4459 30.5351
#
#
#
# Elastic Compliance Matrix: (Units=1/GPa)
#
#
# Indices 1 2 3 4 5 6 
#
# 1 0.034648 -0.001524 -0.001637 -0.014111 -0.024489 0.026639
# 2 -0.001524 0.010930 -0.004317 -0.002153 -0.003114 0.008387
# 3 -0.001637 -0.004317 0.009635 0.007961 0.000468 -0.003146
# 4 -0.014111 -0.002153 0.007961 0.044116 0.016912 -0.022268
# 5 -0.024489 -0.003114 0.000468 0.016912 0.054842 -0.035934
# 6 0.026639 0.008387 -0.003146 -0.022268 -0.035934 0.068726
#
#
# Mechanical properties :
#
#
# Convention : Reuss Voigt Hill
#
# Bulk Modulus (GPa) = 24.84052 65.13266 44.98659
# Shear Modulus (GPa) = 19.89879 35.58611 27.74245
#
# Velocity S-wave (km/s) = 2.78702 3.72707 3.29078
# Velocity P-wave (km/s) = 4.47807 6.62917 5.65681
#
# Compressibility (1/GPa) = 0.04025680
#
# Stress axis : x y z
#
# Youngs Moduli (GPa) = 28.86191 91.49169 103.78569
#
# Poissons Ratio (x) = 0.13942 0.16994
# Poissons Ratio (y) = 0.04398 0.44802
# Poissons Ratio (z) = 0.04726 0.39495
#
# Static dielectric constant tensor:
#      x y z
#    x 3.032780 -0.330130 -0.399940 
#    y -0.330130 2.141950 0.224830 
#    z -0.399940 0.224830 2.293850 
# 
# From -- ./inp_files/326169.got.cif
#   From: 2010.05.17/outbox.cif.g08.bks.cpg/sg2_164_cif.got.tgz:326169.got - 2010.06.03 11:33:40.
