data_PCOD9108519
_publ_section_title
;
Structure prediction by ZEFSAII (Michael W. Deem and Ramdas Pophale) SiO2 
 PCOD9108519
Probable space group: P -1
;
_chemical_formula_sum "Si O2"
_cell_formula_units_Z 16
_cell_length_a 11.471925
_cell_length_b 10.918471
_cell_length_c 8.802259
_cell_angle_alpha 62.518129
_cell_angle_beta 134.017775
_cell_angle_gamma 107.292354
_cell_volume 702.916695
_symmetry_space_group_name_H-M "P -1"
_symmetry_group_IT_number 2
_symmetry_cell_setting 'triclinic'
loop_
_space_group_symop_operation_xyz
x,y,z
-x,-y,-z
loop_
_atom_site_type_symbol
_atom_site_label
_atom_site_fract_x
_atom_site_fract_y
_atom_site_fract_z
Si Si1 0.580522 0.135121 0.932058
Si Si2 0.608882 0.581757 0.430712
Si Si3 0.155837 0.807378 0.619783
Si Si4 0.138621 0.036525 0.224605
Si Si5 0.635917 0.156207 0.617621
Si Si6 0.960194 0.311513 0.920230
Si Si7 0.032181 0.388238 0.260985
Si Si8 0.396135 0.611615 0.744581
O O1 0.483842 0.280011 0.788520
O O2 0.584819 0.125416 0.759077
O O3 0.746918 0.146883 0.169201
O O4 0.500000 0.000000 0.000000
O O5 0.500000 0.500000 0.500000
O O6 0.784233 0.619642 0.628194
O O7 0.654928 0.486310 0.383570
O O8 0.267288 0.696330 0.686702
O O9 0.000497 0.726039 0.578480
O O10 0.116247 0.942277 0.406405
O O11 0.309578 0.982295 0.342476
O O12 0.105347 0.197643 0.124537
O O13 0.000000 0.000000 0.000000
O O14 0.528562 0.260790 0.355723
O O15 0.805066 0.239553 0.748649
O O16 0.005757 0.456148 0.804095
O O17 0.921410 0.357193 0.032363
O O18 0.500000 0.500000 0.000000
#
# Coordination Sequence:
#
# PCOD9108519 Si02
#       8
#     2   2   2   2   2   2   2   2
#     4  12  26  45  70 101 137 180 232 281 345 412
#     4  12  25  46  72  98 139 185 227 283 347 404
#     4  11  25  45  69 102 139 175 232 286 337 407
#     4   9  22  42  67  94 138 181 217 283 343 398
#     4  10  20  46  67  93 140 179 223 287 331 411
#     4  10  20  40  69 101 128 173 225 273 348 392
#     4  11  24  40  72 106 132 173 232 290 332 405
#     4  11  22  42  72  98 138 184 224 280 345 406
#
# _framework density 22.762298000000001
#
# number of rings (size 3 to 8) (size 9 to 14) (size 15 to 20)
#    0.000    1.250    5.000    0.000    3.500    3.000 
#    2.250    3.750    0.000    0.000    0.000    0.000 
#    0.000    0.000    0.000    0.000    0.000    0.000 
#
# Total GULP energy -89295.598240 kJ/mol
# GULP energy per Si atom -5580.974890 kJ/mol
# Density = 2.271049 g / cm^3
# Si number density = 22.762298 Si / 1000 Ang^3
#
#
#
# Elastic Constant Matrix: (Units=GPa)
#
#
# Indices 1 2 3 4 5 6 
#
# 1 66.6991 35.2717 32.3490 -15.4777 -13.0649 12.2927
# 2 35.2717 102.6389 31.9463 -25.6171 3.2358 3.1719
# 3 32.3490 31.9463 139.9366 -33.8809 -0.8171 9.1092
# 4 -15.4777 -25.6171 -33.8809 39.9615 -10.5606 1.6749
# 5 -13.0649 3.2358 -0.8171 -10.5606 31.1643 -6.9510
# 6 12.2927 3.1719 9.1092 1.6749 -6.9510 33.5072
#
#
#
# Elastic Compliance Matrix: (Units=1/GPa)
#
#
# Indices 1 2 3 4 5 6 
#
# 1 0.024243 -0.006119 -0.002049 0.007110 0.011895 -0.005645
# 2 -0.006119 0.013339 -0.000389 0.005285 -0.002082 0.000392
# 3 -0.002049 -0.000389 0.009704 0.007692 0.001619 -0.001898
# 4 0.007110 0.005285 0.007692 0.042084 0.016006 -0.003983
# 5 0.011895 -0.002082 0.001619 0.016006 0.043567 0.003631
# 6 -0.005645 0.000392 -0.001898 -0.003983 0.003631 0.033347
#
#
# Mechanical properties :
#
#
# Convention : Reuss Voigt Hill
#
# Bulk Modulus (GPa) = 33.14343 56.48983 44.81663
# Shear Modulus (GPa) = 25.84586 34.90710 30.37648
#
# Velocity S-wave (km/s) = 3.37333 3.92030 3.65706
# Velocity P-wave (km/s) = 5.45571 6.73520 6.12893
#
# Compressibility (1/GPa) = 0.03017189
#
# Stress axis : x y z
#
# Youngs Moduli (GPa) = 41.24970 74.96650 103.05210
#
# Poissons Ratio (x) = 0.45874 0.21113
# Poissons Ratio (y) = 0.25242 0.04007
# Poissons Ratio (z) = 0.08451 0.02915
#
# Static dielectric constant tensor:
#      x y z
#    x 1.913080 -0.032870 0.026430 
#    y -0.032870 1.944010 0.011100 
#    z 0.026430 0.011100 1.891950 
# 
# From -- ./inp_files/261838.got.cif
#   From: 2010.05.17/outbox.cif.g08.bks.cpg/sg2_131_cif.got.tgz:261838.got - 2010.06.03 11:33:40.
