data_PCOD9108399
_publ_section_title
;
Structure prediction by ZEFSAII (Michael W. Deem and Ramdas Pophale) SiO2 
 PCOD9108399
Probable space group: P -1
;
_chemical_formula_sum "Si O2"
_cell_formula_units_Z 16
_cell_length_a 20.045040
_cell_length_b 12.047811
_cell_length_c 17.744827
_cell_angle_alpha 37.947493
_cell_angle_beta 28.777790
_cell_angle_gamma 20.055357
_cell_volume 691.601972
_symmetry_space_group_name_H-M "P -1"
_symmetry_group_IT_number 2
_symmetry_cell_setting 'triclinic'
loop_
_space_group_symop_operation_xyz
x,y,z
-x,-y,-z
loop_
_atom_site_type_symbol
_atom_site_label
_atom_site_fract_x
_atom_site_fract_y
_atom_site_fract_z
Si Si1 0.817399 0.863908 0.966858
Si Si2 0.964934 0.393092 0.707461
Si Si3 0.182128 0.736172 0.610613
Si Si4 0.493564 0.247372 0.229958
Si Si5 0.502706 0.822538 0.037207
Si Si6 0.095138 0.168917 0.537680
Si Si7 0.314530 0.655746 0.313903
Si Si8 0.531123 0.827172 0.474391
O O1 0.614671 0.120548 0.095673
O O2 0.000000 0.500000 0.000000
O O3 0.000812 0.836168 0.796145
O O4 0.693217 0.959359 0.956833
O O5 0.832987 0.709210 0.626584
O O6 0.059569 0.177402 0.657049
O O7 0.775325 0.519828 0.888052
O O8 0.230374 0.156784 0.609388
O O9 0.391770 0.367390 0.573101
O O10 0.267133 0.833429 0.506709
O O11 0.977181 0.997488 0.606896
O O12 0.491184 0.429141 0.185735
O O13 0.193521 0.537613 0.363289
O O14 0.613680 0.942123 0.316780
O O15 0.424853 0.716892 0.210054
O O16 0.500000 0.000000 0.000000
O O17 0.344713 0.433873 0.445777
#
# Coordination Sequence:
#
# PCOD9108399 Si02
#       8
#     2   2   2   2   2   2   2   2
#     4  11  22  41  68  99 125 162 220 273 318 370
#     4  10  22  40  63  87 130 171 207 253 324 385
#     4  10  22  38  65  94 124 165 212 269 319 365
#     4  10  20  40  68  93 122 162 214 275 312 367
#     4  11  26  45  65  92 136 176 207 261 332 391
#     4   9  20  38  63  91 121 166 209 260 312 379
#     4  10  24  41  65  92 125 172 213 262 321 382
#     4  11  22  40  61  96 133 160 213 262 320 384
#
# _framework density 23.134692999999999
#
# number of rings (size 3 to 8) (size 9 to 14) (size 15 to 20)
#    0.000    1.750    2.500    0.750    3.500    3.500 
#    9.000    0.000    0.000    0.000    0.000    0.000 
#    0.000    0.000    0.000    0.000    0.000    0.000 
#
# Total GULP energy -89302.049964 kJ/mol
# GULP energy per Si atom -5581.378123 kJ/mol
# Density = 2.308204 g / cm^3
# Si number density = 23.134693 Si / 1000 Ang^3
#
#
#
# Elastic Constant Matrix: (Units=GPa)
#
#
# Indices 1 2 3 4 5 6 
#
# 1 79.5052 22.7416 8.9420 -3.9877 4.7278 31.7437
# 2 22.7416 89.4152 11.3883 1.0200 1.8264 13.2071
# 3 8.9420 11.3883 53.2242 4.1188 5.3123 -1.4829
# 4 -3.9877 1.0200 4.1188 33.4514 2.4074 3.3106
# 5 4.7278 1.8264 5.3123 2.4074 24.2186 -2.6019
# 6 31.7437 13.2071 -1.4829 3.3106 -2.6019 45.3070
#
#
#
# Elastic Compliance Matrix: (Units=1/GPa)
#
#
# Indices 1 2 3 4 5 6 
#
# 1 0.019640 -0.002536 -0.002998 0.004500 -0.004907 -0.013730
# 2 -0.002536 0.012402 -0.002252 -0.000205 -0.000130 -0.001904
# 3 -0.002998 -0.002252 0.020402 -0.002923 -0.003057 0.003463
# 4 0.004500 -0.000205 -0.002923 0.031650 -0.003983 -0.005730
# 5 -0.004907 -0.000130 -0.003057 -0.003983 0.043990 0.006194
# 6 -0.013730 -0.001904 0.003463 -0.005730 0.006194 0.033134
#
#
# Mechanical properties :
#
#
# Convention : Reuss Voigt Hill
#
# Bulk Modulus (GPa) = 27.12110 34.25425 30.68767
# Shear Modulus (GPa) = 26.44374 32.53358 29.48866
#
# Velocity S-wave (km/s) = 3.38455 3.75409 3.57410
# Velocity P-wave (km/s) = 5.19828 5.79910 5.50689
#
# Compressibility (1/GPa) = 0.03687167
#
# Stress axis : x y z
#
# Youngs Moduli (GPa) = 50.91708 80.63252 49.01538
#
# Poissons Ratio (x) = 0.20452 0.14694
# Poissons Ratio (y) = 0.12915 0.11036
# Poissons Ratio (z) = 0.15264 0.18155
#
# Static dielectric constant tensor:
#      x y z
#    x 1.961230 0.006230 0.039960 
#    y 0.006230 1.890310 -0.056570 
#    z 0.039960 -0.056570 1.914710 
# 
# From -- ./inp_files/402678.got.cif
#   From: 2010.05.17/outbox.cif.g08.bks.cpg/sg2_202_cif.got.tgz:402678.got - 2010.06.03 11:33:40.
