data_PCOD9108572
_publ_section_title
;
Structure prediction by ZEFSAII (Michael W. Deem and Ramdas Pophale) SiO2 
 PCOD9108572
Probable space group: P -1
;
_chemical_formula_sum "Si O2"
_cell_formula_units_Z 16
_cell_length_a 8.471300
_cell_length_b 26.425436
_cell_length_c 8.331032
_cell_angle_alpha 46.888286
_cell_angle_beta 49.969227
_cell_angle_gamma 30.726562
_cell_volume 687.825395
_symmetry_space_group_name_H-M "P -1"
_symmetry_group_IT_number 2
_symmetry_cell_setting 'triclinic'
loop_
_space_group_symop_operation_xyz
x,y,z
-x,-y,-z
loop_
_atom_site_type_symbol
_atom_site_label
_atom_site_fract_x
_atom_site_fract_y
_atom_site_fract_z
Si Si1 0.777984 0.266227 0.075503
Si Si2 0.916525 0.441156 0.676019
Si Si3 0.747584 0.762249 0.967939
Si Si4 0.431222 0.951225 0.540383
Si Si5 0.610636 0.497852 0.257406
Si Si6 0.213398 0.317702 0.412814
Si Si7 0.314353 0.129593 0.791486
Si Si8 0.801075 0.069281 0.822411
O O1 0.544691 0.388054 0.915362
O O2 0.001877 0.182413 0.968399
O O3 0.554269 0.263556 0.291064
O O4 0.013363 0.242311 0.100433
O O5 0.551268 0.513788 0.737779
O O6 0.000000 0.500000 0.500000
O O7 0.066328 0.377502 0.548659
O O8 0.067908 0.356708 0.901259
O O9 0.591972 0.841221 0.749175
O O10 0.473437 0.817727 0.158108
O O11 0.571852 0.929266 0.322257
O O12 0.500000 0.000000 0.500000
O O13 0.058166 0.034863 0.608789
O O14 0.500000 0.500000 0.500000
O O15 0.982453 0.402351 0.239580
O O16 0.231371 0.230764 0.589041
O O17 0.605701 0.060522 0.873732
O O18 0.000000 0.000000 0.000000
#
# Coordination Sequence:
#
# PCOD9108572 Si02
#       8
#     2   2   2   2   2   2   2   2
#     4  10  20  40  69  93 132 184 230 279 343 416
#     4  10  20  41  70 100 138 185 225 281 346 412
#     4   9  20  44  64  96 142 171 228 294 335 415
#     4  11  25  43  67 100 132 181 234 291 356 413
#     4   9  17  39  61  91 138 168 225 284 319 409
#     4  11  21  40  68  95 135 185 223 283 352 405
#     4  11  22  45  68  97 137 180 227 292 347 417
#     4   9  19  43  71  91 133 175 218 290 346 403
#
# _framework density 23.261714999999999
#
# number of rings (size 3 to 8) (size 9 to 14) (size 15 to 20)
#    0.000    2.000    5.000    0.750    1.750    0.000 
#   18.000    4.375    0.000    0.000    0.000    0.875 
#    0.000    0.000    0.000    0.000    0.000    0.000 
#
# Total GULP energy -89387.313886 kJ/mol
# GULP energy per Si atom -5586.707118 kJ/mol
# Density = 2.320877 g / cm^3
# Si number density = 23.261715 Si / 1000 Ang^3
#
#
#
# Elastic Constant Matrix: (Units=GPa)
#
#
# Indices 1 2 3 4 5 6 
#
# 1 68.2720 62.6217 27.3987 -1.7290 11.4637 -7.9870
# 2 62.6217 92.7307 44.8857 -4.2641 -1.2908 -25.7786
# 3 27.3987 44.8857 72.0028 6.9475 0.3418 -9.7051
# 4 -1.7290 -4.2641 6.9475 50.3196 -10.2189 2.4890
# 5 11.4637 -1.2908 0.3418 -10.2189 36.6532 3.3769
# 6 -7.9870 -25.7786 -9.7051 2.4890 3.3769 49.4729
#
#
#
# Elastic Compliance Matrix: (Units=1/GPa)
#
#
# Indices 1 2 3 4 5 6 
#
# 1 0.051698 -0.040678 0.004911 -0.005540 -0.018237 -0.010363
# 2 -0.040678 0.050012 -0.014403 0.007162 0.015208 0.015268
# 3 0.004911 -0.014403 0.021169 -0.004543 -0.003313 -0.002105
# 4 -0.005540 0.007162 -0.004543 0.022591 0.008303 0.000243
# 5 -0.018237 0.015208 -0.003313 0.008303 0.035732 0.001474
# 6 -0.010363 0.015268 -0.002105 0.000243 0.001474 0.025970
#
#
# Mechanical properties :
#
#
# Convention : Reuss Voigt Hill
#
# Bulk Modulus (GPa) = 44.37193 55.86863 50.12028
# Shear Modulus (GPa) = 15.87173 33.82910 24.85041
#
# Velocity S-wave (km/s) = 2.61494 3.81764 3.27203
# Velocity P-wave (km/s) = 5.31354 6.59561 5.98898
#
# Compressibility (1/GPa) = 0.02253677
#
# Stress axis : x y z
#
# Youngs Moduli (GPa) = 19.34310 19.99540 47.23939
#
# Poissons Ratio (x) = 0.81338 -0.23197
# Poissons Ratio (y) = 0.78685 0.68038
# Poissons Ratio (z) = -0.09498 0.28799
#
# Static dielectric constant tensor:
#      x y z
#    x 1.882290 -0.020590 0.030760 
#    y -0.020590 1.914560 -0.024360 
#    z 0.030760 -0.024360 1.893950 
# 
# From -- ./inp_files/227363.got.cif
#   From: 2010.05.17/outbox.cif.g08.bks.cpg/sg2_114_cif.got.tgz:227363.got - 2010.06.03 11:33:40.
