data_PCOD9108986
_publ_section_title
;
Structure prediction by ZEFSAII (Michael W. Deem and Ramdas Pophale) SiO2 
 PCOD9108986
Probable space group: P -1
;
_chemical_formula_sum "Si O2"
_cell_formula_units_Z 16
_cell_length_a 8.923284
_cell_length_b 13.833041
_cell_length_c 19.277350
_cell_angle_alpha 14.531395
_cell_angle_beta 96.028351
_cell_angle_gamma 93.417988
_cell_volume 585.257109
_symmetry_space_group_name_H-M "P -1"
_symmetry_group_IT_number 2
_symmetry_cell_setting 'triclinic'
loop_
_space_group_symop_operation_xyz
x,y,z
-x,-y,-z
loop_
_atom_site_type_symbol
_atom_site_label
_atom_site_fract_x
_atom_site_fract_y
_atom_site_fract_z
Si Si1 0.171498 0.290529 0.162609
Si Si2 0.540903 0.469271 0.443085
Si Si3 0.811980 0.160501 0.105391
Si Si4 0.305643 0.441948 0.925553
Si Si5 0.256947 0.369118 0.773425
Si Si6 0.032888 0.275966 0.933136
Si Si7 0.723255 0.663447 0.571297
Si Si8 0.521836 0.527743 0.767535
O O1 0.201066 0.403259 0.164775
O O2 0.265016 0.493682 0.968479
O O3 0.189867 0.833935 0.462315
O O4 0.000000 0.500000 0.000000
O O5 0.500000 0.500000 0.500000
O O6 0.679545 0.653294 0.286147
O O7 0.384762 0.569670 0.320040
O O8 0.606737 0.005817 0.759836
O O9 0.962991 0.017681 0.167026
O O10 0.662349 0.206166 0.020683
O O11 0.791378 0.905812 0.347437
O O12 0.420597 0.665899 0.733571
O O13 0.148558 0.474504 0.849952
O O14 0.407470 0.314469 0.865665
O O15 0.133920 0.145050 0.960535
O O16 0.873891 0.501262 0.736900
O O17 0.593172 0.803626 0.525898
#
# Coordination Sequence:
#
# PCOD9108986 Si02
#       8
#     2   2   2   2   2   2   2   2
#     4  11  21  35  58  90 123 166 203 241 296 354
#     4  10  21  42  70  88 115 161 198 249 312 359
#     4  11  21  37  61  87 127 168 194 246 302 348
#     4  10  20  41  61  88 124 156 204 250 291 357
#     4   9  21  40  59  89 125 152 211 250 285 363
#     4  10  21  38  64  87 127 162 195 250 300 344
#     4  10  21  40  62  91 123 155 203 250 299 360
#     4   9  20  40  56  86 122 159 200 251 295 344
#
# _framework density 27.338412000000002
#
# number of rings (size 3 to 8) (size 9 to 14) (size 15 to 20)
#    0.000    2.000    2.500    0.750    1.750    1.500 
#    9.000    6.875    0.000    0.000    0.000    0.000 
#    0.000    0.000    0.000    0.000    0.000    0.000 
#
# Total GULP energy -89318.496931 kJ/mol
# GULP energy per Si atom -5582.406058 kJ/mol
# Density = 2.727619 g / cm^3
# Si number density = 27.338412 Si / 1000 Ang^3
#
#
#
# Elastic Constant Matrix: (Units=GPa)
#
#
# Indices 1 2 3 4 5 6 
#
# 1 198.0488 77.2665 42.5712 22.6216 -22.1288 -40.0613
# 2 77.2665 173.1542 38.0706 14.9369 -8.9718 -50.2914
# 3 42.5712 38.0706 84.4754 26.8969 -13.7041 -16.6197
# 4 22.6216 14.9369 26.8969 45.4349 -12.8636 -16.0860
# 5 -22.1288 -8.9718 -13.7041 -12.8636 41.9751 36.2923
# 6 -40.0613 -50.2914 -16.6197 -16.0860 36.2923 71.1824
#
#
#
# Elastic Compliance Matrix: (Units=1/GPa)
#
#
# Indices 1 2 3 4 5 6 
#
# 1 0.006723 -0.002230 -0.001689 -0.000887 0.001519 0.000839
# 2 -0.002230 0.009484 -0.002851 0.000666 -0.007400 0.008704
# 3 -0.001689 -0.002851 0.016575 -0.007936 0.004019 -0.002938
# 4 -0.000887 0.000666 -0.007936 0.028932 0.003441 0.002902
# 5 0.001519 -0.007400 0.004019 0.003441 0.049550 -0.027921
# 6 0.000839 0.008704 -0.002938 0.002902 -0.027921 0.034875
#
#
# Mechanical properties :
#
#
# Convention : Reuss Voigt Hill
#
# Bulk Modulus (GPa) = 51.96879 85.72166 68.84523
# Shear Modulus (GPa) = 30.10381 51.56981 40.83681
#
# Velocity S-wave (km/s) = 3.32196 4.34792 3.86910
# Velocity P-wave (km/s) = 5.81073 7.52527 6.72289
#
# Compressibility (1/GPa) = 0.01924232
#
# Stress axis : x y z
#
# Youngs Moduli (GPa) = 148.74250 105.44170 60.33300
#
# Poissons Ratio (x) = 0.23510 0.10192
# Poissons Ratio (y) = 0.33164 0.17199
# Poissons Ratio (z) = 0.25126 0.30059
#
# Static dielectric constant tensor:
#      x y z
#    x 2.102670 0.031100 -0.030970 
#    y 0.031100 2.198860 -0.059270 
#    z -0.030970 -0.059270 2.279710 
# 
# From -- ./inp_files/590183.got.cif
#   From: 2010.05.17/outbox.cif.g08.bks.cpg/sg2_296_cif.got.tgz:590183.got - 2010.06.03 11:33:40.
