data_PCOD9108965
_publ_section_title
;
Structure prediction by ZEFSAII (Michael W. Deem and Ramdas Pophale) SiO2 
 PCOD9108965
Probable space group: P -1
;
_chemical_formula_sum "Si O2"
_cell_formula_units_Z 14
_cell_length_a 14.260030
_cell_length_b 8.670256
_cell_length_c 10.032565
_cell_angle_alpha 93.263744
_cell_angle_beta 86.753387
_cell_angle_gamma 29.811144
_cell_volume 601.446662
_symmetry_space_group_name_H-M "P -1"
_symmetry_group_IT_number 2
_symmetry_cell_setting 'triclinic'
loop_
_space_group_symop_operation_xyz
x,y,z
-x,-y,-z
loop_
_atom_site_type_symbol
_atom_site_label
_atom_site_fract_x
_atom_site_fract_y
_atom_site_fract_z
Si Si1 0.307372 0.364798 0.357320
Si Si2 0.474860 0.655649 0.629091
Si Si3 0.338192 0.294562 0.857707
Si Si4 0.111699 0.672514 0.131415
Si Si5 0.570899 0.262716 0.790572
Si Si6 0.221176 0.200787 0.499494
Si Si7 0.902377 0.945856 0.906442
O O1 0.343933 0.488570 0.396278
O O2 0.130916 0.599928 0.279255
O O3 0.279595 0.295368 0.482188
O O4 0.499583 0.037801 0.244283
O O5 0.500000 0.500000 0.500000
O O6 0.477427 0.555376 0.758883
O O7 0.290581 0.022356 0.620869
O O8 0.418287 0.355026 0.854183
O O9 0.123711 0.593950 0.823550
O O10 0.281774 0.342098 0.018247
O O11 0.138757 0.818962 0.123990
O O12 0.929508 0.900411 0.062603
O O13 0.669895 0.040162 0.643525
O O14 0.738913 0.068444 0.870277
O O15 0.000000 0.500000 0.500000
#
# Coordination Sequence:
#
# PCOD9108965 Si02
#       7
#     2   2   2   2   2   2   2
#     4  11  20  40  64  82 126 160 188 261 305 341
#     4  10  22  41  59  84 117 158 207 247 298 357
#     4   9  21  35  62  92 123 157 198 234 309 361
#     4   9  19  37  59  92 123 154 199 234 304 374
#     4  10  20  41  61  85 127 157 198 250 296 360
#     4  10  24  40  58  90 115 153 215 253 298 353
#     4   9  19  37  58  88 127 151 200 236 292 366
#
# _framework density 23.277211999999999
#
# number of rings (size 3 to 8) (size 9 to 14) (size 15 to 20)
#    0.857    1.429    1.429    0.857    2.000    1.714 
#    0.000    4.286    0.000    0.000    0.000    0.000 
#    0.000    0.000    0.000    0.000    0.000    0.000 
#
# Total GULP energy -78114.253256 kJ/mol
# GULP energy per Si atom -5579.589518 kJ/mol
# Density = 2.322423 g / cm^3
# Si number density = 23.277212 Si / 1000 Ang^3
#
#
#
# Elastic Constant Matrix: (Units=GPa)
#
#
# Indices 1 2 3 4 5 6 
#
# 1 121.8592 17.4382 41.0835 -22.7360 12.2298 -8.2693
# 2 17.4382 55.5852 33.6060 -26.2102 -3.4358 -12.0901
# 3 41.0835 33.6060 44.9177 -22.7515 11.4235 -8.2319
# 4 -22.7360 -26.2102 -22.7515 42.0464 -8.8900 5.9516
# 5 12.2298 -3.4358 11.4235 -8.8900 23.2625 -1.0839
# 6 -8.2693 -12.0901 -8.2319 5.9516 -1.0839 33.4381
#
#
#
# Elastic Compliance Matrix: (Units=1/GPa)
#
#
# Indices 1 2 3 4 5 6 
#
# 1 0.013329 0.009251 -0.017998 0.004019 0.004810 0.001651
# 2 0.009251 0.059962 -0.050091 0.021913 0.037382 0.008948
# 3 -0.017998 -0.050091 0.084292 -0.003627 -0.040832 -0.002489
# 4 0.004019 0.021913 -0.003627 0.041452 0.018805 0.001256
# 5 0.004810 0.037382 -0.040832 0.018805 0.073390 0.003685
# 6 0.001651 0.008948 -0.002489 0.001256 0.003685 0.032833
#
#
# Mechanical properties :
#
#
# Convention : Reuss Voigt Hill
#
# Bulk Modulus (GPa) = 25.05760 45.17973 35.11866
# Shear Modulus (GPa) = 11.46169 28.43169 19.94669
#
# Velocity S-wave (km/s) = 2.22142 3.49870 2.93049
# Velocity P-wave (km/s) = 4.16747 5.98103 5.15464
#
# Compressibility (1/GPa) = 0.03990805
#
# Stress axis : x y z
#
# Youngs Moduli (GPa) = 75.02274 16.67718 11.86355
#
# Poissons Ratio (x) = -0.15428 0.21352
# Poissons Ratio (y) = -0.69403 0.59425
# Poissons Ratio (z) = 1.35024 0.83537
#
# Static dielectric constant tensor:
#      x y z
#    x 1.877920 0.018450 0.028700 
#    y 0.018450 1.926590 -0.010070 
#    z 0.028700 -0.010070 1.869090 
# 
# From -- ./inp_files/444603.got.cif
#   From: 2010.05.17/outbox.cif.g08.bks.cpg/sg2_223_cif.got.tgz:444603.got - 2010.06.03 11:33:40.
