data_PCOD9108330
_publ_section_title
;
Structure prediction by ZEFSAII (Michael W. Deem and Ramdas Pophale) SiO2 
 PCOD9108330
Probable space group: P -1
;
_chemical_formula_sum "Si O2"
_cell_formula_units_Z 16
_cell_length_a 8.918354
_cell_length_b 15.586437
_cell_length_c 8.913744
_cell_angle_alpha 93.138947
_cell_angle_beta 66.760102
_cell_angle_gamma 46.633385
_cell_volume 722.623470
_symmetry_space_group_name_H-M "P -1"
_symmetry_group_IT_number 2
_symmetry_cell_setting 'triclinic'
loop_
_space_group_symop_operation_xyz
x,y,z
-x,-y,-z
loop_
_atom_site_type_symbol
_atom_site_label
_atom_site_fract_x
_atom_site_fract_y
_atom_site_fract_z
Si Si1 0.183407 0.952955 0.784554
Si Si2 0.901843 0.373996 0.499481
Si Si3 0.508745 0.067005 0.872780
Si Si4 0.511895 0.559553 0.147687
Si Si5 0.456515 0.685284 0.712676
Si Si6 0.623918 0.900912 0.583653
Si Si7 0.337289 0.802949 0.098275
Si Si8 0.057632 0.688961 0.866812
O O1 0.351814 0.802124 0.655424
O O2 0.385589 0.943104 0.746545
O O3 0.972698 0.073507 0.764636
O O4 0.000000 0.000000 0.000000
O O5 0.689280 0.394201 0.646856
O O6 0.736912 0.529483 0.570886
O O7 0.982129 0.322035 0.291636
O O8 0.137926 0.262736 0.511445
O O9 0.582837 0.132529 0.893478
O O10 0.699563 0.948630 0.666137
O O11 0.218049 0.186522 0.938882
O O12 0.500000 0.000000 0.000000
O O13 0.445584 0.683171 0.145037
O O14 0.785861 0.441524 0.107490
O O15 0.500000 0.500000 0.000000
O O16 0.239514 0.699122 0.796942
O O17 0.443378 0.734472 0.885484
O O18 0.500000 0.000000 0.500000
#
# Coordination Sequence:
#
# PCOD9108330 Si02
#       8
#     2   2   2   2   2   2   2   2
#     4  10  22  41  70  98 132 179 236 272 341 423
#     4  11  24  42  69 101 138 177 234 283 347 408
#     4  12  24  45  71  99 139 182 233 281 345 415
#     4  11  22  43  70  98 139 182 222 283 353 417
#     4  10  20  40  68 101 128 179 233 278 337 412
#     4  12  27  46  68 104 141 183 224 297 355 402
#     4  11  22  41  71 103 128 181 232 282 339 410
#     4  11  23  42  70  96 137 184 227 280 340 414
#
# _framework density 22.141545000000001
#
# number of rings (size 3 to 8) (size 9 to 14) (size 15 to 20)
#    0.000    1.000    3.750    6.000    1.750    1.000 
#    4.500    1.250    0.000    0.000    0.000    0.000 
#    0.000    0.000    0.000    0.000    0.000    0.000 
#
# Total GULP energy -89269.152148 kJ/mol
# GULP energy per Si atom -5579.322009 kJ/mol
# Density = 2.209115 g / cm^3
# Si number density = 22.141545 Si / 1000 Ang^3
#
#
#
# Elastic Constant Matrix: (Units=GPa)
#
#
# Indices 1 2 3 4 5 6 
#
# 1 72.9175 35.5133 -1.2779 24.0448 -3.5353 6.7386
# 2 35.5133 195.8799 16.5709 28.8690 4.6536 -12.5603
# 3 -1.2779 16.5709 34.9999 16.9734 1.2984 5.0121
# 4 24.0448 28.8690 16.9734 38.2892 -5.4688 -2.0159
# 5 -3.5353 4.6536 1.2984 -5.4688 29.9936 11.7948
# 6 6.7386 -12.5603 5.0121 -2.0159 11.7948 43.9915
#
#
#
# Elastic Compliance Matrix: (Units=1/GPa)
#
#
# Indices 1 2 3 4 5 6 
#
# 1 0.021316 -0.002893 0.010790 -0.016025 0.002184 -0.006640
# 2 -0.002893 0.006437 -0.002443 -0.002198 -0.002908 0.003238
# 3 0.010790 -0.002443 0.043355 -0.024803 -0.001604 -0.007996
# 4 -0.016025 -0.002198 -0.024803 0.050050 0.006618 0.005172
# 5 0.002184 -0.002908 -0.001604 0.006618 0.039787 -0.011346
# 6 -0.006640 0.003238 -0.007996 0.005172 -0.011346 0.028864
#
#
# Mechanical properties :
#
#
# Convention : Reuss Voigt Hill
#
# Bulk Modulus (GPa) = 12.19291 45.04555 28.61923
# Shear Modulus (GPa) = 24.24345 39.32095 31.78220
#
# Velocity S-wave (km/s) = 3.31256 4.21870 3.79279
# Velocity P-wave (km/s) = 4.48882 6.64217 5.66868
#
# Compressibility (1/GPa) = 0.08201488
#
# Stress axis : x y z
#
# Youngs Moduli (GPa) = 46.91246 155.34803 23.06543
#
# Poissons Ratio (x) = 0.44947 -0.24887
# Poissons Ratio (y) = 0.13573 0.05635
# Poissons Ratio (z) = -0.50617 0.37953
#
# Static dielectric constant tensor:
#      x y z
#    x 1.824300 -0.046390 0.050060 
#    y -0.046390 1.968960 -0.030370 
#    z 0.050060 -0.030370 1.894560 
# 
# From -- ./inp_files/207640.got.cif
#   From: 2010.05.17/outbox.cif.g08.bks.cpg/sg2_104_cif.got.tgz:207640.got - 2010.06.03 11:33:40.
