data_PCOD9108244
_publ_section_title
;
Structure prediction by ZEFSAII (Michael W. Deem and Ramdas Pophale) SiO2 
 PCOD9108244
Probable space group: P -1
;
_chemical_formula_sum "Si O2"
_cell_formula_units_Z 16
_cell_length_a 13.789992
_cell_length_b 16.636309
_cell_length_c 23.078843
_cell_angle_alpha 22.753640
_cell_angle_beta 158.958906
_cell_angle_gamma 147.139783
_cell_volume 727.028431
_symmetry_space_group_name_H-M "P -1"
_symmetry_group_IT_number 2
_symmetry_cell_setting 'triclinic'
loop_
_space_group_symop_operation_xyz
x,y,z
-x,-y,-z
loop_
_atom_site_type_symbol
_atom_site_label
_atom_site_fract_x
_atom_site_fract_y
_atom_site_fract_z
Si Si1 0.907772 0.901032 0.574557
Si Si2 0.697769 0.336212 0.181063
Si Si3 0.770847 0.465801 0.632732
Si Si4 0.495844 0.614448 0.782084
Si Si5 0.322432 0.526742 0.260862
Si Si6 0.048837 0.279432 0.641002
Si Si7 0.043386 0.146845 0.077733
Si Si8 0.642247 0.343515 0.933128
O O1 0.780968 0.689229 0.634744
O O2 0.147534 0.830823 0.800899
O O3 0.000000 0.000000 0.500000
O O4 0.693840 0.093066 0.352572
O O5 0.008621 0.380190 0.334143
O O6 0.500000 0.500000 0.000000
O O7 0.594816 0.405547 0.013363
O O8 0.500000 0.500000 0.500000
O O9 0.640933 0.496641 0.476385
O O10 0.936238 0.241164 0.893426
O O11 0.575043 0.538059 0.811694
O O12 0.665868 0.787470 0.787001
O O13 0.173868 0.694934 0.551407
O O14 0.264468 0.570041 0.132665
O O15 0.158335 0.719042 0.077410
O O16 0.369397 0.245155 0.830633
O O17 0.000000 0.500000 0.500000
O O18 0.973875 0.094049 0.762784
#
# Coordination Sequence:
#
# PCOD9108244 Si02
#       8
#     2   2   2   2   2   2   2   2
#     4  12  23  44  73  96 134 185 230 280 339 415
#     4  11  25  43  69 103 137 176 234 289 340 413
#     4   9  21  42  67  98 134 178 229 280 346 408
#     4  10  21  45  64  93 137 182 221 275 354 403
#     4  11  24  40  67 101 132 169 229 292 330 397
#     4  10  24  39  64  94 135 176 218 273 340 411
#     4  10  20  40  67  94 129 177 229 274 336 410
#     4  11  24  42  65 101 133 174 236 277 341 402
#
# _framework density 22.007391999999999
#
# number of rings (size 3 to 8) (size 9 to 14) (size 15 to 20)
#    0.000    1.500    2.500    2.250    7.000    1.500 
#    9.000    0.625    0.000    0.000    0.000    0.000 
#    0.000    0.000    0.000    0.000    0.000    0.000 
#
# Total GULP energy -89346.381451 kJ/mol
# GULP energy per Si atom -5584.148841 kJ/mol
# Density = 2.195730 g / cm^3
# Si number density = 22.007392 Si / 1000 Ang^3
#
#
#
# Elastic Constant Matrix: (Units=GPa)
#
#
# Indices 1 2 3 4 5 6 
#
# 1 69.8960 1.1649 23.3717 0.3108 -18.1718 -13.2762
# 2 1.1649 82.5851 73.6432 0.7744 -9.7536 4.6398
# 3 23.3717 73.6432 125.4086 3.7492 -23.2296 -8.7223
# 4 0.3108 0.7744 3.7492 59.0196 -3.8515 -2.2358
# 5 -18.1718 -9.7536 -23.2296 -3.8515 36.8751 -0.9805
# 6 -13.2762 4.6398 -8.7223 -2.2358 -0.9805 18.5769
#
#
#
# Elastic Compliance Matrix: (Units=1/GPa)
#
#
# Indices 1 2 3 4 5 6 
#
# 1 0.020038 0.002214 -0.002400 0.001135 0.009420 0.013274
# 2 0.002214 0.030397 -0.020079 0.000016 -0.003932 -0.015643
# 3 -0.002400 -0.020079 0.022736 -0.000088 0.008202 0.014397
# 4 0.001135 0.000016 -0.000088 0.017211 0.002385 0.002964
# 5 0.009420 -0.003932 0.008202 0.002385 0.036503 0.013779
# 6 0.013274 -0.015643 0.014397 0.002964 0.013779 0.075068
#
#
# Mechanical properties :
#
#
# Convention : Reuss Voigt Hill
#
# Bulk Modulus (GPa) = 30.63821 52.69436 41.66629
# Shear Modulus (GPa) = 19.73448 34.87499 27.30474
#
# Velocity S-wave (km/s) = 2.99778 3.98514 3.52619
# Velocity P-wave (km/s) = 5.09257 6.72094 5.96260
#
# Compressibility (1/GPa) = 0.03263898
#
# Stress axis : x y z
#
# Youngs Moduli (GPa) = 49.90538 32.89783 43.98374
#
# Poissons Ratio (x) = -0.07283 0.10557
# Poissons Ratio (y) = -0.11048 0.88317
# Poissons Ratio (z) = 0.11978 0.66057
#
# Static dielectric constant tensor:
#      x y z
#    x 1.908230 0.008260 0.014260 
#    y 0.008260 1.829220 0.044430 
#    z 0.014260 0.044430 1.831290 
# 
# From -- ./inp_files/612195.got.cif
#   From: 2010.05.17/outbox.cif.g08.bks.cpg/sg2_307_cif.got.tgz:612195.got - 2010.06.03 11:33:40.
