data_PCOD9108335
_publ_section_title
;
Structure prediction by ZEFSAII (Michael W. Deem and Ramdas Pophale) SiO2 
 PCOD9108335
Probable space group: P -1
;
_chemical_formula_sum "Si O2"
_cell_formula_units_Z 16
_cell_length_a 13.916960
_cell_length_b 15.220375
_cell_length_c 5.577477
_cell_angle_alpha 97.308159
_cell_angle_beta 106.443605
_cell_angle_gamma 35.552054
_cell_volume 647.479323
_symmetry_space_group_name_H-M "P -1"
_symmetry_group_IT_number 2
_symmetry_cell_setting 'triclinic'
loop_
_space_group_symop_operation_xyz
x,y,z
-x,-y,-z
loop_
_atom_site_type_symbol
_atom_site_label
_atom_site_fract_x
_atom_site_fract_y
_atom_site_fract_z
Si Si1 0.935471 0.118039 0.803219
Si Si2 0.726990 0.417898 0.042043
Si Si3 0.059488 0.501969 0.290315
Si Si4 0.035413 0.282773 0.398439
Si Si5 0.443695 0.182527 0.372393
Si Si6 0.382253 0.641143 0.648292
Si Si7 0.665268 0.921277 0.830257
Si Si8 0.226649 0.005227 0.696476
O O1 0.776902 0.199025 0.549940
O O2 0.110472 0.019622 0.757781
O O3 0.844628 0.273145 0.896283
O O4 0.000000 0.000000 0.000000
O O5 0.696698 0.372830 0.226721
O O6 0.845722 0.414654 0.195403
O O7 0.534421 0.583899 0.875133
O O8 0.979716 0.655525 0.339715
O O9 0.000000 0.500000 0.500000
O O10 0.266310 0.358285 0.370164
O O11 0.000000 0.500000 0.000000
O O12 0.178763 0.215444 0.293956
O O13 0.101121 0.136640 0.450038
O O14 0.401921 0.127065 0.153228
O O15 0.523154 0.076125 0.623863
O O16 0.588304 0.142485 0.350972
O O17 0.500000 0.500000 0.500000
O O18 0.729101 0.946829 0.072798
#
# Coordination Sequence:
#
# PCOD9108335 Si02
#       8
#     2   2   2   2   2   2   2   2
#     4  11  23  41  71 103 143 190 248 320 380 445
#     4  10  20  41  71  99 137 188 245 299 370 462
#     4  12  27  46  72 109 155 198 249 312 383 449
#     4  11  22  40  73 103 136 199 248 302 363 464
#     4  10  23  40  67 101 143 186 234 305 369 445
#     4   9  20  41  67  98 135 178 239 300 372 442
#     4  10  20  40  68 101 139 185 237 294 365 443
#     4  11  22  40  70 102 137 188 251 297 372 458
#
# _framework density 24.711216
#
# number of rings (size 3 to 8) (size 9 to 14) (size 15 to 20)
#    0.000    1.500    3.750    1.125    1.750    0.500 
#    0.000    5.000    2.750    0.000    0.000    0.000 
#    0.000    0.000    0.000    0.000    0.000    0.000 
#
# Total GULP energy -89450.595499 kJ/mol
# GULP energy per Si atom -5590.662219 kJ/mol
# Density = 2.465497 g / cm^3
# Si number density = 24.711216 Si / 1000 Ang^3
#
#
#
# Elastic Constant Matrix: (Units=GPa)
#
#
# Indices 1 2 3 4 5 6 
#
# 1 117.5121 58.2562 31.2398 -23.7536 -13.1846 -39.6159
# 2 58.2562 137.7123 51.5422 -12.2554 -4.2471 -38.4664
# 3 31.2398 51.5422 109.5929 -24.8979 12.8760 -17.5255
# 4 -23.7536 -12.2554 -24.8979 57.7030 -0.3228 2.2943
# 5 -13.1846 -4.2471 12.8760 -0.3228 38.5464 -4.1218
# 6 -39.6159 -38.4664 -17.5255 2.2943 -4.1218 46.6184
#
#
#
# Elastic Compliance Matrix: (Units=1/GPa)
#
#
# Indices 1 2 3 4 5 6 
#
# 1 0.015493 -0.002357 -0.001186 0.004961 0.006666 0.011121
# 2 -0.002357 0.011609 -0.004215 -0.000557 0.002544 0.006244
# 3 -0.001186 -0.004215 0.012963 0.004192 -0.005195 -0.000278
# 4 0.004961 -0.000557 0.004192 0.020893 0.000878 0.004381
# 5 0.006666 0.002544 -0.005195 0.000878 0.031157 0.008523
# 6 0.011121 0.006244 -0.000278 0.004381 0.008523 0.036487
#
#
# Mechanical properties :
#
#
# Convention : Reuss Voigt Hill
#
# Bulk Modulus (GPa) = 40.73285 71.87707 56.30496
# Shear Modulus (GPa) = 32.82966 43.49218 38.16092
#
# Velocity S-wave (km/s) = 3.64886 4.19981 3.93399
# Velocity P-wave (km/s) = 5.85419 7.25726 6.59315
#
# Compressibility (1/GPa) = 0.02455021
#
# Stress axis : x y z
#
# Youngs Moduli (GPa) = 64.54465 86.13986 77.14087
#
# Poissons Ratio (x) = 0.20302 0.09147
# Poissons Ratio (y) = 0.15212 0.32514
# Poissons Ratio (z) = 0.07654 0.36308
#
# Static dielectric constant tensor:
#      x y z
#    x 2.046760 0.057940 0.034660 
#    y 0.057940 2.015260 0.013940 
#    z 0.034660 0.013940 2.064060 
# 
# From -- ./inp_files/99846.got.cif
#   From: 2010.05.17/outbox.cif.g08.bks.cpg/sg2_50_cif.got.tgz:99846.got - 2010.06.03 11:33:40.
