data_PCOD9108009
_publ_section_title
;
Structure prediction by ZEFSAII (Michael W. Deem and Ramdas Pophale) SiO2 
 PCOD9108009
Probable space group: P -1
;
_chemical_formula_sum "Si O2"
_cell_formula_units_Z 12
_cell_length_a 14.760201
_cell_length_b 17.123933
_cell_length_c 7.359845
_cell_angle_alpha 137.500430
_cell_angle_beta 146.541071
_cell_angle_gamma 33.058053
_cell_volume 554.962729
_symmetry_space_group_name_H-M "P -1"
_symmetry_group_IT_number 2
_symmetry_cell_setting 'triclinic'
loop_
_space_group_symop_operation_xyz
x,y,z
-x,-y,-z
loop_
_atom_site_type_symbol
_atom_site_label
_atom_site_fract_x
_atom_site_fract_y
_atom_site_fract_z
Si Si1 0.238633 0.538756 0.449220
Si Si2 0.171701 0.006108 0.203891
Si Si3 0.482737 0.750515 0.701173
Si Si4 0.432861 0.690278 0.155394
Si Si5 0.309818 0.020676 0.110841
Si Si6 0.218465 0.193405 0.886428
O O1 0.343287 0.418841 0.258476
O O2 0.332486 0.440812 0.623991
O O3 0.997008 0.649021 0.219233
O O4 0.329466 0.629812 0.770580
O O5 0.367096 0.838585 0.214704
O O6 0.135396 0.074526 0.062322
O O7 0.214190 0.090362 0.559564
O O8 0.000000 0.000000 0.000000
O O9 0.348036 0.739126 0.306089
O O10 0.370091 0.870338 0.869767
O O11 0.602227 0.798557 0.867604
O O12 0.500000 0.000000 0.500000
O O13 0.247950 0.127316 0.021306
#
# Coordination Sequence:
#
# PCOD9108009 Si02
#       6
#     2   2   2   2   2   2
#     4   9  20  38  67  94 127 176 204 262 328 382
#     4  12  24  42  68  95 129 169 219 274 316 380
#     4  10  20  40  66  94 129 170 211 261 322 383
#     4   9  19  40  65  90 131 171 208 257 331 375
#     4  12  25  41  66  98 129 172 217 267 324 376
#     4  12  21  41  68  97 130 166 219 266 319 381
#
# _framework density 21.623070999999999
#
# number of rings (size 3 to 8) (size 9 to 14) (size 15 to 20)
#    1.000    0.333    5.000    2.000    0.000    0.667 
#    0.000    3.333    0.000    0.000    0.000    0.000 
#    0.000    0.000    0.000    0.000    0.000    0.000 
#
# Total GULP energy -66847.366415 kJ/mol
# GULP energy per Si atom -5570.613868 kJ/mol
# Density = 2.157386 g / cm^3
# Si number density = 21.623071 Si / 1000 Ang^3
#
#
#
# Elastic Constant Matrix: (Units=GPa)
#
#
# Indices 1 2 3 4 5 6 
#
# 1 105.9362 19.7330 42.7753 -1.8470 -14.8028 0.9467
# 2 19.7330 109.5267 26.9123 -1.0456 -5.9308 -1.4643
# 3 42.7753 26.9123 80.0097 21.9130 -13.6536 0.6367
# 4 -1.8470 -1.0456 21.9130 40.8275 10.3194 12.4936
# 5 -14.8028 -5.9308 -13.6536 10.3194 27.0861 -4.5094
# 6 0.9467 -1.4643 0.6367 12.4936 -4.5094 17.4105
#
#
#
# Elastic Compliance Matrix: (Units=1/GPa)
#
#
# Indices 1 2 3 4 5 6 
#
# 1 0.013288 -0.000147 -0.009626 0.008370 -0.001960 -0.006897
# 2 -0.000147 0.010249 -0.004966 0.004378 -0.002462 -0.002728
# 3 -0.009626 -0.004966 0.034390 -0.036939 0.030601 0.033281
# 4 0.008370 0.004378 -0.036939 0.080577 -0.055600 -0.070958
# 5 -0.001960 -0.002462 0.030601 -0.055600 0.081888 0.059887
# 6 -0.006897 -0.002728 0.033281 -0.070958 0.059887 0.122795
#
#
# Mechanical properties :
#
#
# Convention : Reuss Voigt Hill
#
# Bulk Modulus (GPa) = 35.15336 52.70152 43.92744
# Shear Modulus (GPa) = 13.08395 30.80162 21.94278
#
# Velocity S-wave (km/s) = 2.46253 3.77832 3.18903
# Velocity P-wave (km/s) = 4.93741 6.59242 5.82400
#
# Compressibility (1/GPa) = 0.02844678
#
# Stress axis : x y z
#
# Youngs Moduli (GPa) = 75.25739 97.57040 29.07852
#
# Poissons Ratio (x) = 0.01435 0.27992
# Poissons Ratio (y) = 0.01107 0.14441
# Poissons Ratio (z) = 0.72446 0.48457
#
# Static dielectric constant tensor:
#      x y z
#    x 1.794670 -0.017930 0.032170 
#    y -0.017930 1.899310 -0.005530 
#    z 0.032170 -0.005530 1.853790 
# 
# From -- ./inp_files/99283.got.cif
#   From: 2010.05.17/outbox.cif.g08.bks.cpg/sg2_50_cif.got.tgz:99283.got - 2010.06.03 11:33:40.
