data_PCOD9108478
_publ_section_title
;
Structure prediction by ZEFSAII (Michael W. Deem and Ramdas Pophale) SiO2 
 PCOD9108478
Probable space group: P -1
;
_chemical_formula_sum "Si O2"
_cell_formula_units_Z 14
_cell_length_a 9.110572
_cell_length_b 11.810315
_cell_length_c 12.551413
_cell_angle_alpha 144.002628
_cell_angle_beta 129.988214
_cell_angle_gamma 46.361389
_cell_volume 563.056650
_symmetry_space_group_name_H-M "P -1"
_symmetry_group_IT_number 2
_symmetry_cell_setting 'triclinic'
loop_
_space_group_symop_operation_xyz
x,y,z
-x,-y,-z
loop_
_atom_site_type_symbol
_atom_site_label
_atom_site_fract_x
_atom_site_fract_y
_atom_site_fract_z
Si Si1 0.209862 0.622033 0.609170
Si Si2 0.352506 0.964038 0.543612
Si Si3 0.187696 0.170034 0.287927
Si Si4 0.513554 0.480523 0.823600
Si Si5 0.204093 0.185270 0.076694
Si Si6 0.792754 0.576722 0.189921
Si Si7 0.327591 0.872464 0.706408
O O1 0.191590 0.399146 0.439845
O O2 0.408549 0.595904 0.755195
O O3 0.257157 0.687254 0.565729
O O4 0.003417 0.786023 0.690226
O O5 0.216070 0.193576 0.616448
O O6 0.589691 0.954299 0.651042
O O7 0.360954 0.763710 0.328706
O O8 0.293695 0.934246 0.614849
O O9 0.169312 0.087566 0.099079
O O10 0.323614 0.490738 0.819807
O O11 0.655752 0.579781 0.024512
O O12 0.430876 0.188776 0.201500
O O13 0.017670 0.405552 0.148254
O O14 0.211028 0.054427 0.874489
#
# Coordination Sequence:
#
# PCOD9108478 Si02
#       7
#     2   2   2   2   2   2   2
#     4  10  20  40  68  98 125 162 221 274 316 386
#     4  10  23  44  66  96 135 171 212 272 326 390
#     4   9  20  39  69  95 120 169 218 271 326 360
#     4  10  23  40  68 101 125 174 221 271 322 384
#     4  10  22  42  63  95 130 172 217 261 324 388
#     4  11  23  43  67  95 133 174 219 268 324 387
#     4  10  24  42  66  97 130 169 215 268 332 379
#
# _framework density 24.864283
#
# number of rings (size 3 to 8) (size 9 to 14) (size 15 to 20)
#    0.000    2.000    1.429    0.429    6.000    8.571 
#    2.571    0.714    0.000    0.000    0.000    0.000 
#    0.000    0.000    0.000    0.000    0.000    0.000 
#
# Total GULP energy -78469.754860 kJ/mol
# GULP energy per Si atom -5604.982490 kJ/mol
# Density = 2.480769 g / cm^3
# Si number density = 24.864283 Si / 1000 Ang^3
#
#
#
# Elastic Constant Matrix: (Units=GPa)
#
#
# Indices 1 2 3 4 5 6 
#
# 1 93.1188 36.5771 16.6551 10.5764 -12.9734 2.0938
# 2 36.5771 64.6746 19.9900 11.5929 4.0145 -21.3238
# 3 16.6551 19.9900 112.0163 8.9188 -16.8288 -17.8113
# 4 10.5764 11.5929 8.9188 39.9828 -4.6699 -14.9118
# 5 -12.9734 4.0145 -16.8288 -4.6699 33.1445 8.1842
# 6 2.0938 -21.3238 -17.8113 -14.9118 8.1842 29.1902
#
#
#
# Elastic Compliance Matrix: (Units=1/GPa)
#
#
# Indices 1 2 3 4 5 6 
#
# 1 0.022709 -0.020739 -0.000700 -0.007480 0.016313 -0.025601
# 2 -0.020739 0.041350 -0.001871 0.006209 -0.023130 0.040209
# 3 -0.000700 -0.001871 0.010654 0.000418 0.004393 0.004166
# 4 -0.007480 0.006209 0.000418 0.033388 -0.004610 0.023676
# 5 0.016313 -0.023130 0.004393 -0.004610 0.048690 -0.031393
# 6 -0.025601 0.040209 0.004166 0.023676 -0.031393 0.088907
#
#
# Mechanical properties :
#
#
# Convention : Reuss Voigt Hill
#
# Bulk Modulus (GPa) = 35.59744 46.25047 40.92395
# Shear Modulus (GPa) = 16.57370 33.56932 25.07151
#
# Velocity S-wave (km/s) = 2.58460 3.67836 3.17887
# Velocity P-wave (km/s) = 4.82230 6.05657 5.47433
#
# Compressibility (1/GPa) = 0.02809191
#
# Stress axis : x y z
#
# Youngs Moduli (GPa) = 44.03615 24.18385 93.85832
#
# Poissons Ratio (x) = 0.50156 0.06568
# Poissons Ratio (y) = 0.91329 0.17564
# Poissons Ratio (z) = 0.03081 0.04526
#
# Static dielectric constant tensor:
#      x y z
#    x 1.933530 -0.009940 -0.000590 
#    y -0.009940 1.956200 -0.010130 
#    z -0.000590 -0.010130 2.010100 
# 
# From -- ./inp_files/186604.got.cif
#   From: 2010.05.17/outbox.cif.g08.bks.cpg/sg2_94_cif.got.tgz:186604.got - 2010.06.03 11:33:40.
