data_PCOD9108179
_publ_section_title
;
Structure prediction by ZEFSAII (Michael W. Deem and Ramdas Pophale) SiO2 
 PCOD9108179
Probable space group: P -1
;
_chemical_formula_sum "Si O2"
_cell_formula_units_Z 12
_cell_length_a 8.235125
_cell_length_b 15.130909
_cell_length_c 6.916353
_cell_angle_alpha 108.111187
_cell_angle_beta 99.609557
_cell_angle_gamma 133.597542
_cell_volume 493.868427
_symmetry_space_group_name_H-M "P -1"
_symmetry_group_IT_number 2
_symmetry_cell_setting 'triclinic'
loop_
_space_group_symop_operation_xyz
x,y,z
-x,-y,-z
loop_
_atom_site_type_symbol
_atom_site_label
_atom_site_fract_x
_atom_site_fract_y
_atom_site_fract_z
Si Si1 0.935834 0.670137 0.221862
Si Si2 0.216107 0.966183 0.939099
Si Si3 0.658020 0.154019 0.869378
Si Si4 0.491409 0.444232 0.665464
Si Si5 0.386670 0.228466 0.290003
Si Si6 0.819642 0.426395 0.222597
O O1 0.794989 0.664580 0.362084
O O2 0.924883 0.558571 0.210677
O O3 0.230119 0.825183 0.303559
O O4 0.726510 0.586121 0.945567
O O5 0.916878 0.871447 0.822648
O O6 0.351180 0.027822 0.795547
O O7 0.233390 0.873369 0.974740
O O8 0.387679 0.117272 0.206125
O O9 0.792264 0.314587 0.042520
O O10 0.500000 0.500000 0.500000
O O11 0.530926 0.351791 0.570003
O O12 0.523476 0.318249 0.175662
O O13 0.000000 0.500000 0.500000
#
# Coordination Sequence:
#
# PCOD9108179 Si02
#       6
#     2   2   2   2   2   2
#     4  11  24  39  68 103 128 165 217 269 337 389
#     4   9  21  39  68  89 128 186 213 261 321 374
#     4  10  21  40  62  93 135 167 216 268 316 388
#     4  11  22  40  68 102 129 165 211 278 334 382
#     4  10  20  40  67  90 127 176 218 259 325 383
#     4  11  23  39  69 100 129 170 210 277 336 375
#
# _framework density 24.297968999999998
#
# number of rings (size 3 to 8) (size 9 to 14) (size 15 to 20)
#    0.000    1.667    1.667    2.500    4.667    0.000 
#    0.000    1.667    0.000    0.000    0.000    0.000 
#    0.000    0.000    0.000    0.000    0.000    0.000 
#
# Total GULP energy -67106.253890 kJ/mol
# GULP energy per Si atom -5592.187824 kJ/mol
# Density = 2.424267 g / cm^3
# Si number density = 24.297969 Si / 1000 Ang^3
#
#
#
# Elastic Constant Matrix: (Units=GPa)
#
#
# Indices 1 2 3 4 5 6 
#
# 1 126.6978 60.4476 29.0590 -16.0375 -31.8680 19.6395
# 2 60.4476 145.3353 33.3223 -30.3575 -14.0174 37.4561
# 3 29.0590 33.3223 75.8540 -14.9519 -16.2192 -0.8713
# 4 -16.0375 -30.3575 -14.9519 37.0096 -0.5449 -13.5911
# 5 -31.8680 -14.0174 -16.2192 -0.5449 48.5924 -4.7605
# 6 19.6395 37.4561 -0.8713 -13.5911 -4.7605 63.4801
#
#
#
# Elastic Compliance Matrix: (Units=1/GPa)
#
#
# Indices 1 2 3 4 5 6 
#
# 1 0.011718 -0.003437 -0.001377 0.001486 0.006168 -0.000835
# 2 -0.003437 0.011068 -0.002720 0.004834 -0.000356 -0.004496
# 3 -0.001377 -0.002720 0.016971 0.005477 0.004407 0.003767
# 4 0.001486 0.004834 0.005477 0.035672 0.005065 0.004780
# 5 0.006168 -0.000356 0.004407 0.005065 0.026188 0.001410
# 6 -0.000835 -0.004496 0.003767 0.004780 0.001410 0.019845
#
#
# Mechanical properties :
#
#
# Convention : Reuss Voigt Hill
#
# Bulk Modulus (GPa) = 40.50543 65.94942 53.22743
# Shear Modulus (GPa) = 34.54004 44.82031 39.68017
#
# Velocity S-wave (km/s) = 3.77439 4.29955 4.04550
# Velocity P-wave (km/s) = 5.97505 7.20063 6.61628
#
# Compressibility (1/GPa) = 0.02468805
#
# Stress axis : x y z
#
# Youngs Moduli (GPa) = 85.34178 90.34896 58.92482
#
# Poissons Ratio (x) = 0.31056 0.08112
# Poissons Ratio (y) = 0.29335 0.16029
# Poissons Ratio (z) = 0.11748 0.24578
#
# Static dielectric constant tensor:
#      x y z
#    x 1.967610 0.048640 -0.038500 
#    y 0.048640 1.971190 0.062850 
#    z -0.038500 0.062850 1.949180 
# 
# From -- ./inp_files/26918.got.cif
#   From: 2010.05.17/outbox.cif.g08.bks.cpg/sg2_14_cif.got.tgz:26918.got - 2010.06.03 11:33:40.
