data_PCOD9108599
_publ_section_title
;
Structure prediction by ZEFSAII (Michael W. Deem and Ramdas Pophale) SiO2 
 PCOD9108599
Probable space group: P -1
;
_chemical_formula_sum "Si O2"
_cell_formula_units_Z 16
_cell_length_a 17.077943
_cell_length_b 11.667256
_cell_length_c 8.828455
_cell_angle_alpha 83.984947
_cell_angle_beta 135.815341
_cell_angle_gamma 129.076059
_cell_volume 729.933778
_symmetry_space_group_name_H-M "P -1"
_symmetry_group_IT_number 2
_symmetry_cell_setting 'triclinic'
loop_
_space_group_symop_operation_xyz
x,y,z
-x,-y,-z
loop_
_atom_site_type_symbol
_atom_site_label
_atom_site_fract_x
_atom_site_fract_y
_atom_site_fract_z
Si Si1 0.881726 0.187038 0.638451
Si Si2 0.526393 0.284085 0.388445
Si Si3 0.954597 0.843760 0.371663
Si Si4 0.081965 0.443476 0.148916
Si Si5 0.149509 0.843687 0.858297
Si Si6 0.530600 0.510616 0.720163
Si Si7 0.306323 0.799617 0.838747
Si Si8 0.505777 0.773999 0.287453
O O1 0.848697 0.278415 0.484154
O O2 0.916233 0.104908 0.589632
O O3 0.692063 0.003410 0.492742
O O4 0.052014 0.344662 0.968116
O O5 0.699116 0.362268 0.538507
O O6 0.550459 0.435225 0.343763
O O7 0.542789 0.275404 0.594290
O O8 0.319155 0.072194 0.088623
O O9 0.984863 0.769411 0.546977
O O10 0.748901 0.685505 0.039725
O O11 0.000000 0.000000 0.500000
O O12 0.950587 0.279453 0.113704
O O13 0.000000 0.500000 0.000000
O O14 0.248476 0.822936 0.905143
O O15 0.500000 0.500000 0.500000
O O16 0.452424 0.323379 0.689246
O O17 0.348110 0.705510 0.972447
O O18 0.500000 0.000000 0.000000
#
# Coordination Sequence:
#
# PCOD9108599 Si02
#       8
#     2   2   2   2   2   2   2   2
#     4  10  22  42  66 101 140 183 236 288 357 415
#     4  11  23  43  68  98 141 175 234 285 349 411
#     4  11  23  45  70  99 144 185 237 291 347 419
#     4  12  27  43  71 109 138 185 238 291 353 430
#     4  11  24  45  69 103 138 184 227 295 349 415
#     4  10  22  42  67  99 135 182 238 287 340 421
#     4   9  21  39  69  94 131 184 227 281 358 411
#     4  10  20  40  69  97 133 186 225 292 353 409
#
# _framework density 21.919798
#
# number of rings (size 3 to 8) (size 9 to 14) (size 15 to 20)
#    0.000    1.500    2.500    2.250    3.500    3.000 
#    4.500    6.875    0.000    0.000    0.000    0.000 
#    0.000    0.000    0.000    0.000    0.000    0.000 
#
# Total GULP energy -89247.443386 kJ/mol
# GULP energy per Si atom -5577.965212 kJ/mol
# Density = 2.186991 g / cm^3
# Si number density = 21.919798 Si / 1000 Ang^3
#
#
#
# Elastic Constant Matrix: (Units=GPa)
#
#
# Indices 1 2 3 4 5 6 
#
# 1 67.8908 18.2401 19.0469 -17.1254 0.3511 -2.3021
# 2 18.2401 87.6081 36.1055 -25.7816 -4.8075 -21.3517
# 3 19.0469 36.1055 114.6076 -10.9301 7.3993 4.7204
# 4 -17.1254 -25.7816 -10.9301 32.5246 -9.4045 9.6158
# 5 0.3511 -4.8075 7.3993 -9.4045 32.1506 -8.6821
# 6 -2.3021 -21.3517 4.7204 9.6158 -8.6821 16.8893
#
#
#
# Elastic Compliance Matrix: (Units=1/GPa)
#
#
# Indices 1 2 3 4 5 6 
#
# 1 0.017748 -0.000107 -0.002119 0.009715 0.002790 -0.001222
# 2 -0.000107 0.038271 -0.014769 0.016685 0.029743 0.058286
# 3 -0.002119 -0.014769 0.015550 -0.003245 -0.014524 -0.028924
# 4 0.009715 0.016685 -0.003245 0.052625 0.019435 0.003354
# 5 0.002790 0.029743 -0.014524 0.019435 0.061443 0.062561
# 6 -0.001222 0.058286 -0.028924 0.003354 0.062561 0.171062
#
#
# Mechanical properties :
#
#
# Convention : Reuss Voigt Hill
#
# Bulk Modulus (GPa) = 26.61083 46.32128 36.46606
# Shear Modulus (GPa) = 12.40034 29.42718 20.91376
#
# Velocity S-wave (km/s) = 2.38106 3.66798 3.09221
# Velocity P-wave (km/s) = 4.44136 6.25434 5.42414
#
# Compressibility (1/GPa) = 0.03757869
#
# Stress axis : x y z
#
# Youngs Moduli (GPa) = 56.34523 26.12944 64.30997
#
# Poissons Ratio (x) = 0.00281 0.13627
# Poissons Ratio (y) = 0.00605 0.94976
# Poissons Ratio (z) = 0.11939 0.38589
#
# Static dielectric constant tensor:
#      x y z
#    x 1.810430 -0.043870 -0.043410 
#    y -0.043870 1.777790 -0.005350 
#    z -0.043410 -0.005350 1.816220 
# 
# From -- ./inp_files/333311.got.cif
#   From: 2010.05.17/outbox.cif.g08.bks.cpg/sg2_167_cif.got.tgz:333311.got - 2010.06.03 11:33:40.
