data_PCOD9108557
_publ_section_title
;
Structure prediction by ZEFSAII (Michael W. Deem and Ramdas Pophale) SiO2 
 PCOD9108557
Probable space group: P -1
;
_chemical_formula_sum "Si O2"
_cell_formula_units_Z 12
_cell_length_a 10.991912
_cell_length_b 8.559731
_cell_length_c 8.306652
_cell_angle_alpha 61.973658
_cell_angle_beta 66.243203
_cell_angle_gamma 46.939908
_cell_volume 499.974820
_symmetry_space_group_name_H-M "P -1"
_symmetry_group_IT_number 2
_symmetry_cell_setting 'triclinic'
loop_
_space_group_symop_operation_xyz
x,y,z
-x,-y,-z
loop_
_atom_site_type_symbol
_atom_site_label
_atom_site_fract_x
_atom_site_fract_y
_atom_site_fract_z
Si Si1 0.326136 0.181400 0.236543
Si Si2 0.436066 0.803990 0.105948
Si Si3 0.960915 0.551194 0.184754
Si Si4 0.821153 0.052601 0.055301
Si Si5 0.628322 0.191379 0.413466
Si Si6 0.304302 0.528995 0.592405
O O1 0.143056 0.412534 0.235553
O O2 0.344868 0.035370 0.141655
O O3 0.352278 0.029477 0.445267
O O4 0.468509 0.204932 0.101645
O O5 0.582821 0.621639 0.237565
O O6 0.286897 0.807369 0.111503
O O7 0.856466 0.463266 0.334578
O O8 0.856909 0.813060 0.143546
O O9 0.000000 0.500000 0.000000
O O10 0.712772 0.176126 0.211177
O O11 0.000000 0.000000 0.000000
O O12 0.431909 0.391242 0.445231
O O13 0.719556 0.243564 0.473208
#
# Coordination Sequence:
#
# PCOD9108557 Si02
#       6
#     2   2   2   2   2   2
#     4  10  21  40  69  96 121 170 213 257 309 382
#     4  10  20  40  69  91 124 172 213 248 318 382
#     4  12  21  40  70  94 126 169 217 253 310 383
#     4  12  26  42  63  96 131 165 210 272 315 368
#     4  10  24  43  61 100 131 159 213 263 323 363
#     4  10  22  44  69  93 124 175 209 257 312 383
#
# _framework density 24.001207999999998
#
# number of rings (size 3 to 8) (size 9 to 14) (size 15 to 20)
#    0.000    1.333    3.333    3.000    0.000    4.667 
#    6.000    0.000    0.000    0.000    0.000    0.000 
#    0.000    0.000    0.000    0.000    0.000    0.000 
#
# Total GULP energy -67103.801286 kJ/mol
# GULP energy per Si atom -5591.983440 kJ/mol
# Density = 2.394658 g / cm^3
# Si number density = 24.001208 Si / 1000 Ang^3
#
#
#
# Elastic Constant Matrix: (Units=GPa)
#
#
# Indices 1 2 3 4 5 6 
#
# 1 104.8017 6.8833 20.0507 9.6820 -15.3244 -23.9242
# 2 6.8833 86.1526 19.1230 8.9101 6.6320 -7.1600
# 3 20.0507 19.1230 73.8129 20.3196 -11.8807 -11.9732
# 4 9.6820 8.9101 20.3196 51.7144 -5.3927 -1.6030
# 5 -15.3244 6.6320 -11.8807 -5.3927 37.2357 -0.2074
# 6 -23.9242 -7.1600 -11.9732 -1.6030 -0.2074 30.5749
#
#
#
# Elastic Compliance Matrix: (Units=1/GPa)
#
#
# Indices 1 2 3 4 5 6 
#
# 1 0.012718 -0.000321 -0.000678 -0.001246 0.004948 0.009579
# 2 -0.000321 0.012881 -0.003277 -0.001208 -0.003639 0.001394
# 3 -0.000678 -0.003277 0.017846 -0.005608 0.005217 0.005432
# 4 -0.001246 -0.001208 -0.005608 0.022024 0.001090 -0.002292
# 5 0.004948 -0.003639 0.005217 0.001090 0.031392 0.005332
# 6 0.009579 0.001394 0.005432 -0.002292 0.005332 0.042571
#
#
# Mechanical properties :
#
#
# Convention : Reuss Voigt Hill
#
# Bulk Modulus (GPa) = 28.66042 39.65346 34.15694
# Shear Modulus (GPa) = 31.32496 38.48566 34.90531
#
# Velocity S-wave (km/s) = 3.61659 4.00870 3.81768
# Velocity P-wave (km/s) = 5.42281 6.16308 5.80476
#
# Compressibility (1/GPa) = 0.03489133
#
# Stress axis : x y z
#
# Youngs Moduli (GPa) = 78.62857 77.63184 56.03652
#
# Poissons Ratio (x) = 0.02496 0.03800
# Poissons Ratio (y) = 0.02528 0.18364
# Poissons Ratio (z) = 0.05332 0.25441
#
# Static dielectric constant tensor:
#      x y z
#    x 1.923100 0.034990 0.000590 
#    y 0.034990 1.906150 -0.068640 
#    z 0.000590 -0.068640 1.985910 
# 
# From -- ./inp_files/159501.got.cif
#   From: 2010.05.17/outbox.cif.g08.bks.cpg/sg2_80_cif.got.tgz:159501.got - 2010.06.03 11:33:40.
