data_PCOD9108146
_publ_section_title
;
Structure prediction by ZEFSAII (Michael W. Deem and Ramdas Pophale) SiO2 
 PCOD9108146
Probable space group: P -1
;
_chemical_formula_sum "Si O2"
_cell_formula_units_Z 16
_cell_length_a 12.038314
_cell_length_b 18.149943
_cell_length_c 9.354021
_cell_angle_alpha 65.172631
_cell_angle_beta 95.619184
_cell_angle_gamma 38.908876
_cell_volume 777.217552
_symmetry_space_group_name_H-M "P -1"
_symmetry_group_IT_number 2
_symmetry_cell_setting 'triclinic'
loop_
_space_group_symop_operation_xyz
x,y,z
-x,-y,-z
loop_
_atom_site_type_symbol
_atom_site_label
_atom_site_fract_x
_atom_site_fract_y
_atom_site_fract_z
Si Si1 0.978948 0.543321 0.125745
Si Si2 0.018476 0.708008 0.960365
Si Si3 0.148030 0.924286 0.224157
Si Si4 0.522821 0.454943 0.377021
Si Si5 0.431348 0.841902 0.767331
Si Si6 0.223720 0.812424 0.781121
Si Si7 0.468739 0.857332 0.420254
Si Si8 0.141279 0.709832 0.684373
O O1 0.217255 0.340651 0.402886
O O2 0.029738 0.606028 0.082747
O O3 0.000000 0.500000 0.000000
O O4 0.675041 0.723211 0.974920
O O5 0.077101 0.685036 0.817306
O O6 0.241885 0.610095 0.154394
O O7 0.729491 0.935695 0.776367
O O8 0.292202 0.747641 0.439973
O O9 0.356539 0.860252 0.302923
O O10 0.921721 0.103736 0.157077
O O11 0.000000 0.000000 0.000000
O O12 0.500000 0.500000 0.500000
O O13 0.665092 0.427628 0.314510
O O14 0.438204 0.741247 0.878566
O O15 0.445665 0.842801 0.595541
O O16 0.146817 0.068154 0.586869
O O17 0.273802 0.696477 0.801284
O O18 0.000000 0.000000 0.500000
#
# Coordination Sequence:
#
# PCOD9108146 Si02
#       8
#     2   2   2   2   2   2   2   2
#     4  10  22  35  60  95 126 166 207 257 309 361
#     4  11  22  39  64  92 126 164 209 257 307 381
#     4  12  21  36  62  92 126 165 202 259 324 376
#     4  12  24  38  57  97 130 162 204 261 326 382
#     4   9  17  33  61  89 119 162 204 249 309 363
#     4  10  16  35  64  88 120 162 197 261 320 363
#     4  10  19  38  57  88 125 158 206 254 307 357
#     4  10  20  36  63  89 129 157 206 263 322 364
#
# _framework density 20.586257
#
# number of rings (size 3 to 8) (size 9 to 14) (size 15 to 20)
#    0.000    1.500    7.500    1.125    1.750    4.500 
#    0.000    0.000    0.000    1.500    6.500    0.000 
#    0.000    0.000    0.000    0.000    0.000    0.000 
#
# Total GULP energy -89320.808968 kJ/mol
# GULP energy per Si atom -5582.550561 kJ/mol
# Density = 2.053940 g / cm^3
# Si number density = 20.586257 Si / 1000 Ang^3
#
#
#
# Elastic Constant Matrix: (Units=GPa)
#
#
# Indices 1 2 3 4 5 6 
#
# 1 61.9148 23.8969 29.4322 -17.3160 14.5355 -3.4768
# 2 23.8969 92.5365 49.9316 -9.3283 13.6017 1.5591
# 3 29.4322 49.9316 117.2980 -24.9369 21.8885 -1.3734
# 4 -17.3160 -9.3283 -24.9369 41.6291 3.8771 -1.8287
# 5 14.5355 13.6017 21.8885 3.8771 34.3989 -7.5242
# 6 -3.4768 1.5591 -1.3734 -1.8287 -7.5242 20.2834
#
#
#
# Elastic Compliance Matrix: (Units=1/GPa)
#
#
# Indices 1 2 3 4 5 6 
#
# 1 0.022315 -0.003275 -0.000732 0.008959 -0.008294 0.001758
# 2 -0.003275 0.014739 -0.005516 -0.001355 -0.001372 -0.002699
# 3 -0.000732 -0.005516 0.014044 0.007532 -0.007480 -0.000846
# 4 0.008959 -0.001355 0.007532 0.033072 -0.011588 0.000833
# 5 -0.008294 -0.001372 -0.007480 -0.011588 0.041961 0.012698
# 6 0.001758 -0.002699 -0.000846 0.000833 0.012698 0.054538
#
#
# Mechanical properties :
#
#
# Convention : Reuss Voigt Hill
#
# Bulk Modulus (GPa) = 31.19943 53.14120 42.17031
# Shear Modulus (GPa) = 23.76425 30.49488 27.12956
#
# Velocity S-wave (km/s) = 3.40129 3.85297 3.63416
# Velocity P-wave (km/s) = 5.53294 6.75750 6.17565
#
# Compressibility (1/GPa) = 0.03205187
#
# Stress axis : x y z
#
# Youngs Moduli (GPa) = 44.81325 67.84608 71.20386
#
# Poissons Ratio (x) = 0.22220 0.05213
# Poissons Ratio (y) = 0.14676 0.39276
# Poissons Ratio (z) = 0.03281 0.37424
#
# Static dielectric constant tensor:
#      x y z
#    x 1.767980 -0.004370 -0.010850 
#    y -0.004370 1.748180 -0.102280 
#    z -0.010850 -0.102280 1.770560 
# 
# From -- ./inp_files/277733.got.cif
#   From: 2010.05.17/outbox.cif.g08.bks.cpg/sg2_139_cif.got.tgz:277733.got - 2010.06.03 11:33:40.
